MODEL 1
REMARK VINA RESULT:    -1.104      0.000      0.000
REMARK INTER + INTRA:          -2.681
REMARK INTER:                  -2.072
REMARK INTRA:                  -0.609
REMARK UNBOUND:                -0.609
REMARK SMILES CCCCCCCCC=CCCCCCCCC(=O)[O-]
REMARK SMILES IDX 10 1 9 2 11 3 12 4 13 5 14 6 15 7 16 8 17 9 18 10 19 11
REMARK SMILES IDX 20 12 8 13 7 14 6 15 5 16 4 17 3 18 2 19 1 20
REMARK H PARENT
REMARK Flexibility Score: inf
ROOT
ATOM      1  C   UNL     1       2.831  46.457  50.018  1.00  0.00    -0.031 C 
ATOM      2  C   UNL     1       1.785  46.741  50.814  1.00  0.00    -0.031 C 
ENDROOT
BRANCH   1   3
ATOM      3  C   UNL     1       3.494  47.431  49.074  1.00  0.00     0.027 C 
BRANCH   3   4
ATOM      4  C   UNL     1       3.667  46.865  47.657  1.00  0.00     0.004 C 
BRANCH   4   5
ATOM      5  C   UNL     1       2.335  46.800  46.893  1.00  0.00     0.000 C 
BRANCH   5   6
ATOM      6  C   UNL     1       1.553  48.125  46.939  1.00  0.00     0.000 C 
BRANCH   6   7
ATOM      7  C   UNL     1       0.235  48.077  47.733  1.00  0.00     0.000 C 
BRANCH   7   8
ATOM      8  C   UNL     1      -0.735  46.996  47.224  1.00  0.00     0.006 C 
BRANCH   8   9
ATOM      9  C   UNL     1      -1.088  45.975  48.313  1.00  0.00     0.053 C 
BRANCH   9  10
ATOM     10  C   UNL     1      -0.382  44.671  48.101  1.00  0.00     0.041 C 
ATOM     11  O   UNL     1       0.818  44.655  47.717  1.00  0.00    -0.550 OA
ATOM     12  O   UNL     1      -1.039  43.476  48.359  1.00  0.00    -0.550 OA
ENDBRANCH   9  10
ENDBRANCH   8   9
ENDBRANCH   7   8
ENDBRANCH   6   7
ENDBRANCH   5   6
ENDBRANCH   4   5
ENDBRANCH   3   4
ENDBRANCH   1   3
BRANCH   2  13
ATOM     13  C   UNL     1       1.135  48.098  50.932  1.00  0.00     0.027 C 
BRANCH  13  14
ATOM     14  C   UNL     1      -0.364  47.978  51.250  1.00  0.00     0.004 C 
BRANCH  14  15
ATOM     15  C   UNL     1      -0.968  46.597  50.920  1.00  0.00     0.000 C 
BRANCH  15  16
ATOM     16  C   UNL     1      -1.123  45.644  52.124  1.00  0.00     0.000 C 
BRANCH  16  17
ATOM     17  C   UNL     1      -1.003  44.145  51.793  1.00  0.00    -0.000 C 
BRANCH  17  18
ATOM     18  C   UNL     1       0.439  43.623  51.906  1.00  0.00    -0.000 C 
BRANCH  18  19
ATOM     19  C   UNL     1       0.886  42.858  50.650  1.00  0.00    -0.003 C 
ATOM     20  C   UNL     1       2.358  43.089  50.305  1.00  0.00     0.004 C 
ENDBRANCH  18  19
ENDBRANCH  17  18
ENDBRANCH  16  17
ENDBRANCH  15  16
ENDBRANCH  14  15
ENDBRANCH  13  14
ENDBRANCH   2  13
TORSDOF 15
ENDMDL
MODEL 2
REMARK VINA RESULT:     0.875      1.493      3.078
REMARK INTER + INTRA:           1.032
REMARK INTER:                   1.114
REMARK INTRA:                  -0.082
REMARK UNBOUND:                -0.609
REMARK SMILES CCCCCCCCC=CCCCCCCCC(=O)[O-]
REMARK SMILES IDX 10 1 9 2 11 3 12 4 13 5 14 6 15 7 16 8 17 9 18 10 19 11
REMARK SMILES IDX 20 12 8 13 7 14 6 15 5 16 4 17 3 18 2 19 1 20
REMARK H PARENT
REMARK Flexibility Score: inf
ROOT
ATOM      1  C   UNL     1       3.112  47.045  47.490  1.00  0.00    -0.031 C 
ATOM      2  C   UNL     1       3.322  46.768  48.790  1.00  0.00    -0.031 C 
ENDROOT
BRANCH   1   3
ATOM      3  C   UNL     1       1.802  46.864  46.765  1.00  0.00     0.027 C 
BRANCH   3   4
ATOM      4  C   UNL     1       0.701  47.805  47.278  1.00  0.00     0.004 C 
BRANCH   4   5
ATOM      5  C   UNL     1      -0.649  47.088  47.430  1.00  0.00     0.000 C 
BRANCH   5   6
ATOM      6  C   UNL     1      -0.528  45.556  47.339  1.00  0.00     0.000 C 
BRANCH   6   7
ATOM      7  C   UNL     1      -0.624  44.813  48.683  1.00  0.00     0.000 C 
BRANCH   7   8
ATOM      8  C   UNL     1       0.115  43.462  48.677  1.00  0.00     0.006 C 
BRANCH   8   9
ATOM      9  C   UNL     1       1.637  43.635  48.577  1.00  0.00     0.053 C 
BRANCH   9  10
ATOM     10  C   UNL     1       2.337  43.082  49.781  1.00  0.00     0.041 C 
ATOM     11  O   UNL     1       2.614  41.855  49.844  1.00  0.00    -0.550 OA
ATOM     12  O   UNL     1       2.712  43.927  50.815  1.00  0.00    -0.550 OA
ENDBRANCH   9  10
ENDBRANCH   8   9
ENDBRANCH   7   8
ENDBRANCH   6   7
ENDBRANCH   5   6
ENDBRANCH   4   5
ENDBRANCH   3   4
ENDBRANCH   1   3
BRANCH   2  13
ATOM     13  C   UNL     1       2.265  46.277  49.749  1.00  0.00     0.027 C 
BRANCH  13  14
ATOM     14  C   UNL     1       2.116  47.220  50.954  1.00  0.00     0.004 C 
BRANCH  14  15
ATOM     15  C   UNL     1       0.867  48.123  50.894  1.00  0.00     0.000 C 
BRANCH  15  16
ATOM     16  C   UNL     1      -0.483  47.375  50.896  1.00  0.00     0.000 C 
BRANCH  16  17
ATOM     17  C   UNL     1      -0.731  46.471  52.117  1.00  0.00    -0.000 C 
BRANCH  17  18
ATOM     18  C   UNL     1      -0.026  45.109  52.003  1.00  0.00    -0.000 C 
BRANCH  18  19
ATOM     19  C   UNL     1      -1.005  43.930  52.125  1.00  0.00    -0.003 C 
ATOM     20  C   UNL     1      -0.353  42.580  51.826  1.00  0.00     0.004 C 
ENDBRANCH  18  19
ENDBRANCH  17  18
ENDBRANCH  16  17
ENDBRANCH  15  16
ENDBRANCH  14  15
ENDBRANCH  13  14
ENDBRANCH   2  13
TORSDOF 15
ENDMDL
MODEL 3
REMARK VINA RESULT:     1.008      2.564      5.715
REMARK INTER + INTRA:           1.282
REMARK INTER:                   2.208
REMARK INTRA:                  -0.926
REMARK UNBOUND:                -0.609
REMARK SMILES CCCCCCCCC=CCCCCCCCC(=O)[O-]
REMARK SMILES IDX 10 1 9 2 11 3 12 4 13 5 14 6 15 7 16 8 17 9 18 10 19 11
REMARK SMILES IDX 20 12 8 13 7 14 6 15 5 16 4 17 3 18 2 19 1 20
REMARK H PARENT
REMARK Flexibility Score: inf
ROOT
ATOM      1  C   UNL     1       0.037  44.471  48.370  1.00  0.00    -0.031 C 
ATOM      2  C   UNL     1      -0.035  45.667  47.759  1.00  0.00    -0.031 C 
ENDROOT
BRANCH   1   3
ATOM      3  C   UNL     1      -0.924  43.976  49.424  1.00  0.00     0.027 C 
BRANCH   3   4
ATOM      4  C   UNL     1      -0.704  44.640  50.791  1.00  0.00     0.004 C 
BRANCH   4   5
ATOM      5  C   UNL     1       0.052  43.722  51.765  1.00  0.00     0.000 C 
BRANCH   5   6
ATOM      6  C   UNL     1       0.852  42.618  51.050  1.00  0.00     0.000 C 
BRANCH   6   7
ATOM      7  C   UNL     1       2.252  43.036  50.565  1.00  0.00     0.000 C 
BRANCH   7   8
ATOM      8  C   UNL     1       3.147  41.836  50.208  1.00  0.00     0.006 C 
BRANCH   8   9
ATOM      9  C   UNL     1       4.582  42.011  50.721  1.00  0.00     0.053 C 
BRANCH   9  10
ATOM     10  C   UNL     1       5.557  41.195  49.929  1.00  0.00     0.041 C 
ATOM     11  O   UNL     1       6.770  41.150  50.269  1.00  0.00    -0.550 OA
ATOM     12  O   UNL     1       5.120  40.458  48.837  1.00  0.00    -0.550 OA
ENDBRANCH   9  10
ENDBRANCH   8   9
ENDBRANCH   7   8
ENDBRANCH   6   7
ENDBRANCH   5   6
ENDBRANCH   4   5
ENDBRANCH   3   4
ENDBRANCH   1   3
BRANCH   2  13
ATOM     13  C   UNL     1      -1.121  46.690  47.991  1.00  0.00     0.027 C 
BRANCH  13  14
ATOM     14  C   UNL     1      -1.018  47.313  49.393  1.00  0.00     0.004 C 
BRANCH  14  15
ATOM     15  C   UNL     1       0.279  48.114  49.631  1.00  0.00     0.000 C 
BRANCH  15  16
ATOM     16  C   UNL     1       1.362  47.379  50.449  1.00  0.00     0.000 C 
BRANCH  16  17
ATOM     17  C   UNL     1       2.735  47.260  49.762  1.00  0.00    -0.000 C 
BRANCH  17  18
ATOM     18  C   UNL     1       2.840  48.116  48.489  1.00  0.00    -0.000 C 
BRANCH  18  19
ATOM     19  C   UNL     1       3.415  47.330  47.299  1.00  0.00    -0.003 C 
ATOM     20  C   UNL     1       4.853  47.725  46.963  1.00  0.00     0.004 C 
ENDBRANCH  18  19
ENDBRANCH  17  18
ENDBRANCH  16  17
ENDBRANCH  15  16
ENDBRANCH  14  15
ENDBRANCH  13  14
ENDBRANCH   2  13
TORSDOF 15
ENDMDL
