MODEL 1
REMARK VINA RESULT:    -6.218      0.000      0.000
REMARK INTER + INTRA:          -6.218
REMARK INTER:                  -6.218
REMARK INTRA:                   0.000
REMARK UNBOUND:                 0.000
REMARK SMILES CC(C)=C1CC[C@@H](C)CC1=O
REMARK SMILES IDX 8 1 7 2 6 3 5 4 4 5 2 6 1 7 3 8 10 9 11 10 9 11
REMARK H PARENT
REMARK Flexibility Score: inf
ROOT
ATOM      1  C   UNL     1       0.029 -12.523  31.751  1.00  0.00     0.008 C 
ATOM      2  C   UNL     1      -0.975 -13.257  30.854  1.00  0.00    -0.006 C 
ATOM      3  C   UNL     1      -0.740 -12.902  29.377  1.00  0.00     0.008 C 
ATOM      4  C   UNL     1      -1.667 -13.705  28.455  1.00  0.00     0.039 C 
ATOM      5  C   UNL     1      -3.131 -13.589  28.858  1.00  0.00    -0.006 C 
ATOM      6  C   UNL     1      -4.130 -13.638  27.927  1.00  0.00    -0.070 C 
ATOM      7  C   UNL     1      -5.582 -13.469  28.307  1.00  0.00     0.039 C 
ATOM      8  C   UNL     1      -3.823 -13.828  26.459  1.00  0.00     0.039 C 
ATOM      9  C   UNL     1      -3.406 -13.539  30.325  1.00  0.00     0.159 C 
ATOM     10  O   UNL     1      -4.461 -14.029  30.811  1.00  0.00    -0.295 OA
ATOM     11  C   UNL     1      -2.415 -12.902  31.255  1.00  0.00     0.084 C 
ENDROOT
TORSDOF 0
ENDMDL
MODEL 2
REMARK VINA RESULT:    -6.126      1.081      4.043
REMARK INTER + INTRA:          -6.126
REMARK INTER:                  -6.126
REMARK INTRA:                   0.000
REMARK UNBOUND:                 0.000
REMARK SMILES CC(C)=C1CC[C@@H](C)CC1=O
REMARK SMILES IDX 8 1 7 2 6 3 5 4 4 5 2 6 1 7 3 8 10 9 11 10 9 11
REMARK H PARENT
REMARK Flexibility Score: inf
ROOT
ATOM      1  C   UNL     1      -6.528 -14.635  28.147  1.00  0.00     0.008 C 
ATOM      2  C   UNL     1      -5.254 -13.869  28.518  1.00  0.00    -0.006 C 
ATOM      3  C   UNL     1      -4.075 -14.324  27.644  1.00  0.00     0.008 C 
ATOM      4  C   UNL     1      -2.815 -13.497  27.929  1.00  0.00     0.039 C 
ATOM      5  C   UNL     1      -2.464 -13.462  29.410  1.00  0.00    -0.006 C 
ATOM      6  C   UNL     1      -1.167 -13.378  29.831  1.00  0.00    -0.070 C 
ATOM      7  C   UNL     1      -0.803 -13.399  31.298  1.00  0.00     0.039 C 
ATOM      8  C   UNL     1      -0.027 -13.298  28.842  1.00  0.00     0.039 C 
ATOM      9  C   UNL     1      -3.618 -13.405  30.357  1.00  0.00     0.159 C 
ATOM     10  O   UNL     1      -3.533 -12.799  31.458  1.00  0.00    -0.295 OA
ATOM     11  C   UNL     1      -4.915 -14.073  30.003  1.00  0.00     0.084 C 
ENDROOT
TORSDOF 0
ENDMDL
MODEL 3
REMARK VINA RESULT:    -6.119      1.590      2.420
REMARK INTER + INTRA:          -6.119
REMARK INTER:                  -6.119
REMARK INTRA:                   0.000
REMARK UNBOUND:                 0.000
REMARK SMILES CC(C)=C1CC[C@@H](C)CC1=O
REMARK SMILES IDX 8 1 7 2 6 3 5 4 4 5 2 6 1 7 3 8 10 9 11 10 9 11
REMARK H PARENT
REMARK Flexibility Score: inf
ROOT
ATOM      1  C   UNL     1      -0.559 -12.508  31.654  1.00  0.00     0.008 C 
ATOM      2  C   UNL     1      -1.788 -12.437  30.740  1.00  0.00    -0.006 C 
ATOM      3  C   UNL     1      -2.817 -13.508  31.135  1.00  0.00     0.008 C 
ATOM      4  C   UNL     1      -4.098 -13.386  30.299  1.00  0.00     0.039 C 
ATOM      5  C   UNL     1      -3.818 -13.368  28.802  1.00  0.00    -0.006 C 
ATOM      6  C   UNL     1      -4.706 -13.891  27.907  1.00  0.00    -0.070 C 
ATOM      7  C   UNL     1      -4.415 -13.930  26.424  1.00  0.00     0.039 C 
ATOM      8  C   UNL     1      -6.015 -14.495  28.364  1.00  0.00     0.039 C 
ATOM      9  C   UNL     1      -2.582 -12.645  28.375  1.00  0.00     0.159 C 
ATOM     10  O   UNL     1      -2.525 -12.045  27.269  1.00  0.00    -0.295 OA
ATOM     11  C   UNL     1      -1.378 -12.619  29.271  1.00  0.00     0.084 C 
ENDROOT
TORSDOF 0
ENDMDL
MODEL 4
REMARK VINA RESULT:    -5.971      1.993      3.835
REMARK INTER + INTRA:          -5.971
REMARK INTER:                  -5.971
REMARK INTRA:                   0.000
REMARK UNBOUND:                 0.000
REMARK SMILES CC(C)=C1CC[C@@H](C)CC1=O
REMARK SMILES IDX 8 1 7 2 6 3 5 4 4 5 2 6 1 7 3 8 10 9 11 10 9 11
REMARK H PARENT
REMARK Flexibility Score: inf
ROOT
ATOM      1  C   UNL     1      -3.008 -11.382  26.132  1.00  0.00     0.008 C 
ATOM      2  C   UNL     1      -3.095 -12.371  27.301  1.00  0.00    -0.006 C 
ATOM      3  C   UNL     1      -4.519 -12.935  27.426  1.00  0.00     0.008 C 
ATOM      4  C   UNL     1      -4.602 -14.003  28.524  1.00  0.00     0.039 C 
ATOM      5  C   UNL     1      -4.048 -13.514  29.856  1.00  0.00    -0.006 C 
ATOM      6  C   UNL     1      -4.554 -13.961  31.043  1.00  0.00    -0.070 C 
ATOM      7  C   UNL     1      -4.052 -13.441  32.370  1.00  0.00     0.039 C 
ATOM      8  C   UNL     1      -5.675 -14.975  31.084  1.00  0.00     0.039 C 
ATOM      9  C   UNL     1      -2.855 -12.619  29.781  1.00  0.00     0.159 C 
ATOM     10  O   UNL     1      -1.973 -12.627  30.681  1.00  0.00    -0.295 OA
ATOM     11  C   UNL     1      -2.684 -11.689  28.615  1.00  0.00     0.084 C 
ENDROOT
TORSDOF 0
ENDMDL
MODEL 5
REMARK VINA RESULT:    -5.671      2.283      4.620
REMARK INTER + INTRA:          -5.671
REMARK INTER:                  -5.671
REMARK INTRA:                   0.000
REMARK UNBOUND:                 0.000
REMARK SMILES CC(C)=C1CC[C@@H](C)CC1=O
REMARK SMILES IDX 8 1 7 2 6 3 5 4 4 5 2 6 1 7 3 8 10 9 11 10 9 11
REMARK H PARENT
REMARK Flexibility Score: inf
ROOT
ATOM      1  C   UNL     1      -7.372 -15.854  29.132  1.00  0.00     0.008 C 
ATOM      2  C   UNL     1      -5.994 -15.247  28.846  1.00  0.00    -0.006 C 
ATOM      3  C   UNL     1      -5.514 -14.409  30.042  1.00  0.00     0.008 C 
ATOM      4  C   UNL     1      -4.093 -13.877  29.816  1.00  0.00     0.039 C 
ATOM      5  C   UNL     1      -3.949 -13.140  28.492  1.00  0.00    -0.006 C 
ATOM      6  C   UNL     1      -3.080 -12.096  28.350  1.00  0.00    -0.070 C 
ATOM      7  C   UNL     1      -2.969 -11.321  27.058  1.00  0.00     0.039 C 
ATOM      8  C   UNL     1      -2.209 -11.642  29.499  1.00  0.00     0.039 C 
ATOM      9  C   UNL     1      -4.723 -13.699  27.343  1.00  0.00     0.159 C 
ATOM     10  O   UNL     1      -4.289 -13.622  26.162  1.00  0.00    -0.295 OA
ATOM     11  C   UNL     1      -6.042 -14.375  27.582  1.00  0.00     0.084 C 
ENDROOT
TORSDOF 0
ENDMDL
MODEL 6
REMARK VINA RESULT:    -5.584      2.319      3.962
REMARK INTER + INTRA:          -5.584
REMARK INTER:                  -5.584
REMARK INTRA:                   0.000
REMARK UNBOUND:                 0.000
REMARK SMILES CC(C)=C1CC[C@@H](C)CC1=O
REMARK SMILES IDX 8 1 7 2 6 3 5 4 4 5 2 6 1 7 3 8 10 9 11 10 9 11
REMARK H PARENT
REMARK Flexibility Score: inf
ROOT
ATOM      1  C   UNL     1      -2.951 -11.355  25.944  1.00  0.00     0.008 C 
ATOM      2  C   UNL     1      -3.721 -11.658  27.235  1.00  0.00    -0.006 C 
ATOM      3  C   UNL     1      -2.770 -11.662  28.442  1.00  0.00     0.008 C 
ATOM      4  C   UNL     1      -3.536 -11.862  29.756  1.00  0.00     0.039 C 
ATOM      5  C   UNL     1      -4.443 -13.085  29.722  1.00  0.00    -0.006 C 
ATOM      6  C   UNL     1      -4.699 -13.811  30.850  1.00  0.00    -0.070 C 
ATOM      7  C   UNL     1      -5.551 -15.058  30.818  1.00  0.00     0.039 C 
ATOM      8  C   UNL     1      -4.106 -13.420  32.184  1.00  0.00     0.039 C 
ATOM      9  C   UNL     1      -5.119 -13.364  28.420  1.00  0.00     0.159 C 
ATOM     10  O   UNL     1      -6.263 -13.890  28.375  1.00  0.00    -0.295 OA
ATOM     11  C   UNL     1      -4.439 -13.011  27.128  1.00  0.00     0.084 C 
ENDROOT
TORSDOF 0
ENDMDL
MODEL 7
REMARK VINA RESULT:    -5.571      1.812      4.354
REMARK INTER + INTRA:          -5.571
REMARK INTER:                  -5.571
REMARK INTRA:                   0.000
REMARK UNBOUND:                 0.000
REMARK SMILES CC(C)=C1CC[C@@H](C)CC1=O
REMARK SMILES IDX 8 1 7 2 6 3 5 4 4 5 2 6 1 7 3 8 10 9 11 10 9 11
REMARK H PARENT
REMARK Flexibility Score: inf
ROOT
ATOM      1  C   UNL     1      -3.870 -11.741  25.805  1.00  0.00     0.008 C 
ATOM      2  C   UNL     1      -3.630 -12.610  27.045  1.00  0.00    -0.006 C 
ATOM      3  C   UNL     1      -4.708 -12.344  28.108  1.00  0.00     0.008 C 
ATOM      4  C   UNL     1      -4.544 -13.278  29.315  1.00  0.00     0.039 C 
ATOM      5  C   UNL     1      -3.135 -13.245  29.891  1.00  0.00    -0.006 C 
ATOM      6  C   UNL     1      -2.908 -13.435  31.224  1.00  0.00    -0.070 C 
ATOM      7  C   UNL     1      -1.521 -13.348  31.817  1.00  0.00     0.039 C 
ATOM      8  C   UNL     1      -4.047 -13.704  32.182  1.00  0.00     0.039 C 
ATOM      9  C   UNL     1      -2.025 -13.112  28.901  1.00  0.00     0.159 C 
ATOM     10  O   UNL     1      -0.900 -13.644  29.103  1.00  0.00    -0.295 OA
ATOM     11  C   UNL     1      -2.236 -12.337  27.632  1.00  0.00     0.084 C 
ENDROOT
TORSDOF 0
ENDMDL
MODEL 8
REMARK VINA RESULT:    -5.571      1.965      4.415
REMARK INTER + INTRA:          -5.571
REMARK INTER:                  -5.571
REMARK INTRA:                   0.000
REMARK UNBOUND:                 0.000
REMARK SMILES CC(C)=C1CC[C@@H](C)CC1=O
REMARK SMILES IDX 8 1 7 2 6 3 5 4 4 5 2 6 1 7 3 8 10 9 11 10 9 11
REMARK H PARENT
REMARK Flexibility Score: inf
ROOT
ATOM      1  C   UNL     1      -4.533 -14.006  26.322  1.00  0.00     0.008 C 
ATOM      2  C   UNL     1      -3.441 -13.234  27.072  1.00  0.00    -0.006 C 
ATOM      3  C   UNL     1      -2.648 -14.176  27.992  1.00  0.00     0.008 C 
ATOM      4  C   UNL     1      -1.486 -13.443  28.673  1.00  0.00     0.039 C 
ATOM      5  C   UNL     1      -1.934 -12.173  29.384  1.00  0.00    -0.006 C 
ATOM      6  C   UNL     1      -1.306 -11.732  30.514  1.00  0.00    -0.070 C 
ATOM      7  C   UNL     1      -1.777 -10.505  31.260  1.00  0.00     0.039 C 
ATOM      8  C   UNL     1      -0.128 -12.478  31.097  1.00  0.00     0.039 C 
ATOM      9  C   UNL     1      -3.011 -11.388  28.708  1.00  0.00     0.159 C 
ATOM     10  O   UNL     1      -3.062 -10.133  28.800  1.00  0.00    -0.295 OA
ATOM     11  C   UNL     1      -4.058 -12.093  27.896  1.00  0.00     0.084 C 
ENDROOT
TORSDOF 0
ENDMDL
MODEL 9
REMARK VINA RESULT:    -5.478      1.614      3.048
REMARK INTER + INTRA:          -5.478
REMARK INTER:                  -5.478
REMARK INTRA:                   0.000
REMARK UNBOUND:                 0.000
REMARK SMILES CC(C)=C1CC[C@@H](C)CC1=O
REMARK SMILES IDX 8 1 7 2 6 3 5 4 4 5 2 6 1 7 3 8 10 9 11 10 9 11
REMARK H PARENT
REMARK Flexibility Score: inf
ROOT
ATOM      1  C   UNL     1       0.211 -13.247  28.752  1.00  0.00     0.008 C 
ATOM      2  C   UNL     1      -1.213 -13.100  29.301  1.00  0.00    -0.006 C 
ATOM      3  C   UNL     1      -1.276 -13.550  30.770  1.00  0.00     0.008 C 
ATOM      4  C   UNL     1      -2.668 -13.314  31.367  1.00  0.00     0.039 C 
ATOM      5  C   UNL     1      -3.777 -13.925  30.521  1.00  0.00    -0.006 C 
ATOM      6  C   UNL     1      -4.923 -14.404  31.090  1.00  0.00    -0.070 C 
ATOM      7  C   UNL     1      -6.005 -15.064  30.267  1.00  0.00     0.039 C 
ATOM      8  C   UNL     1      -5.145 -14.331  32.583  1.00  0.00     0.039 C 
ATOM      9  C   UNL     1      -3.585 -13.860  29.041  1.00  0.00     0.159 C 
ATOM     10  O   UNL     1      -4.565 -13.749  28.258  1.00  0.00    -0.295 OA
ATOM     11  C   UNL     1      -2.202 -13.920  28.459  1.00  0.00     0.084 C 
ENDROOT
TORSDOF 0
ENDMDL
