MODEL 1
REMARK VINA RESULT:    -4.586      0.000      0.000
REMARK INTER + INTRA:          -6.709
REMARK INTER:                  -6.195
REMARK INTRA:                  -0.514
REMARK UNBOUND:                -0.514
REMARK SMILES [NH3+]CCCC[C@@H]([NH3+])C(=O)[O-]
REMARK SMILES IDX 4 1 3 2 2 3 1 4 5 8 6 9 7 10 8 14 9 15 10 16
REMARK H PARENT 1 5 1 6 1 7 7 11 7 12 7 13
REMARK Flexibility Score: inf
ROOT
ATOM      1  C   UNL     1     -20.750  67.232  -1.960  1.00  0.00     0.012 C 
ENDROOT
BRANCH   1   2
ATOM      2  C   UNL     1     -19.402  66.630  -1.542  1.00  0.00     0.061 C 
BRANCH   2   3
ATOM      3  C   UNL     1     -18.668  67.490  -0.499  1.00  0.00     0.258 C 
BRANCH   3   4
ATOM      4  N   UNL     1     -18.870  66.999   0.865  1.00  0.00    -0.358 N 
ATOM      5  H   UNL     1     -18.523  66.017   0.953  1.00  0.00     0.344 HD
ATOM      6  H   UNL     1     -18.378  67.615   1.552  1.00  0.00     0.344 HD
ATOM      7  H   UNL     1     -19.893  67.006   1.081  1.00  0.00     0.344 HD
ENDBRANCH   3   4
ENDBRANCH   2   3
ENDBRANCH   1   2
BRANCH   1   8
ATOM      8  C   UNL     1     -20.819  68.725  -1.603  1.00  0.00     0.072 C 
BRANCH   8   9
ATOM      9  C   UNL     1     -22.036  69.057  -0.713  1.00  0.00     0.227 C 
BRANCH   9  10
ATOM     10  N   UNL     1     -22.935  67.901  -0.620  1.00  0.00    -0.350 N 
ATOM     11  H   UNL     1     -23.510  67.826  -1.490  1.00  0.00     0.345 HD
ATOM     12  H   UNL     1     -23.585  68.020   0.191  1.00  0.00     0.345 HD
ATOM     13  H   UNL     1     -22.388  67.017  -0.495  1.00  0.00     0.345 HD
ENDBRANCH   9  10
BRANCH   9  14
ATOM     14  C   UNL     1     -21.600  69.481   0.666  1.00  0.00     0.099 C 
ATOM     15  O   UNL     1     -21.320  68.613   1.534  1.00  0.00    -0.544 OA
ATOM     16  O   UNL     1     -21.509  70.829   0.989  1.00  0.00    -0.544 OA
ENDBRANCH   9  14
ENDBRANCH   8   9
ENDBRANCH   1   8
TORSDOF 7
ENDMDL
MODEL 2
REMARK VINA RESULT:    -4.333      2.857      4.163
REMARK INTER + INTRA:          -6.367
REMARK INTER:                  -6.192
REMARK INTRA:                  -0.176
REMARK UNBOUND:                -0.514
REMARK SMILES [NH3+]CCCC[C@@H]([NH3+])C(=O)[O-]
REMARK SMILES IDX 4 1 3 2 2 3 1 4 5 8 6 9 7 10 8 14 9 15 10 16
REMARK H PARENT 1 5 1 6 1 7 7 11 7 12 7 13
REMARK Flexibility Score: inf
ROOT
ATOM      1  C   UNL     1     -21.662  68.466  -0.130  1.00  0.00     0.012 C 
ENDROOT
BRANCH   1   2
ATOM      2  C   UNL     1     -21.715  69.457   1.042  1.00  0.00     0.061 C 
BRANCH   2   3
ATOM      3  C   UNL     1     -21.286  70.877   0.634  1.00  0.00     0.258 C 
BRANCH   3   4
ATOM      4  N   UNL     1     -21.584  71.864   1.672  1.00  0.00    -0.358 N 
ATOM      5  H   UNL     1     -21.488  72.833   1.292  1.00  0.00     0.344 HD
ATOM      6  H   UNL     1     -22.551  71.721   2.045  1.00  0.00     0.344 HD
ATOM      7  H   UNL     1     -20.903  71.749   2.456  1.00  0.00     0.344 HD
ENDBRANCH   3   4
ENDBRANCH   2   3
ENDBRANCH   1   2
BRANCH   1   8
ATOM      8  C   UNL     1     -20.913  69.070  -1.327  1.00  0.00     0.072 C 
BRANCH   8   9
ATOM      9  C   UNL     1     -19.609  68.308  -1.647  1.00  0.00     0.227 C 
BRANCH   9  10
ATOM     10  N   UNL     1     -18.657  68.431  -0.536  1.00  0.00    -0.350 N 
ATOM     11  H   UNL     1     -19.113  68.135   0.357  1.00  0.00     0.345 HD
ATOM     12  H   UNL     1     -18.357  69.428  -0.434  1.00  0.00     0.345 HD
ATOM     13  H   UNL     1     -17.814  67.834  -0.705  1.00  0.00     0.345 HD
ENDBRANCH   9  10
BRANCH   9  14
ATOM     14  C   UNL     1     -19.887  66.853  -1.926  1.00  0.00     0.099 C 
ATOM     15  O   UNL     1     -19.161  65.961  -1.414  1.00  0.00    -0.544 OA
ATOM     16  O   UNL     1     -20.941  66.487  -2.754  1.00  0.00    -0.544 OA
ENDBRANCH   9  14
ENDBRANCH   8   9
ENDBRANCH   1   8
TORSDOF 7
ENDMDL
MODEL 3
REMARK VINA RESULT:    -4.324      2.407      4.241
REMARK INTER + INTRA:          -6.354
REMARK INTER:                  -5.794
REMARK INTRA:                  -0.561
REMARK UNBOUND:                -0.514
REMARK SMILES [NH3+]CCCC[C@@H]([NH3+])C(=O)[O-]
REMARK SMILES IDX 4 1 3 2 2 3 1 4 5 8 6 9 7 10 8 14 9 15 10 16
REMARK H PARENT 1 5 1 6 1 7 7 11 7 12 7 13
REMARK Flexibility Score: inf
ROOT
ATOM      1  C   UNL     1     -20.094  69.493  -0.139  1.00  0.00     0.012 C 
ENDROOT
BRANCH   1   2
ATOM      2  C   UNL     1     -21.619  69.669  -0.127  1.00  0.00     0.061 C 
BRANCH   2   3
ATOM      3  C   UNL     1     -22.358  68.384   0.287  1.00  0.00     0.258 C 
BRANCH   3   4
ATOM      4  N   UNL     1     -23.139  67.816  -0.813  1.00  0.00    -0.358 N 
ATOM      5  H   UNL     1     -23.485  68.575  -1.443  1.00  0.00     0.344 HD
ATOM      6  H   UNL     1     -22.561  67.135  -1.358  1.00  0.00     0.344 HD
ATOM      7  H   UNL     1     -23.966  67.314  -0.419  1.00  0.00     0.344 HD
ENDBRANCH   3   4
ENDBRANCH   2   3
ENDBRANCH   1   2
BRANCH   1   8
ATOM      8  C   UNL     1     -19.630  68.816  -1.438  1.00  0.00     0.072 C 
BRANCH   8   9
ATOM      9  C   UNL     1     -19.008  67.426  -1.183  1.00  0.00     0.227 C 
BRANCH   9  10
ATOM     10  N   UNL     1     -19.005  67.121   0.253  1.00  0.00    -0.350 N 
ATOM     11  H   UNL     1     -18.132  67.491   0.694  1.00  0.00     0.345 HD
ATOM     12  H   UNL     1     -19.029  66.085   0.397  1.00  0.00     0.345 HD
ATOM     13  H   UNL     1     -19.835  67.553   0.724  1.00  0.00     0.345 HD
ENDBRANCH   9  10
BRANCH   9  14
ATOM     14  C   UNL     1     -19.752  66.353  -1.934  1.00  0.00     0.099 C 
ATOM     15  O   UNL     1     -20.854  66.616  -2.485  1.00  0.00    -0.544 OA
ATOM     16  O   UNL     1     -19.232  65.068  -2.021  1.00  0.00    -0.544 OA
ENDBRANCH   9  14
ENDBRANCH   8   9
ENDBRANCH   1   8
TORSDOF 7
ENDMDL
MODEL 4
REMARK VINA RESULT:    -4.198      1.298      1.856
REMARK INTER + INTRA:          -6.185
REMARK INTER:                  -6.197
REMARK INTRA:                   0.013
REMARK UNBOUND:                -0.514
REMARK SMILES [NH3+]CCCC[C@@H]([NH3+])C(=O)[O-]
REMARK SMILES IDX 4 1 3 2 2 3 1 4 5 8 6 9 7 10 8 14 9 15 10 16
REMARK H PARENT 1 5 1 6 1 7 7 11 7 12 7 13
REMARK Flexibility Score: inf
ROOT
ATOM      1  C   UNL     1     -19.491  68.487  -0.812  1.00  0.00     0.012 C 
ENDROOT
BRANCH   1   2
ATOM      2  C   UNL     1     -19.028  67.026  -0.903  1.00  0.00     0.061 C 
BRANCH   2   3
ATOM      3  C   UNL     1     -19.772  66.237  -1.994  1.00  0.00     0.258 C 
BRANCH   3   4
ATOM      4  N   UNL     1     -19.234  64.887  -2.165  1.00  0.00    -0.358 N 
ATOM      5  H   UNL     1     -18.295  64.809  -1.712  1.00  0.00     0.344 HD
ATOM      6  H   UNL     1     -19.887  64.178  -1.758  1.00  0.00     0.344 HD
ATOM      7  H   UNL     1     -19.123  64.692  -3.186  1.00  0.00     0.344 HD
ENDBRANCH   3   4
ENDBRANCH   2   3
ENDBRANCH   1   2
BRANCH   1   8
ATOM      8  C   UNL     1     -20.780  68.705  -1.620  1.00  0.00     0.072 C 
BRANCH   8   9
ATOM      9  C   UNL     1     -21.991  69.017  -0.714  1.00  0.00     0.227 C 
BRANCH   9  10
ATOM     10  N   UNL     1     -22.821  67.819  -0.537  1.00  0.00    -0.350 N 
ATOM     11  H   UNL     1     -23.082  67.713   0.470  1.00  0.00     0.345 HD
ATOM     12  H   UNL     1     -22.284  66.969  -0.826  1.00  0.00     0.345 HD
ATOM     13  H   UNL     1     -23.694  67.886  -1.111  1.00  0.00     0.345 HD
ENDBRANCH   9  10
BRANCH   9  14
ATOM     14  C   UNL     1     -21.545  69.536   0.628  1.00  0.00     0.099 C 
ATOM     15  O   UNL     1     -21.394  70.773   0.809  1.00  0.00    -0.544 OA
ATOM     16  O   UNL     1     -21.291  68.654   1.672  1.00  0.00    -0.544 OA
ENDBRANCH   9  14
ENDBRANCH   8   9
ENDBRANCH   1   8
TORSDOF 7
ENDMDL
MODEL 5
REMARK VINA RESULT:    -4.091      2.427      3.826
REMARK INTER + INTRA:          -6.040
REMARK INTER:                  -5.538
REMARK INTRA:                  -0.502
REMARK UNBOUND:                -0.514
REMARK SMILES [NH3+]CCCC[C@@H]([NH3+])C(=O)[O-]
REMARK SMILES IDX 4 1 3 2 2 3 1 4 5 8 6 9 7 10 8 14 9 15 10 16
REMARK H PARENT 1 5 1 6 1 7 7 11 7 12 7 13
REMARK Flexibility Score: inf
ROOT
ATOM      1  C   UNL     1     -20.872  70.389  -0.490  1.00  0.00     0.012 C 
ENDROOT
BRANCH   1   2
ATOM      2  C   UNL     1     -21.625  70.225   0.837  1.00  0.00     0.061 C 
BRANCH   2   3
ATOM      3  C   UNL     1     -21.836  68.750   1.218  1.00  0.00     0.258 C 
BRANCH   3   4
ATOM      4  N   UNL     1     -20.875  68.295   2.224  1.00  0.00    -0.358 N 
ATOM      5  H   UNL     1     -19.946  68.112   1.783  1.00  0.00     0.344 HD
ATOM      6  H   UNL     1     -20.776  69.008   2.984  1.00  0.00     0.344 HD
ATOM      7  H   UNL     1     -21.220  67.403   2.645  1.00  0.00     0.344 HD
ENDBRANCH   3   4
ENDBRANCH   2   3
ENDBRANCH   1   2
BRANCH   1   8
ATOM      8  C   UNL     1     -20.821  69.060  -1.261  1.00  0.00     0.072 C 
BRANCH   8   9
ATOM      9  C   UNL     1     -19.376  68.556  -1.462  1.00  0.00     0.227 C 
BRANCH   9  10
ATOM     10  N   UNL     1     -18.417  69.499  -0.875  1.00  0.00    -0.350 N 
ATOM     11  H   UNL     1     -18.872  70.431  -0.741  1.00  0.00     0.345 HD
ATOM     12  H   UNL     1     -17.602  69.624  -1.519  1.00  0.00     0.345 HD
ATOM     13  H   UNL     1     -18.074  69.150   0.050  1.00  0.00     0.345 HD
ENDBRANCH   9  10
BRANCH   9  14
ATOM     14  C   UNL     1     -19.190  67.190  -0.855  1.00  0.00     0.099 C 
ATOM     15  O   UNL     1     -18.860  67.075   0.355  1.00  0.00    -0.544 OA
ATOM     16  O   UNL     1     -19.375  66.048  -1.625  1.00  0.00    -0.544 OA
ENDBRANCH   9  14
ENDBRANCH   8   9
ENDBRANCH   1   8
TORSDOF 7
ENDMDL
MODEL 6
REMARK VINA RESULT:    -3.893      2.601      3.698
REMARK INTER + INTRA:          -5.772
REMARK INTER:                  -5.628
REMARK INTRA:                  -0.144
REMARK UNBOUND:                -0.514
REMARK SMILES [NH3+]CCCC[C@@H]([NH3+])C(=O)[O-]
REMARK SMILES IDX 4 1 3 2 2 3 1 4 5 8 6 9 7 10 8 14 9 15 10 16
REMARK H PARENT 1 5 1 6 1 7 7 11 7 12 7 13
REMARK Flexibility Score: inf
ROOT
ATOM      1  C   UNL     1     -22.420  68.753   0.025  1.00  0.00     0.012 C 
ENDROOT
BRANCH   1   2
ATOM      2  C   UNL     1     -21.634  69.533   1.089  1.00  0.00     0.061 C 
BRANCH   2   3
ATOM      3  C   UNL     1     -21.284  70.960   0.636  1.00  0.00     0.258 C 
BRANCH   3   4
ATOM      4  N   UNL     1     -21.563  71.954   1.673  1.00  0.00    -0.358 N 
ATOM      5  H   UNL     1     -20.675  72.401   1.997  1.00  0.00     0.344 HD
ATOM      6  H   UNL     1     -22.220  72.684   1.313  1.00  0.00     0.344 HD
ATOM      7  H   UNL     1     -22.008  71.477   2.490  1.00  0.00     0.344 HD
ENDBRANCH   3   4
ENDBRANCH   2   3
ENDBRANCH   1   2
BRANCH   1   8
ATOM      8  C   UNL     1     -21.593  68.593  -1.260  1.00  0.00     0.072 C 
BRANCH   8   9
ATOM      9  C   UNL     1     -20.537  67.473  -1.141  1.00  0.00     0.227 C 
BRANCH   9  10
ATOM     10  N   UNL     1     -20.490  66.678  -2.374  1.00  0.00    -0.350 N 
ATOM     11  H   UNL     1     -20.060  65.745  -2.179  1.00  0.00     0.345 HD
ATOM     12  H   UNL     1     -19.902  67.166  -3.088  1.00  0.00     0.345 HD
ATOM     13  H   UNL     1     -21.453  66.538  -2.759  1.00  0.00     0.345 HD
ENDBRANCH   9  10
BRANCH   9  14
ATOM     14  C   UNL     1     -19.174  68.044  -0.845  1.00  0.00     0.099 C 
ATOM     15  O   UNL     1     -18.377  67.421  -0.095  1.00  0.00    -0.544 OA
ATOM     16  O   UNL     1     -18.789  69.262  -1.392  1.00  0.00    -0.544 OA
ENDBRANCH   9  14
ENDBRANCH   8   9
ENDBRANCH   1   8
TORSDOF 7
ENDMDL
MODEL 7
REMARK VINA RESULT:    -3.780      2.231      4.056
REMARK INTER + INTRA:          -5.620
REMARK INTER:                  -5.373
REMARK INTRA:                  -0.247
REMARK UNBOUND:                -0.514
REMARK SMILES [NH3+]CCCC[C@@H]([NH3+])C(=O)[O-]
REMARK SMILES IDX 4 1 3 2 2 3 1 4 5 8 6 9 7 10 8 14 9 15 10 16
REMARK H PARENT 1 5 1 6 1 7 7 11 7 12 7 13
REMARK Flexibility Score: inf
ROOT
ATOM      1  C   UNL     1     -21.176  69.520  -0.401  1.00  0.00     0.012 C 
ENDROOT
BRANCH   1   2
ATOM      2  C   UNL     1     -22.369  68.650   0.020  1.00  0.00     0.061 C 
BRANCH   2   3
ATOM      3  C   UNL     1     -22.720  67.582  -1.029  1.00  0.00     0.258 C 
BRANCH   3   4
ATOM      4  N   UNL     1     -24.163  67.479  -1.253  1.00  0.00    -0.358 N 
ATOM      5  H   UNL     1     -24.482  68.218  -1.919  1.00  0.00     0.344 HD
ATOM      6  H   UNL     1     -24.409  66.533  -1.623  1.00  0.00     0.344 HD
ATOM      7  H   UNL     1     -24.659  67.622  -0.343  1.00  0.00     0.344 HD
ENDBRANCH   3   4
ENDBRANCH   2   3
ENDBRANCH   1   2
BRANCH   1   8
ATOM      8  C   UNL     1     -20.577  69.027  -1.727  1.00  0.00     0.072 C 
BRANCH   8   9
ATOM      9  C   UNL     1     -19.126  68.525  -1.562  1.00  0.00     0.227 C 
BRANCH   9  10
ATOM     10  N   UNL     1     -18.334  69.491  -0.792  1.00  0.00    -0.350 N 
ATOM     11  H   UNL     1     -17.530  69.832  -1.367  1.00  0.00     0.345 HD
ATOM     12  H   UNL     1     -17.949  69.031   0.066  1.00  0.00     0.345 HD
ATOM     13  H   UNL     1     -18.923  70.309  -0.508  1.00  0.00     0.345 HD
ENDBRANCH   9  10
BRANCH   9  14
ATOM     14  C   UNL     1     -19.092  67.178  -0.888  1.00  0.00     0.099 C 
ATOM     15  O   UNL     1     -18.823  67.092   0.339  1.00  0.00    -0.544 OA
ATOM     16  O   UNL     1     -19.351  66.023  -1.615  1.00  0.00    -0.544 OA
ENDBRANCH   9  14
ENDBRANCH   8   9
ENDBRANCH   1   8
TORSDOF 7
ENDMDL
MODEL 8
REMARK VINA RESULT:    -3.669      2.062      2.438
REMARK INTER + INTRA:          -5.470
REMARK INTER:                  -5.303
REMARK INTRA:                  -0.167
REMARK UNBOUND:                -0.514
REMARK SMILES [NH3+]CCCC[C@@H]([NH3+])C(=O)[O-]
REMARK SMILES IDX 4 1 3 2 2 3 1 4 5 8 6 9 7 10 8 14 9 15 10 16
REMARK H PARENT 1 5 1 6 1 7 7 11 7 12 7 13
REMARK Flexibility Score: inf
ROOT
ATOM      1  C   UNL     1     -20.863  67.583  -1.946  1.00  0.00     0.012 C 
ENDROOT
BRANCH   1   2
ATOM      2  C   UNL     1     -20.485  66.250  -2.608  1.00  0.00     0.061 C 
BRANCH   2   3
ATOM      3  C   UNL     1     -19.328  65.540  -1.885  1.00  0.00     0.258 C 
BRANCH   3   4
ATOM      4  N   UNL     1     -19.041  64.225  -2.461  1.00  0.00    -0.358 N 
ATOM      5  H   UNL     1     -18.302  63.738  -1.905  1.00  0.00     0.344 HD
ATOM      6  H   UNL     1     -19.909  63.642  -2.491  1.00  0.00     0.344 HD
ATOM      7  H   UNL     1     -18.689  64.351  -3.437  1.00  0.00     0.344 HD
ENDBRANCH   3   4
ENDBRANCH   2   3
ENDBRANCH   1   2
BRANCH   1   8
ATOM      8  C   UNL     1     -20.447  67.600  -0.467  1.00  0.00     0.072 C 
BRANCH   8   9
ATOM      9  C   UNL     1     -19.885  68.970  -0.033  1.00  0.00     0.227 C 
BRANCH   9  10
ATOM     10  N   UNL     1     -18.927  69.470  -1.026  1.00  0.00    -0.350 N 
ATOM     11  H   UNL     1     -19.395  70.159  -1.657  1.00  0.00     0.345 HD
ATOM     12  H   UNL     1     -18.577  68.677  -1.613  1.00  0.00     0.345 HD
ATOM     13  H   UNL     1     -18.114  69.933  -0.556  1.00  0.00     0.345 HD
ENDBRANCH   9  10
BRANCH   9  14
ATOM     14  C   UNL     1     -20.992  69.973   0.162  1.00  0.00     0.099 C 
ATOM     15  O   UNL     1     -22.132  69.592   0.538  1.00  0.00    -0.544 OA
ATOM     16  O   UNL     1     -20.766  71.323  -0.076  1.00  0.00    -0.544 OA
ENDBRANCH   9  14
ENDBRANCH   8   9
ENDBRANCH   1   8
TORSDOF 7
ENDMDL
MODEL 9
REMARK VINA RESULT:    -3.394      2.303      3.660
REMARK INTER + INTRA:          -5.099
REMARK INTER:                  -4.750
REMARK INTRA:                  -0.349
REMARK UNBOUND:                -0.514
REMARK SMILES [NH3+]CCCC[C@@H]([NH3+])C(=O)[O-]
REMARK SMILES IDX 4 1 3 2 2 3 1 4 5 8 6 9 7 10 8 14 9 15 10 16
REMARK H PARENT 1 5 1 6 1 7 7 11 7 12 7 13
REMARK Flexibility Score: inf
ROOT
ATOM      1  C   UNL     1     -21.357  68.491  -1.550  1.00  0.00     0.012 C 
ENDROOT
BRANCH   1   2
ATOM      2  C   UNL     1     -22.213  68.583  -0.278  1.00  0.00     0.061 C 
BRANCH   2   3
ATOM      3  C   UNL     1     -21.583  69.490   0.793  1.00  0.00     0.258 C 
BRANCH   3   4
ATOM      4  N   UNL     1     -21.176  70.787   0.250  1.00  0.00    -0.358 N 
ATOM      5  H   UNL     1     -20.169  70.765  -0.029  1.00  0.00     0.344 HD
ATOM      6  H   UNL     1     -21.769  71.041  -0.574  1.00  0.00     0.344 HD
ATOM      7  H   UNL     1     -21.297  71.517   0.987  1.00  0.00     0.344 HD
ENDBRANCH   3   4
ENDBRANCH   2   3
ENDBRANCH   1   2
BRANCH   1   8
ATOM      8  C   UNL     1     -20.424  67.271  -1.497  1.00  0.00     0.072 C 
BRANCH   8   9
ATOM      9  C   UNL     1     -18.949  67.672  -1.278  1.00  0.00     0.227 C 
BRANCH   9  10
ATOM     10  N   UNL     1     -18.756  69.097  -1.571  1.00  0.00    -0.350 N 
ATOM     11  H   UNL     1     -17.795  69.392  -1.283  1.00  0.00     0.345 HD
ATOM     12  H   UNL     1     -19.448  69.668  -1.032  1.00  0.00     0.345 HD
ATOM     13  H   UNL     1     -18.880  69.283  -2.594  1.00  0.00     0.345 HD
ENDBRANCH   9  10
BRANCH   9  14
ATOM     14  C   UNL     1     -18.511  67.373   0.133  1.00  0.00     0.099 C 
ATOM     15  O   UNL     1     -19.327  66.888   0.959  1.00  0.00    -0.544 OA
ATOM     16  O   UNL     1     -17.206  67.637   0.532  1.00  0.00    -0.544 OA
ENDBRANCH   9  14
ENDBRANCH   8   9
ENDBRANCH   1   8
TORSDOF 7
ENDMDL
