MODEL 1
REMARK VINA RESULT:    -3.552      0.000      0.000
REMARK INTER + INTRA:          -5.599
REMARK INTER:                  -5.006
REMARK INTRA:                  -0.593
REMARK UNBOUND:                -0.593
REMARK SMILES CCCCCCCCC(=O)[O-]
REMARK SMILES IDX 6 1 7 2 8 3 9 4 10 5 11 6 5 7 4 8 3 9 2 10 1 11
REMARK H PARENT
REMARK Flexibility Score: inf
ROOT
ATOM      1  C   UNL     1     -43.865 -49.741  35.350  1.00  0.00     0.000 C 
ENDROOT
BRANCH   1   2
ATOM      2  C   UNL     1     -44.273 -48.609  36.303  1.00  0.00     0.006 C 
BRANCH   2   3
ATOM      3  C   UNL     1     -44.997 -49.163  37.533  1.00  0.00     0.053 C 
BRANCH   3   4
ATOM      4  C   UNL     1     -46.450 -49.365  37.240  1.00  0.00     0.041 C 
ATOM      5  O   UNL     1     -47.207 -48.372  37.074  1.00  0.00    -0.550 OA
ATOM      6  O   UNL     1     -46.959 -50.650  37.101  1.00  0.00    -0.550 OA
ENDBRANCH   3   4
ENDBRANCH   2   3
ENDBRANCH   1   2
BRANCH   1   7
ATOM      7  C   UNL     1     -43.119 -49.228  34.108  1.00  0.00     0.000 C 
BRANCH   7   8
ATOM      8  C   UNL     1     -42.375 -47.906  34.370  1.00  0.00    -0.000 C 
BRANCH   8   9
ATOM      9  C   UNL     1     -40.849 -48.090  34.471  1.00  0.00    -0.000 C 
BRANCH   9  10
ATOM     10  C   UNL     1     -40.243 -47.707  35.833  1.00  0.00    -0.003 C 
ATOM     11  C   UNL     1     -40.673 -48.642  36.963  1.00  0.00     0.004 C 
ENDBRANCH   9  10
ENDBRANCH   8   9
ENDBRANCH   7   8
ENDBRANCH   1   7
TORSDOF 7
ENDMDL
MODEL 2
REMARK VINA RESULT:    -3.548      1.070      1.682
REMARK INTER + INTRA:          -5.593
REMARK INTER:                  -5.139
REMARK INTRA:                  -0.454
REMARK UNBOUND:                -0.593
REMARK SMILES CCCCCCCCC(=O)[O-]
REMARK SMILES IDX 6 1 7 2 8 3 9 4 10 5 11 6 5 7 4 8 3 9 2 10 1 11
REMARK H PARENT
REMARK Flexibility Score: inf
ROOT
ATOM      1  C   UNL     1     -43.994 -48.351  36.505  1.00  0.00     0.000 C 
ENDROOT
BRANCH   1   2
ATOM      2  C   UNL     1     -44.995 -48.605  37.643  1.00  0.00     0.006 C 
BRANCH   2   3
ATOM      3  C   UNL     1     -46.291 -49.217  37.105  1.00  0.00     0.053 C 
BRANCH   3   4
ATOM      4  C   UNL     1     -46.638 -50.459  37.864  1.00  0.00     0.041 C 
ATOM      5  O   UNL     1     -46.618 -50.460  39.123  1.00  0.00    -0.550 OA
ATOM      6  O   UNL     1     -47.032 -51.603  37.181  1.00  0.00    -0.550 OA
ENDBRANCH   3   4
ENDBRANCH   2   3
ENDBRANCH   1   2
BRANCH   1   7
ATOM      7  C   UNL     1     -43.798 -49.581  35.606  1.00  0.00     0.000 C 
BRANCH   7   8
ATOM      8  C   UNL     1     -43.134 -49.232  34.262  1.00  0.00    -0.000 C 
BRANCH   8   9
ATOM      9  C   UNL     1     -42.414 -47.870  34.289  1.00  0.00    -0.000 C 
BRANCH   9  10
ATOM     10  C   UNL     1     -40.882 -47.955  34.409  1.00  0.00    -0.003 C 
ATOM     11  C   UNL     1     -40.386 -47.809  35.848  1.00  0.00     0.004 C 
ENDBRANCH   9  10
ENDBRANCH   8   9
ENDBRANCH   7   8
ENDBRANCH   1   7
TORSDOF 7
ENDMDL
MODEL 3
REMARK VINA RESULT:    -3.462      1.876      3.073
REMARK INTER + INTRA:          -5.472
REMARK INTER:                  -5.082
REMARK INTRA:                  -0.391
REMARK UNBOUND:                -0.593
REMARK SMILES CCCCCCCCC(=O)[O-]
REMARK SMILES IDX 6 1 7 2 8 3 9 4 10 5 11 6 5 7 4 8 3 9 2 10 1 11
REMARK H PARENT
REMARK Flexibility Score: inf
ROOT
ATOM      1  C   UNL     1     -45.911 -48.351  37.245  1.00  0.00     0.000 C 
ENDROOT
BRANCH   1   2
ATOM      2  C   UNL     1     -46.995 -49.438  37.302  1.00  0.00     0.006 C 
BRANCH   2   3
ATOM      3  C   UNL     1     -46.383 -50.830  37.118  1.00  0.00     0.053 C 
BRANCH   3   4
ATOM      4  C   UNL     1     -47.044 -51.817  38.029  1.00  0.00     0.041 C 
ATOM      5  O   UNL     1     -47.638 -52.820  37.553  1.00  0.00    -0.550 OA
ATOM      6  O   UNL     1     -46.961 -51.655  39.406  1.00  0.00    -0.550 OA
ENDBRANCH   3   4
ENDBRANCH   2   3
ENDBRANCH   1   2
BRANCH   1   7
ATOM      7  C   UNL     1     -44.491 -48.926  37.360  1.00  0.00     0.000 C 
BRANCH   7   8
ATOM      8  C   UNL     1     -43.542 -48.379  36.279  1.00  0.00    -0.000 C 
BRANCH   8   9
ATOM      9  C   UNL     1     -43.467 -49.285  35.036  1.00  0.00    -0.000 C 
BRANCH   9  10
ATOM     10  C   UNL     1     -42.704 -48.680  33.844  1.00  0.00    -0.003 C 
ATOM     11  C   UNL     1     -41.679 -47.627  34.262  1.00  0.00     0.004 C 
ENDBRANCH   9  10
ENDBRANCH   8   9
ENDBRANCH   7   8
ENDBRANCH   1   7
TORSDOF 7
ENDMDL
MODEL 4
REMARK VINA RESULT:    -3.440      0.966      2.207
REMARK INTER + INTRA:          -5.442
REMARK INTER:                  -4.770
REMARK INTRA:                  -0.671
REMARK UNBOUND:                -0.593
REMARK SMILES CCCCCCCCC(=O)[O-]
REMARK SMILES IDX 6 1 7 2 8 3 9 4 10 5 11 6 5 7 4 8 3 9 2 10 1 11
REMARK H PARENT
REMARK Flexibility Score: inf
ROOT
ATOM      1  C   UNL     1     -43.343 -48.546  38.042  1.00  0.00     0.000 C 
ENDROOT
BRANCH   1   2
ATOM      2  C   UNL     1     -44.464 -48.277  37.028  1.00  0.00     0.006 C 
BRANCH   2   3
ATOM      3  C   UNL     1     -45.089 -49.589  36.542  1.00  0.00     0.053 C 
BRANCH   3   4
ATOM      4  C   UNL     1     -46.491 -49.720  37.046  1.00  0.00     0.041 C 
ATOM      5  O   UNL     1     -47.204 -48.695  37.211  1.00  0.00    -0.550 OA
ATOM      6  O   UNL     1     -47.028 -50.978  37.287  1.00  0.00    -0.550 OA
ENDBRANCH   3   4
ENDBRANCH   2   3
ENDBRANCH   1   2
BRANCH   1   7
ATOM      7  C   UNL     1     -41.986 -47.992  37.583  1.00  0.00     0.000 C 
BRANCH   7   8
ATOM      8  C   UNL     1     -41.397 -48.778  36.398  1.00  0.00    -0.000 C 
BRANCH   8   9
ATOM      9  C   UNL     1     -40.978 -47.869  35.228  1.00  0.00    -0.000 C 
BRANCH   9  10
ATOM     10  C   UNL     1     -42.066 -47.651  34.161  1.00  0.00    -0.003 C 
ATOM     11  C   UNL     1     -42.744 -48.950  33.725  1.00  0.00     0.004 C 
ENDBRANCH   9  10
ENDBRANCH   8   9
ENDBRANCH   7   8
ENDBRANCH   1   7
TORSDOF 7
ENDMDL
MODEL 5
REMARK VINA RESULT:    -3.355      3.764      6.869
REMARK INTER + INTRA:          -5.321
REMARK INTER:                  -4.828
REMARK INTRA:                  -0.493
REMARK UNBOUND:                -0.593
REMARK SMILES CCCCCCCCC(=O)[O-]
REMARK SMILES IDX 6 1 7 2 8 3 9 4 10 5 11 6 5 7 4 8 3 9 2 10 1 11
REMARK H PARENT
REMARK Flexibility Score: inf
ROOT
ATOM      1  C   UNL     1     -47.053 -52.099  37.210  1.00  0.00     0.000 C 
ENDROOT
BRANCH   1   2
ATOM      2  C   UNL     1     -46.684 -50.854  38.030  1.00  0.00     0.006 C 
BRANCH   2   3
ATOM      3  C   UNL     1     -46.849 -49.580  37.197  1.00  0.00     0.053 C 
BRANCH   3   4
ATOM      4  C   UNL     1     -45.519 -48.943  36.944  1.00  0.00     0.041 C 
ATOM      5  O   UNL     1     -45.139 -47.969  37.646  1.00  0.00    -0.550 OA
ATOM      6  O   UNL     1     -44.677 -49.457  35.966  1.00  0.00    -0.550 OA
ENDBRANCH   3   4
ENDBRANCH   2   3
ENDBRANCH   1   2
BRANCH   1   7
ATOM      7  C   UNL     1     -47.736 -53.183  38.057  1.00  0.00     0.000 C 
BRANCH   7   8
ATOM      8  C   UNL     1     -46.992 -53.459  39.376  1.00  0.00    -0.000 C 
BRANCH   8   9
ATOM      9  C   UNL     1     -47.931 -53.919  40.506  1.00  0.00    -0.000 C 
BRANCH   9  10
ATOM     10  C   UNL     1     -48.988 -52.882  40.927  1.00  0.00    -0.003 C 
ATOM     11  C   UNL     1     -48.377 -51.609  41.513  1.00  0.00     0.004 C 
ENDBRANCH   9  10
ENDBRANCH   8   9
ENDBRANCH   7   8
ENDBRANCH   1   7
TORSDOF 7
ENDMDL
MODEL 6
REMARK VINA RESULT:    -3.321      3.405      4.230
REMARK INTER + INTRA:          -5.274
REMARK INTER:                  -4.854
REMARK INTRA:                  -0.420
REMARK UNBOUND:                -0.593
REMARK SMILES CCCCCCCCC(=O)[O-]
REMARK SMILES IDX 6 1 7 2 8 3 9 4 10 5 11 6 5 7 4 8 3 9 2 10 1 11
REMARK H PARENT
REMARK Flexibility Score: inf
ROOT
ATOM      1  C   UNL     1     -43.015 -48.877  37.689  1.00  0.00     0.000 C 
ENDROOT
BRANCH   1   2
ATOM      2  C   UNL     1     -42.481 -47.666  38.469  1.00  0.00     0.006 C 
BRANCH   2   3
ATOM      3  C   UNL     1     -43.522 -47.159  39.470  1.00  0.00     0.053 C 
BRANCH   3   4
ATOM      4  C   UNL     1     -42.924 -46.119  40.365  1.00  0.00     0.041 C 
ATOM      5  O   UNL     1     -42.092 -46.447  41.252  1.00  0.00    -0.550 OA
ATOM      6  O   UNL     1     -43.248 -44.780  40.186  1.00  0.00    -0.550 OA
ENDBRANCH   3   4
ENDBRANCH   2   3
ENDBRANCH   1   2
BRANCH   1   7
ATOM      7  C   UNL     1     -43.919 -48.472  36.514  1.00  0.00     0.000 C 
BRANCH   7   8
ATOM      8  C   UNL     1     -43.978 -49.547  35.415  1.00  0.00    -0.000 C 
BRANCH   8   9
ATOM      9  C   UNL     1     -42.989 -49.280  34.265  1.00  0.00    -0.000 C 
BRANCH   9  10
ATOM     10  C   UNL     1     -42.386 -47.864  34.251  1.00  0.00    -0.003 C 
ATOM     11  C   UNL     1     -40.873 -47.856  34.467  1.00  0.00     0.004 C 
ENDBRANCH   9  10
ENDBRANCH   8   9
ENDBRANCH   7   8
ENDBRANCH   1   7
TORSDOF 7
ENDMDL
MODEL 7
REMARK VINA RESULT:    -3.308      3.009      5.578
REMARK INTER + INTRA:          -5.255
REMARK INTER:                  -4.837
REMARK INTRA:                  -0.419
REMARK UNBOUND:                -0.593
REMARK SMILES CCCCCCCCC(=O)[O-]
REMARK SMILES IDX 6 1 7 2 8 3 9 4 10 5 11 6 5 7 4 8 3 9 2 10 1 11
REMARK H PARENT
REMARK Flexibility Score: inf
ROOT
ATOM      1  C   UNL     1     -44.525 -48.666  37.406  1.00  0.00     0.000 C 
ENDROOT
BRANCH   1   2
ATOM      2  C   UNL     1     -43.641 -48.358  36.189  1.00  0.00     0.006 C 
BRANCH   2   3
ATOM      3  C   UNL     1     -43.751 -49.467  35.139  1.00  0.00     0.053 C 
BRANCH   3   4
ATOM      4  C   UNL     1     -42.969 -49.109  33.915  1.00  0.00     0.041 C 
ATOM      5  O   UNL     1     -42.927 -49.899  32.935  1.00  0.00    -0.550 OA
ATOM      6  O   UNL     1     -42.326 -47.880  33.836  1.00  0.00    -0.550 OA
ENDBRANCH   3   4
ENDBRANCH   2   3
ENDBRANCH   1   2
BRANCH   1   7
ATOM      7  C   UNL     1     -45.986 -48.235  37.199  1.00  0.00     0.000 C 
BRANCH   7   8
ATOM      8  C   UNL     1     -46.937 -49.433  37.033  1.00  0.00    -0.000 C 
BRANCH   8   9
ATOM      9  C   UNL     1     -46.563 -50.622  37.937  1.00  0.00    -0.000 C 
BRANCH   9  10
ATOM     10  C   UNL     1     -46.538 -51.988  37.227  1.00  0.00    -0.003 C 
ATOM     11  C   UNL     1     -47.676 -52.910  37.664  1.00  0.00     0.004 C 
ENDBRANCH   9  10
ENDBRANCH   8   9
ENDBRANCH   7   8
ENDBRANCH   1   7
TORSDOF 7
ENDMDL
MODEL 8
REMARK VINA RESULT:    -3.228      2.954      4.002
REMARK INTER + INTRA:          -5.142
REMARK INTER:                  -4.468
REMARK INTRA:                  -0.674
REMARK UNBOUND:                -0.593
REMARK SMILES CCCCCCCCC(=O)[O-]
REMARK SMILES IDX 6 1 7 2 8 3 9 4 10 5 11 6 5 7 4 8 3 9 2 10 1 11
REMARK H PARENT
REMARK Flexibility Score: inf
ROOT
ATOM      1  C   UNL     1     -46.834 -49.495  36.900  1.00  0.00     0.000 C 
ENDROOT
BRANCH   1   2
ATOM      2  C   UNL     1     -46.273 -50.872  37.283  1.00  0.00     0.006 C 
BRANCH   2   3
ATOM      3  C   UNL     1     -46.751 -51.290  38.676  1.00  0.00     0.053 C 
BRANCH   3   4
ATOM      4  C   UNL     1     -47.429 -52.622  38.621  1.00  0.00     0.041 C 
ATOM      5  O   UNL     1     -47.900 -53.049  37.534  1.00  0.00    -0.550 OA
ATOM      6  O   UNL     1     -47.498 -53.415  39.759  1.00  0.00    -0.550 OA
ENDBRANCH   3   4
ENDBRANCH   2   3
ENDBRANCH   1   2
BRANCH   1   7
ATOM      7  C   UNL     1     -45.883 -48.346  37.271  1.00  0.00     0.000 C 
BRANCH   7   8
ATOM      8  C   UNL     1     -44.448 -48.580  36.767  1.00  0.00    -0.000 C 
BRANCH   8   9
ATOM      9  C   UNL     1     -43.398 -48.476  37.888  1.00  0.00    -0.000 C 
BRANCH   9  10
ATOM     10  C   UNL     1     -43.964 -48.090  39.266  1.00  0.00    -0.003 C 
ATOM     11  C   UNL     1     -43.923 -49.239  40.274  1.00  0.00     0.004 C 
ENDBRANCH   9  10
ENDBRANCH   8   9
ENDBRANCH   7   8
ENDBRANCH   1   7
TORSDOF 7
ENDMDL
MODEL 9
REMARK VINA RESULT:    -3.152      7.867      9.307
REMARK INTER + INTRA:          -5.036
REMARK INTER:                  -4.476
REMARK INTRA:                  -0.560
REMARK UNBOUND:                -0.593
REMARK SMILES CCCCCCCCC(=O)[O-]
REMARK SMILES IDX 6 1 7 2 8 3 9 4 10 5 11 6 5 7 4 8 3 9 2 10 1 11
REMARK H PARENT
REMARK Flexibility Score: inf
ROOT
ATOM      1  C   UNL     1     -46.248 -55.988  38.357  1.00  0.00     0.000 C 
ENDROOT
BRANCH   1   2
ATOM      2  C   UNL     1     -47.658 -56.459  38.741  1.00  0.00     0.006 C 
BRANCH   2   3
ATOM      3  C   UNL     1     -48.005 -57.776  38.040  1.00  0.00     0.053 C 
BRANCH   3   4
ATOM      4  C   UNL     1     -47.279 -58.917  38.680  1.00  0.00     0.041 C 
ATOM      5  O   UNL     1     -47.626 -59.332  39.817  1.00  0.00    -0.550 OA
ATOM      6  O   UNL     1     -46.249 -59.555  37.999  1.00  0.00    -0.550 OA
ENDBRANCH   3   4
ENDBRANCH   2   3
ENDBRANCH   1   2
BRANCH   1   7
ATOM      7  C   UNL     1     -46.111 -54.458  38.378  1.00  0.00     0.000 C 
BRANCH   7   8
ATOM      8  C   UNL     1     -47.465 -53.741  38.233  1.00  0.00    -0.000 C 
BRANCH   8   9
ATOM      9  C   UNL     1     -47.652 -52.606  39.257  1.00  0.00    -0.000 C 
BRANCH   9  10
ATOM     10  C   UNL     1     -48.560 -52.959  40.450  1.00  0.00    -0.003 C 
ATOM     11  C   UNL     1     -47.800 -53.606  41.608  1.00  0.00     0.004 C 
ENDBRANCH   9  10
ENDBRANCH   8   9
ENDBRANCH   7   8
ENDBRANCH   1   7
TORSDOF 7
ENDMDL
