MODEL 1
REMARK VINA RESULT:    -3.862      0.000      0.000
REMARK INTER + INTRA:          -6.115
REMARK INTER:                  -5.893
REMARK INTRA:                  -0.222
REMARK UNBOUND:                -0.222
REMARK SMILES CC1=CCC[C@@H](C)C(=O)C[C@@H](C(C)C)C(=O)C1
REMARK SMILES IDX 8 1 9 2 6 3 7 4 5 5 4 6 3 7 2 8 1 9 10 11 11 12 15 13 16 14
REMARK SMILES IDX 17 15 12 17 13 18 14 19
REMARK H PARENT
REMARK Flexibility Score: 70.00
ROOT
ATOM      1  C   UNL     1     -15.448  14.932 -30.184  1.00  0.00     0.136 C 
ATOM      2  O   UNL     1     -16.161  15.222 -29.234  1.00  0.00    -0.299 OA
ENDROOT
BRANCH   1   3
ATOM      3  C   UNL     1     -15.877  13.847 -31.148  1.00  0.00     0.053 C 
ATOM      4  C   UNL     1     -17.186  14.264 -31.829  1.00  0.00     0.016 C 
BRANCH   3   5
ATOM      5  C   UNL     1     -16.044  12.472 -30.463  1.00  0.00     0.015 C 
BRANCH   5   6
ATOM      6  C   UNL     1     -14.713  11.837 -30.015  1.00  0.00     0.028 C 
BRANCH   6   7
ATOM      7  C   UNL     1     -14.466  12.045 -28.538  1.00  0.00    -0.028 C 
ATOM      8  C   UNL     1     -13.331  12.517 -27.971  1.00  0.00    -0.070 CG0
ATOM      9  C   UNL     1     -13.283  12.617 -26.467  1.00  0.00     0.039 C 
ATOM     10  G   UNL     1     -12.138  13.016 -28.760  1.00  0.00     0.000 G0
ENDBRANCH   6   7
ENDBRANCH   5   6
ENDBRANCH   3   5
ENDBRANCH   1   3
BRANCH   1  11
ATOM     11  C   UNL     1     -14.160  15.688 -30.403  1.00  0.00     0.087 C 
BRANCH  11  12
ATOM     12  C   UNL     1     -12.950  14.738 -30.568  1.00  0.00     0.066 C 
BRANCH  12  13
ATOM     13  C   UNL     1     -12.320  14.436 -29.221  1.00  0.00     0.140 C 
ATOM     14  O   UNL     1     -12.000  15.353 -28.478  1.00  0.00    -0.299 OA
BRANCH  13  15
ATOM     15  C   UNL     1     -12.111  13.019 -28.756  1.00  0.00     0.106 CG0
ATOM     16  G   UNL     1     -13.319  12.544 -27.976  1.00  0.00     0.000 G0
ENDBRANCH  13  15
ENDBRANCH  12  13
BRANCH  12  17
ATOM     17  C   UNL     1     -11.881  15.251 -31.584  1.00  0.00    -0.006 C 
ATOM     18  C   UNL     1     -12.465  16.052 -32.761  1.00  0.00     0.008 C 
ATOM     19  C   UNL     1     -11.013  14.099 -32.118  1.00  0.00     0.008 C 
ENDBRANCH  12  17
ENDBRANCH  11  12
ENDBRANCH   1  11
TORSDOF 1
ENDMDL
MODEL 2
REMARK VINA RESULT:    -3.428      1.734      3.997
REMARK INTER + INTRA:          -5.453
REMARK INTER:                  -6.036
REMARK INTRA:                   0.583
REMARK UNBOUND:                -0.222
REMARK SMILES CC1=CCC[C@@H](C)C(=O)C[C@@H](C(C)C)C(=O)C1
REMARK SMILES IDX 8 1 9 2 6 3 7 4 5 5 4 6 3 7 2 8 1 9 10 11 11 12 15 13 16 14
REMARK SMILES IDX 17 15 12 17 13 18 14 19
REMARK H PARENT
REMARK Flexibility Score: 70.00
ROOT
ATOM      1  C   UNL     1     -15.538  14.496 -30.123  1.00  0.00     0.136 C 
ATOM      2  O   UNL     1     -16.249  15.060 -29.304  1.00  0.00    -0.299 OA
ENDROOT
BRANCH   1   3
ATOM      3  C   UNL     1     -14.830  15.300 -31.191  1.00  0.00     0.053 C 
ATOM      4  C   UNL     1     -14.593  14.414 -32.419  1.00  0.00     0.016 C 
BRANCH   3   5
ATOM      5  C   UNL     1     -13.493  15.899 -30.698  1.00  0.00     0.015 C 
BRANCH   5   6
ATOM      6  C   UNL     1     -12.395  14.847 -30.450  1.00  0.00     0.028 C 
BRANCH   6   7
ATOM      7  C   UNL     1     -12.054  14.732 -28.980  1.00  0.00    -0.028 C 
ATOM      8  C   UNL     1     -12.313  13.675 -28.175  1.00  0.00    -0.070 CG0
ATOM      9  C   UNL     1     -11.916  13.782 -26.724  1.00  0.00     0.039 C 
ATOM     10  G   UNL     1     -12.910  12.371 -28.660  1.00  0.00     0.000 G0
ENDBRANCH   6   7
ENDBRANCH   5   6
ENDBRANCH   3   5
ENDBRANCH   1   3
BRANCH   1  11
ATOM     11  C   UNL     1     -15.349  13.001 -30.036  1.00  0.00     0.087 C 
BRANCH  11  12
ATOM     12  C   UNL     1     -15.561  12.470 -28.598  1.00  0.00     0.066 C 
BRANCH  12  13
ATOM     13  C   UNL     1     -14.234  12.098 -27.965  1.00  0.00     0.140 C 
ATOM     14  O   UNL     1     -14.213  11.550 -26.872  1.00  0.00    -0.299 OA
BRANCH  13  15
ATOM     15  C   UNL     1     -12.930  12.356 -28.672  1.00  0.00     0.106 CG0
ATOM     16  G   UNL     1     -12.323  13.655 -28.186  1.00  0.00     0.000 G0
ENDBRANCH  13  15
ENDBRANCH  12  13
BRANCH  12  17
ATOM     17  C   UNL     1     -16.579  11.290 -28.505  1.00  0.00    -0.006 C 
ATOM     18  C   UNL     1     -17.856  11.493 -29.339  1.00  0.00     0.008 C 
ATOM     19  C   UNL     1     -16.953  10.981 -27.046  1.00  0.00     0.008 C 
ENDBRANCH  12  17
ENDBRANCH  11  12
ENDBRANCH   1  11
TORSDOF 1
ENDMDL
MODEL 3
REMARK VINA RESULT:    -3.422      1.682      2.072
REMARK INTER + INTRA:          -5.445
REMARK INTER:                  -5.879
REMARK INTRA:                   0.435
REMARK UNBOUND:                -0.222
REMARK SMILES CC1=CCC[C@@H](C)C(=O)C[C@@H](C(C)C)C(=O)C1
REMARK SMILES IDX 8 1 9 2 6 3 7 4 5 5 4 6 3 7 2 8 1 9 10 11 11 12 15 13 16 14
REMARK SMILES IDX 17 15 12 17 13 18 14 19
REMARK H PARENT
REMARK Flexibility Score: 70.00
ROOT
ATOM      1  C   UNL     1     -16.866  14.091 -30.916  1.00  0.00     0.136 C 
ATOM      2  O   UNL     1     -16.977  14.482 -32.069  1.00  0.00    -0.299 OA
ENDROOT
BRANCH   1   3
ATOM      3  C   UNL     1     -17.856  13.091 -30.357  1.00  0.00     0.053 C 
ATOM      4  C   UNL     1     -19.063  13.841 -29.784  1.00  0.00     0.016 C 
BRANCH   3   5
ATOM      5  C   UNL     1     -17.233  12.174 -29.280  1.00  0.00     0.015 C 
BRANCH   5   6
ATOM      6  C   UNL     1     -16.071  11.306 -29.800  1.00  0.00     0.028 C 
BRANCH   6   7
ATOM      7  C   UNL     1     -15.152  10.875 -28.679  1.00  0.00    -0.028 C 
ATOM      8  C   UNL     1     -14.211  11.637 -28.073  1.00  0.00    -0.070 CG0
ATOM      9  C   UNL     1     -13.377  10.998 -26.991  1.00  0.00     0.039 C 
ATOM     10  G   UNL     1     -13.998  13.107 -28.367  1.00  0.00     0.000 G0
ENDBRANCH   6   7
ENDBRANCH   5   6
ENDBRANCH   3   5
ENDBRANCH   1   3
BRANCH   1  11
ATOM     11  C   UNL     1     -15.717  14.587 -30.072  1.00  0.00     0.087 C 
BRANCH  11  12
ATOM     12  C   UNL     1     -14.345  14.244 -30.698  1.00  0.00     0.066 C 
BRANCH  12  13
ATOM     13  C   UNL     1     -13.562  13.310 -29.794  1.00  0.00     0.140 C 
ATOM     14  O   UNL     1     -12.578  12.727 -30.225  1.00  0.00    -0.299 OA
BRANCH  13  15
ATOM     15  C   UNL     1     -13.950  13.109 -28.353  1.00  0.00     0.106 CG0
ATOM     16  G   UNL     1     -14.220  11.643 -28.086  1.00  0.00     0.000 G0
ENDBRANCH  13  15
ENDBRANCH  12  13
BRANCH  12  17
ATOM     17  C   UNL     1     -13.495  15.497 -31.080  1.00  0.00    -0.006 C 
ATOM     18  C   UNL     1     -14.193  16.839 -30.799  1.00  0.00     0.008 C 
ATOM     19  C   UNL     1     -13.041  15.444 -32.549  1.00  0.00     0.008 C 
ENDBRANCH  12  17
ENDBRANCH  11  12
ENDBRANCH   1  11
TORSDOF 1
ENDMDL
MODEL 4
REMARK VINA RESULT:    -3.371      2.121      4.165
REMARK INTER + INTRA:          -5.366
REMARK INTER:                  -5.549
REMARK INTRA:                   0.183
REMARK UNBOUND:                -0.222
REMARK SMILES CC1=CCC[C@@H](C)C(=O)C[C@@H](C(C)C)C(=O)C1
REMARK SMILES IDX 8 1 9 2 6 3 7 4 5 5 4 6 3 7 2 8 1 9 10 11 11 12 15 13 16 14
REMARK SMILES IDX 17 15 12 17 13 18 14 19
REMARK H PARENT
REMARK Flexibility Score: 70.00
ROOT
ATOM      1  C   UNL     1     -13.526  14.947 -30.771  1.00  0.00     0.136 C 
ATOM      2  O   UNL     1     -13.432  16.165 -30.814  1.00  0.00    -0.299 OA
ENDROOT
BRANCH   1   3
ATOM      3  C   UNL     1     -13.650  14.152 -32.053  1.00  0.00     0.053 C 
ATOM      4  C   UNL     1     -12.562  14.601 -33.035  1.00  0.00     0.016 C 
BRANCH   3   5
ATOM      5  C   UNL     1     -15.046  14.284 -32.704  1.00  0.00     0.015 C 
BRANCH   5   6
ATOM      6  C   UNL     1     -16.101  14.928 -31.784  1.00  0.00     0.028 C 
BRANCH   6   7
ATOM      7  C   UNL     1     -17.172  13.938 -31.385  1.00  0.00    -0.028 C 
ATOM      8  C   UNL     1     -17.175  13.158 -30.278  1.00  0.00    -0.070 CG0
ATOM      9  C   UNL     1     -18.332  12.211 -30.087  1.00  0.00     0.039 C 
ATOM     10  G   UNL     1     -16.125  13.236 -29.189  1.00  0.00     0.000 G0
ENDBRANCH   6   7
ENDBRANCH   5   6
ENDBRANCH   3   5
ENDBRANCH   1   3
BRANCH   1  11
ATOM     11  C   UNL     1     -13.481  14.247 -29.435  1.00  0.00     0.087 C 
BRANCH  11  12
ATOM     12  C   UNL     1     -13.574  12.709 -29.580  1.00  0.00     0.066 C 
BRANCH  12  13
ATOM     13  C   UNL     1     -15.014  12.247 -29.458  1.00  0.00     0.140 C 
ATOM     14  O   UNL     1     -15.283  11.058 -29.558  1.00  0.00    -0.299 OA
BRANCH  13  15
ATOM     15  C   UNL     1     -16.127  13.221 -29.178  1.00  0.00     0.106 CG0
ATOM     16  G   UNL     1     -17.161  13.161 -30.284  1.00  0.00     0.000 G0
ENDBRANCH  13  15
ENDBRANCH  12  13
BRANCH  12  17
ATOM     17  C   UNL     1     -12.648  11.926 -28.597  1.00  0.00    -0.006 C 
ATOM     18  C   UNL     1     -12.706  12.427 -27.144  1.00  0.00     0.008 C 
ATOM     19  C   UNL     1     -11.190  11.913 -29.086  1.00  0.00     0.008 C 
ENDBRANCH  12  17
ENDBRANCH  11  12
ENDBRANCH   1  11
TORSDOF 1
ENDMDL
MODEL 5
REMARK VINA RESULT:    -3.211      2.206      5.033
REMARK INTER + INTRA:          -5.122
REMARK INTER:                  -5.442
REMARK INTRA:                   0.320
REMARK UNBOUND:                -0.222
REMARK SMILES CC1=CCC[C@@H](C)C(=O)C[C@@H](C(C)C)C(=O)C1
REMARK SMILES IDX 8 1 9 2 6 3 7 4 5 5 4 6 3 7 2 8 1 9 10 11 11 12 15 13 16 14
REMARK SMILES IDX 17 15 12 17 13 18 14 19
REMARK H PARENT
REMARK Flexibility Score: 70.00
ROOT
ATOM      1  C   UNL     1     -13.651  12.468 -29.395  1.00  0.00     0.136 C 
ATOM      2  O   UNL     1     -13.914  11.396 -29.920  1.00  0.00    -0.299 OA
ENDROOT
BRANCH   1   3
ATOM      3  C   UNL     1     -12.246  12.747 -28.907  1.00  0.00     0.053 C 
ATOM      4  C   UNL     1     -12.312  13.440 -27.542  1.00  0.00     0.016 C 
BRANCH   3   5
ATOM      5  C   UNL     1     -11.428  13.601 -29.903  1.00  0.00     0.015 C 
BRANCH   5   6
ATOM      6  C   UNL     1     -11.746  13.306 -31.381  1.00  0.00     0.028 C 
BRANCH   6   7
ATOM      7  C   UNL     1     -11.813  14.576 -32.201  1.00  0.00    -0.028 C 
ATOM      8  C   UNL     1     -12.772  15.529 -32.129  1.00  0.00    -0.070 CG0
ATOM      9  C   UNL     1     -12.665  16.707 -33.065  1.00  0.00     0.039 C 
ATOM     10  G   UNL     1     -13.900  15.517 -31.119  1.00  0.00     0.000 G0
ENDBRANCH   6   7
ENDBRANCH   5   6
ENDBRANCH   3   5
ENDBRANCH   1   3
BRANCH   1  11
ATOM     11  C   UNL     1     -14.729  13.517 -29.271  1.00  0.00     0.087 C 
BRANCH  11  12
ATOM     12  C   UNL     1     -15.602  13.607 -30.545  1.00  0.00     0.066 C 
BRANCH  12  13
ATOM     13  C   UNL     1     -14.989  14.569 -31.546  1.00  0.00     0.140 C 
ATOM     14  O   UNL     1     -15.384  14.577 -32.703  1.00  0.00    -0.299 OA
BRANCH  13  15
ATOM     15  C   UNL     1     -13.921  15.548 -31.137  1.00  0.00     0.106 CG0
ATOM     16  G   UNL     1     -12.778  15.516 -32.129  1.00  0.00     0.000 G0
ENDBRANCH  13  15
ENDBRANCH  12  13
BRANCH  12  17
ATOM     17  C   UNL     1     -17.095  13.968 -30.262  1.00  0.00    -0.006 C 
ATOM     18  C   UNL     1     -17.348  14.546 -28.859  1.00  0.00     0.008 C 
ATOM     19  C   UNL     1     -18.021  12.764 -30.504  1.00  0.00     0.008 C 
ENDBRANCH  12  17
ENDBRANCH  11  12
ENDBRANCH   1  11
TORSDOF 1
ENDMDL
MODEL 6
REMARK VINA RESULT:    -3.082      2.153      5.133
REMARK INTER + INTRA:          -4.926
REMARK INTER:                  -5.876
REMARK INTRA:                   0.950
REMARK UNBOUND:                -0.222
REMARK SMILES CC1=CCC[C@@H](C)C(=O)C[C@@H](C(C)C)C(=O)C1
REMARK SMILES IDX 8 1 9 2 6 3 7 4 5 5 4 6 3 7 2 8 1 9 10 11 11 12 15 13 16 14
REMARK SMILES IDX 17 15 12 17 13 18 14 19
REMARK H PARENT
REMARK Flexibility Score: 70.00
ROOT
ATOM      1  C   UNL     1     -13.955  12.262 -27.839  1.00  0.00     0.136 C 
ATOM      2  O   UNL     1     -13.506  11.526 -26.973  1.00  0.00    -0.299 OA
ENDROOT
BRANCH   1   3
ATOM      3  C   UNL     1     -13.064  12.735 -28.967  1.00  0.00     0.053 C 
ATOM      4  C   UNL     1     -11.994  11.674 -29.245  1.00  0.00     0.016 C 
BRANCH   3   5
ATOM      5  C   UNL     1     -12.401  14.100 -28.671  1.00  0.00     0.015 C 
BRANCH   5   6
ATOM      6  C   UNL     1     -12.683  15.171 -29.743  1.00  0.00     0.028 C 
BRANCH   6   7
ATOM      7  C   UNL     1     -13.430  14.594 -30.925  1.00  0.00    -0.028 C 
ATOM      8  C   UNL     1     -14.771  14.601 -31.110  1.00  0.00    -0.070 CG0
ATOM      9  C   UNL     1     -15.314  13.939 -32.351  1.00  0.00     0.039 C 
ATOM     10  G   UNL     1     -15.747  15.297 -30.184  1.00  0.00     0.000 G0
ENDBRANCH   6   7
ENDBRANCH   5   6
ENDBRANCH   3   5
ENDBRANCH   1   3
BRANCH   1  11
ATOM     11  C   UNL     1     -15.410  12.664 -27.789  1.00  0.00     0.087 C 
BRANCH  11  12
ATOM     12  C   UNL     1     -16.007  12.863 -29.202  1.00  0.00     0.066 C 
BRANCH  12  13
ATOM     13  C   UNL     1     -16.505  14.285 -29.376  1.00  0.00     0.140 C 
ATOM     14  O   UNL     1     -17.532  14.644 -28.818  1.00  0.00    -0.299 OA
BRANCH  13  15
ATOM     15  C   UNL     1     -15.740  15.287 -30.200  1.00  0.00     0.106 CG0
ATOM     16  G   UNL     1     -14.754  14.574 -31.102  1.00  0.00     0.000 G0
ENDBRANCH  13  15
ENDBRANCH  12  13
BRANCH  12  17
ATOM     17  C   UNL     1     -17.119  11.830 -29.568  1.00  0.00    -0.006 C 
ATOM     18  C   UNL     1     -18.310  12.432 -30.332  1.00  0.00     0.008 C 
ATOM     19  C   UNL     1     -17.623  11.080 -28.323  1.00  0.00     0.008 C 
ENDBRANCH  12  17
ENDBRANCH  11  12
ENDBRANCH   1  11
TORSDOF 1
ENDMDL
MODEL 7
REMARK VINA RESULT:    -3.067      2.058      4.083
REMARK INTER + INTRA:          -4.903
REMARK INTER:                  -6.065
REMARK INTRA:                   1.162
REMARK UNBOUND:                -0.222
REMARK SMILES CC1=CCC[C@@H](C)C(=O)C[C@@H](C(C)C)C(=O)C1
REMARK SMILES IDX 8 1 9 2 6 3 7 4 5 5 4 6 3 7 2 8 1 9 10 11 11 12 15 13 16 14
REMARK SMILES IDX 17 15 12 17 13 18 14 19
REMARK H PARENT
REMARK Flexibility Score: 70.00
ROOT
ATOM      1  C   UNL     1     -14.181  14.359 -32.345  1.00  0.00     0.136 C 
ATOM      2  O   UNL     1     -13.556  14.228 -33.388  1.00  0.00    -0.299 OA
ENDROOT
BRANCH   1   3
ATOM      3  C   UNL     1     -14.092  15.654 -31.568  1.00  0.00     0.053 C 
ATOM      4  C   UNL     1     -13.134  16.611 -32.285  1.00  0.00     0.016 C 
BRANCH   3   5
ATOM      5  C   UNL     1     -13.642  15.442 -30.105  1.00  0.00     0.015 C 
BRANCH   5   6
ATOM      6  C   UNL     1     -12.112  15.361 -29.932  1.00  0.00     0.028 C 
BRANCH   6   7
ATOM      7  C   UNL     1     -11.567  14.036 -30.416  1.00  0.00    -0.028 C 
ATOM      8  C   UNL     1     -11.932  12.807 -29.979  1.00  0.00    -0.070 CG0
ATOM      9  C   UNL     1     -11.235  11.611 -30.576  1.00  0.00     0.039 C 
ATOM     10  G   UNL     1     -13.046  12.564 -28.981  1.00  0.00     0.000 G0
ENDBRANCH   6   7
ENDBRANCH   5   6
ENDBRANCH   3   5
ENDBRANCH   1   3
BRANCH   1  11
ATOM     11  C   UNL     1     -15.065  13.234 -31.865  1.00  0.00     0.087 C 
BRANCH  11  12
ATOM     12  C   UNL     1     -15.209  13.225 -30.324  1.00  0.00     0.066 C 
BRANCH  12  13
ATOM     13  C   UNL     1     -14.316  12.162 -29.711  1.00  0.00     0.140 C 
ATOM     14  O   UNL     1     -14.604  10.980 -29.833  1.00  0.00    -0.299 OA
BRANCH  13  15
ATOM     15  C   UNL     1     -13.054  12.529 -28.978  1.00  0.00     0.106 CG0
ATOM     16  G   UNL     1     -11.938  12.799 -29.967  1.00  0.00     0.000 G0
ENDBRANCH  13  15
ENDBRANCH  12  13
BRANCH  12  17
ATOM     17  C   UNL     1     -16.682  13.074 -29.830  1.00  0.00    -0.006 C 
ATOM     18  C   UNL     1     -17.739  13.513 -30.858  1.00  0.00     0.008 C 
ATOM     19  C   UNL     1     -16.909  13.815 -28.501  1.00  0.00     0.008 C 
ENDBRANCH  12  17
ENDBRANCH  11  12
ENDBRANCH   1  11
TORSDOF 1
ENDMDL
MODEL 8
REMARK VINA RESULT:    -2.247      1.824      4.415
REMARK INTER + INTRA:          -3.651
REMARK INTER:                  -4.903
REMARK INTRA:                   1.252
REMARK UNBOUND:                -0.222
REMARK SMILES CC1=CCC[C@@H](C)C(=O)C[C@@H](C(C)C)C(=O)C1
REMARK SMILES IDX 8 1 9 2 6 3 7 4 5 5 4 6 3 7 2 8 1 9 10 11 11 12 15 13 16 14
REMARK SMILES IDX 17 15 12 17 13 18 14 19
REMARK H PARENT
REMARK Flexibility Score: 70.00
ROOT
ATOM      1  C   UNL     1     -14.755  12.553 -28.002  1.00  0.00     0.136 C 
ATOM      2  O   UNL     1     -15.392  11.693 -27.411  1.00  0.00    -0.299 OA
ENDROOT
BRANCH   1   3
ATOM      3  C   UNL     1     -13.268  12.376 -28.219  1.00  0.00     0.053 C 
ATOM      4  C   UNL     1     -12.874  10.935 -27.877  1.00  0.00     0.016 C 
BRANCH   3   5
ATOM      5  C   UNL     1     -12.422  13.373 -27.394  1.00  0.00     0.015 C 
BRANCH   5   6
ATOM      6  C   UNL     1     -11.615  14.363 -28.256  1.00  0.00     0.028 C 
BRANCH   6   7
ATOM      7  C   UNL     1     -11.703  14.021 -29.727  1.00  0.00    -0.028 C 
ATOM      8  C   UNL     1     -12.522  14.597 -30.639  1.00  0.00    -0.070 CG0
ATOM      9  C   UNL     1     -12.472  14.082 -32.055  1.00  0.00     0.039 C 
ATOM     10  G   UNL     1     -13.428  15.772 -30.335  1.00  0.00     0.000 G0
ENDBRANCH   6   7
ENDBRANCH   5   6
ENDBRANCH   3   5
ENDBRANCH   1   3
BRANCH   1  11
ATOM     11  C   UNL     1     -15.470  13.769 -28.540  1.00  0.00     0.087 C 
BRANCH  11  12
ATOM     12  C   UNL     1     -15.304  13.911 -30.071  1.00  0.00     0.066 C 
BRANCH  12  13
ATOM     13  C   UNL     1     -14.889  15.325 -30.434  1.00  0.00     0.140 C 
ATOM     14  O   UNL     1     -15.735  16.140 -30.774  1.00  0.00    -0.299 OA
BRANCH  13  15
ATOM     15  C   UNL     1     -13.452  15.764 -30.353  1.00  0.00     0.106 CG0
ATOM     16  G   UNL     1     -12.533  14.589 -30.617  1.00  0.00     0.000 G0
ENDBRANCH  13  15
ENDBRANCH  12  13
BRANCH  12  17
ATOM     17  C   UNL     1     -16.560  13.468 -30.886  1.00  0.00    -0.006 C 
ATOM     18  C   UNL     1     -16.850  14.340 -32.119  1.00  0.00     0.008 C 
ATOM     19  C   UNL     1     -17.811  13.391 -29.995  1.00  0.00     0.008 C 
ENDBRANCH  12  17
ENDBRANCH  11  12
ENDBRANCH   1  11
TORSDOF 1
ENDMDL
MODEL 9
REMARK VINA RESULT:    -1.568     10.402     12.172
REMARK INTER + INTRA:          -2.614
REMARK INTER:                  -4.698
REMARK INTRA:                   2.084
REMARK UNBOUND:                -0.222
REMARK SMILES CC1=CCC[C@@H](C)C(=O)C[C@@H](C(C)C)C(=O)C1
REMARK SMILES IDX 8 1 9 2 6 3 7 4 5 5 4 6 3 7 2 8 1 9 10 11 11 12 15 13 16 14
REMARK SMILES IDX 17 15 12 17 13 18 14 19
REMARK H PARENT
REMARK Flexibility Score: 70.00
ROOT
ATOM      1  C   UNL     1     -27.056  12.420 -31.219  1.00  0.00     0.136 C 
ATOM      2  O   UNL     1     -26.560  12.298 -32.330  1.00  0.00    -0.299 OA
ENDROOT
BRANCH   1   3
ATOM      3  C   UNL     1     -28.075  11.415 -30.730  1.00  0.00     0.053 C 
ATOM      4  C   UNL     1     -29.479  12.020 -30.847  1.00  0.00     0.016 C 
BRANCH   3   5
ATOM      5  C   UNL     1     -27.809  10.953 -29.279  1.00  0.00     0.015 C 
BRANCH   5   6
ATOM      6  C   UNL     1     -27.233  12.058 -28.373  1.00  0.00     0.028 C 
BRANCH   6   7
ATOM      7  C   UNL     1     -25.972  11.602 -27.672  1.00  0.00    -0.028 C 
ATOM      8  C   UNL     1     -24.768  11.380 -28.248  1.00  0.00    -0.070 CG0
ATOM      9  C   UNL     1     -23.644  10.895 -27.367  1.00  0.00     0.039 C 
ATOM     10  G   UNL     1     -24.466  11.658 -29.706  1.00  0.00     0.000 G0
ENDBRANCH   6   7
ENDBRANCH   5   6
ENDBRANCH   3   5
ENDBRANCH   1   3
BRANCH   1  11
ATOM     11  C   UNL     1     -26.615  13.560 -30.333  1.00  0.00     0.087 C 
BRANCH  11  12
ATOM     12  C   UNL     1     -25.168  14.010 -30.641  1.00  0.00     0.066 C 
BRANCH  12  13
ATOM     13  C   UNL     1     -24.167  13.112 -29.938  1.00  0.00     0.140 C 
ATOM     14  O   UNL     1     -23.119  13.580 -29.517  1.00  0.00    -0.299 OA
BRANCH  13  15
ATOM     15  C   UNL     1     -24.451  11.651 -29.712  1.00  0.00     0.106 CG0
ATOM     16  G   UNL     1     -24.759  11.400 -28.251  1.00  0.00     0.000 G0
ENDBRANCH  13  15
ENDBRANCH  12  13
BRANCH  12  17
ATOM     17  C   UNL     1     -24.893  15.514 -30.320  1.00  0.00    -0.006 C 
ATOM     18  C   UNL     1     -26.156  16.392 -30.297  1.00  0.00     0.008 C 
ATOM     19  C   UNL     1     -23.857  16.116 -31.284  1.00  0.00     0.008 C 
ENDBRANCH  12  17
ENDBRANCH  11  12
ENDBRANCH   1  11
TORSDOF 1
ENDMDL
