MODEL 1
REMARK VINA RESULT:    -2.258      0.000      0.000
REMARK INTER + INTRA:          -3.628
REMARK INTER:                  -3.249
REMARK INTRA:                  -0.379
REMARK UNBOUND:                -0.379
REMARK SMILES O=C(CO)[C@H](O)[C@@H](O)[C@@H](O)CO
REMARK SMILES IDX 7 1 9 2 11 3 12 4 10 6 5 8 2 9 1 10 3 11 4 12 6 14 8 16
REMARK H PARENT 12 5 10 7 4 13 6 15 8 17
REMARK Flexibility Score: inf
ROOT
ATOM      1  C   UNL     1       5.535  39.080  14.955  1.00  0.00     0.181 C 
ENDROOT
BRANCH   1   2
ATOM      2  C   UNL     1       4.162  39.207  15.676  1.00  0.00     0.171 C 
BRANCH   2   3
ATOM      3  C   UNL     1       3.287  37.956  15.462  1.00  0.00     0.190 C 
BRANCH   3   4
ATOM      4  O   UNL     1       2.074  38.303  14.850  1.00  0.00    -0.394 OA
ATOM      5  H   UNL     1       2.242  39.137  14.338  1.00  0.00     0.210 HD
ENDBRANCH   3   4
ENDBRANCH   2   3
BRANCH   2   6
ATOM      6  O   UNL     1       3.470  40.355  15.252  1.00  0.00    -0.388 OA
ATOM      7  H   UNL     1       3.062  40.149  14.371  1.00  0.00     0.211 HD
ENDBRANCH   2   6
ENDBRANCH   1   2
BRANCH   1   8
ATOM      8  C   UNL     1       6.738  39.152  15.940  1.00  0.00     0.214 C 
BRANCH   8   9
ATOM      9  C   UNL     1       7.796  40.152  15.518  1.00  0.00     0.189 C 
ATOM     10  O   UNL     1       7.656  41.329  15.821  1.00  0.00    -0.294 OA
BRANCH   9  11
ATOM     11  C   UNL     1       9.027  39.742  14.757  1.00  0.00     0.234 C 
BRANCH  11  12
ATOM     12  O   UNL     1       9.888  39.035  15.605  1.00  0.00    -0.388 OA
ATOM     13  H   UNL     1      10.060  38.164  15.160  1.00  0.00     0.211 HD
ENDBRANCH  11  12
ENDBRANCH   9  11
ENDBRANCH   8   9
BRANCH   8  14
ATOM     14  O   UNL     1       7.324  37.886  16.125  1.00  0.00    -0.382 OA
ATOM     15  H   UNL     1       6.789  37.394  16.800  1.00  0.00     0.211 HD
ENDBRANCH   8  14
ENDBRANCH   1   8
BRANCH   1  16
ATOM     16  O   UNL     1       5.591  37.877  14.228  1.00  0.00    -0.387 OA
ATOM     17  H   UNL     1       4.746  37.799  13.712  1.00  0.00     0.211 HD
ENDBRANCH   1  16
TORSDOF 10
ENDMDL
MODEL 2
REMARK VINA RESULT:    -1.273      1.380      2.502
REMARK INTER + INTRA:          -2.210
REMARK INTER:                  -1.677
REMARK INTRA:                  -0.533
REMARK UNBOUND:                -0.379
REMARK SMILES O=C(CO)[C@H](O)[C@@H](O)[C@@H](O)CO
REMARK SMILES IDX 7 1 9 2 11 3 12 4 10 6 5 8 2 9 1 10 3 11 4 12 6 14 8 16
REMARK H PARENT 12 5 10 7 4 13 6 15 8 17
REMARK Flexibility Score: inf
ROOT
ATOM      1  C   UNL     1       6.588  40.070  15.590  1.00  0.00     0.181 C 
ENDROOT
BRANCH   1   2
ATOM      2  C   UNL     1       5.371  39.257  15.060  1.00  0.00     0.171 C 
BRANCH   2   3
ATOM      3  C   UNL     1       4.052  40.039  15.213  1.00  0.00     0.190 C 
BRANCH   3   4
ATOM      4  O   UNL     1       3.181  39.368  16.084  1.00  0.00    -0.394 OA
ATOM      5  H   UNL     1       2.359  39.167  15.565  1.00  0.00     0.210 HD
ENDBRANCH   3   4
ENDBRANCH   2   3
BRANCH   2   6
ATOM      6  O   UNL     1       5.271  38.014  15.708  1.00  0.00    -0.388 OA
ATOM      7  H   UNL     1       4.520  38.074  16.355  1.00  0.00     0.211 HD
ENDBRANCH   2   6
ENDBRANCH   1   2
BRANCH   1   8
ATOM      8  C   UNL     1       7.892  39.788  14.789  1.00  0.00     0.214 C 
BRANCH   8   9
ATOM      9  C   UNL     1       8.791  38.765  15.453  1.00  0.00     0.189 C 
ATOM     10  O   UNL     1       8.286  37.876  16.125  1.00  0.00    -0.294 OA
BRANCH   9  11
ATOM     11  C   UNL     1      10.287  38.792  15.297  1.00  0.00     0.234 C 
BRANCH  11  12
ATOM     12  O   UNL     1      10.614  39.180  13.992  1.00  0.00    -0.388 OA
ATOM     13  H   UNL     1      11.083  40.052  14.073  1.00  0.00     0.211 HD
ENDBRANCH  11  12
ENDBRANCH   9  11
ENDBRANCH   8   9
BRANCH   8  14
ATOM     14  O   UNL     1       8.613  40.973  14.551  1.00  0.00    -0.382 OA
ATOM     15  H   UNL     1       8.063  41.556  13.965  1.00  0.00     0.211 HD
ENDBRANCH   8  14
ENDBRANCH   1   8
BRANCH   1  16
ATOM     16  O   UNL     1       6.302  41.447  15.558  1.00  0.00    -0.387 OA
ATOM     17  H   UNL     1       5.742  41.656  16.352  1.00  0.00     0.211 HD
ENDBRANCH   1  16
TORSDOF 10
ENDMDL
