MODEL 1
REMARK VINA RESULT:    -3.718      0.000      0.000
REMARK INTER + INTRA:          -5.095
REMARK INTER:                  -4.805
REMARK INTRA:                  -0.290
REMARK UNBOUND:                -0.290
REMARK SMILES CCCCCCC(=O)[O-]
REMARK SMILES IDX 5 1 6 2 7 3 8 4 9 5 4 6 3 7 2 8 1 9
REMARK H PARENT
REMARK Flexibility Score: inf
ROOT
ATOM      1  C   UNL     1      52.393  -1.608  72.676  1.00  0.00     0.006 C 
ENDROOT
BRANCH   1   2
ATOM      2  C   UNL     1      53.471  -1.319  71.624  1.00  0.00     0.053 C 
BRANCH   2   3
ATOM      3  C   UNL     1      53.485   0.125  71.223  1.00  0.00     0.041 C 
ATOM      4  O   UNL     1      54.559   0.672  70.864  1.00  0.00    -0.550 OA
ATOM      5  O   UNL     1      52.302   0.855  71.213  1.00  0.00    -0.550 OA
ENDBRANCH   2   3
ENDBRANCH   1   2
BRANCH   1   6
ATOM      6  C   UNL     1      51.576  -2.868  72.340  1.00  0.00     0.000 C 
BRANCH   6   7
ATOM      7  C   UNL     1      50.137  -2.540  71.909  1.00  0.00    -0.000 C 
BRANCH   7   8
ATOM      8  C   UNL     1      49.661  -1.177  72.429  1.00  0.00    -0.003 C 
ATOM      9  C   UNL     1      48.632  -0.558  71.487  1.00  0.00     0.004 C 
ENDBRANCH   7   8
ENDBRANCH   6   7
ENDBRANCH   1   6
TORSDOF 5
ENDMDL
MODEL 2
REMARK VINA RESULT:    -3.605     12.179     12.800
REMARK INTER + INTRA:          -4.949
REMARK INTER:                  -4.789
REMARK INTRA:                  -0.161
REMARK UNBOUND:                -0.290
REMARK SMILES CCCCCCC(=O)[O-]
REMARK SMILES IDX 5 1 6 2 7 3 8 4 9 5 4 6 3 7 2 8 1 9
REMARK H PARENT
REMARK Flexibility Score: inf
ROOT
ATOM      1  C   UNL     1      58.348  -3.060  81.594  1.00  0.00     0.006 C 
ENDROOT
BRANCH   1   2
ATOM      2  C   UNL     1      59.549  -3.796  82.202  1.00  0.00     0.053 C 
BRANCH   2   3
ATOM      3  C   UNL     1      60.724  -3.806  81.272  1.00  0.00     0.041 C 
ATOM      4  O   UNL     1      61.110  -2.739  80.728  1.00  0.00    -0.550 OA
ATOM      5  O   UNL     1      61.413  -4.989  81.034  1.00  0.00    -0.550 OA
ENDBRANCH   2   3
ENDBRANCH   1   2
BRANCH   1   6
ATOM      6  C   UNL     1      57.007  -3.623  82.098  1.00  0.00     0.000 C 
BRANCH   6   7
ATOM      7  C   UNL     1      56.172  -2.573  82.850  1.00  0.00    -0.000 C 
BRANCH   7   8
ATOM      8  C   UNL     1      56.991  -1.332  83.233  1.00  0.00    -0.003 C 
ATOM      9  C   UNL     1      56.176  -0.386  84.110  1.00  0.00     0.004 C 
ENDBRANCH   7   8
ENDBRANCH   6   7
ENDBRANCH   1   6
TORSDOF 5
ENDMDL
MODEL 3
REMARK VINA RESULT:    -3.592      1.718      2.334
REMARK INTER + INTRA:          -4.932
REMARK INTER:                  -4.688
REMARK INTRA:                  -0.244
REMARK UNBOUND:                -0.290
REMARK SMILES CCCCCCC(=O)[O-]
REMARK SMILES IDX 5 1 6 2 7 3 8 4 9 5 4 6 3 7 2 8 1 9
REMARK H PARENT
REMARK Flexibility Score: inf
ROOT
ATOM      1  C   UNL     1      50.740  -2.220  72.388  1.00  0.00     0.006 C 
ENDROOT
BRANCH   1   2
ATOM      2  C   UNL     1      51.547  -0.954  72.070  1.00  0.00     0.053 C 
BRANCH   2   3
ATOM      3  C   UNL     1      53.012  -1.244  71.956  1.00  0.00     0.041 C 
ATOM      4  O   UNL     1      53.516  -2.217  72.575  1.00  0.00    -0.550 OA
ATOM      5  O   UNL     1      53.815  -0.459  71.137  1.00  0.00    -0.550 OA
ENDBRANCH   2   3
ENDBRANCH   1   2
BRANCH   1   6
ATOM      6  C   UNL     1      49.227  -2.004  72.210  1.00  0.00     0.000 C 
BRANCH   6   7
ATOM      7  C   UNL     1      48.893  -0.623  71.622  1.00  0.00    -0.000 C 
BRANCH   7   8
ATOM      8  C   UNL     1      48.066   0.243  72.584  1.00  0.00    -0.003 C 
ATOM      9  C   UNL     1      48.888   1.416  73.110  1.00  0.00     0.004 C 
ENDBRANCH   7   8
ENDBRANCH   6   7
ENDBRANCH   1   6
TORSDOF 5
ENDMDL
MODEL 4
REMARK VINA RESULT:    -3.538     12.285     12.820
REMARK INTER + INTRA:          -4.863
REMARK INTER:                  -4.675
REMARK INTRA:                  -0.188
REMARK UNBOUND:                -0.290
REMARK SMILES CCCCCCC(=O)[O-]
REMARK SMILES IDX 5 1 6 2 7 3 8 4 9 5 4 6 3 7 2 8 1 9
REMARK H PARENT
REMARK Flexibility Score: inf
ROOT
ATOM      1  C   UNL     1      57.079  -3.384  82.163  1.00  0.00     0.006 C 
ENDROOT
BRANCH   1   2
ATOM      2  C   UNL     1      58.486  -2.814  81.944  1.00  0.00     0.053 C 
BRANCH   2   3
ATOM      3  C   UNL     1      59.535  -3.880  82.016  1.00  0.00     0.041 C 
ATOM      4  O   UNL     1      60.557  -3.814  81.284  1.00  0.00    -0.550 OA
ATOM      5  O   UNL     1      59.401  -4.930  82.917  1.00  0.00    -0.550 OA
ENDBRANCH   2   3
ENDBRANCH   1   2
BRANCH   1   6
ATOM      6  C   UNL     1      56.152  -2.384  82.877  1.00  0.00     0.000 C 
BRANCH   6   7
ATOM      7  C   UNL     1      56.909  -1.161  83.419  1.00  0.00    -0.000 C 
BRANCH   7   8
ATOM      8  C   UNL     1      56.007  -0.221  84.232  1.00  0.00    -0.003 C 
ATOM      9  C   UNL     1      54.633  -0.084  83.583  1.00  0.00     0.004 C 
ENDBRANCH   7   8
ENDBRANCH   6   7
ENDBRANCH   1   6
TORSDOF 5
ENDMDL
MODEL 5
REMARK VINA RESULT:    -3.518     12.567     13.218
REMARK INTER + INTRA:          -4.837
REMARK INTER:                  -4.644
REMARK INTRA:                  -0.193
REMARK UNBOUND:                -0.290
REMARK SMILES CCCCCCC(=O)[O-]
REMARK SMILES IDX 5 1 6 2 7 3 8 4 9 5 4 6 3 7 2 8 1 9
REMARK H PARENT
REMARK Flexibility Score: inf
ROOT
ATOM      1  C   UNL     1      58.584  -2.728  81.799  1.00  0.00     0.006 C 
ENDROOT
BRANCH   1   2
ATOM      2  C   UNL     1      59.708  -3.516  82.483  1.00  0.00     0.053 C 
BRANCH   2   3
ATOM      3  C   UNL     1      59.409  -4.983  82.530  1.00  0.00     0.041 C 
ATOM      4  O   UNL     1      58.231  -5.384  82.722  1.00  0.00    -0.550 OA
ATOM      5  O   UNL     1      60.426  -5.908  82.326  1.00  0.00    -0.550 OA
ENDBRANCH   2   3
ENDBRANCH   1   2
BRANCH   1   6
ATOM      6  C   UNL     1      57.759  -1.902  82.803  1.00  0.00     0.000 C 
BRANCH   6   7
ATOM      7  C   UNL     1      56.287  -2.340  82.858  1.00  0.00    -0.000 C 
BRANCH   7   8
ATOM      8  C   UNL     1      55.352  -1.209  83.311  1.00  0.00    -0.003 C 
ATOM      9  C   UNL     1      56.109  -0.164  84.126  1.00  0.00     0.004 C 
ENDBRANCH   7   8
ENDBRANCH   6   7
ENDBRANCH   1   6
TORSDOF 5
ENDMDL
MODEL 6
REMARK VINA RESULT:    -3.476      3.025      3.551
REMARK INTER + INTRA:          -4.782
REMARK INTER:                  -4.639
REMARK INTRA:                  -0.144
REMARK UNBOUND:                -0.290
REMARK SMILES CCCCCCC(=O)[O-]
REMARK SMILES IDX 5 1 6 2 7 3 8 4 9 5 4 6 3 7 2 8 1 9
REMARK H PARENT
REMARK Flexibility Score: inf
ROOT
ATOM      1  C   UNL     1      52.284  -2.030  72.733  1.00  0.00     0.006 C 
ENDROOT
BRANCH   1   2
ATOM      2  C   UNL     1      53.550  -2.798  72.333  1.00  0.00     0.053 C 
BRANCH   2   3
ATOM      3  C   UNL     1      53.878  -3.880  73.317  1.00  0.00     0.041 C 
ATOM      4  O   UNL     1      52.969  -4.394  74.019  1.00  0.00    -0.550 OA
ATOM      5  O   UNL     1      55.183  -4.343  73.433  1.00  0.00    -0.550 OA
ENDBRANCH   2   3
ENDBRANCH   1   2
BRANCH   1   6
ATOM      6  C   UNL     1      52.142  -0.704  71.965  1.00  0.00     0.000 C 
BRANCH   6   7
ATOM      7  C   UNL     1      50.706  -0.155  71.994  1.00  0.00    -0.000 C 
BRANCH   7   8
ATOM      8  C   UNL     1      49.649  -1.269  71.976  1.00  0.00    -0.003 C 
ATOM      9  C   UNL     1      48.248  -0.691  71.797  1.00  0.00     0.004 C 
ENDBRANCH   7   8
ENDBRANCH   6   7
ENDBRANCH   1   6
TORSDOF 5
ENDMDL
MODEL 7
REMARK VINA RESULT:    -3.455      2.098      4.042
REMARK INTER + INTRA:          -4.756
REMARK INTER:                  -4.518
REMARK INTRA:                  -0.238
REMARK UNBOUND:                -0.290
REMARK SMILES CCCCCCC(=O)[O-]
REMARK SMILES IDX 5 1 6 2 7 3 8 4 9 5 4 6 3 7 2 8 1 9
REMARK H PARENT
REMARK Flexibility Score: inf
ROOT
ATOM      1  C   UNL     1      51.007  -2.089  72.111  1.00  0.00     0.006 C 
ENDROOT
BRANCH   1   2
ATOM      2  C   UNL     1      49.821  -1.633  72.970  1.00  0.00     0.053 C 
BRANCH   2   3
ATOM      3  C   UNL     1      49.152  -0.421  72.395  1.00  0.00     0.041 C 
ATOM      4  O   UNL     1      49.670   0.716  72.538  1.00  0.00    -0.550 OA
ATOM      5  O   UNL     1      47.973  -0.555  71.671  1.00  0.00    -0.550 OA
ENDBRANCH   2   3
ENDBRANCH   1   2
BRANCH   1   6
ATOM      6  C   UNL     1      52.344  -1.989  72.868  1.00  0.00     0.000 C 
BRANCH   6   7
ATOM      7  C   UNL     1      53.463  -1.377  72.011  1.00  0.00    -0.000 C 
BRANCH   7   8
ATOM      8  C   UNL     1      53.028  -0.081  71.311  1.00  0.00    -0.003 C 
ATOM      9  C   UNL     1      54.232   0.669  70.749  1.00  0.00     0.004 C 
ENDBRANCH   7   8
ENDBRANCH   6   7
ENDBRANCH   1   6
TORSDOF 5
ENDMDL
MODEL 8
REMARK VINA RESULT:    -3.453      1.963      2.536
REMARK INTER + INTRA:          -4.752
REMARK INTER:                  -4.550
REMARK INTRA:                  -0.202
REMARK UNBOUND:                -0.290
REMARK SMILES CCCCCCC(=O)[O-]
REMARK SMILES IDX 5 1 6 2 7 3 8 4 9 5 4 6 3 7 2 8 1 9
REMARK H PARENT
REMARK Flexibility Score: inf
ROOT
ATOM      1  C   UNL     1      50.879  -1.776  72.846  1.00  0.00     0.006 C 
ENDROOT
BRANCH   1   2
ATOM      2  C   UNL     1      51.684  -0.687  72.125  1.00  0.00     0.053 C 
BRANCH   2   3
ATOM      3  C   UNL     1      53.085  -1.133  71.833  1.00  0.00     0.041 C 
ATOM      4  O   UNL     1      53.504  -2.233  72.277  1.00  0.00    -0.550 OA
ATOM      5  O   UNL     1      53.915  -0.349  71.042  1.00  0.00    -0.550 OA
ENDBRANCH   2   3
ENDBRANCH   1   2
BRANCH   1   6
ATOM      6  C   UNL     1      49.829  -2.426  71.927  1.00  0.00     0.000 C 
BRANCH   6   7
ATOM      7  C   UNL     1      50.062  -3.935  71.740  1.00  0.00    -0.000 C 
BRANCH   7   8
ATOM      8  C   UNL     1      49.079  -4.788  72.554  1.00  0.00    -0.003 C 
ATOM      9  C   UNL     1      47.675  -4.189  72.521  1.00  0.00     0.004 C 
ENDBRANCH   7   8
ENDBRANCH   6   7
ENDBRANCH   1   6
TORSDOF 5
ENDMDL
MODEL 9
REMARK VINA RESULT:    -3.333     13.473     14.390
REMARK INTER + INTRA:          -4.598
REMARK INTER:                  -4.296
REMARK INTRA:                  -0.301
REMARK UNBOUND:                -0.290
REMARK SMILES CCCCCCC(=O)[O-]
REMARK SMILES IDX 5 1 6 2 7 3 8 4 9 5 4 6 3 7 2 8 1 9
REMARK H PARENT
REMARK Flexibility Score: inf
ROOT
ATOM      1  C   UNL     1      59.502  -7.298  82.475  1.00  0.00     0.006 C 
ENDROOT
BRANCH   1   2
ATOM      2  C   UNL     1      60.980  -7.659  82.274  1.00  0.00     0.053 C 
BRANCH   2   3
ATOM      3  C   UNL     1      61.475  -7.239  80.924  1.00  0.00     0.041 C 
ATOM      4  O   UNL     1      62.025  -6.117  80.771  1.00  0.00    -0.550 OA
ATOM      5  O   UNL     1      61.361  -8.102  79.841  1.00  0.00    -0.550 OA
ENDBRANCH   2   3
ENDBRANCH   1   2
BRANCH   1   6
ATOM      6  C   UNL     1      59.326  -6.021  83.317  1.00  0.00     0.000 C 
BRANCH   6   7
ATOM      7  C   UNL     1      58.767  -4.847  82.497  1.00  0.00    -0.000 C 
BRANCH   7   8
ATOM      8  C   UNL     1      59.638  -3.587  82.601  1.00  0.00    -0.003 C 
ATOM      9  C   UNL     1      60.164  -3.169  81.231  1.00  0.00     0.004 C 
ENDBRANCH   7   8
ENDBRANCH   6   7
ENDBRANCH   1   6
TORSDOF 5
ENDMDL
