MODEL 1
REMARK VINA RESULT:    -3.696      0.000      0.000
REMARK INTER + INTRA:          -5.895
REMARK INTER:                  -5.641
REMARK INTRA:                  -0.254
REMARK UNBOUND:                -0.254
REMARK SMILES O=C([O-])CCCCCCCCC(=O)[O-]
REMARK SMILES IDX 7 1 6 2 5 3 4 4 2 5 1 6 3 7 8 8 9 9 10 10 11 11 12 12 13 13
REMARK SMILES IDX 14 14
REMARK H PARENT
REMARK Flexibility Score: inf
ROOT
ATOM      1  C   UNL     1      35.054 106.736 263.927  1.00  0.00     0.000 C 
ENDROOT
BRANCH   1   2
ATOM      2  C   UNL     1      35.599 105.569 263.081  1.00  0.00     0.000 C 
BRANCH   2   3
ATOM      3  C   UNL     1      36.407 105.983 261.835  1.00  0.00     0.006 C 
BRANCH   3   4
ATOM      4  C   UNL     1      36.732 104.831 260.872  1.00  0.00     0.053 C 
BRANCH   4   5
ATOM      5  C   UNL     1      37.251 105.327 259.557  1.00  0.00     0.041 C 
ATOM      6  O   UNL     1      38.262 104.791 259.032  1.00  0.00    -0.550 OA
ATOM      7  O   UNL     1      36.598 106.360 258.897  1.00  0.00    -0.550 OA
ENDBRANCH   4   5
ENDBRANCH   3   4
ENDBRANCH   2   3
ENDBRANCH   1   2
BRANCH   1   8
ATOM      8  C   UNL     1      35.200 106.497 265.440  1.00  0.00     0.000 C 
BRANCH   8   9
ATOM      9  C   UNL     1      34.939 107.768 266.265  1.00  0.00     0.000 C 
BRANCH   9  10
ATOM     10  C   UNL     1      35.722 107.788 267.587  1.00  0.00     0.006 C 
BRANCH  10  11
ATOM     11  C   UNL     1      34.883 107.203 268.728  1.00  0.00     0.053 C 
BRANCH  11  12
ATOM     12  C   UNL     1      35.454 105.897 269.182  1.00  0.00     0.041 C 
ATOM     13  O   UNL     1      36.378 105.871 270.036  1.00  0.00    -0.550 OA
ATOM     14  O   UNL     1      34.932 104.705 268.696  1.00  0.00    -0.550 OA
ENDBRANCH  11  12
ENDBRANCH  10  11
ENDBRANCH   9  10
ENDBRANCH   8   9
ENDBRANCH   1   8
TORSDOF 9
ENDMDL
MODEL 2
REMARK VINA RESULT:    -3.681      1.199      8.131
REMARK INTER + INTRA:          -5.872
REMARK INTER:                  -5.564
REMARK INTRA:                  -0.308
REMARK UNBOUND:                -0.254
REMARK SMILES O=C([O-])CCCCCCCCC(=O)[O-]
REMARK SMILES IDX 7 1 6 2 5 3 4 4 2 5 1 6 3 7 8 8 9 9 10 10 11 11 12 12 13 13
REMARK SMILES IDX 14 14
REMARK H PARENT
REMARK Flexibility Score: inf
ROOT
ATOM      1  C   UNL     1      34.880 106.340 264.617  1.00  0.00     0.000 C 
ENDROOT
BRANCH   1   2
ATOM      2  C   UNL     1      35.132 104.894 265.084  1.00  0.00     0.000 C 
BRANCH   2   3
ATOM      3  C   UNL     1      34.898 104.639 266.587  1.00  0.00     0.006 C 
BRANCH   3   4
ATOM      4  C   UNL     1      34.923 105.903 267.460  1.00  0.00     0.053 C 
BRANCH   4   5
ATOM      5  C   UNL     1      35.003 105.574 268.920  1.00  0.00     0.041 C 
ATOM      6  O   UNL     1      35.063 104.375 269.297  1.00  0.00    -0.550 OA
ATOM      7  O   UNL     1      35.046 106.594 269.861  1.00  0.00    -0.550 OA
ENDBRANCH   4   5
ENDBRANCH   3   4
ENDBRANCH   2   3
ENDBRANCH   1   2
BRANCH   1   8
ATOM      8  C   UNL     1      35.732 106.732 263.397  1.00  0.00     0.000 C 
BRANCH   8   9
ATOM      9  C   UNL     1      36.194 105.511 262.585  1.00  0.00     0.000 C 
BRANCH   9  10
ATOM     10  C   UNL     1      36.935 105.902 261.298  1.00  0.00     0.006 C 
BRANCH  10  11
ATOM     11  C   UNL     1      36.796 104.808 260.233  1.00  0.00     0.053 C 
BRANCH  11  12
ATOM     12  C   UNL     1      36.985 105.383 258.864  1.00  0.00     0.041 C 
ATOM     13  O   UNL     1      38.038 105.142 258.216  1.00  0.00    -0.550 OA
ATOM     14  O   UNL     1      35.979 106.144 258.285  1.00  0.00    -0.550 OA
ENDBRANCH  11  12
ENDBRANCH  10  11
ENDBRANCH   9  10
ENDBRANCH   8   9
ENDBRANCH   1   8
TORSDOF 9
ENDMDL
MODEL 3
REMARK VINA RESULT:    -3.663      1.496      1.949
REMARK INTER + INTRA:          -5.844
REMARK INTER:                  -5.614
REMARK INTRA:                  -0.230
REMARK UNBOUND:                -0.254
REMARK SMILES O=C([O-])CCCCCCCCC(=O)[O-]
REMARK SMILES IDX 7 1 6 2 5 3 4 4 2 5 1 6 3 7 8 8 9 9 10 10 11 11 12 12 13 13
REMARK SMILES IDX 14 14
REMARK H PARENT
REMARK Flexibility Score: inf
ROOT
ATOM      1  C   UNL     1      35.249 104.953 263.490  1.00  0.00     0.000 C 
ENDROOT
BRANCH   1   2
ATOM      2  C   UNL     1      36.000 105.887 262.522  1.00  0.00     0.000 C 
BRANCH   2   3
ATOM      3  C   UNL     1      36.537 105.213 261.243  1.00  0.00     0.006 C 
BRANCH   3   4
ATOM      4  C   UNL     1      37.099 106.186 260.195  1.00  0.00     0.053 C 
BRANCH   4   5
ATOM      5  C   UNL     1      36.819 105.728 258.797  1.00  0.00     0.041 C 
ATOM      6  O   UNL     1      37.355 104.678 258.355  1.00  0.00    -0.550 OA
ATOM      7  O   UNL     1      35.940 106.442 257.994  1.00  0.00    -0.550 OA
ENDBRANCH   4   5
ENDBRANCH   3   4
ENDBRANCH   2   3
ENDBRANCH   1   2
BRANCH   1   8
ATOM      8  C   UNL     1      35.063 105.565 264.888  1.00  0.00     0.000 C 
BRANCH   8   9
ATOM      9  C   UNL     1      35.021 104.501 265.997  1.00  0.00     0.000 C 
BRANCH   9  10
ATOM     10  C   UNL     1      34.875 105.110 267.399  1.00  0.00     0.006 C 
BRANCH  10  11
ATOM     11  C   UNL     1      34.875 106.641 267.333  1.00  0.00     0.053 C 
BRANCH  11  12
ATOM     12  C   UNL     1      34.903 107.225 268.710  1.00  0.00     0.041 C 
ATOM     13  O   UNL     1      34.882 106.473 269.719  1.00  0.00    -0.550 OA
ATOM     14  O   UNL     1      35.002 108.600 268.879  1.00  0.00    -0.550 OA
ENDBRANCH  11  12
ENDBRANCH  10  11
ENDBRANCH   9  10
ENDBRANCH   8   9
ENDBRANCH   1   8
TORSDOF 9
ENDMDL
MODEL 4
REMARK VINA RESULT:    -2.961      1.843      7.634
REMARK INTER + INTRA:          -4.773
REMARK INTER:                  -4.433
REMARK INTRA:                  -0.340
REMARK UNBOUND:                -0.254
REMARK SMILES O=C([O-])CCCCCCCCC(=O)[O-]
REMARK SMILES IDX 7 1 6 2 5 3 4 4 2 5 1 6 3 7 8 8 9 9 10 10 11 11 12 12 13 13
REMARK SMILES IDX 14 14
REMARK H PARENT
REMARK Flexibility Score: inf
ROOT
ATOM      1  C   UNL     1      35.855 103.681 265.519  1.00  0.00     0.000 C 
ENDROOT
BRANCH   1   2
ATOM      2  C   UNL     1      34.879 103.476 266.693  1.00  0.00     0.000 C 
BRANCH   2   3
ATOM      3  C   UNL     1      34.875 104.601 267.748  1.00  0.00     0.006 C 
BRANCH   3   4
ATOM      4  C   UNL     1      34.893 106.023 267.166  1.00  0.00     0.053 C 
BRANCH   4   5
ATOM      5  C   UNL     1      35.400 107.028 268.154  1.00  0.00     0.041 C 
ATOM      6  O   UNL     1      35.346 106.786 269.388  1.00  0.00    -0.550 OA
ATOM      7  O   UNL     1      35.964 108.217 267.710  1.00  0.00    -0.550 OA
ENDBRANCH   4   5
ENDBRANCH   3   4
ENDBRANCH   2   3
ENDBRANCH   1   2
BRANCH   1   8
ATOM      8  C   UNL     1      35.137 103.908 264.177  1.00  0.00     0.000 C 
BRANCH   8   9
ATOM      9  C   UNL     1      35.592 105.200 263.477  1.00  0.00     0.000 C 
BRANCH   9  10
ATOM     10  C   UNL     1      35.784 105.017 261.964  1.00  0.00     0.006 C 
BRANCH  10  11
ATOM     11  C   UNL     1      36.874 105.955 261.435  1.00  0.00     0.053 C 
BRANCH  11  12
ATOM     12  C   UNL     1      37.134 105.692 259.985  1.00  0.00     0.041 C 
ATOM     13  O   UNL     1      36.634 106.441 259.105  1.00  0.00    -0.550 OA
ATOM     14  O   UNL     1      37.968 104.648 259.607  1.00  0.00    -0.550 OA
ENDBRANCH  11  12
ENDBRANCH  10  11
ENDBRANCH   9  10
ENDBRANCH   8   9
ENDBRANCH   1   8
TORSDOF 9
ENDMDL
MODEL 5
REMARK VINA RESULT:    -2.943      1.312      2.304
REMARK INTER + INTRA:          -4.746
REMARK INTER:                  -4.760
REMARK INTRA:                   0.014
REMARK UNBOUND:                -0.254
REMARK SMILES O=C([O-])CCCCCCCCC(=O)[O-]
REMARK SMILES IDX 7 1 6 2 5 3 4 4 2 5 1 6 3 7 8 8 9 9 10 10 11 11 12 12 13 13
REMARK SMILES IDX 14 14
REMARK H PARENT
REMARK Flexibility Score: inf
ROOT
ATOM      1  C   UNL     1      36.901 106.122 262.417  1.00  0.00     0.000 C 
ENDROOT
BRANCH   1   2
ATOM      2  C   UNL     1      36.614 105.919 260.917  1.00  0.00     0.000 C 
BRANCH   2   3
ATOM      3  C   UNL     1      37.802 105.390 260.087  1.00  0.00     0.006 C 
BRANCH   3   4
ATOM      4  C   UNL     1      37.648 105.565 258.568  1.00  0.00     0.053 C 
BRANCH   4   5
ATOM      5  C   UNL     1      36.318 106.148 258.203  1.00  0.00     0.041 C 
ATOM      6  O   UNL     1      35.360 105.395 257.887  1.00  0.00    -0.550 OA
ATOM      7  O   UNL     1      36.127 107.523 258.245  1.00  0.00    -0.550 OA
ENDBRANCH   4   5
ENDBRANCH   3   4
ENDBRANCH   2   3
ENDBRANCH   1   2
BRANCH   1   8
ATOM      8  C   UNL     1      35.735 105.674 263.314  1.00  0.00     0.000 C 
BRANCH   8   9
ATOM      9  C   UNL     1      35.322 106.754 264.328  1.00  0.00     0.000 C 
BRANCH   9  10
ATOM     10  C   UNL     1      34.876 106.164 265.674  1.00  0.00     0.006 C 
BRANCH  10  11
ATOM     11  C   UNL     1      35.139 107.151 266.817  1.00  0.00     0.053 C 
BRANCH  11  12
ATOM     12  C   UNL     1      35.071 106.452 268.138  1.00  0.00     0.041 C 
ATOM     13  O   UNL     1      35.055 105.194 268.190  1.00  0.00    -0.550 OA
ATOM     14  O   UNL     1      35.074 107.190 269.315  1.00  0.00    -0.550 OA
ENDBRANCH  11  12
ENDBRANCH  10  11
ENDBRANCH   9  10
ENDBRANCH   8   9
ENDBRANCH   1   8
TORSDOF 9
ENDMDL
MODEL 6
REMARK VINA RESULT:    -2.486      1.074      7.544
REMARK INTER + INTRA:          -4.047
REMARK INTER:                  -3.640
REMARK INTRA:                  -0.407
REMARK UNBOUND:                -0.254
REMARK SMILES O=C([O-])CCCCCCCCC(=O)[O-]
REMARK SMILES IDX 7 1 6 2 5 3 4 4 2 5 1 6 3 7 8 8 9 9 10 10 11 11 12 12 13 13
REMARK SMILES IDX 14 14
REMARK H PARENT
REMARK Flexibility Score: inf
ROOT
ATOM      1  C   UNL     1      35.730 107.381 265.222  1.00  0.00     0.000 C 
ENDROOT
BRANCH   1   2
ATOM      2  C   UNL     1      35.088 108.377 266.206  1.00  0.00     0.000 C 
BRANCH   2   3
ATOM      3  C   UNL     1      34.875 107.841 267.638  1.00  0.00     0.006 C 
BRANCH   3   4
ATOM      4  C   UNL     1      36.143 107.289 268.308  1.00  0.00     0.053 C 
BRANCH   4   5
ATOM      5  C   UNL     1      35.843 106.123 269.199  1.00  0.00     0.041 C 
ATOM      6  O   UNL     1      34.959 105.288 268.875  1.00  0.00    -0.550 OA
ATOM      7  O   UNL     1      36.566 105.941 270.371  1.00  0.00    -0.550 OA
ENDBRANCH   4   5
ENDBRANCH   3   4
ENDBRANCH   2   3
ENDBRANCH   1   2
BRANCH   1   8
ATOM      8  C   UNL     1      34.883 106.113 265.017  1.00  0.00     0.000 C 
BRANCH   8   9
ATOM      9  C   UNL     1      34.930 105.601 263.568  1.00  0.00     0.000 C 
BRANCH   9  10
ATOM     10  C   UNL     1      36.199 106.043 262.824  1.00  0.00     0.006 C 
BRANCH  10  11
ATOM     11  C   UNL     1      36.281 105.383 261.443  1.00  0.00     0.053 C 
BRANCH  11  12
ATOM     12  C   UNL     1      37.649 105.553 260.861  1.00  0.00     0.041 C 
ATOM     13  O   UNL     1      38.510 106.252 261.458  1.00  0.00    -0.550 OA
ATOM     14  O   UNL     1      37.989 104.900 259.684  1.00  0.00    -0.550 OA
ENDBRANCH  11  12
ENDBRANCH  10  11
ENDBRANCH   9  10
ENDBRANCH   8   9
ENDBRANCH   1   8
TORSDOF 9
ENDMDL
MODEL 7
REMARK VINA RESULT:    -2.295      1.678      8.018
REMARK INTER + INTRA:          -3.756
REMARK INTER:                  -3.510
REMARK INTRA:                  -0.246
REMARK UNBOUND:                -0.254
REMARK SMILES O=C([O-])CCCCCCCCC(=O)[O-]
REMARK SMILES IDX 7 1 6 2 5 3 4 4 2 5 1 6 3 7 8 8 9 9 10 10 11 11 12 12 13 13
REMARK SMILES IDX 14 14
REMARK H PARENT
REMARK Flexibility Score: inf
ROOT
ATOM      1  C   UNL     1      35.965 104.852 263.170  1.00  0.00     0.000 C 
ENDROOT
BRANCH   1   2
ATOM      2  C   UNL     1      34.876 105.155 264.216  1.00  0.00     0.000 C 
BRANCH   2   3
ATOM      3  C   UNL     1      35.203 106.306 265.191  1.00  0.00     0.006 C 
BRANCH   3   4
ATOM      4  C   UNL     1      34.875 106.008 266.662  1.00  0.00     0.053 C 
BRANCH   4   5
ATOM      5  C   UNL     1      34.983 107.232 267.519  1.00  0.00     0.041 C 
ATOM      6  O   UNL     1      34.891 107.140 268.771  1.00  0.00    -0.550 OA
ATOM      7  O   UNL     1      35.220 108.471 266.936  1.00  0.00    -0.550 OA
ENDBRANCH   4   5
ENDBRANCH   3   4
ENDBRANCH   2   3
ENDBRANCH   1   2
BRANCH   1   8
ATOM      8  C   UNL     1      36.811 106.087 262.813  1.00  0.00     0.000 C 
BRANCH   8   9
ATOM      9  C   UNL     1      36.900 106.322 261.296  1.00  0.00     0.000 C 
BRANCH   9  10
ATOM     10  C   UNL     1      37.851 105.337 260.598  1.00  0.00     0.006 C 
BRANCH  10  11
ATOM     11  C   UNL     1      38.077 105.739 259.137  1.00  0.00     0.053 C 
BRANCH  11  12
ATOM     12  C   UNL     1      36.792 105.679 258.372  1.00  0.00     0.041 C 
ATOM     13  O   UNL     1      36.358 104.577 257.947  1.00  0.00    -0.550 OA
ATOM     14  O   UNL     1      36.050 106.835 258.170  1.00  0.00    -0.550 OA
ENDBRANCH  11  12
ENDBRANCH  10  11
ENDBRANCH   9  10
ENDBRANCH   8   9
ENDBRANCH   1   8
TORSDOF 9
ENDMDL
MODEL 8
REMARK VINA RESULT:    -1.267      2.164      2.504
REMARK INTER + INTRA:          -2.188
REMARK INTER:                  -3.234
REMARK INTRA:                   1.046
REMARK UNBOUND:                -0.254
REMARK SMILES O=C([O-])CCCCCCCCC(=O)[O-]
REMARK SMILES IDX 7 1 6 2 5 3 4 4 2 5 1 6 3 7 8 8 9 9 10 10 11 11 12 12 13 13
REMARK SMILES IDX 14 14
REMARK H PARENT
REMARK Flexibility Score: inf
ROOT
ATOM      1  C   UNL     1      35.631 103.524 265.327  1.00  0.00     0.000 C 
ENDROOT
BRANCH   1   2
ATOM      2  C   UNL     1      34.949 104.389 264.250  1.00  0.00     0.000 C 
BRANCH   2   3
ATOM      3  C   UNL     1      35.906 105.049 263.236  1.00  0.00     0.006 C 
BRANCH   3   4
ATOM      4  C   UNL     1      35.769 104.529 261.797  1.00  0.00     0.053 C 
BRANCH   4   5
ATOM      5  C   UNL     1      36.620 105.303 260.837  1.00  0.00     0.041 C 
ATOM      6  O   UNL     1      37.875 105.225 260.897  1.00  0.00    -0.550 OA
ATOM      7  O   UNL     1      36.025 106.084 259.854  1.00  0.00    -0.550 OA
ENDBRANCH   4   5
ENDBRANCH   3   4
ENDBRANCH   2   3
ENDBRANCH   1   2
BRANCH   1   8
ATOM      8  C   UNL     1      35.076 103.781 266.739  1.00  0.00     0.000 C 
BRANCH   8   9
ATOM      9  C   UNL     1      34.886 105.278 267.034  1.00  0.00     0.000 C 
BRANCH   9  10
ATOM     10  C   UNL     1      35.276 105.653 268.472  1.00  0.00     0.006 C 
BRANCH  10  11
ATOM     11  C   UNL     1      34.875 107.098 268.788  1.00  0.00     0.053 C 
BRANCH  11  12
ATOM     12  C   UNL     1      35.075 107.972 267.590  1.00  0.00     0.041 C 
ATOM     13  O   UNL     1      35.032 109.225 267.704  1.00  0.00    -0.550 OA
ATOM     14  O   UNL     1      35.356 107.403 266.355  1.00  0.00    -0.550 OA
ENDBRANCH  11  12
ENDBRANCH  10  11
ENDBRANCH   9  10
ENDBRANCH   8   9
ENDBRANCH   1   8
TORSDOF 9
ENDMDL
