MODEL 1
REMARK VINA RESULT:    -4.128      0.000      0.000
REMARK INTER + INTRA:          -9.147
REMARK INTER:                  -7.747
REMARK INTRA:                  -1.400
REMARK UNBOUND:                -1.400
REMARK SMILES CCCCCCCCC=CCCCCCCCC(=O)[O-]
REMARK SMILES IDX 10 1 9 2 11 3 12 4 13 5 14 6 15 7 16 8 17 9 18 10 19 11
REMARK SMILES IDX 20 12 8 13 7 14 6 15 5 16 4 17 3 18 2 19 1 20
REMARK H PARENT
REMARK Flexibility Score: inf
ROOT
ATOM      1  C   UNL     1      64.832  29.661  60.951  1.00  0.00    -0.031 C 
ATOM      2  C   UNL     1      64.160  28.531  61.219  1.00  0.00    -0.031 C 
ENDROOT
BRANCH   1   3
ATOM      3  C   UNL     1      66.314  29.652  60.688  1.00  0.00     0.027 C 
BRANCH   3   4
ATOM      4  C   UNL     1      67.035  28.536  61.459  1.00  0.00     0.004 C 
BRANCH   4   5
ATOM      5  C   UNL     1      68.488  28.912  61.795  1.00  0.00     0.000 C 
BRANCH   5   6
ATOM      6  C   UNL     1      69.318  29.239  60.544  1.00  0.00     0.000 C 
BRANCH   6   7
ATOM      7  C   UNL     1      70.808  29.441  60.860  1.00  0.00     0.000 C 
BRANCH   7   8
ATOM      8  C   UNL     1      71.024  30.713  61.688  1.00  0.00     0.006 C 
BRANCH   8   9
ATOM      9  C   UNL     1      72.112  31.596  61.069  1.00  0.00     0.053 C 
BRANCH   9  10
ATOM     10  C   UNL     1      71.497  32.710  60.282  1.00  0.00     0.041 C 
ATOM     11  O   UNL     1      71.140  33.771  60.860  1.00  0.00    -0.550 OA
ATOM     12  O   UNL     1      71.365  32.597  58.904  1.00  0.00    -0.550 OA
ENDBRANCH   9  10
ENDBRANCH   8   9
ENDBRANCH   7   8
ENDBRANCH   6   7
ENDBRANCH   5   6
ENDBRANCH   4   5
ENDBRANCH   3   4
ENDBRANCH   1   3
BRANCH   2  13
ATOM     13  C   UNL     1      62.689  28.542  61.538  1.00  0.00     0.027 C 
BRANCH  13  14
ATOM     14  C   UNL     1      62.228  29.927  62.012  1.00  0.00     0.004 C 
BRANCH  14  15
ATOM     15  C   UNL     1      61.236  30.576  61.032  1.00  0.00     0.000 C 
BRANCH  15  16
ATOM     16  C   UNL     1      61.190  32.109  61.153  1.00  0.00     0.000 C 
BRANCH  16  17
ATOM     17  C   UNL     1      61.718  32.876  59.926  1.00  0.00    -0.000 C 
BRANCH  17  18
ATOM     18  C   UNL     1      63.243  32.762  59.758  1.00  0.00    -0.000 C 
BRANCH  18  19
ATOM     19  C   UNL     1      64.010  33.246  60.999  1.00  0.00    -0.003 C 
ATOM     20  C   UNL     1      63.859  34.748  61.240  1.00  0.00     0.004 C 
ENDBRANCH  18  19
ENDBRANCH  17  18
ENDBRANCH  16  17
ENDBRANCH  15  16
ENDBRANCH  14  15
ENDBRANCH  13  14
ENDBRANCH   2  13
TORSDOF 15
ENDMDL
MODEL 2
REMARK VINA RESULT:    -3.912      4.893      6.353
REMARK INTER + INTRA:          -8.743
REMARK INTER:                  -6.753
REMARK INTRA:                  -1.990
REMARK UNBOUND:                -1.400
REMARK SMILES CCCCCCCCC=CCCCCCCCC(=O)[O-]
REMARK SMILES IDX 10 1 9 2 11 3 12 4 13 5 14 6 15 7 16 8 17 9 18 10 19 11
REMARK SMILES IDX 20 12 8 13 7 14 6 15 5 16 4 17 3 18 2 19 1 20
REMARK H PARENT
REMARK Flexibility Score: inf
ROOT
ATOM      1  C   UNL     1      64.297  30.618  61.320  1.00  0.00    -0.031 C 
ATOM      2  C   UNL     1      63.134  29.966  61.165  1.00  0.00    -0.031 C 
ENDROOT
BRANCH   1   3
ATOM      3  C   UNL     1      65.492  30.310  60.460  1.00  0.00     0.027 C 
BRANCH   3   4
ATOM      4  C   UNL     1      66.187  29.004  60.872  1.00  0.00     0.004 C 
BRANCH   4   5
ATOM      5  C   UNL     1      66.353  28.039  59.686  1.00  0.00     0.000 C 
BRANCH   5   6
ATOM      6  C   UNL     1      65.168  27.071  59.542  1.00  0.00     0.000 C 
BRANCH   6   7
ATOM      7  C   UNL     1      64.691  26.518  60.894  1.00  0.00     0.000 C 
BRANCH   7   8
ATOM      8  C   UNL     1      63.189  26.215  60.862  1.00  0.00     0.006 C 
BRANCH   8   9
ATOM      9  C   UNL     1      62.538  26.515  62.216  1.00  0.00     0.053 C 
BRANCH   9  10
ATOM     10  C   UNL     1      61.049  26.409  62.117  1.00  0.00     0.041 C 
ATOM     11  O   UNL     1      60.413  25.670  62.915  1.00  0.00    -0.550 OA
ATOM     12  O   UNL     1      60.359  27.163  61.177  1.00  0.00    -0.550 OA
ENDBRANCH   9  10
ENDBRANCH   8   9
ENDBRANCH   7   8
ENDBRANCH   6   7
ENDBRANCH   5   6
ENDBRANCH   4   5
ENDBRANCH   3   4
ENDBRANCH   1   3
BRANCH   2  13
ATOM     13  C   UNL     1      61.954  30.231  62.060  1.00  0.00     0.027 C 
BRANCH  13  14
ATOM     14  C   UNL     1      61.053  31.335  61.491  1.00  0.00     0.004 C 
BRANCH  14  15
ATOM     15  C   UNL     1      61.209  31.484  59.968  1.00  0.00     0.000 C 
BRANCH  15  16
ATOM     16  C   UNL     1      61.711  32.878  59.550  1.00  0.00     0.000 C 
BRANCH  16  17
ATOM     17  C   UNL     1      61.877  33.884  60.704  1.00  0.00    -0.000 C 
BRANCH  17  18
ATOM     18  C   UNL     1      63.348  34.238  60.984  1.00  0.00    -0.000 C 
BRANCH  18  19
ATOM     19  C   UNL     1      63.532  35.711  61.385  1.00  0.00    -0.003 C 
ATOM     20  C   UNL     1      64.843  35.963  62.129  1.00  0.00     0.004 C 
ENDBRANCH  18  19
ENDBRANCH  17  18
ENDBRANCH  16  17
ENDBRANCH  15  16
ENDBRANCH  14  15
ENDBRANCH  13  14
ENDBRANCH   2  13
TORSDOF 15
ENDMDL
MODEL 3
REMARK VINA RESULT:    -3.877     12.747     14.819
REMARK INTER + INTRA:          -8.676
REMARK INTER:                  -6.227
REMARK INTRA:                  -2.450
REMARK UNBOUND:                -1.400
REMARK SMILES CCCCCCCCC=CCCCCCCCC(=O)[O-]
REMARK SMILES IDX 10 1 9 2 11 3 12 4 13 5 14 6 15 7 16 8 17 9 18 10 19 11
REMARK SMILES IDX 20 12 8 13 7 14 6 15 5 16 4 17 3 18 2 19 1 20
REMARK H PARENT
REMARK Flexibility Score: inf
ROOT
ATOM      1  C   UNL     1      54.326  29.401  52.016  1.00  0.00    -0.031 C 
ATOM      2  C   UNL     1      53.797  29.582  50.797  1.00  0.00    -0.031 C 
ENDROOT
BRANCH   1   3
ATOM      3  C   UNL     1      54.811  30.562  52.844  1.00  0.00     0.027 C 
BRANCH   3   4
ATOM      4  C   UNL     1      56.338  30.565  53.004  1.00  0.00     0.004 C 
BRANCH   4   5
ATOM      5  C   UNL     1      56.976  29.267  52.481  1.00  0.00     0.000 C 
BRANCH   5   6
ATOM      6  C   UNL     1      58.170  29.529  51.551  1.00  0.00     0.000 C 
BRANCH   6   7
ATOM      7  C   UNL     1      57.913  29.055  50.112  1.00  0.00     0.000 C 
BRANCH   7   8
ATOM      8  C   UNL     1      59.231  28.758  49.388  1.00  0.00     0.006 C 
BRANCH   8   9
ATOM      9  C   UNL     1      59.496  27.251  49.323  1.00  0.00     0.053 C 
BRANCH   9  10
ATOM     10  C   UNL     1      60.914  26.952  49.695  1.00  0.00     0.041 C 
ATOM     11  O   UNL     1      61.170  26.070  50.557  1.00  0.00    -0.550 OA
ATOM     12  O   UNL     1      61.955  27.612  49.055  1.00  0.00    -0.550 OA
ENDBRANCH   9  10
ENDBRANCH   8   9
ENDBRANCH   7   8
ENDBRANCH   6   7
ENDBRANCH   5   6
ENDBRANCH   4   5
ENDBRANCH   3   4
ENDBRANCH   1   3
BRANCH   2  13
ATOM     13  C   UNL     1      53.363  28.420  49.944  1.00  0.00     0.027 C 
BRANCH  13  14
ATOM     14  C   UNL     1      52.960  27.213  50.801  1.00  0.00     0.004 C 
BRANCH  14  15
ATOM     15  C   UNL     1      53.612  25.909  50.311  1.00  0.00     0.000 C 
BRANCH  15  16
ATOM     16  C   UNL     1      54.839  26.153  49.414  1.00  0.00     0.000 C 
BRANCH  16  17
ATOM     17  C   UNL     1      56.199  25.893  50.086  1.00  0.00    -0.000 C 
BRANCH  17  18
ATOM     18  C   UNL     1      56.155  26.058  51.615  1.00  0.00    -0.000 C 
BRANCH  18  19
ATOM     19  C   UNL     1      57.192  25.177  52.332  1.00  0.00    -0.003 C 
ATOM     20  C   UNL     1      58.411  25.968  52.808  1.00  0.00     0.004 C 
ENDBRANCH  18  19
ENDBRANCH  17  18
ENDBRANCH  16  17
ENDBRANCH  15  16
ENDBRANCH  14  15
ENDBRANCH  13  14
ENDBRANCH   2  13
TORSDOF 15
ENDMDL
MODEL 4
REMARK VINA RESULT:    -3.874     11.950     13.648
REMARK INTER + INTRA:          -8.671
REMARK INTER:                  -6.378
REMARK INTRA:                  -2.293
REMARK UNBOUND:                -1.400
REMARK SMILES CCCCCCCCC=CCCCCCCCC(=O)[O-]
REMARK SMILES IDX 10 1 9 2 11 3 12 4 13 5 14 6 15 7 16 8 17 9 18 10 19 11
REMARK SMILES IDX 20 12 8 13 7 14 6 15 5 16 4 17 3 18 2 19 1 20
REMARK H PARENT
REMARK Flexibility Score: inf
ROOT
ATOM      1  C   UNL     1      58.358  29.070  50.624  1.00  0.00    -0.031 C 
ATOM      2  C   UNL     1      57.038  29.290  50.710  1.00  0.00    -0.031 C 
ENDROOT
BRANCH   1   3
ATOM      3  C   UNL     1      59.046  28.919  49.294  1.00  0.00     0.027 C 
BRANCH   3   4
ATOM      4  C   UNL     1      59.692  27.536  49.126  1.00  0.00     0.004 C 
BRANCH   4   5
ATOM      5  C   UNL     1      60.708  27.234  50.242  1.00  0.00     0.000 C 
BRANCH   5   6
ATOM      6  C   UNL     1      61.920  26.436  49.737  1.00  0.00     0.000 C 
BRANCH   6   7
ATOM      7  C   UNL     1      63.255  27.118  50.070  1.00  0.00     0.000 C 
BRANCH   7   8
ATOM      8  C   UNL     1      63.032  28.559  50.543  1.00  0.00     0.006 C 
BRANCH   8   9
ATOM      9  C   UNL     1      63.339  29.560  49.425  1.00  0.00     0.053 C 
BRANCH   9  10
ATOM     10  C   UNL     1      62.662  30.867  49.690  1.00  0.00     0.041 C 
ATOM     11  O   UNL     1      63.028  31.905  49.078  1.00  0.00    -0.550 OA
ATOM     12  O   UNL     1      61.595  30.929  50.577  1.00  0.00    -0.550 OA
ENDBRANCH   9  10
ENDBRANCH   8   9
ENDBRANCH   7   8
ENDBRANCH   6   7
ENDBRANCH   5   6
ENDBRANCH   4   5
ENDBRANCH   3   4
ENDBRANCH   1   3
BRANCH   2  13
ATOM     13  C   UNL     1      56.337  29.385  52.038  1.00  0.00     0.027 C 
BRANCH  13  14
ATOM     14  C   UNL     1      54.817  29.235  51.885  1.00  0.00     0.004 C 
BRANCH  14  15
ATOM     15  C   UNL     1      54.391  29.126  50.411  1.00  0.00     0.000 C 
BRANCH  15  16
ATOM     16  C   UNL     1      53.508  27.896  50.131  1.00  0.00     0.000 C 
BRANCH  16  17
ATOM     17  C   UNL     1      54.139  26.543  50.505  1.00  0.00    -0.000 C 
BRANCH  17  18
ATOM     18  C   UNL     1      55.336  26.171  49.612  1.00  0.00    -0.000 C 
BRANCH  18  19
ATOM     19  C   UNL     1      56.594  25.827  50.427  1.00  0.00    -0.003 C 
ATOM     20  C   UNL     1      56.321  25.739  51.928  1.00  0.00     0.004 C 
ENDBRANCH  18  19
ENDBRANCH  17  18
ENDBRANCH  16  17
ENDBRANCH  15  16
ENDBRANCH  14  15
ENDBRANCH  13  14
ENDBRANCH   2  13
TORSDOF 15
ENDMDL
MODEL 5
REMARK VINA RESULT:    -3.852      3.261      5.785
REMARK INTER + INTRA:          -8.630
REMARK INTER:                  -6.862
REMARK INTRA:                  -1.768
REMARK UNBOUND:                -1.400
REMARK SMILES CCCCCCCCC=CCCCCCCCC(=O)[O-]
REMARK SMILES IDX 10 1 9 2 11 3 12 4 13 5 14 6 15 7 16 8 17 9 18 10 19 11
REMARK SMILES IDX 20 12 8 13 7 14 6 15 5 16 4 17 3 18 2 19 1 20
REMARK H PARENT
REMARK Flexibility Score: inf
ROOT
ATOM      1  C   UNL     1      64.157  33.594  60.627  1.00  0.00    -0.031 C 
ATOM      2  C   UNL     1      64.451  34.469  61.600  1.00  0.00    -0.031 C 
ENDROOT
BRANCH   1   3
ATOM      3  C   UNL     1      64.077  32.115  60.896  1.00  0.00     0.027 C 
BRANCH   3   4
ATOM      4  C   UNL     1      62.627  31.621  61.004  1.00  0.00     0.004 C 
BRANCH   4   5
ATOM      5  C   UNL     1      62.538  30.233  61.662  1.00  0.00     0.000 C 
BRANCH   5   6
ATOM      6  C   UNL     1      63.869  29.469  61.612  1.00  0.00     0.000 C 
BRANCH   6   7
ATOM      7  C   UNL     1      63.688  27.991  61.236  1.00  0.00     0.000 C 
BRANCH   7   8
ATOM      8  C   UNL     1      64.998  27.395  60.708  1.00  0.00     0.006 C 
BRANCH   8   9
ATOM      9  C   UNL     1      66.094  28.461  60.625  1.00  0.00     0.053 C 
BRANCH   9  10
ATOM     10  C   UNL     1      67.357  27.963  61.253  1.00  0.00     0.041 C 
ATOM     11  O   UNL     1      67.891  26.898  60.843  1.00  0.00    -0.550 OA
ATOM     12  O   UNL     1      67.973  28.701  62.256  1.00  0.00    -0.550 OA
ENDBRANCH   9  10
ENDBRANCH   8   9
ENDBRANCH   7   8
ENDBRANCH   6   7
ENDBRANCH   5   6
ENDBRANCH   4   5
ENDBRANCH   3   4
ENDBRANCH   1   3
BRANCH   2  13
ATOM     13  C   UNL     1      64.587  35.942  61.323  1.00  0.00     0.027 C 
BRANCH  13  14
ATOM     14  C   UNL     1      63.343  36.718  61.779  1.00  0.00     0.004 C 
BRANCH  14  15
ATOM     15  C   UNL     1      62.448  37.125  60.597  1.00  0.00     0.000 C 
BRANCH  15  16
ATOM     16  C   UNL     1      61.076  36.427  60.615  1.00  0.00     0.000 C 
BRANCH  16  17
ATOM     17  C   UNL     1      61.072  34.984  60.080  1.00  0.00    -0.000 C 
BRANCH  17  18
ATOM     18  C   UNL     1      61.268  34.908  58.556  1.00  0.00    -0.000 C 
BRANCH  18  19
ATOM     19  C   UNL     1      61.431  33.463  58.055  1.00  0.00    -0.003 C 
ATOM     20  C   UNL     1      60.214  32.590  58.359  1.00  0.00     0.004 C 
ENDBRANCH  18  19
ENDBRANCH  17  18
ENDBRANCH  16  17
ENDBRANCH  15  16
ENDBRANCH  14  15
ENDBRANCH  13  14
ENDBRANCH   2  13
TORSDOF 15
ENDMDL
MODEL 6
REMARK VINA RESULT:    -3.802      4.806      7.892
REMARK INTER + INTRA:          -8.536
REMARK INTER:                  -5.788
REMARK INTRA:                  -2.749
REMARK UNBOUND:                -1.400
REMARK SMILES CCCCCCCCC=CCCCCCCCC(=O)[O-]
REMARK SMILES IDX 10 1 9 2 11 3 12 4 13 5 14 6 15 7 16 8 17 9 18 10 19 11
REMARK SMILES IDX 20 12 8 13 7 14 6 15 5 16 4 17 3 18 2 19 1 20
REMARK H PARENT
REMARK Flexibility Score: inf
ROOT
ATOM      1  C   UNL     1      63.963  33.735  61.111  1.00  0.00    -0.031 C 
ATOM      2  C   UNL     1      64.535  33.188  60.028  1.00  0.00    -0.031 C 
ENDROOT
BRANCH   1   3
ATOM      3  C   UNL     1      64.339  35.112  61.588  1.00  0.00     0.027 C 
BRANCH   3   4
ATOM      4  C   UNL     1      63.666  36.219  60.762  1.00  0.00     0.004 C 
BRANCH   4   5
ATOM      5  C   UNL     1      62.303  36.628  61.347  1.00  0.00     0.000 C 
BRANCH   5   6
ATOM      6  C   UNL     1      61.129  36.247  60.433  1.00  0.00     0.000 C 
BRANCH   6   7
ATOM      7  C   UNL     1      61.586  35.851  59.020  1.00  0.00     0.000 C 
BRANCH   7   8
ATOM      8  C   UNL     1      61.029  34.478  58.629  1.00  0.00     0.006 C 
BRANCH   8   9
ATOM      9  C   UNL     1      61.838  33.860  57.485  1.00  0.00     0.053 C 
BRANCH   9  10
ATOM     10  C   UNL     1      60.953  33.043  56.598  1.00  0.00     0.041 C 
ATOM     11  O   UNL     1      61.456  32.287  55.724  1.00  0.00    -0.550 OA
ATOM     12  O   UNL     1      59.575  33.077  56.769  1.00  0.00    -0.550 OA
ENDBRANCH   9  10
ENDBRANCH   8   9
ENDBRANCH   7   8
ENDBRANCH   6   7
ENDBRANCH   5   6
ENDBRANCH   4   5
ENDBRANCH   3   4
ENDBRANCH   1   3
BRANCH   2  13
ATOM     13  C   UNL     1      64.203  31.790  59.580  1.00  0.00     0.027 C 
BRANCH  13  14
ATOM     14  C   UNL     1      65.051  30.746  60.319  1.00  0.00     0.004 C 
BRANCH  14  15
ATOM     15  C   UNL     1      64.285  30.095  61.483  1.00  0.00     0.000 C 
BRANCH  15  16
ATOM     16  C   UNL     1      63.287  29.020  61.018  1.00  0.00     0.000 C 
BRANCH  16  17
ATOM     17  C   UNL     1      61.820  29.280  61.405  1.00  0.00    -0.000 C 
BRANCH  17  18
ATOM     18  C   UNL     1      61.606  30.661  62.050  1.00  0.00    -0.000 C 
BRANCH  18  19
ATOM     19  C   UNL     1      60.931  31.658  61.093  1.00  0.00    -0.003 C 
ATOM     20  C   UNL     1      60.588  31.038  59.738  1.00  0.00     0.004 C 
ENDBRANCH  18  19
ENDBRANCH  17  18
ENDBRANCH  16  17
ENDBRANCH  15  16
ENDBRANCH  14  15
ENDBRANCH  13  14
ENDBRANCH   2  13
TORSDOF 15
ENDMDL
MODEL 7
REMARK VINA RESULT:    -3.786      5.568      8.278
REMARK INTER + INTRA:          -8.506
REMARK INTER:                  -5.716
REMARK INTRA:                  -2.791
REMARK UNBOUND:                -1.400
REMARK SMILES CCCCCCCCC=CCCCCCCCC(=O)[O-]
REMARK SMILES IDX 10 1 9 2 11 3 12 4 13 5 14 6 15 7 16 8 17 9 18 10 19 11
REMARK SMILES IDX 20 12 8 13 7 14 6 15 5 16 4 17 3 18 2 19 1 20
REMARK H PARENT
REMARK Flexibility Score: inf
ROOT
ATOM      1  C   UNL     1      64.621  32.208  59.784  1.00  0.00    -0.031 C 
ATOM      2  C   UNL     1      64.574  31.444  60.886  1.00  0.00    -0.031 C 
ENDROOT
BRANCH   1   3
ATOM      3  C   UNL     1      64.470  33.704  59.858  1.00  0.00     0.027 C 
BRANCH   3   4
ATOM      4  C   UNL     1      64.182  34.190  61.286  1.00  0.00     0.004 C 
BRANCH   4   5
ATOM      5  C   UNL     1      63.080  35.264  61.318  1.00  0.00     0.000 C 
BRANCH   5   6
ATOM      6  C   UNL     1      62.237  35.283  60.034  1.00  0.00     0.000 C 
BRANCH   6   7
ATOM      7  C   UNL     1      60.787  35.726  60.288  1.00  0.00     0.000 C 
BRANCH   7   8
ATOM      8  C   UNL     1      60.168  36.326  59.020  1.00  0.00     0.006 C 
BRANCH   8   9
ATOM      9  C   UNL     1      59.580  35.233  58.123  1.00  0.00     0.053 C 
BRANCH   9  10
ATOM     10  C   UNL     1      58.450  35.775  57.307  1.00  0.00     0.041 C 
ATOM     11  O   UNL     1      58.273  35.374  56.126  1.00  0.00    -0.550 OA
ATOM     12  O   UNL     1      57.564  36.687  57.865  1.00  0.00    -0.550 OA
ENDBRANCH   9  10
ENDBRANCH   8   9
ENDBRANCH   7   8
ENDBRANCH   6   7
ENDBRANCH   5   6
ENDBRANCH   4   5
ENDBRANCH   3   4
ENDBRANCH   1   3
BRANCH   2  13
ATOM     13  C   UNL     1      64.670  29.944  60.811  1.00  0.00     0.027 C 
BRANCH  13  14
ATOM     14  C   UNL     1      63.318  29.279  61.104  1.00  0.00     0.004 C 
BRANCH  14  15
ATOM     15  C   UNL     1      62.442  30.131  62.038  1.00  0.00     0.000 C 
BRANCH  15  16
ATOM     16  C   UNL     1      61.083  30.499  61.416  1.00  0.00     0.000 C 
BRANCH  16  17
ATOM     17  C   UNL     1      61.020  31.892  60.765  1.00  0.00    -0.000 C 
BRANCH  17  18
ATOM     18  C   UNL     1      60.439  31.863  59.340  1.00  0.00    -0.000 C 
BRANCH  18  19
ATOM     19  C   UNL     1      61.530  31.946  58.259  1.00  0.00    -0.003 C 
ATOM     20  C   UNL     1      61.985  30.571  57.771  1.00  0.00     0.004 C 
ENDBRANCH  18  19
ENDBRANCH  17  18
ENDBRANCH  16  17
ENDBRANCH  15  16
ENDBRANCH  14  15
ENDBRANCH  13  14
ENDBRANCH   2  13
TORSDOF 15
ENDMDL
MODEL 8
REMARK VINA RESULT:    -3.754     11.838     14.067
REMARK INTER + INTRA:          -8.446
REMARK INTER:                  -6.020
REMARK INTRA:                  -2.426
REMARK UNBOUND:                -1.400
REMARK SMILES CCCCCCCCC=CCCCCCCCC(=O)[O-]
REMARK SMILES IDX 10 1 9 2 11 3 12 4 13 5 14 6 15 7 16 8 17 9 18 10 19 11
REMARK SMILES IDX 20 12 8 13 7 14 6 15 5 16 4 17 3 18 2 19 1 20
REMARK H PARENT
REMARK Flexibility Score: inf
ROOT
ATOM      1  C   UNL     1      56.728  29.592  52.396  1.00  0.00    -0.031 C 
ATOM      2  C   UNL     1      55.649  29.292  51.656  1.00  0.00    -0.031 C 
ENDROOT
BRANCH   1   3
ATOM      3  C   UNL     1      58.120  29.486  51.834  1.00  0.00     0.027 C 
BRANCH   3   4
ATOM      4  C   UNL     1      58.119  29.175  50.330  1.00  0.00     0.004 C 
BRANCH   4   5
ATOM      5  C   UNL     1      59.531  28.863  49.805  1.00  0.00     0.000 C 
BRANCH   5   6
ATOM      6  C   UNL     1      59.629  27.468  49.168  1.00  0.00     0.000 C 
BRANCH   6   7
ATOM      7  C   UNL     1      60.939  26.748  49.524  1.00  0.00     0.000 C 
BRANCH   7   8
ATOM      8  C   UNL     1      61.474  27.222  50.880  1.00  0.00     0.006 C 
BRANCH   8   9
ATOM      9  C   UNL     1      61.667  26.044  51.839  1.00  0.00     0.053 C 
BRANCH   9  10
ATOM     10  C   UNL     1      61.250  26.421  53.225  1.00  0.00     0.041 C 
ATOM     11  O   UNL     1      62.021  26.209  54.198  1.00  0.00    -0.550 OA
ATOM     12  O   UNL     1      60.032  27.054  53.436  1.00  0.00    -0.550 OA
ENDBRANCH   9  10
ENDBRANCH   8   9
ENDBRANCH   7   8
ENDBRANCH   6   7
ENDBRANCH   5   6
ENDBRANCH   4   5
ENDBRANCH   3   4
ENDBRANCH   1   3
BRANCH   2  13
ATOM     13  C   UNL     1      54.259  29.342  52.231  1.00  0.00     0.027 C 
BRANCH  13  14
ATOM     14  C   UNL     1      53.235  28.705  51.282  1.00  0.00     0.004 C 
BRANCH  14  15
ATOM     15  C   UNL     1      53.867  28.280  49.946  1.00  0.00     0.000 C 
BRANCH  15  16
ATOM     16  C   UNL     1      53.359  26.914  49.450  1.00  0.00     0.000 C 
BRANCH  16  17
ATOM     17  C   UNL     1      54.435  25.818  49.346  1.00  0.00    -0.000 C 
BRANCH  17  18
ATOM     18  C   UNL     1      55.820  26.289  49.822  1.00  0.00    -0.000 C 
BRANCH  18  19
ATOM     19  C   UNL     1      56.158  25.787  51.236  1.00  0.00    -0.003 C 
ATOM     20  C   UNL     1      57.642  25.466  51.411  1.00  0.00     0.004 C 
ENDBRANCH  18  19
ENDBRANCH  17  18
ENDBRANCH  16  17
ENDBRANCH  15  16
ENDBRANCH  14  15
ENDBRANCH  13  14
ENDBRANCH   2  13
TORSDOF 15
ENDMDL
MODEL 9
REMARK VINA RESULT:    -3.721     11.528     13.340
REMARK INTER + INTRA:          -8.383
REMARK INTER:                  -6.050
REMARK INTRA:                  -2.333
REMARK UNBOUND:                -1.400
REMARK SMILES CCCCCCCCC=CCCCCCCCC(=O)[O-]
REMARK SMILES IDX 10 1 9 2 11 3 12 4 13 5 14 6 15 7 16 8 17 9 18 10 19 11
REMARK SMILES IDX 20 12 8 13 7 14 6 15 5 16 4 17 3 18 2 19 1 20
REMARK H PARENT
REMARK Flexibility Score: inf
ROOT
ATOM      1  C   UNL     1      62.647  26.302  50.059  1.00  0.00    -0.031 C 
ATOM      2  C   UNL     1      61.421  26.622  49.620  1.00  0.00    -0.031 C 
ENDROOT
BRANCH   1   3
ATOM      3  C   UNL     1      63.881  26.942  49.482  1.00  0.00     0.027 C 
BRANCH   3   4
ATOM      4  C   UNL     1      63.546  28.111  48.543  1.00  0.00     0.004 C 
BRANCH   4   5
ATOM      5  C   UNL     1      63.834  29.475  49.195  1.00  0.00     0.000 C 
BRANCH   5   6
ATOM      6  C   UNL     1      62.590  30.090  49.853  1.00  0.00     0.000 C 
BRANCH   6   7
ATOM      7  C   UNL     1      62.606  29.959  51.383  1.00  0.00     0.000 C 
BRANCH   7   8
ATOM      8  C   UNL     1      61.209  29.627  51.920  1.00  0.00     0.006 C 
BRANCH   8   9
ATOM      9  C   UNL     1      60.442  30.902  52.284  1.00  0.00     0.053 C 
BRANCH   9  10
ATOM     10  C   UNL     1      59.159  30.562  52.974  1.00  0.00     0.041 C 
ATOM     11  O   UNL     1      58.125  31.250  52.762  1.00  0.00    -0.550 OA
ATOM     12  O   UNL     1      59.091  29.457  53.813  1.00  0.00    -0.550 OA
ENDBRANCH   9  10
ENDBRANCH   8   9
ENDBRANCH   7   8
ENDBRANCH   6   7
ENDBRANCH   5   6
ENDBRANCH   4   5
ENDBRANCH   3   4
ENDBRANCH   1   3
BRANCH   2  13
ATOM     13  C   UNL     1      60.188  25.944  50.155  1.00  0.00     0.027 C 
BRANCH  13  14
ATOM     14  C   UNL     1      58.908  26.594  49.613  1.00  0.00     0.004 C 
BRANCH  14  15
ATOM     15  C   UNL     1      59.105  28.086  49.293  1.00  0.00     0.000 C 
BRANCH  15  16
ATOM     16  C   UNL     1      58.029  28.983  49.930  1.00  0.00     0.000 C 
BRANCH  16  17
ATOM     17  C   UNL     1      56.943  28.235  50.723  1.00  0.00    -0.000 C 
BRANCH  17  18
ATOM     18  C   UNL     1      55.533  28.809  50.499  1.00  0.00    -0.000 C 
BRANCH  18  19
ATOM     19  C   UNL     1      54.509  27.725  50.124  1.00  0.00    -0.003 C 
ATOM     20  C   UNL     1      55.157  26.370  49.841  1.00  0.00     0.004 C 
ENDBRANCH  18  19
ENDBRANCH  17  18
ENDBRANCH  16  17
ENDBRANCH  15  16
ENDBRANCH  14  15
ENDBRANCH  13  14
ENDBRANCH   2  13
TORSDOF 15
ENDMDL
