MODEL 1
REMARK VINA RESULT:    -3.952      0.000      0.000
REMARK INTER + INTRA:          -5.503
REMARK INTER:                  -4.991
REMARK INTRA:                  -0.511
REMARK UNBOUND:                -0.511
REMARK SMILES O=C(C=Cc1ccc(O)cc1)c1ccc(O)cc1O
REMARK SMILES IDX 4 1 3 2 5 3 6 4 7 5 8 6 11 7 10 8 9 9 2 11 1 12 12 13 18 14
REMARK SMILES IDX 13 15 17 16 14 17 15 18 19 19 16 21
REMARK H PARENT 9 10 19 20 16 22
REMARK Flexibility Score: inf
ROOT
ATOM      1  C   UNL     1       1.327  27.422  22.243  1.00  0.00     0.012 C 
ATOM      2  C   UNL     1       1.563  26.181  21.791  1.00  0.00     0.053 C 
ENDROOT
BRANCH   1   3
ATOM      3  C   UNL     1       0.615  28.462  21.460  1.00  0.00    -0.025 A 
ATOM      4  C   UNL     1      -0.753  28.364  21.132  1.00  0.00     0.012 A 
ATOM      5  C   UNL     1      -1.380  29.378  20.400  1.00  0.00     0.047 A 
ATOM      6  C   UNL     1      -0.657  30.504  19.994  1.00  0.00     0.115 A 
ATOM      7  C   UNL     1       1.327  29.606  21.059  1.00  0.00     0.012 A 
ATOM      8  C   UNL     1       0.698  30.617  20.327  1.00  0.00     0.047 A 
BRANCH   6   9
ATOM      9  O   UNL     1      -1.295  31.505  19.265  1.00  0.00    -0.508 OA
ATOM     10  H   UNL     1      -0.935  32.452  19.236  1.00  0.00     0.293 HD
ENDBRANCH   6   9
ENDBRANCH   1   3
BRANCH   2  11
ATOM     11  C   UNL     1       2.282  25.160  22.585  1.00  0.00     0.189 C 
ATOM     12  O   UNL     1       3.453  24.848  22.242  1.00  0.00    -0.289 OA
BRANCH  11  13
ATOM     13  C   UNL     1       1.674  24.470  23.742  1.00  0.00     0.064 A 
ATOM     14  C   UNL     1       1.571  23.061  23.808  1.00  0.00     0.130 A 
ATOM     15  C   UNL     1       1.175  25.246  24.801  1.00  0.00     0.020 A 
ATOM     16  C   UNL     1       1.021  22.458  24.946  1.00  0.00     0.093 A 
ATOM     17  C   UNL     1       0.618  24.633  25.927  1.00  0.00     0.047 A 
ATOM     18  C   UNL     1       0.546  23.238  26.004  1.00  0.00     0.119 A 
BRANCH  14  19
ATOM     19  O   UNL     1       1.985  22.237  22.759  1.00  0.00    -0.507 OA
ATOM     20  H   UNL     1       1.338  21.727  22.172  1.00  0.00     0.293 HD
ENDBRANCH  14  19
BRANCH  18  21
ATOM     21  O   UNL     1      -0.001  22.616  27.125  1.00  0.00    -0.508 OA
ATOM     22  H   UNL     1      -0.922  22.861  27.468  1.00  0.00     0.293 HD
ENDBRANCH  18  21
ENDBRANCH  11  13
ENDBRANCH   2  11
TORSDOF 6
ENDMDL
MODEL 2
REMARK VINA RESULT:    -3.166      1.045      1.633
REMARK INTER + INTRA:          -4.509
REMARK INTER:                  -4.326
REMARK INTRA:                  -0.184
REMARK UNBOUND:                -0.511
REMARK SMILES O=C(C=Cc1ccc(O)cc1)c1ccc(O)cc1O
REMARK SMILES IDX 4 1 3 2 5 3 6 4 7 5 8 6 11 7 10 8 9 9 2 11 1 12 12 13 18 14
REMARK SMILES IDX 13 15 17 16 14 17 15 18 19 19 16 21
REMARK H PARENT 9 10 19 20 16 22
REMARK Flexibility Score: inf
ROOT
ATOM      1  C   UNL     1       1.492  27.584  22.250  1.00  0.00     0.012 C 
ATOM      2  C   UNL     1       1.332  26.256  22.141  1.00  0.00     0.053 C 
ENDROOT
BRANCH   1   3
ATOM      3  C   UNL     1       0.721  28.574  21.459  1.00  0.00    -0.025 A 
ATOM      4  C   UNL     1      -0.634  28.384  21.118  1.00  0.00     0.012 A 
ATOM      5  C   UNL     1      -1.320  29.355  20.379  1.00  0.00     0.047 A 
ATOM      6  C   UNL     1      -0.670  30.526  19.979  1.00  0.00     0.115 A 
ATOM      7  C   UNL     1       1.359  29.762  21.065  1.00  0.00     0.012 A 
ATOM      8  C   UNL     1       0.671  30.730  20.326  1.00  0.00     0.047 A 
BRANCH   6   9
ATOM      9  O   UNL     1      -1.366  31.482  19.243  1.00  0.00    -0.508 OA
ATOM     10  H   UNL     1      -1.577  32.397  19.627  1.00  0.00     0.293 HD
ENDBRANCH   6   9
ENDBRANCH   1   3
BRANCH   2  11
ATOM     11  C   UNL     1       2.117  25.284  22.933  1.00  0.00     0.189 C 
ATOM     12  O   UNL     1       3.324  25.094  22.626  1.00  0.00    -0.289 OA
BRANCH  11  13
ATOM     13  C   UNL     1       1.539  24.505  24.049  1.00  0.00     0.064 A 
ATOM     14  C   UNL     1       0.855  25.122  25.122  1.00  0.00     0.130 A 
ATOM     15  C   UNL     1       1.688  23.109  24.041  1.00  0.00     0.020 A 
ATOM     16  C   UNL     1       0.293  24.332  26.132  1.00  0.00     0.093 A 
ATOM     17  C   UNL     1       1.133  22.331  25.061  1.00  0.00     0.047 A 
ATOM     18  C   UNL     1       0.428  22.942  26.106  1.00  0.00     0.119 A 
BRANCH  14  19
ATOM     19  O   UNL     1       0.733  26.510  25.222  1.00  0.00    -0.507 OA
ATOM     20  H   UNL     1      -0.118  27.006  24.989  1.00  0.00     0.293 HD
ENDBRANCH  14  19
BRANCH  18  21
ATOM     21  O   UNL     1      -0.135  22.176  27.125  1.00  0.00    -0.508 OA
ATOM     22  H   UNL     1      -1.132  22.180  27.300  1.00  0.00     0.293 HD
ENDBRANCH  18  21
ENDBRANCH  11  13
ENDBRANCH   2  11
TORSDOF 6
ENDMDL
MODEL 3
REMARK VINA RESULT:    -2.971      5.281      7.969
REMARK INTER + INTRA:          -4.264
REMARK INTER:                  -3.639
REMARK INTRA:                  -0.625
REMARK UNBOUND:                -0.511
REMARK SMILES O=C(C=Cc1ccc(O)cc1)c1ccc(O)cc1O
REMARK SMILES IDX 4 1 3 2 5 3 6 4 7 5 8 6 11 7 10 8 9 9 2 11 1 12 12 13 18 14
REMARK SMILES IDX 13 15 17 16 14 17 15 18 19 19 16 21
REMARK H PARENT 9 10 19 20 16 22
REMARK Flexibility Score: inf
ROOT
ATOM      1  C   UNL     1       3.245  21.786  26.101  1.00  0.00     0.012 C 
ATOM      2  C   UNL     1       3.756  21.086  27.125  1.00  0.00     0.053 C 
ENDROOT
BRANCH   1   3
ATOM      3  C   UNL     1       2.044  22.651  26.211  1.00  0.00    -0.025 A 
ATOM      4  C   UNL     1       0.923  22.298  26.990  1.00  0.00     0.012 A 
ATOM      5  C   UNL     1      -0.181  23.155  27.070  1.00  0.00     0.047 A 
ATOM      6  C   UNL     1      -0.179  24.373  26.384  1.00  0.00     0.115 A 
ATOM      7  C   UNL     1       2.041  23.885  25.538  1.00  0.00     0.012 A 
ATOM      8  C   UNL     1       0.936  24.738  25.619  1.00  0.00     0.047 A 
BRANCH   6   9
ATOM      9  O   UNL     1      -1.286  25.213  26.472  1.00  0.00    -0.508 OA
ATOM     10  H   UNL     1      -1.947  25.302  25.708  1.00  0.00     0.293 HD
ENDBRANCH   6   9
ENDBRANCH   1   3
BRANCH   2  11
ATOM     11  C   UNL     1       4.950  20.223  26.993  1.00  0.00     0.189 C 
ATOM     12  O   UNL     1       6.088  20.756  27.069  1.00  0.00    -0.289 OA
BRANCH  11  13
ATOM     13  C   UNL     1       4.863  18.768  26.744  1.00  0.00     0.064 A 
ATOM     14  C   UNL     1       5.916  18.045  26.137  1.00  0.00     0.130 A 
ATOM     15  C   UNL     1       3.690  18.092  27.116  1.00  0.00     0.020 A 
ATOM     16  C   UNL     1       5.795  16.661  25.961  1.00  0.00     0.093 A 
ATOM     17  C   UNL     1       3.576  16.712  26.925  1.00  0.00     0.047 A 
ATOM     18  C   UNL     1       4.632  15.993  26.353  1.00  0.00     0.119 A 
BRANCH  14  19
ATOM     19  O   UNL     1       7.079  18.670  25.683  1.00  0.00    -0.507 OA
ATOM     20  H   UNL     1       7.998  18.455  26.049  1.00  0.00     0.293 HD
ENDBRANCH  14  19
BRANCH  18  21
ATOM     21  O   UNL     1       4.533  14.616  26.164  1.00  0.00    -0.508 OA
ATOM     22  H   UNL     1       4.314  14.221  25.257  1.00  0.00     0.293 HD
ENDBRANCH  18  21
ENDBRANCH  11  13
ENDBRANCH   2  11
TORSDOF 6
ENDMDL
MODEL 4
REMARK VINA RESULT:    -2.952     13.877     16.685
REMARK INTER + INTRA:          -4.239
REMARK INTER:                  -3.713
REMARK INTRA:                  -0.526
REMARK UNBOUND:                -0.511
REMARK SMILES O=C(C=Cc1ccc(O)cc1)c1ccc(O)cc1O
REMARK SMILES IDX 4 1 3 2 5 3 6 4 7 5 8 6 11 7 10 8 9 9 2 11 1 12 12 13 18 14
REMARK SMILES IDX 13 15 17 16 14 17 15 18 19 19 16 21
REMARK H PARENT 9 10 19 20 16 22
REMARK Flexibility Score: inf
ROOT
ATOM      1  C   UNL     1     -10.674  16.503  24.427  1.00  0.00     0.012 C 
ATOM      2  C   UNL     1     -10.923  15.257  23.997  1.00  0.00     0.053 C 
ENDROOT
BRANCH   1   3
ATOM      3  C   UNL     1      -9.433  16.895  25.141  1.00  0.00    -0.025 A 
ATOM      4  C   UNL     1      -9.401  17.935  26.093  1.00  0.00     0.012 A 
ATOM      5  C   UNL     1      -8.207  18.259  26.747  1.00  0.00     0.047 A 
ATOM      6  C   UNL     1      -7.036  17.549  26.467  1.00  0.00     0.115 A 
ATOM      7  C   UNL     1      -8.253  16.179  24.879  1.00  0.00     0.012 A 
ATOM      8  C   UNL     1      -7.062  16.506  25.534  1.00  0.00     0.047 A 
BRANCH   6   9
ATOM      9  O   UNL     1      -5.855  17.885  27.125  1.00  0.00    -0.508 OA
ATOM     10  H   UNL     1      -5.837  18.069  28.122  1.00  0.00     0.293 HD
ENDBRANCH   6   9
ENDBRANCH   1   3
BRANCH   2  11
ATOM     11  C   UNL     1     -12.170  14.883  23.294  1.00  0.00     0.189 C 
ATOM     12  O   UNL     1     -13.123  14.413  23.971  1.00  0.00    -0.289 OA
BRANCH  11  13
ATOM     13  C   UNL     1     -12.335  15.009  21.831  1.00  0.00     0.064 A 
ATOM     14  C   UNL     1     -12.710  16.228  21.218  1.00  0.00     0.130 A 
ATOM     15  C   UNL     1     -12.121  13.875  21.030  1.00  0.00     0.020 A 
ATOM     16  C   UNL     1     -12.813  16.299  19.823  1.00  0.00     0.093 A 
ATOM     17  C   UNL     1     -12.238  13.956  19.640  1.00  0.00     0.047 A 
ATOM     18  C   UNL     1     -12.578  15.171  19.034  1.00  0.00     0.119 A 
BRANCH  14  19
ATOM     19  O   UNL     1     -13.004  17.372  21.963  1.00  0.00    -0.507 OA
ATOM     20  H   UNL     1     -12.516  17.613  22.816  1.00  0.00     0.293 HD
ENDBRANCH  14  19
BRANCH  18  21
ATOM     21  O   UNL     1     -12.691  15.266  17.648  1.00  0.00    -0.508 OA
ATOM     22  H   UNL     1     -13.595  15.291  17.192  1.00  0.00     0.293 HD
ENDBRANCH  18  21
ENDBRANCH  11  13
ENDBRANCH   2  11
TORSDOF 6
ENDMDL
MODEL 5
REMARK VINA RESULT:    -2.922      2.127      2.786
REMARK INTER + INTRA:          -4.202
REMARK INTER:                  -3.604
REMARK INTRA:                  -0.599
REMARK UNBOUND:                -0.511
REMARK SMILES O=C(C=Cc1ccc(O)cc1)c1ccc(O)cc1O
REMARK SMILES IDX 4 1 3 2 5 3 6 4 7 5 8 6 11 7 10 8 9 9 2 11 1 12 12 13 18 14
REMARK SMILES IDX 13 15 17 16 14 17 15 18 19 19 16 21
REMARK H PARENT 9 10 19 20 16 22
REMARK Flexibility Score: inf
ROOT
ATOM      1  C   UNL     1       1.457  26.478  22.245  1.00  0.00     0.012 C 
ATOM      2  C   UNL     1       1.745  25.367  21.551  1.00  0.00     0.053 C 
ENDROOT
BRANCH   1   3
ATOM      3  C   UNL     1       0.954  27.730  21.626  1.00  0.00    -0.025 A 
ATOM      4  C   UNL     1       1.746  28.890  21.507  1.00  0.00     0.012 A 
ATOM      5  C   UNL     1       1.228  30.041  20.904  1.00  0.00     0.047 A 
ATOM      6  C   UNL     1      -0.078  30.050  20.407  1.00  0.00     0.115 A 
ATOM      7  C   UNL     1      -0.352  27.745  21.108  1.00  0.00     0.012 A 
ATOM      8  C   UNL     1      -0.867  28.898  20.508  1.00  0.00     0.047 A 
BRANCH   6   9
ATOM      9  O   UNL     1      -0.580  31.205  19.811  1.00  0.00    -0.508 OA
ATOM     10  H   UNL     1      -0.517  32.107  20.268  1.00  0.00     0.293 HD
ENDBRANCH   6   9
ENDBRANCH   1   3
BRANCH   2  11
ATOM     11  C   UNL     1       2.253  24.131  22.186  1.00  0.00     0.189 C 
ATOM     12  O   UNL     1       1.950  23.022  21.671  1.00  0.00    -0.289 OA
BRANCH  11  13
ATOM     13  C   UNL     1       3.076  24.141  23.414  1.00  0.00     0.064 A 
ATOM     14  C   UNL     1       2.508  23.994  24.701  1.00  0.00     0.130 A 
ATOM     15  C   UNL     1       4.464  24.315  23.291  1.00  0.00     0.020 A 
ATOM     16  C   UNL     1       3.339  23.972  25.827  1.00  0.00     0.093 A 
ATOM     17  C   UNL     1       5.283  24.303  24.424  1.00  0.00     0.047 A 
ATOM     18  C   UNL     1       4.722  24.125  25.694  1.00  0.00     0.119 A 
BRANCH  14  19
ATOM     19  O   UNL     1       1.129  23.887  24.895  1.00  0.00    -0.507 OA
ATOM     20  H   UNL     1       0.491  24.657  24.741  1.00  0.00     0.293 HD
ENDBRANCH  14  19
BRANCH  18  21
ATOM     21  O   UNL     1       5.529  24.104  26.830  1.00  0.00    -0.508 OA
ATOM     22  H   UNL     1       6.388  23.569  26.859  1.00  0.00     0.293 HD
ENDBRANCH  18  21
ENDBRANCH  11  13
ENDBRANCH   2  11
TORSDOF 6
ENDMDL
MODEL 6
REMARK VINA RESULT:    -2.893      5.162     10.273
REMARK INTER + INTRA:          -4.165
REMARK INTER:                  -3.578
REMARK INTRA:                  -0.587
REMARK UNBOUND:                -0.511
REMARK SMILES O=C(C=Cc1ccc(O)cc1)c1ccc(O)cc1O
REMARK SMILES IDX 4 1 3 2 5 3 6 4 7 5 8 6 11 7 10 8 9 9 2 11 1 12 12 13 18 14
REMARK SMILES IDX 13 15 17 16 14 17 15 18 19 19 16 21
REMARK H PARENT 9 10 19 20 16 22
REMARK Flexibility Score: inf
ROOT
ATOM      1  C   UNL     1       4.497  19.604  26.517  1.00  0.00     0.012 C 
ATOM      2  C   UNL     1       3.423  20.359  26.798  1.00  0.00     0.053 C 
ENDROOT
BRANCH   1   3
ATOM      3  C   UNL     1       4.495  18.121  26.556  1.00  0.00    -0.025 A 
ATOM      4  C   UNL     1       3.438  17.377  27.120  1.00  0.00     0.012 A 
ATOM      5  C   UNL     1       3.479  15.979  27.122  1.00  0.00     0.047 A 
ATOM      6  C   UNL     1       4.566  15.305  26.557  1.00  0.00     0.115 A 
ATOM      7  C   UNL     1       5.575  17.432  25.978  1.00  0.00     0.012 A 
ATOM      8  C   UNL     1       5.613  16.035  25.982  1.00  0.00     0.047 A 
BRANCH   6   9
ATOM      9  O   UNL     1       4.593  13.912  26.568  1.00  0.00    -0.508 OA
ATOM     10  H   UNL     1       4.241  13.369  25.788  1.00  0.00     0.293 HD
ENDBRANCH   6   9
ENDBRANCH   1   3
BRANCH   2  11
ATOM     11  C   UNL     1       3.448  21.837  26.762  1.00  0.00     0.189 C 
ATOM     12  O   UNL     1       4.554  22.423  26.903  1.00  0.00    -0.289 OA
BRANCH  11  13
ATOM     13  C   UNL     1       2.228  22.656  26.597  1.00  0.00     0.064 A 
ATOM     14  C   UNL     1       2.246  23.910  25.944  1.00  0.00     0.130 A 
ATOM     15  C   UNL     1       1.018  22.171  27.120  1.00  0.00     0.020 A 
ATOM     16  C   UNL     1       1.053  24.625  25.782  1.00  0.00     0.093 A 
ATOM     17  C   UNL     1      -0.165  22.898  26.962  1.00  0.00     0.047 A 
ATOM     18  C   UNL     1      -0.150  24.124  26.287  1.00  0.00     0.119 A 
BRANCH  14  19
ATOM     19  O   UNL     1       3.428  24.478  25.464  1.00  0.00    -0.507 OA
ATOM     20  H   UNL     1       4.073  23.981  24.863  1.00  0.00     0.293 HD
ENDBRANCH  14  19
BRANCH  18  21
ATOM     21  O   UNL     1      -1.324  24.856  26.118  1.00  0.00    -0.508 OA
ATOM     22  H   UNL     1      -1.685  25.073  25.197  1.00  0.00     0.293 HD
ENDBRANCH  18  21
ENDBRANCH  11  13
ENDBRANCH   2  11
TORSDOF 6
ENDMDL
MODEL 7
REMARK VINA RESULT:    -2.754      4.873      7.374
REMARK INTER + INTRA:          -3.990
REMARK INTER:                  -4.247
REMARK INTRA:                   0.257
REMARK UNBOUND:                -0.511
REMARK SMILES O=C(C=Cc1ccc(O)cc1)c1ccc(O)cc1O
REMARK SMILES IDX 4 1 3 2 5 3 6 4 7 5 8 6 11 7 10 8 9 9 2 11 1 12 12 13 18 14
REMARK SMILES IDX 13 15 17 16 14 17 15 18 19 19 16 21
REMARK H PARENT 9 10 19 20 16 22
REMARK Flexibility Score: inf
ROOT
ATOM      1  C   UNL     1       3.553  22.939  25.993  1.00  0.00     0.012 C 
ATOM      2  C   UNL     1       4.144  22.386  27.063  1.00  0.00     0.053 C 
ENDROOT
BRANCH   1   3
ATOM      3  C   UNL     1       2.228  23.605  26.036  1.00  0.00    -0.025 A 
ATOM      4  C   UNL     1       1.219  23.232  26.947  1.00  0.00     0.012 A 
ATOM      5  C   UNL     1      -0.010  23.900  26.954  1.00  0.00     0.047 A 
ATOM      6  C   UNL     1      -0.247  24.949  26.061  1.00  0.00     0.115 A 
ATOM      7  C   UNL     1       1.984  24.671  25.153  1.00  0.00     0.012 A 
ATOM      8  C   UNL     1       0.754  25.336  25.162  1.00  0.00     0.047 A 
BRANCH   6   9
ATOM      9  O   UNL     1      -1.477  25.603  26.079  1.00  0.00    -0.508 OA
ATOM     10  H   UNL     1      -1.540  26.614  26.079  1.00  0.00     0.293 HD
ENDBRANCH   6   9
ENDBRANCH   1   3
BRANCH   2  11
ATOM     11  C   UNL     1       5.463  21.719  26.999  1.00  0.00     0.189 C 
ATOM     12  O   UNL     1       6.492  22.433  26.867  1.00  0.00    -0.289 OA
BRANCH  11  13
ATOM     13  C   UNL     1       5.622  20.250  27.052  1.00  0.00     0.064 A 
ATOM     14  C   UNL     1       4.512  19.374  27.073  1.00  0.00     0.130 A 
ATOM     15  C   UNL     1       6.920  19.716  27.096  1.00  0.00     0.020 A 
ATOM     16  C   UNL     1       4.722  17.989  27.085  1.00  0.00     0.093 A 
ATOM     17  C   UNL     1       7.117  18.332  27.119  1.00  0.00     0.047 A 
ATOM     18  C   UNL     1       6.017  17.466  27.107  1.00  0.00     0.119 A 
BRANCH  14  19
ATOM     19  O   UNL     1       3.197  19.844  27.101  1.00  0.00    -0.507 OA
ATOM     20  H   UNL     1       2.409  19.291  26.791  1.00  0.00     0.293 HD
ENDBRANCH  14  19
BRANCH  18  21
ATOM     21  O   UNL     1       6.201  16.085  27.123  1.00  0.00    -0.508 OA
ATOM     22  H   UNL     1       6.961  15.659  27.639  1.00  0.00     0.293 HD
ENDBRANCH  18  21
ENDBRANCH  11  13
ENDBRANCH   2  11
TORSDOF 6
ENDMDL
MODEL 8
REMARK VINA RESULT:    -2.556      1.724      2.035
REMARK INTER + INTRA:          -3.739
REMARK INTER:                  -3.274
REMARK INTRA:                  -0.465
REMARK UNBOUND:                -0.511
REMARK SMILES O=C(C=Cc1ccc(O)cc1)c1ccc(O)cc1O
REMARK SMILES IDX 4 1 3 2 5 3 6 4 7 5 8 6 11 7 10 8 9 9 2 11 1 12 12 13 18 14
REMARK SMILES IDX 13 15 17 16 14 17 15 18 19 19 16 21
REMARK H PARENT 9 10 19 20 16 22
REMARK Flexibility Score: inf
ROOT
ATOM      1  C   UNL     1       1.166  26.633  21.962  1.00  0.00     0.012 C 
ATOM      2  C   UNL     1       1.480  25.550  21.234  1.00  0.00     0.053 C 
ENDROOT
BRANCH   1   3
ATOM      3  C   UNL     1       0.605  27.880  21.384  1.00  0.00    -0.025 A 
ATOM      4  C   UNL     1      -0.739  27.988  20.970  1.00  0.00     0.012 A 
ATOM      5  C   UNL     1      -1.221  29.190  20.442  1.00  0.00     0.047 A 
ATOM      6  C   UNL     1      -0.377  30.299  20.326  1.00  0.00     0.115 A 
ATOM      7  C   UNL     1       1.440  29.005  21.277  1.00  0.00     0.012 A 
ATOM      8  C   UNL     1       0.954  30.204  20.747  1.00  0.00     0.047 A 
BRANCH   6   9
ATOM      9  O   UNL     1      -0.872  31.488  19.796  1.00  0.00    -0.508 OA
ATOM     10  H   UNL     1      -1.802  31.823  20.022  1.00  0.00     0.293 HD
ENDBRANCH   6   9
ENDBRANCH   1   3
BRANCH   2  11
ATOM     11  C   UNL     1       2.047  24.320  21.828  1.00  0.00     0.189 C 
ATOM     12  O   UNL     1       2.024  23.259  21.149  1.00  0.00    -0.289 OA
BRANCH  11  13
ATOM     13  C   UNL     1       2.610  24.274  23.195  1.00  0.00     0.064 A 
ATOM     14  C   UNL     1       3.990  24.079  23.433  1.00  0.00     0.130 A 
ATOM     15  C   UNL     1       1.738  24.420  24.286  1.00  0.00     0.020 A 
ATOM     16  C   UNL     1       4.474  24.084  24.747  1.00  0.00     0.093 A 
ATOM     17  C   UNL     1       2.231  24.412  25.593  1.00  0.00     0.047 A 
ATOM     18  C   UNL     1       3.602  24.250  25.826  1.00  0.00     0.119 A 
BRANCH  14  19
ATOM     19  O   UNL     1       4.898  23.860  22.395  1.00  0.00    -0.507 OA
ATOM     20  H   UNL     1       5.678  24.476  22.206  1.00  0.00     0.293 HD
ENDBRANCH  14  19
BRANCH  18  21
ATOM     21  O   UNL     1       4.106  24.246  27.125  1.00  0.00    -0.508 OA
ATOM     22  H   UNL     1       4.345  25.107  27.602  1.00  0.00     0.293 HD
ENDBRANCH  18  21
ENDBRANCH  11  13
ENDBRANCH   2  11
TORSDOF 6
ENDMDL
MODEL 9
REMARK VINA RESULT:    -2.247      1.433      7.606
REMARK INTER + INTRA:          -3.349
REMARK INTER:                  -2.779
REMARK INTRA:                  -0.570
REMARK UNBOUND:                -0.511
REMARK SMILES O=C(C=Cc1ccc(O)cc1)c1ccc(O)cc1O
REMARK SMILES IDX 4 1 3 2 5 3 6 4 7 5 8 6 11 7 10 8 9 9 2 11 1 12 12 13 18 14
REMARK SMILES IDX 13 15 17 16 14 17 15 18 19 19 16 21
REMARK H PARENT 9 10 19 20 16 22
REMARK Flexibility Score: inf
ROOT
ATOM      1  C   UNL     1       1.829  25.753  23.111  1.00  0.00     0.012 C 
ATOM      2  C   UNL     1       1.087  26.830  22.809  1.00  0.00     0.053 C 
ENDROOT
BRANCH   1   3
ATOM      3  C   UNL     1       1.414  24.712  24.084  1.00  0.00    -0.025 A 
ATOM      4  C   UNL     1       1.768  23.355  23.942  1.00  0.00     0.012 A 
ATOM      5  C   UNL     1       1.361  22.414  24.894  1.00  0.00     0.047 A 
ATOM      6  C   UNL     1       0.606  22.813  26.001  1.00  0.00     0.115 A 
ATOM      7  C   UNL     1       0.668  25.104  25.209  1.00  0.00     0.012 A 
ATOM      8  C   UNL     1       0.262  24.161  26.158  1.00  0.00     0.047 A 
BRANCH   6   9
ATOM      9  O   UNL     1       0.207  21.864  26.939  1.00  0.00    -0.508 OA
ATOM     10  H   UNL     1       0.733  21.011  27.087  1.00  0.00     0.293 HD
ENDBRANCH   6   9
ENDBRANCH   1   3
BRANCH   2  11
ATOM     11  C   UNL     1       1.522  27.861  21.842  1.00  0.00     0.189 C 
ATOM     12  O   UNL     1       2.751  27.968  21.590  1.00  0.00    -0.289 OA
BRANCH  11  13
ATOM     13  C   UNL     1       0.579  28.790  21.183  1.00  0.00     0.064 A 
ATOM     14  C   UNL     1       0.997  30.032  20.649  1.00  0.00     0.130 A 
ATOM     15  C   UNL     1      -0.774  28.425  21.097  1.00  0.00     0.020 A 
ATOM     16  C   UNL     1       0.068  30.855  20.000  1.00  0.00     0.093 A 
ATOM     17  C   UNL     1      -1.694  29.260  20.457  1.00  0.00     0.047 A 
ATOM     18  C   UNL     1      -1.273  30.474  19.902  1.00  0.00     0.119 A 
BRANCH  14  19
ATOM     19  O   UNL     1       2.313  30.482  20.763  1.00  0.00    -0.507 OA
ATOM     20  H   UNL     1       2.966  30.107  21.439  1.00  0.00     0.293 HD
ENDBRANCH  14  19
BRANCH  18  21
ATOM     21  O   UNL     1      -2.180  31.312  19.256  1.00  0.00    -0.508 OA
ATOM     22  H   UNL     1      -3.124  31.010  19.049  1.00  0.00     0.293 HD
ENDBRANCH  18  21
ENDBRANCH  11  13
ENDBRANCH   2  11
TORSDOF 6
ENDMDL
