MODEL 1
REMARK VINA RESULT:    -4.672      0.000      0.000
REMARK INTER + INTRA:          -5.326
REMARK INTER:                  -5.218
REMARK INTRA:                  -0.108
REMARK UNBOUND:                -0.108
REMARK SMILES COc1cc(OC)c2ccc(=O)oc2c1
REMARK SMILES IDX 3 1 15 2 14 3 8 4 9 5 10 6 11 7 12 8 13 9 5 10 4 11 2 12
REMARK SMILES IDX 1 13 6 14 7 15
REMARK H PARENT
REMARK Flexibility Score: inf
ROOT
ATOM      1  C   UNL     1      -4.207   0.274  30.807  1.00  0.00     0.126 A 
ATOM      2  C   UNL     1      -4.332  -0.134  29.466  1.00  0.00     0.094 A 
ATOM      3  C   UNL     1      -3.299   0.102  28.557  1.00  0.00     0.145 A 
ATOM      4  C   UNL     1      -2.119   0.755  28.982  1.00  0.00     0.060 A 
ATOM      5  C   UNL     1      -1.109   0.972  28.032  1.00  0.00     0.023 A 
ATOM      6  C   UNL     1      -1.293   0.543  26.719  1.00  0.00     0.095 A 
ATOM      7  C   UNL     1      -2.488  -0.096  26.378  1.00  0.00     0.336 A 
ATOM      8  O   UNL     1      -2.674  -0.491  25.197  1.00  0.00    -0.246 OA
ATOM      9  O   UNL     1      -3.433  -0.290  27.293  1.00  0.00    -0.422 OA
ATOM     10  C   UNL     1      -1.984   1.169  30.320  1.00  0.00     0.133 A 
ATOM     11  C   UNL     1      -3.037   0.921  31.222  1.00  0.00     0.093 A 
ENDROOT
BRANCH   1  12
ATOM     12  O   UNL     1      -5.219   0.057  31.754  1.00  0.00    -0.496 OA
ATOM     13  C   UNL     1      -5.672   1.034  32.686  1.00  0.00     0.278 C 
ENDBRANCH   1  12
BRANCH  10  14
ATOM     14  O   UNL     1      -0.803   1.817  30.723  1.00  0.00    -0.496 OA
ATOM     15  C   UNL     1      -0.739   3.156  31.204  1.00  0.00     0.278 C 
ENDBRANCH  10  14
TORSDOF 2
ENDMDL
MODEL 2
REMARK VINA RESULT:    -4.659      1.283      4.927
REMARK INTER + INTRA:          -5.312
REMARK INTER:                  -5.205
REMARK INTRA:                  -0.107
REMARK UNBOUND:                -0.108
REMARK SMILES COc1cc(OC)c2ccc(=O)oc2c1
REMARK SMILES IDX 3 1 15 2 14 3 8 4 9 5 10 6 11 7 12 8 13 9 5 10 4 11 2 12
REMARK SMILES IDX 1 13 6 14 7 15
REMARK H PARENT
REMARK Flexibility Score: inf
ROOT
ATOM      1  C   UNL     1      -0.921   2.098  29.587  1.00  0.00     0.126 A 
ATOM      2  C   UNL     1      -1.904   2.044  30.592  1.00  0.00     0.094 A 
ATOM      3  C   UNL     1      -2.928   1.097  30.528  1.00  0.00     0.145 A 
ATOM      4  C   UNL     1      -2.982   0.186  29.448  1.00  0.00     0.060 A 
ATOM      5  C   UNL     1      -4.030  -0.747  29.426  1.00  0.00     0.023 A 
ATOM      6  C   UNL     1      -4.972  -0.750  30.453  1.00  0.00     0.095 A 
ATOM      7  C   UNL     1      -4.849   0.182  31.486  1.00  0.00     0.336 A 
ATOM      8  O   UNL     1      -5.690   0.196  32.424  1.00  0.00    -0.246 OA
ATOM      9  O   UNL     1      -3.849   1.058  31.487  1.00  0.00    -0.422 OA
ATOM     10  C   UNL     1      -2.005   0.232  28.436  1.00  0.00     0.133 A 
ATOM     11  C   UNL     1      -0.980   1.195  28.519  1.00  0.00     0.093 A 
ENDROOT
BRANCH   1  12
ATOM     12  O   UNL     1       0.125   3.033  29.610  1.00  0.00    -0.496 OA
ATOM     13  C   UNL     1       0.023   4.369  29.128  1.00  0.00     0.278 C 
ENDBRANCH   1  12
BRANCH  10  14
ATOM     14  O   UNL     1      -2.076  -0.681  27.371  1.00  0.00    -0.496 OA
ATOM     15  C   UNL     1      -2.149  -0.318  25.995  1.00  0.00     0.278 C 
ENDBRANCH  10  14
TORSDOF 2
ENDMDL
MODEL 3
REMARK VINA RESULT:    -4.636      9.951     11.734
REMARK INTER + INTRA:          -5.286
REMARK INTER:                  -5.184
REMARK INTRA:                  -0.102
REMARK UNBOUND:                -0.108
REMARK SMILES COc1cc(OC)c2ccc(=O)oc2c1
REMARK SMILES IDX 3 1 15 2 14 3 8 4 9 5 10 6 11 7 12 8 13 9 5 10 4 11 2 12
REMARK SMILES IDX 1 13 6 14 7 15
REMARK H PARENT
REMARK Flexibility Score: inf
ROOT
ATOM      1  C   UNL     1     -13.211   0.597  29.323  1.00  0.00     0.126 A 
ATOM      2  C   UNL     1     -14.481   1.191  29.213  1.00  0.00     0.094 A 
ATOM      3  C   UNL     1     -14.784   2.012  28.125  1.00  0.00     0.145 A 
ATOM      4  C   UNL     1     -13.812   2.251  27.126  1.00  0.00     0.060 A 
ATOM      5  C   UNL     1     -14.162   3.083  26.052  1.00  0.00     0.023 A 
ATOM      6  C   UNL     1     -15.438   3.641  26.000  1.00  0.00     0.095 A 
ATOM      7  C   UNL     1     -16.343   3.357  27.025  1.00  0.00     0.336 A 
ATOM      8  O   UNL     1     -17.501   3.851  26.997  1.00  0.00    -0.246 OA
ATOM      9  O   UNL     1     -15.991   2.566  28.035  1.00  0.00    -0.422 OA
ATOM     10  C   UNL     1     -12.537   1.662  27.228  1.00  0.00     0.133 A 
ATOM     11  C   UNL     1     -12.251   0.837  28.333  1.00  0.00     0.093 A 
ENDROOT
BRANCH   1  12
ATOM     12  O   UNL     1     -12.862  -0.234  30.399  1.00  0.00    -0.496 OA
ATOM     13  C   UNL     1     -13.420  -0.137  31.706  1.00  0.00     0.278 C 
ENDBRANCH   1  12
BRANCH  10  14
ATOM     14  O   UNL     1     -11.584   1.912  26.225  1.00  0.00    -0.496 OA
ATOM     15  C   UNL     1     -10.387   1.162  26.042  1.00  0.00     0.278 C 
ENDBRANCH  10  14
TORSDOF 2
ENDMDL
MODEL 4
REMARK VINA RESULT:    -4.631     11.330     13.242
REMARK INTER + INTRA:          -5.281
REMARK INTER:                  -5.178
REMARK INTRA:                  -0.103
REMARK UNBOUND:                -0.108
REMARK SMILES COc1cc(OC)c2ccc(=O)oc2c1
REMARK SMILES IDX 3 1 15 2 14 3 8 4 9 5 10 6 11 7 12 8 13 9 5 10 4 11 2 12
REMARK SMILES IDX 1 13 6 14 7 15
REMARK H PARENT
REMARK Flexibility Score: inf
ROOT
ATOM      1  C   UNL     1     -12.040  11.646  30.556  1.00  0.00     0.126 A 
ATOM      2  C   UNL     1     -11.861  11.049  31.817  1.00  0.00     0.094 A 
ATOM      3  C   UNL     1     -10.720  10.289  32.083  1.00  0.00     0.145 A 
ATOM      4  C   UNL     1      -9.736  10.117  31.082  1.00  0.00     0.060 A 
ATOM      5  C   UNL     1      -8.607   9.345  31.395  1.00  0.00     0.023 A 
ATOM      6  C   UNL     1      -8.488   8.780  32.663  1.00  0.00     0.095 A 
ATOM      7  C   UNL     1      -9.503   8.997  33.599  1.00  0.00     0.336 A 
ATOM      8  O   UNL     1      -9.414   8.496  34.751  1.00  0.00    -0.246 OA
ATOM      9  O   UNL     1     -10.565   9.731  33.281  1.00  0.00    -0.422 OA
ATOM     10  C   UNL     1      -9.906  10.709  29.817  1.00  0.00     0.133 A 
ATOM     11  C   UNL     1     -11.065  11.471  29.568  1.00  0.00     0.093 A 
ENDROOT
BRANCH   1  12
ATOM     12  O   UNL     1     -13.171  12.416  30.245  1.00  0.00    -0.496 OA
ATOM     13  C   UNL     1     -14.328  12.519  31.069  1.00  0.00     0.278 C 
ENDBRANCH   1  12
BRANCH  10  14
ATOM     14  O   UNL     1      -8.918  10.525  28.835  1.00  0.00    -0.496 OA
ATOM     15  C   UNL     1      -8.871  11.222  27.593  1.00  0.00     0.278 C 
ENDBRANCH  10  14
TORSDOF 2
ENDMDL
MODEL 5
REMARK VINA RESULT:    -4.591     10.229     11.714
REMARK INTER + INTRA:          -5.236
REMARK INTER:                  -5.129
REMARK INTRA:                  -0.107
REMARK UNBOUND:                -0.108
REMARK SMILES COc1cc(OC)c2ccc(=O)oc2c1
REMARK SMILES IDX 3 1 15 2 14 3 8 4 9 5 10 6 11 7 12 8 13 9 5 10 4 11 2 12
REMARK SMILES IDX 1 13 6 14 7 15
REMARK H PARENT
REMARK Flexibility Score: inf
ROOT
ATOM      1  C   UNL     1     -14.417   4.513  32.129  1.00  0.00     0.126 A 
ATOM      2  C   UNL     1     -14.127   3.809  30.946  1.00  0.00     0.094 A 
ATOM      3  C   UNL     1     -13.609   2.514  31.003  1.00  0.00     0.145 A 
ATOM      4  C   UNL     1     -13.374   1.902  32.255  1.00  0.00     0.060 A 
ATOM      5  C   UNL     1     -12.852   0.599  32.263  1.00  0.00     0.023 A 
ATOM      6  C   UNL     1     -12.586  -0.044  31.056  1.00  0.00     0.095 A 
ATOM      7  C   UNL     1     -12.846   0.628  29.859  1.00  0.00     0.336 A 
ATOM      8  O   UNL     1     -12.613   0.064  28.758  1.00  0.00    -0.246 OA
ATOM      9  O   UNL     1     -13.340   1.862  29.874  1.00  0.00    -0.422 OA
ATOM     10  C   UNL     1     -13.659   2.596  33.446  1.00  0.00     0.133 A 
ATOM     11  C   UNL     1     -14.181   3.903  33.366  1.00  0.00     0.093 A 
ENDROOT
BRANCH   1  12
ATOM     12  O   UNL     1     -14.938   5.815  32.119  1.00  0.00    -0.496 OA
ATOM     13  C   UNL     1     -15.236   6.573  33.287  1.00  0.00     0.278 C 
ENDBRANCH   1  12
BRANCH  10  14
ATOM     14  O   UNL     1     -13.418   1.971  34.681  1.00  0.00    -0.496 OA
ATOM     15  C   UNL     1     -14.431   1.440  35.531  1.00  0.00     0.278 C 
ENDBRANCH  10  14
TORSDOF 2
ENDMDL
MODEL 6
REMARK VINA RESULT:    -4.551     11.137     13.224
REMARK INTER + INTRA:          -5.192
REMARK INTER:                  -5.092
REMARK INTRA:                  -0.100
REMARK UNBOUND:                -0.108
REMARK SMILES COc1cc(OC)c2ccc(=O)oc2c1
REMARK SMILES IDX 3 1 15 2 14 3 8 4 9 5 10 6 11 7 12 8 13 9 5 10 4 11 2 12
REMARK SMILES IDX 1 13 6 14 7 15
REMARK H PARENT
REMARK Flexibility Score: inf
ROOT
ATOM      1  C   UNL     1      -9.574  10.878  28.880  1.00  0.00     0.126 A 
ATOM      2  C   UNL     1      -8.878   9.995  29.724  1.00  0.00     0.094 A 
ATOM      3  C   UNL     1      -9.321   9.769  31.029  1.00  0.00     0.145 A 
ATOM      4  C   UNL     1     -10.475  10.430  31.508  1.00  0.00     0.060 A 
ATOM      5  C   UNL     1     -10.882  10.172  32.826  1.00  0.00     0.023 A 
ATOM      6  C   UNL     1     -10.150   9.284  33.612  1.00  0.00     0.095 A 
ATOM      7  C   UNL     1      -9.020   8.670  33.066  1.00  0.00     0.336 A 
ATOM      8  O   UNL     1      -8.345   7.865  33.760  1.00  0.00    -0.246 OA
ATOM      9  O   UNL     1      -8.652   8.929  31.815  1.00  0.00    -0.422 OA
ATOM     10  C   UNL     1     -11.179  11.317  30.672  1.00  0.00     0.133 A 
ATOM     11  C   UNL     1     -10.715  11.531  29.359  1.00  0.00     0.093 A 
ENDROOT
BRANCH   1  12
ATOM     12  O   UNL     1      -9.165  11.136  27.562  1.00  0.00    -0.496 OA
ATOM     13  C   UNL     1      -8.838  12.427  27.058  1.00  0.00     0.278 C 
ENDBRANCH   1  12
BRANCH  10  14
ATOM     14  O   UNL     1     -12.324  11.964  31.167  1.00  0.00    -0.496 OA
ATOM     15  C   UNL     1     -13.518  12.180  30.421  1.00  0.00     0.278 C 
ENDBRANCH  10  14
TORSDOF 2
ENDMDL
MODEL 7
REMARK VINA RESULT:    -4.551      9.720     11.834
REMARK INTER + INTRA:          -5.191
REMARK INTER:                  -5.088
REMARK INTRA:                  -0.103
REMARK UNBOUND:                -0.108
REMARK SMILES COc1cc(OC)c2ccc(=O)oc2c1
REMARK SMILES IDX 3 1 15 2 14 3 8 4 9 5 10 6 11 7 12 8 13 9 5 10 4 11 2 12
REMARK SMILES IDX 1 13 6 14 7 15
REMARK H PARENT
REMARK Flexibility Score: inf
ROOT
ATOM      1  C   UNL     1     -11.679   1.439  27.185  1.00  0.00     0.126 A 
ATOM      2  C   UNL     1     -12.615   2.254  26.525  1.00  0.00     0.094 A 
ATOM      3  C   UNL     1     -13.899   2.421  27.048  1.00  0.00     0.145 A 
ATOM      4  C   UNL     1     -14.264   1.769  28.248  1.00  0.00     0.060 A 
ATOM      5  C   UNL     1     -15.565   1.965  28.735  1.00  0.00     0.023 A 
ATOM      6  C   UNL     1     -16.447   2.786  28.034  1.00  0.00     0.095 A 
ATOM      7  C   UNL     1     -16.011   3.397  26.855  1.00  0.00     0.336 A 
ATOM      8  O   UNL     1     -16.792   4.142  26.206  1.00  0.00    -0.246 OA
ATOM      9  O   UNL     1     -14.774   3.196  26.411  1.00  0.00    -0.422 OA
ATOM     10  C   UNL     1     -13.335   0.950  28.916  1.00  0.00     0.133 A 
ATOM     11  C   UNL     1     -12.045   0.794  28.372  1.00  0.00     0.093 A 
ENDROOT
BRANCH   1  12
ATOM     12  O   UNL     1     -10.378   1.242  26.696  1.00  0.00    -0.496 OA
ATOM     13  C   UNL     1     -10.038   1.179  25.315  1.00  0.00     0.278 C 
ENDBRANCH   1  12
BRANCH  10  14
ATOM     14  O   UNL     1     -13.717   0.309  30.108  1.00  0.00    -0.496 OA
ATOM     15  C   UNL     1     -12.817  -0.088  31.138  1.00  0.00     0.278 C 
ENDBRANCH  10  14
TORSDOF 2
ENDMDL
MODEL 8
REMARK VINA RESULT:    -4.459     13.762     15.502
REMARK INTER + INTRA:          -5.088
REMARK INTER:                  -4.976
REMARK INTRA:                  -0.113
REMARK UNBOUND:                -0.108
REMARK SMILES COc1cc(OC)c2ccc(=O)oc2c1
REMARK SMILES IDX 3 1 15 2 14 3 8 4 9 5 10 6 11 7 12 8 13 9 5 10 4 11 2 12
REMARK SMILES IDX 1 13 6 14 7 15
REMARK H PARENT
REMARK Flexibility Score: inf
ROOT
ATOM      1  C   UNL     1     -14.790   7.834  31.614  1.00  0.00     0.126 A 
ATOM      2  C   UNL     1     -13.578   8.509  31.382  1.00  0.00     0.094 A 
ATOM      3  C   UNL     1     -13.580   9.837  30.951  1.00  0.00     0.145 A 
ATOM      4  C   UNL     1     -14.805  10.512  30.746  1.00  0.00     0.060 A 
ATOM      5  C   UNL     1     -14.757  11.845  30.312  1.00  0.00     0.023 A 
ATOM      6  C   UNL     1     -13.523  12.458  30.101  1.00  0.00     0.095 A 
ATOM      7  C   UNL     1     -12.356  11.724  30.327  1.00  0.00     0.336 A 
ATOM      8  O   UNL     1     -11.231  12.259  30.142  1.00  0.00    -0.246 OA
ATOM      9  O   UNL     1     -12.424  10.461  30.737  1.00  0.00    -0.422 OA
ATOM     10  C   UNL     1     -16.024   9.846  30.973  1.00  0.00     0.133 A 
ATOM     11  C   UNL     1     -16.001   8.506  31.408  1.00  0.00     0.093 A 
ENDROOT
BRANCH   1  12
ATOM     12  O   UNL     1     -14.836   6.500  32.046  1.00  0.00    -0.496 OA
ATOM     13  C   UNL     1     -16.036   5.776  32.299  1.00  0.00     0.278 C 
ENDBRANCH   1  12
BRANCH  10  14
ATOM     14  O   UNL     1     -17.231  10.534  30.763  1.00  0.00    -0.496 OA
ATOM     15  C   UNL     1     -18.153  10.885  31.791  1.00  0.00     0.278 C 
ENDBRANCH  10  14
TORSDOF 2
ENDMDL
MODEL 9
REMARK VINA RESULT:    -4.455     10.135     11.062
REMARK INTER + INTRA:          -5.085
REMARK INTER:                  -4.979
REMARK INTRA:                  -0.106
REMARK UNBOUND:                -0.108
REMARK SMILES COc1cc(OC)c2ccc(=O)oc2c1
REMARK SMILES IDX 3 1 15 2 14 3 8 4 9 5 10 6 11 7 12 8 13 9 5 10 4 11 2 12
REMARK SMILES IDX 1 13 6 14 7 15
REMARK H PARENT
REMARK Flexibility Score: inf
ROOT
ATOM      1  C   UNL     1     -13.268   1.473  33.192  1.00  0.00     0.126 A 
ATOM      2  C   UNL     1     -12.911   0.559  32.183  1.00  0.00     0.094 A 
ATOM      3  C   UNL     1     -13.003   0.921  30.838  1.00  0.00     0.145 A 
ATOM      4  C   UNL     1     -13.457   2.212  30.482  1.00  0.00     0.060 A 
ATOM      5  C   UNL     1     -13.534   2.530  29.118  1.00  0.00     0.023 A 
ATOM      6  C   UNL     1     -13.164   1.581  28.167  1.00  0.00     0.095 A 
ATOM      7  C   UNL     1     -12.724   0.327  28.598  1.00  0.00     0.336 A 
ATOM      8  O   UNL     1     -12.386  -0.545  27.755  1.00  0.00    -0.246 OA
ATOM      9  O   UNL     1     -12.660   0.046  29.896  1.00  0.00    -0.422 OA
ATOM     10  C   UNL     1     -13.819   3.133  31.483  1.00  0.00     0.133 A 
ATOM     11  C   UNL     1     -13.719   2.749  32.835  1.00  0.00     0.093 A 
ENDROOT
BRANCH   1  12
ATOM     12  O   UNL     1     -13.192   1.152  34.556  1.00  0.00    -0.496 OA
ATOM     13  C   UNL     1     -14.162   1.530  35.527  1.00  0.00     0.278 C 
ENDBRANCH   1  12
BRANCH  10  14
ATOM     14  O   UNL     1     -14.269   4.411  31.109  1.00  0.00    -0.496 OA
ATOM     15  C   UNL     1     -15.463   5.022  31.589  1.00  0.00     0.278 C 
ENDBRANCH  10  14
TORSDOF 2
ENDMDL
