MODEL 1
REMARK VINA RESULT:    -4.432      0.000      0.000
REMARK INTER + INTRA:          -7.115
REMARK INTER:                  -6.505
REMARK INTRA:                  -0.611
REMARK UNBOUND:                -0.611
REMARK SMILES C=C1C=C[C@H](C(C)C)CCC(C)=CCC1
REMARK SMILES IDX 3 1 4 2 5 3 9 4 10 5 11 6 12 7 13 8 6 10 7 11 8 12 2 13 1 14
REMARK SMILES IDX 15 15 14 16
REMARK H PARENT
REMARK Flexibility Score: 70.00
ROOT
ATOM      1  C   UNL     1       2.980  13.261   2.787  1.00  0.00    -0.001 C 
ATOM      2  C   UNL     1       1.803  12.962   3.362  1.00  0.00    -0.023 C 
ENDROOT
BRANCH   2   3
ATOM      3  C   UNL     1       0.920  13.973   4.074  1.00  0.00     0.014 C 
BRANCH   3   4
ATOM      4  C   UNL     1      -0.394  14.256   3.292  1.00  0.00     0.012 C 
BRANCH   4   5
ATOM      5  C   UNL     1      -0.315  14.064   1.756  1.00  0.00     0.031 C 
BRANCH   5   6
ATOM      6  C   UNL     1      -0.155  15.345   0.952  1.00  0.00    -0.077 C 
ATOM      7  C   UNL     1      -1.399  16.144   0.640  1.00  0.00     0.039 C 
ATOM      8  C   UNL     1       1.007  15.771   0.397  1.00  0.00    -0.028 CG0
ATOM      9  G   UNL     1       2.402  15.265   0.686  1.00  0.00     0.000 G0
ENDBRANCH   5   6
ENDBRANCH   4   5
ENDBRANCH   3   4
BRANCH   3  10
ATOM     10  C   UNL     1       0.688  13.549   5.559  1.00  0.00    -0.010 C 
ATOM     11  C   UNL     1      -0.171  12.278   5.661  1.00  0.00     0.008 C 
ATOM     12  C   UNL     1       1.975  13.375   6.385  1.00  0.00     0.008 C 
ENDBRANCH   3  10
ENDBRANCH   2   3
BRANCH   1  13
ATOM     13  C   UNL     1       3.599  14.601   2.827  1.00  0.00    -0.055 C 
ATOM     14  C   UNL     1       4.697  14.786   3.564  1.00  0.00     0.012 C 
BRANCH  13  15
ATOM     15  C   UNL     1       3.014  15.745   2.029  1.00  0.00     0.039 C 
BRANCH  15  16
ATOM     16  C   UNL     1       2.412  15.261   0.692  1.00  0.00     0.032 CG0
ATOM     17  G   UNL     1       1.018  15.760   0.386  1.00  0.00     0.000 G0
ENDBRANCH  15  16
ENDBRANCH  13  15
ENDBRANCH   1  13
TORSDOF 1
ENDMDL
MODEL 2
REMARK VINA RESULT:    -4.298      2.463      4.593
REMARK INTER + INTRA:          -6.918
REMARK INTER:                  -6.384
REMARK INTRA:                  -0.535
REMARK UNBOUND:                -0.611
REMARK SMILES C=C1C=C[C@H](C(C)C)CCC(C)=CCC1
REMARK SMILES IDX 3 1 4 2 5 3 9 4 10 5 11 6 12 7 13 8 6 10 7 11 8 12 2 13 1 14
REMARK SMILES IDX 15 15 14 16
REMARK H PARENT
REMARK Flexibility Score: 70.00
ROOT
ATOM      1  C   UNL     1       3.351  14.438   3.007  1.00  0.00    -0.001 C 
ATOM      2  C   UNL     1       2.327  14.636   2.161  1.00  0.00    -0.023 C 
ENDROOT
BRANCH   2   3
ATOM      3  C   UNL     1       1.006  13.890   2.232  1.00  0.00     0.014 C 
BRANCH   3   4
ATOM      4  C   UNL     1       0.035  14.514   3.276  1.00  0.00     0.012 C 
BRANCH   4   5
ATOM      5  C   UNL     1      -0.627  13.514   4.256  1.00  0.00     0.031 C 
BRANCH   5   6
ATOM      6  C   UNL     1      -0.498  13.872   5.729  1.00  0.00    -0.077 C 
ATOM      7  C   UNL     1      -1.682  14.524   6.405  1.00  0.00     0.039 C 
ATOM      8  C   UNL     1       0.640  13.752   6.458  1.00  0.00    -0.028 CG0
ATOM      9  G   UNL     1       1.892  12.992   6.087  1.00  0.00     0.000 G0
ENDBRANCH   5   6
ENDBRANCH   4   5
ENDBRANCH   3   4
BRANCH   3  10
ATOM     10  C   UNL     1       0.383  13.739   0.808  1.00  0.00    -0.010 C 
ATOM     11  C   UNL     1      -0.346  15.018   0.366  1.00  0.00     0.008 C 
ATOM     12  C   UNL     1       1.377  13.303  -0.284  1.00  0.00     0.008 C 
ENDBRANCH   3  10
ENDBRANCH   2   3
BRANCH   1  13
ATOM     13  C   UNL     1       3.350  13.423   4.079  1.00  0.00    -0.055 C 
ATOM     14  C   UNL     1       3.637  12.155   3.773  1.00  0.00     0.012 C 
BRANCH  13  15
ATOM     15  C   UNL     1       3.050  13.812   5.510  1.00  0.00     0.039 C 
BRANCH  15  16
ATOM     16  C   UNL     1       1.886  12.983   6.096  1.00  0.00     0.032 CG0
ATOM     17  G   UNL     1       0.644  13.766   6.455  1.00  0.00     0.000 G0
ENDBRANCH  15  16
ENDBRANCH  13  15
ENDBRANCH   1  13
TORSDOF 1
ENDMDL
MODEL 3
REMARK VINA RESULT:    -4.100      2.432      4.467
REMARK INTER + INTRA:          -6.629
REMARK INTER:                  -6.292
REMARK INTRA:                  -0.336
REMARK UNBOUND:                -0.611
REMARK SMILES C=C1C=C[C@H](C(C)C)CCC(C)=CCC1
REMARK SMILES IDX 3 1 4 2 5 3 9 4 10 5 11 6 12 7 13 8 6 10 7 11 8 12 2 13 1 14
REMARK SMILES IDX 15 15 14 16
REMARK H PARENT
REMARK Flexibility Score: 70.00
ROOT
ATOM      1  C   UNL     1       0.792  13.747   6.312  1.00  0.00    -0.001 C 
ATOM      2  C   UNL     1       1.699  13.714   5.322  1.00  0.00    -0.023 C 
ENDROOT
BRANCH   2   3
ATOM      3  C   UNL     1       1.374  13.367   3.879  1.00  0.00     0.014 C 
BRANCH   3   4
ATOM      4  C   UNL     1       0.581  14.501   3.169  1.00  0.00     0.012 C 
BRANCH   4   5
ATOM      5  C   UNL     1      -0.769  14.079   2.535  1.00  0.00     0.031 C 
BRANCH   5   6
ATOM      6  C   UNL     1      -1.904  15.076   2.710  1.00  0.00    -0.077 C 
ATOM      7  C   UNL     1      -2.152  16.068   1.599  1.00  0.00     0.039 C 
ATOM      8  C   UNL     1      -2.645  15.215   3.839  1.00  0.00    -0.028 CG0
ATOM      9  G   UNL     1      -2.719  14.265   5.012  1.00  0.00     0.000 G0
ENDBRANCH   5   6
ENDBRANCH   4   5
ENDBRANCH   3   4
BRANCH   3  10
ATOM     10  C   UNL     1       2.665  12.930   3.116  1.00  0.00    -0.010 C 
ATOM     11  C   UNL     1       3.734  14.034   3.126  1.00  0.00     0.008 C 
ATOM     12  C   UNL     1       3.280  11.605   3.601  1.00  0.00     0.008 C 
ENDBRANCH   3  10
ENDBRANCH   2   3
BRANCH   1  13
ATOM     13  C   UNL     1      -0.630  13.388   6.140  1.00  0.00    -0.055 C 
ATOM     14  C   UNL     1      -0.963  12.103   5.999  1.00  0.00     0.012 C 
BRANCH  13  15
ATOM     15  C   UNL     1      -1.701  14.457   6.142  1.00  0.00     0.039 C 
BRANCH  15  16
ATOM     16  C   UNL     1      -2.725  14.243   5.007  1.00  0.00     0.032 CG0
ATOM     17  G   UNL     1      -2.649  15.230   3.865  1.00  0.00     0.000 G0
ENDBRANCH  15  16
ENDBRANCH  13  15
ENDBRANCH   1  13
TORSDOF 1
ENDMDL
MODEL 4
REMARK VINA RESULT:    -3.971      1.427      2.009
REMARK INTER + INTRA:          -6.439
REMARK INTER:                  -5.906
REMARK INTRA:                  -0.533
REMARK UNBOUND:                -0.611
REMARK SMILES C=C1C=C[C@H](C(C)C)CCC(C)=CCC1
REMARK SMILES IDX 3 1 4 2 5 3 9 4 10 5 11 6 12 7 13 8 6 10 7 11 8 12 2 13 1 14
REMARK SMILES IDX 15 15 14 16
REMARK H PARENT
REMARK Flexibility Score: 70.00
ROOT
ATOM      1  C   UNL     1       2.285  12.165   4.322  1.00  0.00    -0.001 C 
ATOM      2  C   UNL     1       0.945  12.249   4.370  1.00  0.00    -0.023 C 
ENDROOT
BRANCH   2   3
ATOM      3  C   UNL     1       0.177  13.553   4.496  1.00  0.00     0.014 C 
BRANCH   3   4
ATOM      4  C   UNL     1      -0.770  13.795   3.285  1.00  0.00     0.012 C 
BRANCH   4   5
ATOM      5  C   UNL     1      -0.319  14.894   2.291  1.00  0.00     0.031 C 
BRANCH   5   6
ATOM      6  C   UNL     1       0.666  14.436   1.226  1.00  0.00    -0.077 C 
ATOM      7  C   UNL     1       0.108  13.925  -0.081  1.00  0.00     0.039 C 
ATOM      8  C   UNL     1       2.009  14.348   1.400  1.00  0.00    -0.028 CG0
ATOM      9  G   UNL     1       2.829  14.939   2.523  1.00  0.00     0.000 G0
ENDBRANCH   5   6
ENDBRANCH   4   5
ENDBRANCH   3   4
BRANCH   3  10
ATOM     10  C   UNL     1      -0.541  13.637   5.881  1.00  0.00    -0.010 C 
ATOM     11  C   UNL     1      -1.795  14.523   5.820  1.00  0.00     0.008 C 
ATOM     12  C   UNL     1      -0.896  12.273   6.502  1.00  0.00     0.008 C 
ENDBRANCH   3  10
ENDBRANCH   2   3
BRANCH   1  13
ATOM     13  C   UNL     1       3.189  13.325   4.449  1.00  0.00    -0.055 C 
ATOM     14  C   UNL     1       3.463  13.804   5.664  1.00  0.00     0.012 C 
BRANCH  13  15
ATOM     15  C   UNL     1       3.814  13.953   3.222  1.00  0.00     0.039 C 
BRANCH  15  16
ATOM     16  C   UNL     1       2.850  14.940   2.530  1.00  0.00     0.032 CG0
ATOM     17  G   UNL     1       2.016  14.360   1.410  1.00  0.00     0.000 G0
ENDBRANCH  15  16
ENDBRANCH  13  15
ENDBRANCH   1  13
TORSDOF 1
ENDMDL
MODEL 5
REMARK VINA RESULT:    -3.943      1.688      3.559
REMARK INTER + INTRA:          -6.397
REMARK INTER:                  -5.975
REMARK INTRA:                  -0.422
REMARK UNBOUND:                -0.611
REMARK SMILES C=C1C=C[C@H](C(C)C)CCC(C)=CCC1
REMARK SMILES IDX 3 1 4 2 5 3 9 4 10 5 11 6 12 7 13 8 6 10 7 11 8 12 2 13 1 14
REMARK SMILES IDX 15 15 14 16
REMARK H PARENT
REMARK Flexibility Score: 70.00
ROOT
ATOM      1  C   UNL     1       0.112  14.094   0.918  1.00  0.00    -0.001 C 
ATOM      2  C   UNL     1       0.700  14.084   2.127  1.00  0.00    -0.023 C 
ENDROOT
BRANCH   2   3
ATOM      3  C   UNL     1       2.117  13.600   2.381  1.00  0.00     0.014 C 
BRANCH   3   4
ATOM      4  C   UNL     1       3.145  14.768   2.373  1.00  0.00     0.012 C 
BRANCH   4   5
ATOM      5  C   UNL     1       2.575  16.159   1.997  1.00  0.00     0.031 C 
BRANCH   5   6
ATOM      6  C   UNL     1       3.200  16.802   0.768  1.00  0.00    -0.077 C 
ATOM      7  C   UNL     1       4.438  17.645   0.963  1.00  0.00     0.039 C 
ATOM      8  C   UNL     1       2.668  16.766  -0.479  1.00  0.00    -0.028 CG0
ATOM      9  G   UNL     1       1.553  15.874  -0.977  1.00  0.00     0.000 G0
ENDBRANCH   5   6
ENDBRANCH   4   5
ENDBRANCH   3   4
BRANCH   3  10
ATOM     10  C   UNL     1       2.174  12.722   3.671  1.00  0.00    -0.010 C 
ATOM     11  C   UNL     1       3.622  12.432   4.099  1.00  0.00     0.008 C 
ATOM     12  C   UNL     1       1.381  13.284   4.865  1.00  0.00     0.008 C 
ENDBRANCH   3  10
ENDBRANCH   2   3
BRANCH   1  13
ATOM     13  C   UNL     1       0.745  13.576  -0.311  1.00  0.00    -0.055 C 
ATOM     14  C   UNL     1       0.336  12.407  -0.809  1.00  0.00     0.012 C 
BRANCH  13  15
ATOM     15  C   UNL     1       1.829  14.367  -1.011  1.00  0.00     0.039 C 
BRANCH  15  16
ATOM     16  C   UNL     1       1.534  15.882  -0.992  1.00  0.00     0.032 CG0
ATOM     17  G   UNL     1       2.653  16.758  -0.478  1.00  0.00     0.000 G0
ENDBRANCH  15  16
ENDBRANCH  13  15
ENDBRANCH   1  13
TORSDOF 1
ENDMDL
MODEL 6
REMARK VINA RESULT:    -3.913      2.189      5.117
REMARK INTER + INTRA:          -6.353
REMARK INTER:                  -6.398
REMARK INTRA:                   0.044
REMARK UNBOUND:                -0.611
REMARK SMILES C=C1C=C[C@H](C(C)C)CCC(C)=CCC1
REMARK SMILES IDX 3 1 4 2 5 3 9 4 10 5 11 6 12 7 13 8 6 10 7 11 8 12 2 13 1 14
REMARK SMILES IDX 15 15 14 16
REMARK H PARENT
REMARK Flexibility Score: 70.00
ROOT
ATOM      1  C   UNL     1      -0.679  13.955   4.026  1.00  0.00    -0.001 C 
ATOM      2  C   UNL     1      -0.037  14.461   2.959  1.00  0.00    -0.023 C 
ENDROOT
BRANCH   2   3
ATOM      3  C   UNL     1       1.454  14.313   2.711  1.00  0.00     0.014 C 
BRANCH   3   4
ATOM      4  C   UNL     1       1.899  12.823   2.688  1.00  0.00     0.012 C 
BRANCH   4   5
ATOM      5  C   UNL     1       3.116  12.473   3.580  1.00  0.00     0.031 C 
BRANCH   5   6
ATOM      6  C   UNL     1       3.665  13.627   4.405  1.00  0.00    -0.077 C 
ATOM      7  C   UNL     1       4.772  14.461   3.805  1.00  0.00     0.039 C 
ATOM      8  C   UNL     1       3.312  13.899   5.687  1.00  0.00    -0.028 CG0
ATOM      9  G   UNL     1       2.135  13.341   6.453  1.00  0.00     0.000 G0
ENDBRANCH   5   6
ENDBRANCH   4   5
ENDBRANCH   3   4
BRANCH   3  10
ATOM     10  C   UNL     1       1.883  15.116   1.442  1.00  0.00    -0.010 C 
ATOM     11  C   UNL     1       0.679  15.456   0.549  1.00  0.00     0.008 C 
ATOM     12  C   UNL     1       2.691  16.394   1.735  1.00  0.00     0.008 C 
ENDBRANCH   3  10
ENDBRANCH   2   3
BRANCH   1  13
ATOM     13  C   UNL     1      -0.006  13.244   5.131  1.00  0.00    -0.055 C 
ATOM     14  C   UNL     1      -0.080  11.912   5.185  1.00  0.00     0.012 C 
BRANCH  13  15
ATOM     15  C   UNL     1       0.775  14.008   6.177  1.00  0.00     0.039 C 
BRANCH  15  16
ATOM     16  C   UNL     1       2.140  13.347   6.468  1.00  0.00     0.032 CG0
ATOM     17  G   UNL     1       3.311  13.897   5.688  1.00  0.00     0.000 G0
ENDBRANCH  15  16
ENDBRANCH  13  15
ENDBRANCH   1  13
TORSDOF 1
ENDMDL
MODEL 7
REMARK VINA RESULT:    -3.851      1.969      5.054
REMARK INTER + INTRA:          -6.262
REMARK INTER:                  -5.918
REMARK INTRA:                  -0.344
REMARK UNBOUND:                -0.611
REMARK SMILES C=C1C=C[C@H](C(C)C)CCC(C)=CCC1
REMARK SMILES IDX 3 1 4 2 5 3 9 4 10 5 11 6 12 7 13 8 6 10 7 11 8 12 2 13 1 14
REMARK SMILES IDX 15 15 14 16
REMARK H PARENT
REMARK Flexibility Score: 70.00
ROOT
ATOM      1  C   UNL     1       0.313  13.717   1.327  1.00  0.00    -0.001 C 
ATOM      2  C   UNL     1       1.654  13.795   1.362  1.00  0.00    -0.023 C 
ENDROOT
BRANCH   2   3
ATOM      3  C   UNL     1       2.427  14.816   2.179  1.00  0.00     0.014 C 
BRANCH   3   4
ATOM      4  C   UNL     1       3.451  14.144   3.138  1.00  0.00     0.012 C 
BRANCH   4   5
ATOM      5  C   UNL     1       2.902  12.973   3.991  1.00  0.00     0.031 C 
BRANCH   5   6
ATOM      6  C   UNL     1       2.054  13.386   5.185  1.00  0.00    -0.077 C 
ATOM      7  C   UNL     1       2.766  13.749   6.467  1.00  0.00     0.039 C 
ATOM      8  C   UNL     1       0.698  13.348   5.221  1.00  0.00    -0.028 CG0
ATOM      9  G   UNL     1      -0.247  13.189   4.052  1.00  0.00     0.000 G0
ENDBRANCH   5   6
ENDBRANCH   4   5
ENDBRANCH   3   4
BRANCH   3  10
ATOM     10  C   UNL     1       3.057  15.901   1.248  1.00  0.00    -0.010 C 
ATOM     11  C   UNL     1       2.038  16.440   0.232  1.00  0.00     0.008 C 
ATOM     12  C   UNL     1       3.723  17.074   1.990  1.00  0.00     0.008 C 
ENDBRANCH   3  10
ENDBRANCH   2   3
BRANCH   1  13
ATOM     13  C   UNL     1      -0.586  14.654   2.028  1.00  0.00    -0.055 C 
ATOM     14  C   UNL     1      -1.178  15.629   1.333  1.00  0.00     0.012 C 
BRANCH  13  15
ATOM     15  C   UNL     1      -0.852  14.504   3.510  1.00  0.00     0.039 C 
BRANCH  15  16
ATOM     16  C   UNL     1      -0.259  13.192   4.068  1.00  0.00     0.032 CG0
ATOM     17  G   UNL     1       0.703  13.350   5.222  1.00  0.00     0.000 G0
ENDBRANCH  15  16
ENDBRANCH  13  15
ENDBRANCH   1  13
TORSDOF 1
ENDMDL
MODEL 8
REMARK VINA RESULT:    -3.762      3.072      5.093
REMARK INTER + INTRA:          -6.131
REMARK INTER:                  -5.599
REMARK INTRA:                  -0.532
REMARK UNBOUND:                -0.611
REMARK SMILES C=C1C=C[C@H](C(C)C)CCC(C)=CCC1
REMARK SMILES IDX 3 1 4 2 5 3 9 4 10 5 11 6 12 7 13 8 6 10 7 11 8 12 2 13 1 14
REMARK SMILES IDX 15 15 14 16
REMARK H PARENT
REMARK Flexibility Score: 70.00
ROOT
ATOM      1  C   UNL     1      -2.701  15.531   6.418  1.00  0.00    -0.001 C 
ATOM      2  C   UNL     1      -1.616  14.741   6.347  1.00  0.00    -0.023 C 
ENDROOT
BRANCH   2   3
ATOM      3  C   UNL     1      -1.335  13.780   5.205  1.00  0.00     0.014 C 
BRANCH   3   4
ATOM      4  C   UNL     1      -0.718  14.500   3.971  1.00  0.00     0.012 C 
BRANCH   4   5
ATOM      5  C   UNL     1      -1.359  14.155   2.604  1.00  0.00     0.031 C 
BRANCH   5   6
ATOM      6  C   UNL     1      -1.752  15.354   1.754  1.00  0.00    -0.077 C 
ATOM      7  C   UNL     1      -0.826  15.760   0.632  1.00  0.00     0.039 C 
ATOM      8  C   UNL     1      -2.819  16.157   1.994  1.00  0.00    -0.028 CG0
ATOM      9  G   UNL     1      -3.978  15.889   2.927  1.00  0.00     0.000 G0
ENDBRANCH   5   6
ENDBRANCH   4   5
ENDBRANCH   3   4
BRANCH   3  10
ATOM     10  C   UNL     1      -0.495  12.563   5.705  1.00  0.00    -0.010 C 
ATOM     11  C   UNL     1       0.757  13.012   6.476  1.00  0.00     0.008 C 
ATOM     12  C   UNL     1      -1.284  11.541   6.545  1.00  0.00     0.008 C 
ENDBRANCH   3  10
ENDBRANCH   2   3
BRANCH   1  13
ATOM     13  C   UNL     1      -3.794  15.522   5.425  1.00  0.00    -0.055 C 
ATOM     14  C   UNL     1      -4.747  14.592   5.519  1.00  0.00     0.012 C 
BRANCH  13  15
ATOM     15  C   UNL     1      -3.847  16.562   4.328  1.00  0.00     0.039 C 
BRANCH  15  16
ATOM     16  C   UNL     1      -3.978  15.915   2.932  1.00  0.00     0.032 CG0
ATOM     17  G   UNL     1      -2.820  16.156   1.991  1.00  0.00     0.000 G0
ENDBRANCH  15  16
ENDBRANCH  13  15
ENDBRANCH   1  13
TORSDOF 1
ENDMDL
MODEL 9
REMARK VINA RESULT:    -3.528      1.871      3.079
REMARK INTER + INTRA:          -5.788
REMARK INTER:                  -5.227
REMARK INTRA:                  -0.561
REMARK UNBOUND:                -0.611
REMARK SMILES C=C1C=C[C@H](C(C)C)CCC(C)=CCC1
REMARK SMILES IDX 3 1 4 2 5 3 9 4 10 5 11 6 12 7 13 8 6 10 7 11 8 12 2 13 1 14
REMARK SMILES IDX 15 15 14 16
REMARK H PARENT
REMARK Flexibility Score: 70.00
ROOT
ATOM      1  C   UNL     1       1.601  13.830   0.047  1.00  0.00    -0.001 C 
ATOM      2  C   UNL     1       1.745  13.343   1.292  1.00  0.00    -0.023 C 
ENDROOT
BRANCH   2   3
ATOM      3  C   UNL     1       1.925  14.206   2.529  1.00  0.00     0.014 C 
BRANCH   3   4
ATOM      4  C   UNL     1       0.572  14.511   3.233  1.00  0.00     0.012 C 
BRANCH   4   5
ATOM      5  C   UNL     1      -0.692  13.966   2.521  1.00  0.00     0.031 C 
BRANCH   5   6
ATOM      6  C   UNL     1      -1.676  15.027   2.050  1.00  0.00    -0.077 C 
ATOM      7  C   UNL     1      -2.661  15.574   3.055  1.00  0.00     0.039 C 
ATOM      8  C   UNL     1      -1.810  15.442   0.765  1.00  0.00    -0.028 CG0
ATOM      9  G   UNL     1      -0.862  15.190  -0.385  1.00  0.00     0.000 G0
ENDBRANCH   5   6
ENDBRANCH   4   5
ENDBRANCH   3   4
BRANCH   3  10
ATOM     10  C   UNL     1       3.000  13.586   3.478  1.00  0.00    -0.010 C 
ATOM     11  C   UNL     1       3.250  12.103   3.164  1.00  0.00     0.008 C 
ATOM     12  C   UNL     1       4.340  14.345   3.510  1.00  0.00     0.008 C 
ENDBRANCH   3  10
ENDBRANCH   2   3
BRANCH   1  13
ATOM     13  C   UNL     1       1.664  15.266  -0.288  1.00  0.00    -0.055 C 
ATOM     14  C   UNL     1       2.855  15.832  -0.501  1.00  0.00     0.012 C 
BRANCH  13  15
ATOM     15  C   UNL     1       0.398  16.086  -0.409  1.00  0.00     0.039 C 
BRANCH  15  16
ATOM     16  C   UNL     1      -0.863  15.195  -0.399  1.00  0.00     0.032 CG0
ATOM     17  G   UNL     1      -1.822  15.435   0.744  1.00  0.00     0.000 G0
ENDBRANCH  15  16
ENDBRANCH  13  15
ENDBRANCH   1  13
TORSDOF 1
ENDMDL
