MODEL 1
REMARK VINA RESULT:    13.339      0.000      0.000
REMARK INTER + INTRA:          21.998
REMARK INTER:                  20.357
REMARK INTRA:                   1.641
REMARK UNBOUND:                 1.641
REMARK SMILES CC1=CCC[C@H](C)C(=O)C[C@H](C(C)C)C(=O)C1
REMARK SMILES IDX 8 1 9 2 6 3 7 4 5 5 4 6 3 7 2 8 1 9 10 11 11 12 15 13 16 14
REMARK SMILES IDX 17 15 12 17 13 18 14 19
REMARK H PARENT
REMARK Flexibility Score: 70.00
ROOT
ATOM      1  C   UNL     1     146.138  54.814  17.804  1.00  0.00     0.136 C 
ATOM      2  O   UNL     1     145.916  54.181  18.826  1.00  0.00    -0.299 OA
ENDROOT
BRANCH   1   3
ATOM      3  C   UNL     1     146.602  54.038  16.570  1.00  0.00     0.053 C 
ATOM      4  C   UNL     1     147.108  52.637  16.957  1.00  0.00     0.016 C 
BRANCH   3   5
ATOM      5  C   UNL     1     145.630  53.982  15.357  1.00  0.00     0.015 C 
BRANCH   5   6
ATOM      6  C   UNL     1     145.504  55.279  14.516  1.00  0.00     0.028 C 
BRANCH   6   7
ATOM      7  C   UNL     1     144.059  55.645  14.268  1.00  0.00    -0.028 C 
ATOM      8  C   UNL     1     143.529  56.885  14.397  1.00  0.00    -0.070 CG0
ATOM      9  C   UNL     1     142.074  57.071  14.043  1.00  0.00     0.039 C 
ATOM     10  G   UNL     1     144.323  58.082  14.887  1.00  0.00     0.000 G0
ENDBRANCH   6   7
ENDBRANCH   5   6
ENDBRANCH   3   5
ENDBRANCH   1   3
BRANCH   1  11
ATOM     11  C   UNL     1     146.034  56.324  17.879  1.00  0.00     0.087 C 
BRANCH  11  12
ATOM     12  C   UNL     1     146.119  57.035  16.501  1.00  0.00     0.066 C 
BRANCH  12  13
ATOM     13  C   UNL     1     144.873  57.874  16.279  1.00  0.00     0.140 C 
ATOM     14  O   UNL     1     144.334  58.421  17.231  1.00  0.00    -0.299 OA
BRANCH  13  15
ATOM     15  C   UNL     1     144.296  58.081  14.903  1.00  0.00     0.106 CG0
ATOM     16  G   UNL     1     143.517  56.873  14.415  1.00  0.00     0.000 G0
ENDBRANCH  13  15
ENDBRANCH  12  13
BRANCH  12  17
ATOM     17  C   UNL     1     147.420  57.874  16.275  1.00  0.00    -0.006 C 
ATOM     18  C   UNL     1     148.699  57.070  16.566  1.00  0.00     0.008 C 
ATOM     19  C   UNL     1     147.484  58.405  14.831  1.00  0.00     0.008 C 
ENDBRANCH  12  17
ENDBRANCH  11  12
ENDBRANCH   1  11
TORSDOF 1
ENDMDL
MODEL 2
REMARK VINA RESULT:    13.628      1.870      4.481
REMARK INTER + INTRA:          22.439
REMARK INTER:                  20.857
REMARK INTRA:                   1.582
REMARK UNBOUND:                 1.641
REMARK SMILES CC1=CCC[C@H](C)C(=O)C[C@H](C(C)C)C(=O)C1
REMARK SMILES IDX 8 1 9 2 6 3 7 4 5 5 4 6 3 7 2 8 1 9 10 11 11 12 15 13 16 14
REMARK SMILES IDX 17 15 12 17 13 18 14 19
REMARK H PARENT
REMARK Flexibility Score: 70.00
ROOT
ATOM      1  C   UNL     1     145.092  55.771  14.409  1.00  0.00     0.136 C 
ATOM      2  O   UNL     1     145.981  55.849  13.573  1.00  0.00    -0.299 OA
ENDROOT
BRANCH   1   3
ATOM      3  C   UNL     1     144.107  56.937  14.514  1.00  0.00     0.053 C 
ATOM      4  C   UNL     1     142.794  56.618  13.778  1.00  0.00     0.016 C 
BRANCH   3   5
ATOM      5  C   UNL     1     143.843  57.519  15.932  1.00  0.00     0.015 C 
BRANCH   5   6
ATOM      6  C   UNL     1     144.809  58.635  16.408  1.00  0.00     0.028 C 
BRANCH   6   7
ATOM      7  C   UNL     1     146.201  58.443  15.851  1.00  0.00    -0.028 C 
ATOM      8  C   UNL     1     147.145  57.615  16.358  1.00  0.00    -0.070 CG0
ATOM      9  C   UNL     1     148.459  57.508  15.625  1.00  0.00     0.039 C 
ATOM     10  G   UNL     1     146.944  56.804  17.627  1.00  0.00     0.000 G0
ENDBRANCH   6   7
ENDBRANCH   5   6
ENDBRANCH   3   5
ENDBRANCH   1   3
BRANCH   1  11
ATOM     11  C   UNL     1     145.107  54.573  15.336  1.00  0.00     0.087 C 
BRANCH  11  12
ATOM     12  C   UNL     1     146.264  54.588  16.373  1.00  0.00     0.066 C 
BRANCH  12  13
ATOM     13  C   UNL     1     146.001  55.658  17.419  1.00  0.00     0.140 C 
ATOM     14  O   UNL     1     145.014  55.574  18.135  1.00  0.00    -0.299 OA
BRANCH  13  15
ATOM     15  C   UNL     1     146.948  56.812  17.621  1.00  0.00     0.106 CG0
ATOM     16  G   UNL     1     147.149  57.626  16.355  1.00  0.00     0.000 G0
ENDBRANCH  13  15
ENDBRANCH  12  13
BRANCH  12  17
ATOM     17  C   UNL     1     146.569  53.205  17.036  1.00  0.00    -0.006 C 
ATOM     18  C   UNL     1     148.033  52.770  16.849  1.00  0.00     0.008 C 
ATOM     19  C   UNL     1     146.250  53.239  18.542  1.00  0.00     0.008 C 
ENDBRANCH  12  17
ENDBRANCH  11  12
ENDBRANCH   1  11
TORSDOF 1
ENDMDL
MODEL 3
REMARK VINA RESULT:    14.360      1.734      4.247
REMARK INTER + INTRA:          23.556
REMARK INTER:                  21.173
REMARK INTRA:                   2.383
REMARK UNBOUND:                 1.641
REMARK SMILES CC1=CCC[C@H](C)C(=O)C[C@H](C(C)C)C(=O)C1
REMARK SMILES IDX 8 1 9 2 6 3 7 4 5 5 4 6 3 7 2 8 1 9 10 11 11 12 15 13 16 14
REMARK SMILES IDX 17 15 12 17 13 18 14 19
REMARK H PARENT
REMARK Flexibility Score: 70.00
ROOT
ATOM      1  C   UNL     1     146.373  57.404  16.642  1.00  0.00     0.136 C 
ATOM      2  O   UNL     1     147.240  57.608  15.804  1.00  0.00    -0.299 OA
ENDROOT
BRANCH   1   3
ATOM      3  C   UNL     1     145.120  58.280  16.600  1.00  0.00     0.053 C 
ATOM      4  C   UNL     1     145.192  59.292  15.441  1.00  0.00     0.016 C 
BRANCH   3   5
ATOM      5  C   UNL     1     143.744  57.557  16.645  1.00  0.00     0.015 C 
BRANCH   5   6
ATOM      6  C   UNL     1     143.309  56.827  15.347  1.00  0.00     0.028 C 
BRANCH   6   7
ATOM      7  C   UNL     1     144.460  56.677  14.379  1.00  0.00    -0.028 C 
ATOM      8  C   UNL     1     145.246  55.581  14.253  1.00  0.00    -0.070 CG0
ATOM      9  C   UNL     1     146.309  55.593  13.182  1.00  0.00     0.039 C 
ATOM     10  G   UNL     1     145.114  54.358  15.143  1.00  0.00     0.000 G0
ENDBRANCH   6   7
ENDBRANCH   5   6
ENDBRANCH   3   5
ENDBRANCH   1   3
BRANCH   1  11
ATOM     11  C   UNL     1     146.664  56.371  17.712  1.00  0.00     0.087 C 
BRANCH  11  12
ATOM     12  C   UNL     1     145.789  55.092  17.612  1.00  0.00     0.066 C 
BRANCH  12  13
ATOM     13  C   UNL     1     146.099  54.359  16.318  1.00  0.00     0.140 C 
ATOM     14  O   UNL     1     147.150  53.742  16.209  1.00  0.00    -0.299 OA
BRANCH  13  15
ATOM     15  C   UNL     1     145.127  54.343  15.168  1.00  0.00     0.106 CG0
ATOM     16  G   UNL     1     145.262  55.567  14.279  1.00  0.00     0.000 G0
ENDBRANCH  13  15
ENDBRANCH  12  13
BRANCH  12  17
ATOM     17  C   UNL     1     145.882  54.135  18.845  1.00  0.00    -0.006 C 
ATOM     18  C   UNL     1     144.499  53.751  19.400  1.00  0.00     0.008 C 
ATOM     19  C   UNL     1     146.646  52.848  18.483  1.00  0.00     0.008 C 
ENDBRANCH  12  17
ENDBRANCH  11  12
ENDBRANCH   1  11
TORSDOF 1
ENDMDL
MODEL 4
REMARK VINA RESULT:    14.526      1.965      3.970
REMARK INTER + INTRA:          23.810
REMARK INTER:                  20.882
REMARK INTRA:                   2.928
REMARK UNBOUND:                 1.641
REMARK SMILES CC1=CCC[C@H](C)C(=O)C[C@H](C(C)C)C(=O)C1
REMARK SMILES IDX 8 1 9 2 6 3 7 4 5 5 4 6 3 7 2 8 1 9 10 11 11 12 15 13 16 14
REMARK SMILES IDX 17 15 12 17 13 18 14 19
REMARK H PARENT
REMARK Flexibility Score: 70.00
ROOT
ATOM      1  C   UNL     1     146.248  54.093  16.536  1.00  0.00     0.136 C 
ATOM      2  O   UNL     1     147.132  53.282  16.302  1.00  0.00    -0.299 OA
ENDROOT
BRANCH   1   3
ATOM      3  C   UNL     1     145.842  54.306  17.996  1.00  0.00     0.053 C 
ATOM      4  C   UNL     1     146.249  53.101  18.863  1.00  0.00     0.016 C 
BRANCH   3   5
ATOM      5  C   UNL     1     146.248  55.652  18.659  1.00  0.00     0.015 C 
BRANCH   5   6
ATOM      6  C   UNL     1     146.357  56.878  17.715  1.00  0.00     0.028 C 
BRANCH   6   7
ATOM      7  C   UNL     1     147.780  57.106  17.258  1.00  0.00    -0.028 C 
ATOM      8  C   UNL     1     148.148  57.689  16.093  1.00  0.00    -0.070 CG0
ATOM      9  C   UNL     1     149.622  57.889  15.838  1.00  0.00     0.039 C 
ATOM     10  G   UNL     1     147.154  58.136  15.036  1.00  0.00     0.000 G0
ENDBRANCH   6   7
ENDBRANCH   5   6
ENDBRANCH   3   5
ENDBRANCH   1   3
BRANCH   1  11
ATOM     11  C   UNL     1     145.560  54.740  15.351  1.00  0.00     0.087 C 
BRANCH  11  12
ATOM     12  C   UNL     1     145.345  56.271  15.501  1.00  0.00     0.066 C 
BRANCH  12  13
ATOM     13  C   UNL     1     146.266  57.013  14.549  1.00  0.00     0.140 C 
ATOM     14  O   UNL     1     146.280  56.715  13.363  1.00  0.00    -0.299 OA
BRANCH  13  15
ATOM     15  C   UNL     1     147.149  58.138  15.022  1.00  0.00     0.106 CG0
ATOM     16  G   UNL     1     148.142  57.689  16.080  1.00  0.00     0.000 G0
ENDBRANCH  13  15
ENDBRANCH  12  13
BRANCH  12  17
ATOM     17  C   UNL     1     143.862  56.743  15.344  1.00  0.00    -0.006 C 
ATOM     18  C   UNL     1     143.672  58.225  15.714  1.00  0.00     0.008 C 
ATOM     19  C   UNL     1     143.369  56.525  13.901  1.00  0.00     0.008 C 
ENDBRANCH  12  17
ENDBRANCH  11  12
ENDBRANCH   1  11
TORSDOF 1
ENDMDL
MODEL 5
REMARK VINA RESULT:    14.950      1.604      3.706
REMARK INTER + INTRA:          24.457
REMARK INTER:                  23.883
REMARK INTRA:                   0.574
REMARK UNBOUND:                 1.641
REMARK SMILES CC1=CCC[C@H](C)C(=O)C[C@H](C(C)C)C(=O)C1
REMARK SMILES IDX 8 1 9 2 6 3 7 4 5 5 4 6 3 7 2 8 1 9 10 11 11 12 15 13 16 14
REMARK SMILES IDX 17 15 12 17 13 18 14 19
REMARK H PARENT
REMARK Flexibility Score: 70.00
ROOT
ATOM      1  C   UNL     1     146.908  57.204  17.048  1.00  0.00     0.136 C 
ATOM      2  O   UNL     1     146.998  57.389  18.253  1.00  0.00    -0.299 OA
ENDROOT
BRANCH   1   3
ATOM      3  C   UNL     1     146.424  58.366  16.180  1.00  0.00     0.053 C 
ATOM      4  C   UNL     1     146.907  58.209  14.727  1.00  0.00     0.016 C 
BRANCH   3   5
ATOM      5  C   UNL     1     144.911  58.721  16.246  1.00  0.00     0.015 C 
BRANCH   5   6
ATOM      6  C   UNL     1     143.935  57.534  16.450  1.00  0.00     0.028 C 
BRANCH   6   7
ATOM      7  C   UNL     1     143.246  57.150  15.161  1.00  0.00    -0.028 C 
ATOM      8  C   UNL     1     143.778  56.376  14.184  1.00  0.00    -0.070 CG0
ATOM      9  C   UNL     1     142.912  56.046  12.994  1.00  0.00     0.039 C 
ATOM     10  G   UNL     1     145.198  55.840  14.230  1.00  0.00     0.000 G0
ENDBRANCH   6   7
ENDBRANCH   5   6
ENDBRANCH   3   5
ENDBRANCH   1   3
BRANCH   1  11
ATOM     11  C   UNL     1     147.186  55.805  16.534  1.00  0.00     0.087 C 
BRANCH  11  12
ATOM     12  C   UNL     1     145.950  54.865  16.557  1.00  0.00     0.066 C 
BRANCH  12  13
ATOM     13  C   UNL     1     145.431  54.664  15.144  1.00  0.00     0.140 C 
ATOM     14  O   UNL     1     145.147  53.540  14.757  1.00  0.00    -0.299 OA
BRANCH  13  15
ATOM     15  C   UNL     1     145.223  55.826  14.208  1.00  0.00     0.106 CG0
ATOM     16  G   UNL     1     143.788  56.322  14.210  1.00  0.00     0.000 G0
ENDBRANCH  13  15
ENDBRANCH  12  13
BRANCH  12  17
ATOM     17  C   UNL     1     146.181  53.497  17.279  1.00  0.00    -0.006 C 
ATOM     18  C   UNL     1     147.673  53.159  17.442  1.00  0.00     0.008 C 
ATOM     19  C   UNL     1     145.516  53.493  18.669  1.00  0.00     0.008 C 
ENDBRANCH  12  17
ENDBRANCH  11  12
ENDBRANCH   1  11
TORSDOF 1
ENDMDL
MODEL 6
REMARK VINA RESULT:    15.144      1.959      3.326
REMARK INTER + INTRA:          24.752
REMARK INTER:                  22.274
REMARK INTRA:                   2.479
REMARK UNBOUND:                 1.641
REMARK SMILES CC1=CCC[C@H](C)C(=O)C[C@H](C(C)C)C(=O)C1
REMARK SMILES IDX 8 1 9 2 6 3 7 4 5 5 4 6 3 7 2 8 1 9 10 11 11 12 15 13 16 14
REMARK SMILES IDX 17 15 12 17 13 18 14 19
REMARK H PARENT
REMARK Flexibility Score: 70.00
ROOT
ATOM      1  C   UNL     1     145.995  55.623  18.507  1.00  0.00     0.136 C 
ATOM      2  O   UNL     1     146.979  56.278  18.820  1.00  0.00    -0.299 OA
ENDROOT
BRANCH   1   3
ATOM      3  C   UNL     1     145.776  54.282  19.209  1.00  0.00     0.053 C 
ATOM      4  C   UNL     1     144.313  54.129  19.662  1.00  0.00     0.016 C 
BRANCH   3   5
ATOM      5  C   UNL     1     146.287  53.006  18.481  1.00  0.00     0.015 C 
BRANCH   5   6
ATOM      6  C   UNL     1     147.012  53.230  17.129  1.00  0.00     0.028 C 
BRANCH   6   7
ATOM      7  C   UNL     1     146.045  53.621  16.035  1.00  0.00    -0.028 C 
ATOM      8  C   UNL     1     146.137  54.731  15.264  1.00  0.00    -0.070 CG0
ATOM      9  C   UNL     1     145.109  54.921  14.176  1.00  0.00     0.039 C 
ATOM     10  G   UNL     1     147.211  55.787  15.451  1.00  0.00     0.000 G0
ENDBRANCH   6   7
ENDBRANCH   5   6
ENDBRANCH   3   5
ENDBRANCH   1   3
BRANCH   1  11
ATOM     11  C   UNL     1     145.136  56.151  17.375  1.00  0.00     0.087 C 
BRANCH  11  12
ATOM     12  C   UNL     1     145.656  57.472  16.747  1.00  0.00     0.066 C 
BRANCH  12  13
ATOM     13  C   UNL     1     146.650  57.158  15.642  1.00  0.00     0.140 C 
ATOM     14  O   UNL     1     147.030  58.051  14.898  1.00  0.00    -0.299 OA
BRANCH  13  15
ATOM     15  C   UNL     1     147.211  55.773  15.456  1.00  0.00     0.106 CG0
ATOM     16  G   UNL     1     146.124  54.729  15.266  1.00  0.00     0.000 G0
ENDBRANCH  13  15
ENDBRANCH  12  13
BRANCH  12  17
ATOM     17  C   UNL     1     144.539  58.446  16.249  1.00  0.00    -0.006 C 
ATOM     18  C   UNL     1     143.370  57.708  15.573  1.00  0.00     0.008 C 
ATOM     19  C   UNL     1     143.987  59.288  17.415  1.00  0.00     0.008 C 
ENDBRANCH  12  17
ENDBRANCH  11  12
ENDBRANCH   1  11
TORSDOF 1
ENDMDL
MODEL 7
REMARK VINA RESULT:    15.213      1.730      2.674
REMARK INTER + INTRA:          24.858
REMARK INTER:                  23.912
REMARK INTRA:                   0.946
REMARK UNBOUND:                 1.641
REMARK SMILES CC1=CCC[C@H](C)C(=O)C[C@H](C(C)C)C(=O)C1
REMARK SMILES IDX 8 1 9 2 6 3 7 4 5 5 4 6 3 7 2 8 1 9 10 11 11 12 15 13 16 14
REMARK SMILES IDX 17 15 12 17 13 18 14 19
REMARK H PARENT
REMARK Flexibility Score: 70.00
ROOT
ATOM      1  C   UNL     1     146.716  56.891  16.692  1.00  0.00     0.136 C 
ATOM      2  O   UNL     1     147.480  57.403  15.886  1.00  0.00    -0.299 OA
ENDROOT
BRANCH   1   3
ATOM      3  C   UNL     1     146.468  55.386  16.584  1.00  0.00     0.053 C 
ATOM      4  C   UNL     1     145.930  54.819  17.910  1.00  0.00     0.016 C 
BRANCH   3   5
ATOM      5  C   UNL     1     145.637  54.886  15.368  1.00  0.00     0.015 C 
BRANCH   5   6
ATOM      6  C   UNL     1     145.381  55.920  14.240  1.00  0.00     0.028 C 
BRANCH   6   7
ATOM      7  C   UNL     1     143.910  56.034  13.913  1.00  0.00    -0.028 C 
ATOM      8  C   UNL     1     143.135  57.121  14.142  1.00  0.00    -0.070 CG0
ATOM      9  C   UNL     1     141.697  57.073  13.687  1.00  0.00     0.039 C 
ATOM     10  G   UNL     1     143.641  58.370  14.841  1.00  0.00     0.000 G0
ENDBRANCH   6   7
ENDBRANCH   5   6
ENDBRANCH   3   5
ENDBRANCH   1   3
BRANCH   1  11
ATOM     11  C   UNL     1     146.002  57.811  17.661  1.00  0.00     0.087 C 
BRANCH  11  12
ATOM     12  C   UNL     1     145.087  58.864  16.978  1.00  0.00     0.066 C 
BRANCH  12  13
ATOM     13  C   UNL     1     143.922  58.166  16.297  1.00  0.00     0.140 C 
ATOM     14  O   UNL     1     143.192  57.432  16.948  1.00  0.00    -0.299 OA
BRANCH  13  15
ATOM     15  C   UNL     1     143.619  58.380  14.837  1.00  0.00     0.106 CG0
ATOM     16  G   UNL     1     143.147  57.110  14.152  1.00  0.00     0.000 G0
ENDBRANCH  13  15
ENDBRANCH  12  13
BRANCH  12  17
ATOM     17  C   UNL     1     144.593  60.012  17.918  1.00  0.00    -0.006 C 
ATOM     18  C   UNL     1     144.402  61.345  17.173  1.00  0.00     0.008 C 
ATOM     19  C   UNL     1     143.264  59.629  18.597  1.00  0.00     0.008 C 
ENDBRANCH  12  17
ENDBRANCH  11  12
ENDBRANCH   1  11
TORSDOF 1
ENDMDL
MODEL 8
REMARK VINA RESULT:    16.044      1.674      3.790
REMARK INTER + INTRA:          26.127
REMARK INTER:                  23.679
REMARK INTRA:                   2.448
REMARK UNBOUND:                 1.641
REMARK SMILES CC1=CCC[C@H](C)C(=O)C[C@H](C(C)C)C(=O)C1
REMARK SMILES IDX 8 1 9 2 6 3 7 4 5 5 4 6 3 7 2 8 1 9 10 11 11 12 15 13 16 14
REMARK SMILES IDX 17 15 12 17 13 18 14 19
REMARK H PARENT
REMARK Flexibility Score: 70.00
ROOT
ATOM      1  C   UNL     1     147.661  56.982  17.224  1.00  0.00     0.136 C 
ATOM      2  O   UNL     1     146.938  57.587  18.002  1.00  0.00    -0.299 OA
ENDROOT
BRANCH   1   3
ATOM      3  C   UNL     1     148.689  57.789  16.429  1.00  0.00     0.053 C 
ATOM      4  C   UNL     1     150.073  57.115  16.473  1.00  0.00     0.016 C 
BRANCH   3   5
ATOM      5  C   UNL     1     148.301  58.207  14.983  1.00  0.00     0.015 C 
BRANCH   5   6
ATOM      6  C   UNL     1     146.870  57.831  14.519  1.00  0.00     0.028 C 
BRANCH   6   7
ATOM      7  C   UNL     1     145.826  58.270  15.519  1.00  0.00    -0.028 C 
ATOM      8  C   UNL     1     144.749  57.544  15.903  1.00  0.00    -0.070 CG0
ATOM      9  C   UNL     1     143.847  58.124  16.965  1.00  0.00     0.039 C 
ATOM     10  G   UNL     1     144.406  56.189  15.309  1.00  0.00     0.000 G0
ENDBRANCH   6   7
ENDBRANCH   5   6
ENDBRANCH   3   5
ENDBRANCH   1   3
BRANCH   1  11
ATOM     11  C   UNL     1     147.404  55.500  17.039  1.00  0.00     0.087 C 
BRANCH  11  12
ATOM     12  C   UNL     1     145.908  55.097  17.149  1.00  0.00     0.066 C 
BRANCH  12  13
ATOM     13  C   UNL     1     145.280  55.074  15.767  1.00  0.00     0.140 C 
ATOM     14  O   UNL     1     145.464  54.112  15.034  1.00  0.00    -0.299 OA
BRANCH  13  15
ATOM     15  C   UNL     1     144.404  56.199  15.280  1.00  0.00     0.106 CG0
ATOM     16  G   UNL     1     144.757  57.528  15.922  1.00  0.00     0.000 G0
ENDBRANCH  13  15
ENDBRANCH  12  13
BRANCH  12  17
ATOM     17  C   UNL     1     145.643  53.761  17.918  1.00  0.00    -0.006 C 
ATOM     18  C   UNL     1     146.943  53.063  18.354  1.00  0.00     0.008 C 
ATOM     19  C   UNL     1     144.772  54.011  19.164  1.00  0.00     0.008 C 
ENDBRANCH  12  17
ENDBRANCH  11  12
ENDBRANCH   1  11
TORSDOF 1
ENDMDL
MODEL 9
REMARK VINA RESULT:    16.101      1.880      4.001
REMARK INTER + INTRA:          26.214
REMARK INTER:                  24.332
REMARK INTRA:                   1.883
REMARK UNBOUND:                 1.641
REMARK SMILES CC1=CCC[C@H](C)C(=O)C[C@H](C(C)C)C(=O)C1
REMARK SMILES IDX 8 1 9 2 6 3 7 4 5 5 4 6 3 7 2 8 1 9 10 11 11 12 15 13 16 14
REMARK SMILES IDX 17 15 12 17 13 18 14 19
REMARK H PARENT
REMARK Flexibility Score: 70.00
ROOT
ATOM      1  C   UNL     1     144.705  57.626  15.504  1.00  0.00     0.136 C 
ATOM      2  O   UNL     1     144.310  58.415  16.350  1.00  0.00    -0.299 OA
ENDROOT
BRANCH   1   3
ATOM      3  C   UNL     1     143.698  56.623  14.937  1.00  0.00     0.053 C 
ATOM      4  C   UNL     1     142.674  57.325  14.027  1.00  0.00     0.016 C 
BRANCH   3   5
ATOM      5  C   UNL     1     144.269  55.338  14.274  1.00  0.00     0.015 C 
BRANCH   5   6
ATOM      6  C   UNL     1     145.684  54.899  14.732  1.00  0.00     0.028 C 
BRANCH   6   7
ATOM      7  C   UNL     1     145.621  53.927  15.887  1.00  0.00    -0.028 C 
ATOM      8  C   UNL     1     146.309  54.039  17.049  1.00  0.00    -0.070 CG0
ATOM      9  C   UNL     1     146.067  53.001  18.116  1.00  0.00     0.039 C 
ATOM     10  G   UNL     1     147.312  55.147  17.317  1.00  0.00     0.000 G0
ENDBRANCH   6   7
ENDBRANCH   5   6
ENDBRANCH   3   5
ENDBRANCH   1   3
BRANCH   1  11
ATOM     11  C   UNL     1     146.182  57.642  15.167  1.00  0.00     0.087 C 
BRANCH  11  12
ATOM     12  C   UNL     1     147.116  57.594  16.408  1.00  0.00     0.066 C 
BRANCH  12  13
ATOM     13  C   UNL     1     146.666  56.487  17.345  1.00  0.00     0.140 C 
ATOM     14  O   UNL     1     145.757  56.695  18.136  1.00  0.00    -0.299 OA
BRANCH  13  15
ATOM     15  C   UNL     1     147.293  55.118  17.306  1.00  0.00     0.106 CG0
ATOM     16  G   UNL     1     146.273  54.021  17.056  1.00  0.00     0.000 G0
ENDBRANCH  13  15
ENDBRANCH  12  13
BRANCH  12  17
ATOM     17  C   UNL     1     148.640  57.478  16.078  1.00  0.00    -0.006 C 
ATOM     18  C   UNL     1     149.077  58.441  14.959  1.00  0.00     0.008 C 
ATOM     19  C   UNL     1     149.493  57.754  17.330  1.00  0.00     0.008 C 
ENDBRANCH  12  17
ENDBRANCH  11  12
ENDBRANCH   1  11
TORSDOF 1
ENDMDL
