MODEL 1
REMARK VINA RESULT:    -7.385      0.000      0.000
REMARK INTER + INTRA:         -13.778
REMARK INTER:                 -11.703
REMARK INTRA:                  -2.075
REMARK UNBOUND:                -2.075
REMARK SMILES C[C@H]1O[C@@H](O[C@@H]2CC[C@@]3(C)[C@H](CC[C@]4(C)[C@@H]3C=C[C@@]35OC[C@]6(CCC(C)(C)C[C@@H]63)[C@H](O)C[C@@]45C)[C@]2(C)CO)[C@H](O)[C@@H](O[C@H]2O[C@@H](CO)[C@@H](O)[C@@H](O)[C@H]2O)[C@H]1O
REMARK SMILES IDX 1 1 2 2 54 3 41 4 39 5 4 6 3 7 55 8 42 10 43 11 52 12 44 13
REMARK SMILES IDX 50 14 45 15 48 16 53 17 51 19 46 21 47 22 49 24 5 26 6 27
REMARK SMILES IDX 7 28 35 29 8 30 11 31 36 32 9 33 12 34 10 35 16 36 13 37
REMARK SMILES IDX 14 38 17 39 15 40 33 41 18 42 19 43 32 44 34 45 29 46 20 47
REMARK SMILES IDX 30 48 22 49 28 50 21 51 23 52 25 53 24 54 26 55 27 56 37 57
REMARK SMILES IDX 38 58 31 60 40 62
REMARK H PARENT 55 9 53 18 51 20 47 23 49 25 38 59 31 61 40 63
REMARK Flexibility Score: inf
ROOT
ATOM      1  C   UNL     1     -58.139 -81.339 219.686  1.00  0.00     0.041 C 
ATOM      2  C   UNL     1     -58.616 -80.005 219.079  1.00  0.00     0.150 C 
ATOM      3  C   UNL     1     -57.502 -78.973 218.708  1.00  0.00     0.175 C 
ATOM      4  C   UNL     1     -58.220 -77.787 218.023  1.00  0.00     0.186 C 
ATOM      5  C   UNL     1     -59.336 -77.235 218.970  1.00  0.00     0.202 C 
ATOM      6  C   UNL     1     -60.236 -78.339 219.534  1.00  0.00     0.282 C 
ATOM      7  O   UNL     1     -59.477 -79.436 220.034  1.00  0.00    -0.344 OA
ENDROOT
BRANCH   3   8
ATOM      8  O   UNL     1     -56.841 -78.509 219.860  1.00  0.00    -0.388 OA
ATOM      9  H   UNL     1     -56.419 -79.308 220.299  1.00  0.00     0.211 HD
ENDBRANCH   3   8
BRANCH   4  10
ATOM     10  O   UNL     1     -57.355 -76.692 217.754  1.00  0.00    -0.341 OA
BRANCH  10  11
ATOM     11  C   UNL     1     -57.428 -76.023 216.511  1.00  0.00     0.282 C 
ATOM     12  C   UNL     1     -57.549 -74.467 216.435  1.00  0.00     0.202 C 
ATOM     13  O   UNL     1     -58.315 -76.681 215.617  1.00  0.00    -0.341 OA
ATOM     14  C   UNL     1     -57.610 -73.932 214.961  1.00  0.00     0.179 C 
ATOM     15  C   UNL     1     -57.882 -76.399 214.285  1.00  0.00     0.178 C 
ATOM     16  C   UNL     1     -58.215 -74.940 213.928  1.00  0.00     0.177 C 
BRANCH  12  17
ATOM     17  O   UNL     1     -58.531 -73.897 217.258  1.00  0.00    -0.385 OA
ATOM     18  H   UNL     1     -58.912 -73.078 216.800  1.00  0.00     0.211 HD
ENDBRANCH  12  17
BRANCH  14  19
ATOM     19  O   UNL     1     -58.324 -72.714 214.882  1.00  0.00    -0.387 OA
ATOM     20  H   UNL     1     -59.288 -72.937 214.876  1.00  0.00     0.211 HD
ENDBRANCH  14  19
BRANCH  15  21
ATOM     21  C   UNL     1     -58.418 -77.448 213.289  1.00  0.00     0.191 C 
BRANCH  21  22
ATOM     22  O   UNL     1     -58.321 -76.985 211.962  1.00  0.00    -0.394 OA
ATOM     23  H   UNL     1     -59.092 -76.361 211.826  1.00  0.00     0.210 HD
ENDBRANCH  21  22
ENDBRANCH  15  21
BRANCH  16  24
ATOM     24  O   UNL     1     -59.603 -74.783 213.792  1.00  0.00    -0.387 OA
ATOM     25  H   UNL     1     -59.915 -74.357 214.621  1.00  0.00     0.211 HD
ENDBRANCH  16  24
ENDBRANCH  10  11
ENDBRANCH   4  10
BRANCH   6  26
ATOM     26  O   UNL     1     -60.956 -77.891 220.678  1.00  0.00    -0.346 OA
BRANCH  26  27
ATOM     27  C   UNL     1     -62.195 -78.494 221.053  1.00  0.00     0.130 C 
ATOM     28  C   UNL     1     -63.191 -77.311 221.256  1.00  0.00     0.033 C 
ATOM     29  C   UNL     1     -62.225 -79.458 222.316  1.00  0.00     0.020 C 
ATOM     30  C   UNL     1     -64.680 -77.733 221.544  1.00  0.00     0.010 C 
ATOM     31  C   UNL     1     -63.746 -79.590 222.885  1.00  0.00     0.006 C 
ATOM     32  C   UNL     1     -61.768 -80.884 221.826  1.00  0.00     0.017 C 
ATOM     33  C   UNL     1     -64.892 -79.259 221.850  1.00  0.00    -0.022 C 
ATOM     34  C   UNL     1     -64.031 -78.821 224.252  1.00  0.00     0.005 C 
ATOM     35  C   UNL     1     -64.794 -79.963 220.436  1.00  0.00     0.012 C 
ATOM     36  C   UNL     1     -66.342 -79.597 222.520  1.00  0.00     0.024 C 
ATOM     37  C   UNL     1     -65.511 -78.667 224.698  1.00  0.00     0.008 C 
ATOM     38  C   UNL     1     -66.460 -79.727 224.083  1.00  0.00    -0.017 C 
ATOM     39  C   UNL     1     -67.118 -80.789 221.965  1.00  0.00    -0.024 C 
ATOM     40  C   UNL     1     -65.914 -81.121 224.587  1.00  0.00     0.013 C 
ATOM     41  C   UNL     1     -68.025 -79.519 224.517  1.00  0.00     0.009 C 
ATOM     42  C   UNL     1     -68.298 -81.193 222.479  1.00  0.00     0.005 C 
ATOM     43  C   UNL     1     -68.963 -80.588 223.714  1.00  0.00     0.096 C 
ATOM     44  C   UNL     1     -68.292 -79.603 226.072  1.00  0.00     0.043 C 
ATOM     45  C   UNL     1     -68.504 -78.051 224.146  1.00  0.00     0.015 C 
ATOM     46  C   UNL     1     -69.567 -81.737 224.547  1.00  0.00     0.037 C 
ATOM     47  O   UNL     1     -70.128 -79.909 223.287  1.00  0.00    -0.369 OA
ATOM     48  C   UNL     1     -69.718 -80.105 226.499  1.00  0.00     0.124 C 
ATOM     49  C   UNL     1     -70.490 -80.956 225.424  1.00  0.00     0.026 C 
ATOM     50  C   UNL     1     -68.819 -82.937 225.168  1.00  0.00     0.014 C 
ATOM     51  C   UNL     1     -71.104 -80.065 224.324  1.00  0.00     0.171 C 
ATOM     52  C   UNL     1     -71.499 -81.964 226.030  1.00  0.00     0.013 C 
ATOM     53  C   UNL     1     -69.439 -83.576 226.475  1.00  0.00    -0.035 C 
ATOM     54  C   UNL     1     -70.828 -83.000 226.947  1.00  0.00     0.007 C 
ATOM     55  C   UNL     1     -69.566 -85.126 226.289  1.00  0.00     0.011 C 
ATOM     56  C   UNL     1     -68.394 -83.383 227.628  1.00  0.00     0.011 C 
BRANCH  29  57
ATOM     57  C   UNL     1     -61.231 -78.970 223.465  1.00  0.00     0.165 C 
BRANCH  57  58
ATOM     58  O   UNL     1     -59.872 -79.050 223.087  1.00  0.00    -0.396 OA
ATOM     59  H   UNL     1     -59.814 -79.094 222.098  1.00  0.00     0.210 HD
ENDBRANCH  57  58
ENDBRANCH  29  57
BRANCH  48  60
ATOM     60  O   UNL     1     -70.541 -79.085 227.044  1.00  0.00    -0.392 OA
ATOM     61  H   UNL     1     -70.095 -78.205 226.907  1.00  0.00     0.210 HD
ENDBRANCH  48  60
ENDBRANCH  26  27
ENDBRANCH   6  26
BRANCH   5  62
ATOM     62  O   UNL     1     -60.100 -76.262 218.290  1.00  0.00    -0.385 OA
ATOM     63  H   UNL     1     -60.979 -76.699 218.081  1.00  0.00     0.211 HD
ENDBRANCH   5  62
TORSDOF 14
ENDMDL
MODEL 2
REMARK VINA RESULT:    -7.277      1.646      2.620
REMARK INTER + INTRA:         -13.606
REMARK INTER:                 -11.687
REMARK INTRA:                  -1.918
REMARK UNBOUND:                -2.075
REMARK SMILES C[C@H]1O[C@@H](O[C@@H]2CC[C@@]3(C)[C@H](CC[C@]4(C)[C@@H]3C=C[C@@]35OC[C@]6(CCC(C)(C)C[C@@H]63)[C@H](O)C[C@@]45C)[C@]2(C)CO)[C@H](O)[C@@H](O[C@H]2O[C@@H](CO)[C@@H](O)[C@@H](O)[C@H]2O)[C@H]1O
REMARK SMILES IDX 1 1 2 2 54 3 41 4 39 5 4 6 3 7 55 8 42 10 43 11 52 12 44 13
REMARK SMILES IDX 50 14 45 15 48 16 53 17 51 19 46 21 47 22 49 24 5 26 6 27
REMARK SMILES IDX 7 28 35 29 8 30 11 31 36 32 9 33 12 34 10 35 16 36 13 37
REMARK SMILES IDX 14 38 17 39 15 40 33 41 18 42 19 43 32 44 34 45 29 46 20 47
REMARK SMILES IDX 30 48 22 49 28 50 21 51 23 52 25 53 24 54 26 55 27 56 37 57
REMARK SMILES IDX 38 58 31 60 40 62
REMARK H PARENT 55 9 53 18 51 20 47 23 49 25 38 59 31 61 40 63
REMARK Flexibility Score: inf
ROOT
ATOM      1  C   UNL     1     -59.491 -81.525 219.604  1.00  0.00     0.041 C 
ATOM      2  C   UNL     1     -59.745 -80.125 219.012  1.00  0.00     0.150 C 
ATOM      3  C   UNL     1     -58.498 -79.192 218.876  1.00  0.00     0.175 C 
ATOM      4  C   UNL     1     -58.989 -77.912 218.161  1.00  0.00     0.186 C 
ATOM      5  C   UNL     1     -60.185 -77.295 218.958  1.00  0.00     0.202 C 
ATOM      6  C   UNL     1     -61.259 -78.329 219.313  1.00  0.00     0.282 C 
ATOM      7  O   UNL     1     -60.690 -79.517 219.857  1.00  0.00    -0.344 OA
ENDROOT
BRANCH   3   8
ATOM      8  O   UNL     1     -57.986 -78.846 220.140  1.00  0.00    -0.388 OA
ATOM      9  H   UNL     1     -58.666 -78.250 220.579  1.00  0.00     0.211 HD
ENDBRANCH   3   8
BRANCH   4  10
ATOM     10  O   UNL     1     -57.997 -76.897 218.091  1.00  0.00    -0.341 OA
BRANCH  10  11
ATOM     11  C   UNL     1     -57.806 -76.177 216.890  1.00  0.00     0.282 C 
ATOM     12  C   UNL     1     -57.852 -74.616 216.865  1.00  0.00     0.202 C 
ATOM     13  O   UNL     1     -58.528 -76.758 215.813  1.00  0.00    -0.341 OA
ATOM     14  C   UNL     1     -57.610 -74.021 215.433  1.00  0.00     0.179 C 
ATOM     15  C   UNL     1     -57.838 -76.445 214.603  1.00  0.00     0.178 C 
ATOM     16  C   UNL     1     -58.043 -74.960 214.258  1.00  0.00     0.177 C 
BRANCH  12  17
ATOM     17  O   UNL     1     -58.952 -74.033 217.512  1.00  0.00    -0.385 OA
ATOM     18  H   UNL     1     -59.704 -73.913 216.845  1.00  0.00     0.211 HD
ENDBRANCH  12  17
BRANCH  14  19
ATOM     19  O   UNL     1     -58.250 -72.770 215.277  1.00  0.00    -0.387 OA
ATOM     20  H   UNL     1     -59.223 -72.922 215.371  1.00  0.00     0.211 HD
ENDBRANCH  14  19
BRANCH  15  21
ATOM     21  C   UNL     1     -58.212 -77.429 213.475  1.00  0.00     0.191 C 
BRANCH  21  22
ATOM     22  O   UNL     1     -57.930 -76.881 212.208  1.00  0.00    -0.394 OA
ATOM     23  H   UNL     1     -56.967 -76.608 212.230  1.00  0.00     0.210 HD
ENDBRANCH  21  22
ENDBRANCH  15  21
BRANCH  16  24
ATOM     24  O   UNL     1     -59.372 -74.734 213.869  1.00  0.00    -0.387 OA
ATOM     25  H   UNL     1     -59.647 -73.894 214.298  1.00  0.00     0.211 HD
ENDBRANCH  16  24
ENDBRANCH  10  11
ENDBRANCH   4  10
BRANCH   6  26
ATOM     26  O   UNL     1     -62.106 -77.863 220.358  1.00  0.00    -0.346 OA
BRANCH  26  27
ATOM     27  C   UNL     1     -62.702 -78.771 221.285  1.00  0.00     0.130 C 
ATOM     28  C   UNL     1     -64.036 -79.231 220.619  1.00  0.00     0.033 C 
ATOM     29  C   UNL     1     -62.973 -78.279 222.771  1.00  0.00     0.020 C 
ATOM     30  C   UNL     1     -64.818 -80.355 221.398  1.00  0.00     0.010 C 
ATOM     31  C   UNL     1     -64.106 -79.215 223.475  1.00  0.00     0.006 C 
ATOM     32  C   UNL     1     -61.630 -78.461 223.575  1.00  0.00     0.017 C 
ATOM     33  C   UNL     1     -64.288 -80.652 222.847  1.00  0.00    -0.022 C 
ATOM     34  C   UNL     1     -65.535 -78.534 223.657  1.00  0.00     0.005 C 
ATOM     35  C   UNL     1     -62.971 -81.499 222.620  1.00  0.00     0.012 C 
ATOM     36  C   UNL     1     -65.331 -81.515 223.760  1.00  0.00     0.024 C 
ATOM     37  C   UNL     1     -66.726 -79.449 224.053  1.00  0.00     0.008 C 
ATOM     38  C   UNL     1     -66.295 -80.764 224.750  1.00  0.00    -0.017 C 
ATOM     39  C   UNL     1     -64.769 -82.683 224.565  1.00  0.00    -0.024 C 
ATOM     40  C   UNL     1     -65.537 -80.315 226.061  1.00  0.00     0.013 C 
ATOM     41  C   UNL     1     -67.556 -81.745 225.110  1.00  0.00     0.009 C 
ATOM     42  C   UNL     1     -65.528 -83.428 225.397  1.00  0.00     0.005 C 
ATOM     43  C   UNL     1     -66.998 -83.158 225.709  1.00  0.00     0.096 C 
ATOM     44  C   UNL     1     -68.624 -81.110 226.087  1.00  0.00     0.043 C 
ATOM     45  C   UNL     1     -68.401 -82.052 223.800  1.00  0.00     0.015 C 
ATOM     46  C   UNL     1     -67.222 -83.404 227.215  1.00  0.00     0.037 C 
ATOM     47  O   UNL     1     -67.759 -84.204 225.137  1.00  0.00    -0.369 OA
ATOM     48  C   UNL     1     -69.413 -82.120 226.995  1.00  0.00     0.124 C 
ATOM     49  C   UNL     1     -68.712 -83.509 227.236  1.00  0.00     0.026 C 
ATOM     50  C   UNL     1     -66.530 -82.689 228.395  1.00  0.00     0.014 C 
ATOM     51  C   UNL     1     -68.864 -84.443 226.017  1.00  0.00     0.171 C 
ATOM     52  C   UNL     1     -69.100 -84.182 228.576  1.00  0.00     0.013 C 
ATOM     53  C   UNL     1     -67.337 -82.585 229.751  1.00  0.00    -0.035 C 
ATOM     54  C   UNL     1     -68.723 -83.331 229.801  1.00  0.00     0.007 C 
ATOM     55  C   UNL     1     -66.441 -83.094 230.932  1.00  0.00     0.011 C 
ATOM     56  C   UNL     1     -67.571 -81.061 230.038  1.00  0.00     0.011 C 
BRANCH  29  57
ATOM     57  C   UNL     1     -63.395 -76.742 222.826  1.00  0.00     0.165 C 
BRANCH  57  58
ATOM     58  O   UNL     1     -62.470 -75.894 222.176  1.00  0.00    -0.396 OA
ATOM     59  H   UNL     1     -61.679 -75.771 222.761  1.00  0.00     0.210 HD
ENDBRANCH  57  58
ENDBRANCH  29  57
BRANCH  48  60
ATOM     60  O   UNL     1     -70.772 -82.282 226.619  1.00  0.00    -0.392 OA
ATOM     61  H   UNL     1     -71.271 -82.683 227.380  1.00  0.00     0.210 HD
ENDBRANCH  48  60
ENDBRANCH  26  27
ENDBRANCH   6  26
BRANCH   5  62
ATOM     62  O   UNL     1     -60.742 -76.222 218.228  1.00  0.00    -0.385 OA
ATOM     63  H   UNL     1     -61.418 -75.797 218.836  1.00  0.00     0.211 HD
ENDBRANCH   5  62
TORSDOF 14
ENDMDL
MODEL 3
REMARK VINA RESULT:    -7.252      3.855     12.312
REMARK INTER + INTRA:         -13.567
REMARK INTER:                 -11.272
REMARK INTRA:                  -2.295
REMARK UNBOUND:                -2.075
REMARK SMILES C[C@H]1O[C@@H](O[C@@H]2CC[C@@]3(C)[C@H](CC[C@]4(C)[C@@H]3C=C[C@@]35OC[C@]6(CCC(C)(C)C[C@@H]63)[C@H](O)C[C@@]45C)[C@]2(C)CO)[C@H](O)[C@@H](O[C@H]2O[C@@H](CO)[C@@H](O)[C@@H](O)[C@H]2O)[C@H]1O
REMARK SMILES IDX 1 1 2 2 54 3 41 4 39 5 4 6 3 7 55 8 42 10 43 11 52 12 44 13
REMARK SMILES IDX 50 14 45 15 48 16 53 17 51 19 46 21 47 22 49 24 5 26 6 27
REMARK SMILES IDX 7 28 35 29 8 30 11 31 36 32 9 33 12 34 10 35 16 36 13 37
REMARK SMILES IDX 14 38 17 39 15 40 33 41 18 42 19 43 32 44 34 45 29 46 20 47
REMARK SMILES IDX 30 48 22 49 28 50 21 51 23 52 25 53 24 54 26 55 27 56 37 57
REMARK SMILES IDX 38 58 31 60 40 62
REMARK H PARENT 55 9 53 18 51 20 47 23 49 25 38 59 31 61 40 63
REMARK Flexibility Score: inf
ROOT
ATOM      1  C   UNL     1     -67.427 -81.568 227.080  1.00  0.00     0.041 C 
ATOM      2  C   UNL     1     -67.907 -80.251 226.440  1.00  0.00     0.150 C 
ATOM      3  C   UNL     1     -68.854 -80.383 225.204  1.00  0.00     0.175 C 
ATOM      4  C   UNL     1     -69.279 -78.946 224.825  1.00  0.00     0.186 C 
ATOM      5  C   UNL     1     -68.004 -78.072 224.583  1.00  0.00     0.202 C 
ATOM      6  C   UNL     1     -66.973 -78.201 225.709  1.00  0.00     0.282 C 
ATOM      7  O   UNL     1     -66.741 -79.562 226.060  1.00  0.00    -0.344 OA
ENDROOT
BRANCH   3   8
ATOM      8  O   UNL     1     -68.183 -80.967 224.114  1.00  0.00    -0.388 OA
ATOM      9  H   UNL     1     -68.703 -81.786 223.852  1.00  0.00     0.211 HD
ENDBRANCH   3   8
BRANCH   4  10
ATOM     10  O   UNL     1     -70.031 -78.885 223.622  1.00  0.00    -0.341 OA
BRANCH  10  11
ATOM     11  C   UNL     1     -71.368 -78.426 223.646  1.00  0.00     0.282 C 
ATOM     12  C   UNL     1     -71.782 -77.098 222.936  1.00  0.00     0.202 C 
ATOM     13  O   UNL     1     -71.937 -78.548 224.943  1.00  0.00    -0.341 OA
ATOM     14  C   UNL     1     -73.311 -76.779 223.083  1.00  0.00     0.179 C 
ATOM     15  C   UNL     1     -73.348 -78.703 224.789  1.00  0.00     0.178 C 
ATOM     16  C   UNL     1     -73.976 -77.361 224.374  1.00  0.00     0.177 C 
BRANCH  12  17
ATOM     17  O   UNL     1     -70.970 -75.988 223.211  1.00  0.00    -0.385 OA
ATOM     18  H   UNL     1     -70.030 -76.174 222.883  1.00  0.00     0.211 HD
ENDBRANCH  12  17
BRANCH  14  19
ATOM     19  O   UNL     1     -73.557 -75.387 223.030  1.00  0.00    -0.387 OA
ATOM     20  H   UNL     1     -73.022 -75.021 222.282  1.00  0.00     0.211 HD
ENDBRANCH  14  19
BRANCH  15  21
ATOM     21  C   UNL     1     -73.979 -79.354 226.038  1.00  0.00     0.191 C 
BRANCH  21  22
ATOM     22  O   UNL     1     -73.501 -78.756 227.220  1.00  0.00    -0.394 OA
ATOM     23  H   UNL     1     -74.310 -78.508 227.755  1.00  0.00     0.210 HD
ENDBRANCH  21  22
ENDBRANCH  15  21
BRANCH  16  24
ATOM     24  O   UNL     1     -73.926 -76.455 225.444  1.00  0.00    -0.387 OA
ATOM     25  H   UNL     1     -74.697 -76.662 226.017  1.00  0.00     0.211 HD
ENDBRANCH  16  24
ENDBRANCH  10  11
ENDBRANCH   4  10
BRANCH   6  26
ATOM     26  O   UNL     1     -65.689 -77.747 225.294  1.00  0.00    -0.346 OA
BRANCH  26  27
ATOM     27  C   UNL     1     -64.846 -78.561 224.477  1.00  0.00     0.130 C 
ATOM     28  C   UNL     1     -63.489 -78.655 225.241  1.00  0.00     0.033 C 
ATOM     29  C   UNL     1     -64.598 -78.130 222.968  1.00  0.00     0.020 C 
ATOM     30  C   UNL     1     -62.427 -79.625 224.598  1.00  0.00     0.010 C 
ATOM     31  C   UNL     1     -63.241 -78.833 222.400  1.00  0.00     0.006 C 
ATOM     32  C   UNL     1     -65.811 -78.672 222.122  1.00  0.00     0.017 C 
ATOM     33  C   UNL     1     -62.783 -80.140 223.158  1.00  0.00    -0.022 C 
ATOM     34  C   UNL     1     -61.992 -77.859 222.226  1.00  0.00     0.005 C 
ATOM     35  C   UNL     1     -63.890 -81.246 223.396  1.00  0.00     0.012 C 
ATOM     36  C   UNL     1     -61.517 -80.807 222.371  1.00  0.00     0.024 C 
ATOM     37  C   UNL     1     -60.603 -78.505 221.966  1.00  0.00     0.008 C 
ATOM     38  C   UNL     1     -60.684 -79.931 221.365  1.00  0.00    -0.017 C 
ATOM     39  C   UNL     1     -61.751 -82.128 221.644  1.00  0.00    -0.024 C 
ATOM     40  C   UNL     1     -61.438 -79.764 219.987  1.00  0.00     0.013 C 
ATOM     41  C   UNL     1     -59.215 -80.622 221.149  1.00  0.00     0.009 C 
ATOM     42  C   UNL     1     -60.794 -82.740 220.915  1.00  0.00     0.005 C 
ATOM     43  C   UNL     1     -59.404 -82.165 220.649  1.00  0.00     0.096 C 
ATOM     44  C   UNL     1     -58.256 -79.835 220.171  1.00  0.00     0.043 C 
ATOM     45  C   UNL     1     -58.409 -80.632 222.518  1.00  0.00     0.015 C 
ATOM     46  C   UNL     1     -59.034 -82.464 219.182  1.00  0.00     0.037 C 
ATOM     47  O   UNL     1     -58.467 -82.966 221.343  1.00  0.00    -0.369 OA
ATOM     48  C   UNL     1     -57.204 -80.702 219.391  1.00  0.00     0.124 C 
ATOM     49  C   UNL     1     -57.560 -82.228 219.238  1.00  0.00     0.026 C 
ATOM     50  C   UNL     1     -59.792 -82.014 217.914  1.00  0.00     0.014 C 
ATOM     51  C   UNL     1     -57.282 -83.011 220.538  1.00  0.00     0.171 C 
ATOM     52  C   UNL     1     -56.946 -82.891 217.980  1.00  0.00     0.013 C 
ATOM     53  C   UNL     1     -58.943 -81.829 216.592  1.00  0.00    -0.035 C 
ATOM     54  C   UNL     1     -57.424 -82.241 216.671  1.00  0.00     0.007 C 
ATOM     55  C   UNL     1     -59.625 -82.614 215.420  1.00  0.00     0.011 C 
ATOM     56  C   UNL     1     -59.037 -80.317 216.187  1.00  0.00     0.011 C 
BRANCH  29  57
ATOM     57  C   UNL     1     -64.527 -76.546 222.801  1.00  0.00     0.165 C 
BRANCH  57  58
ATOM     58  O   UNL     1     -65.787 -75.921 222.939  1.00  0.00    -0.396 OA
ATOM     59  H   UNL     1     -66.117 -76.063 223.863  1.00  0.00     0.210 HD
ENDBRANCH  57  58
ENDBRANCH  29  57
BRANCH  48  60
ATOM     60  O   UNL     1     -55.871 -80.522 219.842  1.00  0.00    -0.392 OA
ATOM     61  H   UNL     1     -55.265 -81.081 219.285  1.00  0.00     0.210 HD
ENDBRANCH  48  60
ENDBRANCH  26  27
ENDBRANCH   6  26
BRANCH   5  62
ATOM     62  O   UNL     1     -68.379 -76.723 224.398  1.00  0.00    -0.385 OA
ATOM     63  H   UNL     1     -67.606 -76.174 224.728  1.00  0.00     0.211 HD
ENDBRANCH   5  62
TORSDOF 14
ENDMDL
MODEL 4
REMARK VINA RESULT:    -7.178      2.002      4.238
REMARK INTER + INTRA:         -13.450
REMARK INTER:                 -11.231
REMARK INTRA:                  -2.218
REMARK UNBOUND:                -2.075
REMARK SMILES C[C@H]1O[C@@H](O[C@@H]2CC[C@@]3(C)[C@H](CC[C@]4(C)[C@@H]3C=C[C@@]35OC[C@]6(CCC(C)(C)C[C@@H]63)[C@H](O)C[C@@]45C)[C@]2(C)CO)[C@H](O)[C@@H](O[C@H]2O[C@@H](CO)[C@@H](O)[C@@H](O)[C@H]2O)[C@H]1O
REMARK SMILES IDX 1 1 2 2 54 3 41 4 39 5 4 6 3 7 55 8 42 10 43 11 52 12 44 13
REMARK SMILES IDX 50 14 45 15 48 16 53 17 51 19 46 21 47 22 49 24 5 26 6 27
REMARK SMILES IDX 7 28 35 29 8 30 11 31 36 32 9 33 12 34 10 35 16 36 13 37
REMARK SMILES IDX 14 38 17 39 15 40 33 41 18 42 19 43 32 44 34 45 29 46 20 47
REMARK SMILES IDX 30 48 22 49 28 50 21 51 23 52 25 53 24 54 26 55 27 56 37 57
REMARK SMILES IDX 38 58 31 60 40 62
REMARK H PARENT 55 9 53 18 51 20 47 23 49 25 38 59 31 61 40 63
REMARK Flexibility Score: inf
ROOT
ATOM      1  C   UNL     1     -63.606 -74.990 221.936  1.00  0.00     0.041 C 
ATOM      2  C   UNL     1     -62.409 -75.938 221.730  1.00  0.00     0.150 C 
ATOM      3  C   UNL     1     -62.293 -76.616 220.326  1.00  0.00     0.175 C 
ATOM      4  C   UNL     1     -60.969 -77.414 220.337  1.00  0.00     0.186 C 
ATOM      5  C   UNL     1     -60.967 -78.407 221.546  1.00  0.00     0.202 C 
ATOM      6  C   UNL     1     -61.367 -77.737 222.865  1.00  0.00     0.282 C 
ATOM      7  O   UNL     1     -62.534 -76.932 222.717  1.00  0.00    -0.344 OA
ENDROOT
BRANCH   3   8
ATOM      8  O   UNL     1     -63.363 -77.502 220.104  1.00  0.00    -0.388 OA
ATOM      9  H   UNL     1     -62.964 -78.377 219.812  1.00  0.00     0.211 HD
ENDBRANCH   3   8
BRANCH   4  10
ATOM     10  O   UNL     1     -60.788 -78.210 219.174  1.00  0.00    -0.341 OA
BRANCH  10  11
ATOM     11  C   UNL     1     -59.698 -77.959 218.308  1.00  0.00     0.282 C 
ATOM     12  C   UNL     1     -58.488 -78.944 218.224  1.00  0.00     0.202 C 
ATOM     13  O   UNL     1     -59.290 -76.600 218.366  1.00  0.00    -0.341 OA
ATOM     14  C   UNL     1     -57.394 -78.478 217.199  1.00  0.00     0.179 C 
ATOM     15  C   UNL     1     -58.703 -76.266 217.107  1.00  0.00     0.178 C 
ATOM     16  C   UNL     1     -57.321 -76.930 216.986  1.00  0.00     0.177 C 
BRANCH  12  17
ATOM     17  O   UNL     1     -57.942 -79.337 219.455  1.00  0.00    -0.385 OA
ATOM     18  H   UNL     1     -58.204 -78.664 220.165  1.00  0.00     0.211 HD
ENDBRANCH  12  17
BRANCH  14  19
ATOM     19  O   UNL     1     -56.112 -78.951 217.561  1.00  0.00    -0.387 OA
ATOM     20  H   UNL     1     -56.115 -79.933 217.441  1.00  0.00     0.211 HD
ENDBRANCH  14  19
BRANCH  15  21
ATOM     21  C   UNL     1     -58.711 -74.741 216.873  1.00  0.00     0.191 C 
BRANCH  21  22
ATOM     22  O   UNL     1     -57.516 -74.313 216.262  1.00  0.00    -0.394 OA
ATOM     23  H   UNL     1     -57.278 -73.441 216.692  1.00  0.00     0.210 HD
ENDBRANCH  21  22
ENDBRANCH  15  21
BRANCH  16  24
ATOM     24  O   UNL     1     -56.415 -76.322 217.868  1.00  0.00    -0.387 OA
ATOM     25  H   UNL     1     -55.523 -76.437 217.471  1.00  0.00     0.211 HD
ENDBRANCH  16  24
ENDBRANCH  10  11
ENDBRANCH   4  10
BRANCH   6  26
ATOM     26  O   UNL     1     -61.755 -78.699 223.841  1.00  0.00    -0.346 OA
BRANCH  26  27
ATOM     27  C   UNL     1     -63.131 -78.928 224.146  1.00  0.00     0.130 C 
ATOM     28  C   UNL     1     -63.230 -78.864 225.701  1.00  0.00     0.033 C 
ATOM     29  C   UNL     1     -63.824 -80.251 223.606  1.00  0.00     0.020 C 
ATOM     30  C   UNL     1     -64.691 -78.952 226.282  1.00  0.00     0.010 C 
ATOM     31  C   UNL     1     -65.157 -80.585 224.482  1.00  0.00     0.006 C 
ATOM     32  C   UNL     1     -64.280 -79.969 222.124  1.00  0.00     0.017 C 
ATOM     33  C   UNL     1     -65.797 -79.357 225.242  1.00  0.00    -0.022 C 
ATOM     34  C   UNL     1     -65.022 -81.815 225.486  1.00  0.00     0.005 C 
ATOM     35  C   UNL     1     -66.039 -78.045 224.391  1.00  0.00     0.012 C 
ATOM     36  C   UNL     1     -67.204 -79.819 225.930  1.00  0.00     0.024 C 
ATOM     37  C   UNL     1     -66.142 -82.008 226.546  1.00  0.00     0.008 C 
ATOM     38  C   UNL     1     -67.489 -81.350 226.154  1.00  0.00    -0.017 C 
ATOM     39  C   UNL     1     -68.497 -79.259 225.344  1.00  0.00    -0.024 C 
ATOM     40  C   UNL     1     -67.927 -82.056 224.811  1.00  0.00     0.013 C 
ATOM     41  C   UNL     1     -68.643 -81.512 227.305  1.00  0.00     0.009 C 
ATOM     42  C   UNL     1     -69.717 -79.615 225.795  1.00  0.00     0.005 C 
ATOM     43  C   UNL     1     -69.973 -80.671 226.869  1.00  0.00     0.096 C 
ATOM     44  C   UNL     1     -69.019 -83.007 227.651  1.00  0.00     0.043 C 
ATOM     45  C   UNL     1     -68.118 -80.940 228.690  1.00  0.00     0.015 C 
ATOM     46  C   UNL     1     -71.203 -81.499 226.445  1.00  0.00     0.037 C 
ATOM     47  O   UNL     1     -70.464 -80.007 228.018  1.00  0.00    -0.369 OA
ATOM     48  C   UNL     1     -70.488 -83.249 228.154  1.00  0.00     0.124 C 
ATOM     49  C   UNL     1     -71.535 -82.146 227.750  1.00  0.00     0.026 C 
ATOM     50  C   UNL     1     -71.372 -82.335 225.158  1.00  0.00     0.014 C 
ATOM     51  C   UNL     1     -71.410 -80.888 228.634  1.00  0.00     0.171 C 
ATOM     52  C   UNL     1     -72.987 -82.675 227.637  1.00  0.00     0.013 C 
ATOM     53  C   UNL     1     -72.345 -83.581 225.228  1.00  0.00    -0.035 C 
ATOM     54  C   UNL     1     -73.140 -83.774 226.573  1.00  0.00     0.007 C 
ATOM     55  C   UNL     1     -73.361 -83.516 224.038  1.00  0.00     0.011 C 
ATOM     56  C   UNL     1     -71.479 -84.861 224.962  1.00  0.00     0.011 C 
BRANCH  29  57
ATOM     57  C   UNL     1     -62.823 -81.493 223.604  1.00  0.00     0.165 C 
BRANCH  57  58
ATOM     58  O   UNL     1     -61.701 -81.295 222.768  1.00  0.00    -0.396 OA
ATOM     59  H   UNL     1     -61.597 -82.083 222.177  1.00  0.00     0.210 HD
ENDBRANCH  57  58
ENDBRANCH  29  57
BRANCH  48  60
ATOM     60  O   UNL     1     -70.571 -83.564 229.536  1.00  0.00    -0.392 OA
ATOM     61  H   UNL     1     -70.190 -84.472 229.682  1.00  0.00     0.210 HD
ENDBRANCH  48  60
ENDBRANCH  26  27
ENDBRANCH   6  26
BRANCH   5  62
ATOM     62  O   UNL     1     -59.700 -79.020 221.658  1.00  0.00    -0.385 OA
ATOM     63  H   UNL     1     -59.549 -79.162 222.640  1.00  0.00     0.211 HD
ENDBRANCH   5  62
TORSDOF 14
ENDMDL
MODEL 5
REMARK VINA RESULT:    -7.077      1.453      2.408
REMARK INTER + INTRA:         -13.290
REMARK INTER:                 -11.908
REMARK INTRA:                  -1.382
REMARK UNBOUND:                -2.075
REMARK SMILES C[C@H]1O[C@@H](O[C@@H]2CC[C@@]3(C)[C@H](CC[C@]4(C)[C@@H]3C=C[C@@]35OC[C@]6(CCC(C)(C)C[C@@H]63)[C@H](O)C[C@@]45C)[C@]2(C)CO)[C@H](O)[C@@H](O[C@H]2O[C@@H](CO)[C@@H](O)[C@@H](O)[C@H]2O)[C@H]1O
REMARK SMILES IDX 1 1 2 2 54 3 41 4 39 5 4 6 3 7 55 8 42 10 43 11 52 12 44 13
REMARK SMILES IDX 50 14 45 15 48 16 53 17 51 19 46 21 47 22 49 24 5 26 6 27
REMARK SMILES IDX 7 28 35 29 8 30 11 31 36 32 9 33 12 34 10 35 16 36 13 37
REMARK SMILES IDX 14 38 17 39 15 40 33 41 18 42 19 43 32 44 34 45 29 46 20 47
REMARK SMILES IDX 30 48 22 49 28 50 21 51 23 52 25 53 24 54 26 55 27 56 37 57
REMARK SMILES IDX 38 58 31 60 40 62
REMARK H PARENT 55 9 53 18 51 20 47 23 49 25 38 59 31 61 40 63
REMARK Flexibility Score: inf
ROOT
ATOM      1  C   UNL     1     -57.812 -82.610 219.608  1.00  0.00     0.041 C 
ATOM      2  C   UNL     1     -58.468 -81.237 219.366  1.00  0.00     0.150 C 
ATOM      3  C   UNL     1     -57.527 -80.098 218.855  1.00  0.00     0.175 C 
ATOM      4  C   UNL     1     -58.433 -78.875 218.585  1.00  0.00     0.186 C 
ATOM      5  C   UNL     1     -59.241 -78.527 219.879  1.00  0.00     0.202 C 
ATOM      6  C   UNL     1     -59.920 -79.750 220.502  1.00  0.00     0.282 C 
ATOM      7  O   UNL     1     -59.029 -80.859 220.599  1.00  0.00    -0.344 OA
ENDROOT
BRANCH   3   8
ATOM      8  O   UNL     1     -56.572 -79.757 219.831  1.00  0.00    -0.388 OA
ATOM      9  H   UNL     1     -56.063 -80.596 220.050  1.00  0.00     0.211 HD
ENDBRANCH   3   8
BRANCH   4  10
ATOM     10  O   UNL     1     -57.703 -77.703 218.251  1.00  0.00    -0.341 OA
BRANCH  10  11
ATOM     11  C   UNL     1     -58.053 -76.955 217.103  1.00  0.00     0.282 C 
ATOM     12  C   UNL     1     -57.830 -77.525 215.666  1.00  0.00     0.202 C 
ATOM     13  O   UNL     1     -57.641 -75.600 217.219  1.00  0.00    -0.341 OA
ATOM     14  C   UNL     1     -58.292 -76.535 214.539  1.00  0.00     0.179 C 
ATOM     15  C   UNL     1     -58.525 -74.805 216.428  1.00  0.00     0.178 C 
ATOM     16  C   UNL     1     -58.224 -75.023 214.935  1.00  0.00     0.177 C 
BRANCH  12  17
ATOM     17  O   UNL     1     -56.560 -78.068 215.421  1.00  0.00    -0.385 OA
ATOM     18  H   UNL     1     -55.856 -77.370 215.626  1.00  0.00     0.211 HD
ENDBRANCH  12  17
BRANCH  14  19
ATOM     19  O   UNL     1     -57.556 -76.729 213.347  1.00  0.00    -0.387 OA
ATOM     20  H   UNL     1     -58.207 -76.782 212.604  1.00  0.00     0.211 HD
ENDBRANCH  14  19
BRANCH  15  21
ATOM     21  C   UNL     1     -58.510 -73.331 216.883  1.00  0.00     0.191 C 
BRANCH  21  22
ATOM     22  O   UNL     1     -58.371 -72.461 215.783  1.00  0.00    -0.394 OA
ATOM     23  H   UNL     1     -57.396 -72.451 215.556  1.00  0.00     0.210 HD
ENDBRANCH  21  22
ENDBRANCH  15  21
BRANCH  16  24
ATOM     24  O   UNL     1     -56.987 -74.449 214.604  1.00  0.00    -0.387 OA
ATOM     25  H   UNL     1     -56.617 -74.993 213.874  1.00  0.00     0.211 HD
ENDBRANCH  16  24
ENDBRANCH  10  11
ENDBRANCH   4  10
BRANCH   6  26
ATOM     26  O   UNL     1     -60.290 -79.509 221.856  1.00  0.00    -0.346 OA
BRANCH  26  27
ATOM     27  C   UNL     1     -61.486 -80.064 222.404  1.00  0.00     0.130 C 
ATOM     28  C   UNL     1     -62.655 -79.408 221.606  1.00  0.00     0.033 C 
ATOM     29  C   UNL     1     -61.745 -79.930 223.966  1.00  0.00     0.020 C 
ATOM     30  C   UNL     1     -64.089 -79.969 221.939  1.00  0.00     0.010 C 
ATOM     31  C   UNL     1     -63.332 -80.116 224.290  1.00  0.00     0.006 C 
ATOM     32  C   UNL     1     -60.969 -81.105 224.671  1.00  0.00     0.017 C 
ATOM     33  C   UNL     1     -64.161 -80.903 223.200  1.00  0.00    -0.022 C 
ATOM     34  C   UNL     1     -64.108 -78.781 224.682  1.00  0.00     0.005 C 
ATOM     35  C   UNL     1     -63.557 -82.280 222.708  1.00  0.00     0.012 C 
ATOM     36  C   UNL     1     -65.680 -81.146 223.747  1.00  0.00     0.024 C 
ATOM     37  C   UNL     1     -65.660 -78.833 224.723  1.00  0.00     0.008 C 
ATOM     38  C   UNL     1     -66.229 -80.261 224.927  1.00  0.00    -0.017 C 
ATOM     39  C   UNL     1     -66.085 -82.574 224.104  1.00  0.00    -0.024 C 
ATOM     40  C   UNL     1     -65.662 -80.744 226.319  1.00  0.00     0.013 C 
ATOM     41  C   UNL     1     -67.865 -80.310 224.911  1.00  0.00     0.009 C 
ATOM     42  C   UNL     1     -67.294 -82.882 224.618  1.00  0.00     0.005 C 
ATOM     43  C   UNL     1     -68.368 -81.862 224.989  1.00  0.00     0.096 C 
ATOM     44  C   UNL     1     -68.559 -79.444 226.036  1.00  0.00     0.043 C 
ATOM     45  C   UNL     1     -68.419 -79.669 223.567  1.00  0.00     0.015 C 
ATOM     46  C   UNL     1     -69.018 -82.310 226.314  1.00  0.00     0.037 C 
ATOM     47  O   UNL     1     -69.442 -82.018 224.082  1.00  0.00    -0.369 OA
ATOM     48  C   UNL     1     -69.961 -79.951 226.529  1.00  0.00     0.124 C 
ATOM     49  C   UNL     1     -70.258 -81.477 226.282  1.00  0.00     0.026 C 
ATOM     50  C   UNL     1     -68.322 -82.520 227.676  1.00  0.00     0.014 C 
ATOM     51  C   UNL     1     -70.645 -81.752 224.814  1.00  0.00     0.171 C 
ATOM     52  C   UNL     1     -71.246 -82.096 227.302  1.00  0.00     0.013 C 
ATOM     53  C   UNL     1     -69.199 -82.309 228.976  1.00  0.00    -0.035 C 
ATOM     54  C   UNL     1     -70.731 -82.023 228.749  1.00  0.00     0.007 C 
ATOM     55  C   UNL     1     -69.045 -83.552 229.916  1.00  0.00     0.011 C 
ATOM     56  C   UNL     1     -68.572 -81.110 229.770  1.00  0.00     0.011 C 
BRANCH  29  57
ATOM     57  C   UNL     1     -61.209 -78.544 224.545  1.00  0.00     0.165 C 
BRANCH  57  58
ATOM     58  O   UNL     1     -59.812 -78.541 224.760  1.00  0.00    -0.396 OA
ATOM     59  H   UNL     1     -59.585 -77.814 225.395  1.00  0.00     0.210 HD
ENDBRANCH  57  58
ENDBRANCH  29  57
BRANCH  48  60
ATOM     60  O   UNL     1     -71.043 -79.135 226.106  1.00  0.00    -0.392 OA
ATOM     61  H   UNL     1     -71.299 -78.529 226.853  1.00  0.00     0.210 HD
ENDBRANCH  48  60
ENDBRANCH  26  27
ENDBRANCH   6  26
BRANCH   5  62
ATOM     62  O   UNL     1     -60.186 -77.518 219.594  1.00  0.00    -0.385 OA
ATOM     63  H   UNL     1     -59.690 -76.648 219.662  1.00  0.00     0.211 HD
ENDBRANCH   5  62
TORSDOF 14
ENDMDL
MODEL 6
REMARK VINA RESULT:    -6.899      3.093     12.578
REMARK INTER + INTRA:         -13.008
REMARK INTER:                 -11.078
REMARK INTRA:                  -1.929
REMARK UNBOUND:                -2.075
REMARK SMILES C[C@H]1O[C@@H](O[C@@H]2CC[C@@]3(C)[C@H](CC[C@]4(C)[C@@H]3C=C[C@@]35OC[C@]6(CCC(C)(C)C[C@@H]63)[C@H](O)C[C@@]45C)[C@]2(C)CO)[C@H](O)[C@@H](O[C@H]2O[C@@H](CO)[C@@H](O)[C@@H](O)[C@H]2O)[C@H]1O
REMARK SMILES IDX 1 1 2 2 54 3 41 4 39 5 4 6 3 7 55 8 42 10 43 11 52 12 44 13
REMARK SMILES IDX 50 14 45 15 48 16 53 17 51 19 46 21 47 22 49 24 5 26 6 27
REMARK SMILES IDX 7 28 35 29 8 30 11 31 36 32 9 33 12 34 10 35 16 36 13 37
REMARK SMILES IDX 14 38 17 39 15 40 33 41 18 42 19 43 32 44 34 45 29 46 20 47
REMARK SMILES IDX 30 48 22 49 28 50 21 51 23 52 25 53 24 54 26 55 27 56 37 57
REMARK SMILES IDX 38 58 31 60 40 62
REMARK H PARENT 55 9 53 18 51 20 47 23 49 25 38 59 31 61 40 63
REMARK Flexibility Score: inf
ROOT
ATOM      1  C   UNL     1     -67.908 -83.587 223.149  1.00  0.00     0.041 C 
ATOM      2  C   UNL     1     -68.100 -82.243 223.877  1.00  0.00     0.150 C 
ATOM      3  C   UNL     1     -68.884 -81.137 223.098  1.00  0.00     0.175 C 
ATOM      4  C   UNL     1     -69.039 -79.946 224.071  1.00  0.00     0.186 C 
ATOM      5  C   UNL     1     -67.630 -79.508 224.590  1.00  0.00     0.202 C 
ATOM      6  C   UNL     1     -66.787 -80.687 225.087  1.00  0.00     0.282 C 
ATOM      7  O   UNL     1     -66.806 -81.776 224.168  1.00  0.00    -0.344 OA
ENDROOT
BRANCH   3   8
ATOM      8  O   UNL     1     -68.167 -80.714 221.964  1.00  0.00    -0.388 OA
ATOM      9  H   UNL     1     -68.077 -79.715 222.028  1.00  0.00     0.211 HD
ENDBRANCH   3   8
BRANCH   4  10
ATOM     10  O   UNL     1     -69.608 -78.797 223.461  1.00  0.00    -0.341 OA
BRANCH  10  11
ATOM     11  C   UNL     1     -70.988 -78.527 223.609  1.00  0.00     0.282 C 
ATOM     12  C   UNL     1     -71.628 -77.229 223.019  1.00  0.00     0.202 C 
ATOM     13  O   UNL     1     -71.432 -78.797 224.932  1.00  0.00    -0.341 OA
ATOM     14  C   UNL     1     -73.170 -77.131 223.293  1.00  0.00     0.179 C 
ATOM     15  C   UNL     1     -72.818 -79.134 224.867  1.00  0.00     0.178 C 
ATOM     16  C   UNL     1     -73.648 -77.869 224.586  1.00  0.00     0.177 C 
BRANCH  12  17
ATOM     17  O   UNL     1     -70.951 -76.036 223.308  1.00  0.00    -0.385 OA
ATOM     18  H   UNL     1     -70.870 -75.935 224.312  1.00  0.00     0.211 HD
ENDBRANCH  12  17
BRANCH  14  19
ATOM     19  O   UNL     1     -73.600 -75.785 223.350  1.00  0.00    -0.387 OA
ATOM     20  H   UNL     1     -72.875 -75.261 223.772  1.00  0.00     0.211 HD
ENDBRANCH  14  19
BRANCH  15  21
ATOM     21  C   UNL     1     -73.258 -79.934 226.112  1.00  0.00     0.191 C 
BRANCH  21  22
ATOM     22  O   UNL     1     -72.951 -79.239 227.298  1.00  0.00    -0.394 OA
ATOM     23  H   UNL     1     -72.657 -78.324 227.018  1.00  0.00     0.210 HD
ENDBRANCH  21  22
ENDBRANCH  15  21
BRANCH  16  24
ATOM     24  O   UNL     1     -73.635 -77.026 225.708  1.00  0.00    -0.387 OA
ATOM     25  H   UNL     1     -73.894 -77.583 226.475  1.00  0.00     0.211 HD
ENDBRANCH  16  24
ENDBRANCH  10  11
ENDBRANCH   4  10
BRANCH   6  26
ATOM     26  O   UNL     1     -65.407 -80.346 225.163  1.00  0.00    -0.346 OA
BRANCH  26  27
ATOM     27  C   UNL     1     -64.599 -80.274 223.987  1.00  0.00     0.130 C 
ATOM     28  C   UNL     1     -63.390 -81.223 224.252  1.00  0.00     0.033 C 
ATOM     29  C   UNL     1     -64.084 -78.852 223.499  1.00  0.00     0.020 C 
ATOM     30  C   UNL     1     -62.416 -81.421 223.030  1.00  0.00     0.010 C 
ATOM     31  C   UNL     1     -62.790 -79.028 222.525  1.00  0.00     0.006 C 
ATOM     32  C   UNL     1     -65.241 -78.202 222.651  1.00  0.00     0.017 C 
ATOM     33  C   UNL     1     -62.649 -80.438 221.827  1.00  0.00    -0.022 C 
ATOM     34  C   UNL     1     -61.391 -78.616 223.168  1.00  0.00     0.005 C 
ATOM     35  C   UNL     1     -63.937 -81.001 221.101  1.00  0.00     0.012 C 
ATOM     36  C   UNL     1     -61.408 -80.397 220.767  1.00  0.00     0.024 C 
ATOM     37  C   UNL     1     -60.099 -79.022 222.408  1.00  0.00     0.008 C 
ATOM     38  C   UNL     1     -60.319 -79.268 220.894  1.00  0.00    -0.017 C 
ATOM     39  C   UNL     1     -61.745 -80.453 219.279  1.00  0.00    -0.024 C 
ATOM     40  C   UNL     1     -60.844 -77.895 220.317  1.00  0.00     0.013 C 
ATOM     41  C   UNL     1     -58.962 -79.751 220.117  1.00  0.00     0.009 C 
ATOM     42  C   UNL     1     -60.806 -80.369 218.315  1.00  0.00     0.005 C 
ATOM     43  C   UNL     1     -59.320 -80.121 218.567  1.00  0.00     0.096 C 
ATOM     44  C   UNL     1     -57.767 -78.718 220.179  1.00  0.00     0.043 C 
ATOM     45  C   UNL     1     -58.360 -81.044 220.816  1.00  0.00     0.015 C 
ATOM     46  C   UNL     1     -58.806 -79.146 217.489  1.00  0.00     0.037 C 
ATOM     47  O   UNL     1     -58.623 -81.305 218.229  1.00  0.00    -0.369 OA
ATOM     48  C   UNL     1     -56.768 -78.746 218.967  1.00  0.00     0.124 C 
ATOM     49  C   UNL     1     -57.335 -79.360 217.633  1.00  0.00     0.026 C 
ATOM     50  C   UNL     1     -59.305 -77.711 217.208  1.00  0.00     0.014 C 
ATOM     51  C   UNL     1     -57.362 -80.902 217.681  1.00  0.00     0.171 C 
ATOM     52  C   UNL     1     -56.667 -78.798 216.353  1.00  0.00     0.013 C 
ATOM     53  C   UNL     1     -58.266 -76.694 216.586  1.00  0.00    -0.035 C 
ATOM     54  C   UNL     1     -56.855 -77.280 216.200  1.00  0.00     0.007 C 
ATOM     55  C   UNL     1     -58.896 -76.010 215.325  1.00  0.00     0.011 C 
ATOM     56  C   UNL     1     -58.066 -75.538 217.627  1.00  0.00     0.011 C 
BRANCH  29  57
ATOM     57  C   UNL     1     -63.744 -77.887 224.723  1.00  0.00     0.165 C 
BRANCH  57  58
ATOM     58  O   UNL     1     -64.823 -77.740 225.624  1.00  0.00    -0.396 OA
ATOM     59  H   UNL     1     -65.544 -77.225 225.181  1.00  0.00     0.210 HD
ENDBRANCH  57  58
ENDBRANCH  29  57
BRANCH  48  60
ATOM     60  O   UNL     1     -55.497 -79.287 219.290  1.00  0.00    -0.392 OA
ATOM     61  H   UNL     1     -54.897 -79.193 218.501  1.00  0.00     0.210 HD
ENDBRANCH  48  60
ENDBRANCH  26  27
ENDBRANCH   6  26
BRANCH   5  62
ATOM     62  O   UNL     1     -67.775 -78.533 225.600  1.00  0.00    -0.385 OA
ATOM     63  H   UNL     1     -68.721 -78.206 225.534  1.00  0.00     0.211 HD
ENDBRANCH   5  62
TORSDOF 14
ENDMDL
MODEL 7
REMARK VINA RESULT:    -6.417      2.948     13.147
REMARK INTER + INTRA:         -12.244
REMARK INTER:                 -10.520
REMARK INTRA:                  -1.724
REMARK UNBOUND:                -2.075
REMARK SMILES C[C@H]1O[C@@H](O[C@@H]2CC[C@@]3(C)[C@H](CC[C@]4(C)[C@@H]3C=C[C@@]35OC[C@]6(CCC(C)(C)C[C@@H]63)[C@H](O)C[C@@]45C)[C@]2(C)CO)[C@H](O)[C@@H](O[C@H]2O[C@@H](CO)[C@@H](O)[C@@H](O)[C@H]2O)[C@H]1O
REMARK SMILES IDX 1 1 2 2 54 3 41 4 39 5 4 6 3 7 55 8 42 10 43 11 52 12 44 13
REMARK SMILES IDX 50 14 45 15 48 16 53 17 51 19 46 21 47 22 49 24 5 26 6 27
REMARK SMILES IDX 7 28 35 29 8 30 11 31 36 32 9 33 12 34 10 35 16 36 13 37
REMARK SMILES IDX 14 38 17 39 15 40 33 41 18 42 19 43 32 44 34 45 29 46 20 47
REMARK SMILES IDX 30 48 22 49 28 50 21 51 23 52 25 53 24 54 26 55 27 56 37 57
REMARK SMILES IDX 38 58 31 60 40 62
REMARK H PARENT 55 9 53 18 51 20 47 23 49 25 38 59 31 61 40 63
REMARK Flexibility Score: inf
ROOT
ATOM      1  C   UNL     1     -67.474 -81.932 221.451  1.00  0.00     0.041 C 
ATOM      2  C   UNL     1     -67.409 -81.686 222.971  1.00  0.00     0.150 C 
ATOM      3  C   UNL     1     -68.376 -80.597 223.540  1.00  0.00     0.175 C 
ATOM      4  C   UNL     1     -68.203 -80.622 225.076  1.00  0.00     0.186 C 
ATOM      5  C   UNL     1     -66.695 -80.411 225.435  1.00  0.00     0.202 C 
ATOM      6  C   UNL     1     -65.760 -81.321 224.631  1.00  0.00     0.282 C 
ATOM      7  O   UNL     1     -66.080 -81.314 223.242  1.00  0.00    -0.344 OA
ENDROOT
BRANCH   3   8
ATOM      8  O   UNL     1     -68.037 -79.319 223.059  1.00  0.00    -0.388 OA
ATOM      9  H   UNL     1     -68.035 -78.698 223.849  1.00  0.00     0.211 HD
ENDBRANCH   3   8
BRANCH   4  10
ATOM     10  O   UNL     1     -68.913 -79.583 225.734  1.00  0.00    -0.341 OA
BRANCH  10  11
ATOM     11  C   UNL     1     -70.313 -79.679 225.902  1.00  0.00     0.282 C 
ATOM     12  C   UNL     1     -71.286 -79.523 224.690  1.00  0.00     0.202 C 
ATOM     13  O   UNL     1     -70.751 -78.959 227.046  1.00  0.00    -0.341 OA
ATOM     14  C   UNL     1     -72.795 -79.670 225.097  1.00  0.00     0.179 C 
ATOM     15  C   UNL     1     -71.946 -79.580 227.523  1.00  0.00     0.178 C 
ATOM     16  C   UNL     1     -73.113 -79.260 226.573  1.00  0.00     0.177 C 
BRANCH  12  17
ATOM     17  O   UNL     1     -71.055 -78.411 223.868  1.00  0.00    -0.385 OA
ATOM     18  H   UNL     1     -70.852 -78.728 222.928  1.00  0.00     0.211 HD
ENDBRANCH  12  17
BRANCH  14  19
ATOM     19  O   UNL     1     -73.638 -78.939 224.228  1.00  0.00    -0.387 OA
ATOM     20  H   UNL     1     -74.462 -78.720 224.731  1.00  0.00     0.211 HD
ENDBRANCH  14  19
BRANCH  15  21
ATOM     21  C   UNL     1     -72.203 -79.234 229.004  1.00  0.00     0.191 C 
BRANCH  21  22
ATOM     22  O   UNL     1     -71.986 -77.865 229.252  1.00  0.00    -0.394 OA
ATOM     23  H   UNL     1     -72.706 -77.374 228.759  1.00  0.00     0.210 HD
ENDBRANCH  21  22
ENDBRANCH  15  21
BRANCH  16  24
ATOM     24  O   UNL     1     -73.461 -77.905 226.678  1.00  0.00    -0.387 OA
ATOM     25  H   UNL     1     -73.041 -77.452 225.914  1.00  0.00     0.211 HD
ENDBRANCH  16  24
ENDBRANCH  10  11
ENDBRANCH   4  10
BRANCH   6  26
ATOM     26  O   UNL     1     -64.418 -80.845 224.660  1.00  0.00    -0.346 OA
BRANCH  26  27
ATOM     27  C   UNL     1     -63.673 -80.665 223.455  1.00  0.00     0.130 C 
ATOM     28  C   UNL     1     -62.382 -81.523 223.630  1.00  0.00     0.033 C 
ATOM     29  C   UNL     1     -63.294 -79.190 223.004  1.00  0.00     0.020 C 
ATOM     30  C   UNL     1     -61.452 -81.596 222.361  1.00  0.00     0.010 C 
ATOM     31  C   UNL     1     -62.036 -79.224 221.969  1.00  0.00     0.006 C 
ATOM     32  C   UNL     1     -64.536 -78.604 222.231  1.00  0.00     0.017 C 
ATOM     33  C   UNL     1     -61.816 -80.592 221.210  1.00  0.00    -0.022 C 
ATOM     34  C   UNL     1     -60.647 -78.725 222.569  1.00  0.00     0.005 C 
ATOM     35  C   UNL     1     -63.088 -81.229 220.516  1.00  0.00     0.012 C 
ATOM     36  C   UNL     1     -60.632 -80.412 220.100  1.00  0.00     0.024 C 
ATOM     37  C   UNL     1     -59.362 -78.997 221.739  1.00  0.00     0.008 C 
ATOM     38  C   UNL     1     -59.631 -79.205 220.227  1.00  0.00    -0.017 C 
ATOM     39  C   UNL     1     -61.031 -80.441 218.627  1.00  0.00    -0.024 C 
ATOM     40  C   UNL     1     -60.288 -77.858 219.728  1.00  0.00     0.013 C 
ATOM     41  C   UNL     1     -58.276 -79.548 219.373  1.00  0.00     0.009 C 
ATOM     42  C   UNL     1     -60.145 -80.245 217.628  1.00  0.00     0.005 C 
ATOM     43  C   UNL     1     -58.674 -79.888 217.827  1.00  0.00     0.096 C 
ATOM     44  C   UNL     1     -57.165 -78.425 219.427  1.00  0.00     0.043 C 
ATOM     45  C   UNL     1     -57.543 -80.813 219.995  1.00  0.00     0.015 C 
ATOM     46  C   UNL     1     -58.288 -78.836 216.768  1.00  0.00     0.037 C 
ATOM     47  O   UNL     1     -57.901 -80.998 217.413  1.00  0.00    -0.369 OA
ATOM     48  C   UNL     1     -56.223 -78.328 218.173  1.00  0.00     0.124 C 
ATOM     49  C   UNL     1     -56.799 -78.936 216.841  1.00  0.00     0.026 C 
ATOM     50  C   UNL     1     -58.911 -77.437 216.566  1.00  0.00     0.014 C 
ATOM     51  C   UNL     1     -56.702 -80.476 216.828  1.00  0.00     0.171 C 
ATOM     52  C   UNL     1     -56.237 -78.276 215.557  1.00  0.00     0.013 C 
ATOM     53  C   UNL     1     -57.984 -76.317 215.942  1.00  0.00    -0.035 C 
ATOM     54  C   UNL     1     -56.551 -76.773 215.474  1.00  0.00     0.007 C 
ATOM     55  C   UNL     1     -58.724 -75.640 214.738  1.00  0.00     0.011 C 
ATOM     56  C   UNL     1     -57.830 -75.187 217.019  1.00  0.00     0.011 C 
BRANCH  29  57
ATOM     57  C   UNL     1     -62.976 -78.246 224.249  1.00  0.00     0.165 C 
BRANCH  57  58
ATOM     58  O   UNL     1     -64.131 -77.900 224.987  1.00  0.00    -0.396 OA
ATOM     59  H   UNL     1     -63.952 -78.043 225.952  1.00  0.00     0.210 HD
ENDBRANCH  57  58
ENDBRANCH  29  57
BRANCH  48  60
ATOM     60  O   UNL     1     -54.899 -78.776 218.420  1.00  0.00    -0.392 OA
ATOM     61  H   UNL     1     -54.677 -79.495 217.769  1.00  0.00     0.210 HD
ENDBRANCH  48  60
ENDBRANCH  26  27
ENDBRANCH   6  26
BRANCH   5  62
ATOM     62  O   UNL     1     -66.504 -80.595 226.822  1.00  0.00    -0.385 OA
ATOM     63  H   UNL     1     -67.035 -81.410 227.067  1.00  0.00     0.211 HD
ENDBRANCH   5  62
TORSDOF 14
ENDMDL
MODEL 8
REMARK VINA RESULT:    -6.413      2.981     12.988
REMARK INTER + INTRA:         -12.238
REMARK INTER:                 -10.389
REMARK INTRA:                  -1.849
REMARK UNBOUND:                -2.075
REMARK SMILES C[C@H]1O[C@@H](O[C@@H]2CC[C@@]3(C)[C@H](CC[C@]4(C)[C@@H]3C=C[C@@]35OC[C@]6(CCC(C)(C)C[C@@H]63)[C@H](O)C[C@@]45C)[C@]2(C)CO)[C@H](O)[C@@H](O[C@H]2O[C@@H](CO)[C@@H](O)[C@@H](O)[C@H]2O)[C@H]1O
REMARK SMILES IDX 1 1 2 2 54 3 41 4 39 5 4 6 3 7 55 8 42 10 43 11 52 12 44 13
REMARK SMILES IDX 50 14 45 15 48 16 53 17 51 19 46 21 47 22 49 24 5 26 6 27
REMARK SMILES IDX 7 28 35 29 8 30 11 31 36 32 9 33 12 34 10 35 16 36 13 37
REMARK SMILES IDX 14 38 17 39 15 40 33 41 18 42 19 43 32 44 34 45 29 46 20 47
REMARK SMILES IDX 30 48 22 49 28 50 21 51 23 52 25 53 24 54 26 55 27 56 37 57
REMARK SMILES IDX 38 58 31 60 40 62
REMARK H PARENT 55 9 53 18 51 20 47 23 49 25 38 59 31 61 40 63
REMARK Flexibility Score: inf
ROOT
ATOM      1  C   UNL     1     -65.188 -79.624 227.234  1.00  0.00     0.041 C 
ATOM      2  C   UNL     1     -66.512 -79.154 226.601  1.00  0.00     0.150 C 
ATOM      3  C   UNL     1     -67.691 -80.180 226.612  1.00  0.00     0.175 C 
ATOM      4  C   UNL     1     -68.918 -79.438 226.033  1.00  0.00     0.186 C 
ATOM      5  C   UNL     1     -68.563 -78.863 224.622  1.00  0.00     0.202 C 
ATOM      6  C   UNL     1     -67.237 -78.095 224.610  1.00  0.00     0.282 C 
ATOM      7  O   UNL     1     -66.201 -78.817 225.271  1.00  0.00    -0.344 OA
ENDROOT
BRANCH   3   8
ATOM      8  O   UNL     1     -67.400 -81.292 225.800  1.00  0.00    -0.388 OA
ATOM      9  H   UNL     1     -67.192 -80.940 224.882  1.00  0.00     0.211 HD
ENDBRANCH   3   8
BRANCH   4  10
ATOM     10  O   UNL     1     -70.042 -80.285 225.841  1.00  0.00    -0.341 OA
BRANCH  10  11
ATOM     11  C   UNL     1     -71.283 -79.958 226.434  1.00  0.00     0.282 C 
ATOM     12  C   UNL     1     -72.585 -79.845 225.579  1.00  0.00     0.202 C 
ATOM     13  O   UNL     1     -71.151 -78.892 227.365  1.00  0.00    -0.341 OA
ATOM     14  C   UNL     1     -73.848 -79.479 226.436  1.00  0.00     0.179 C 
ATOM     15  C   UNL     1     -72.180 -79.036 228.344  1.00  0.00     0.178 C 
ATOM     16  C   UNL     1     -73.538 -78.654 227.729  1.00  0.00     0.177 C 
BRANCH  12  17
ATOM     17  O   UNL     1     -72.479 -79.069 224.416  1.00  0.00    -0.385 OA
ATOM     18  H   UNL     1     -71.502 -78.875 224.234  1.00  0.00     0.211 HD
ENDBRANCH  12  17
BRANCH  14  19
ATOM     19  O   UNL     1     -74.809 -78.782 225.669  1.00  0.00    -0.387 OA
ATOM     20  H   UNL     1     -75.660 -78.801 226.173  1.00  0.00     0.211 HD
ENDBRANCH  14  19
BRANCH  15  21
ATOM     21  C   UNL     1     -71.824 -78.285 229.644  1.00  0.00     0.191 C 
BRANCH  21  22
ATOM     22  O   UNL     1     -71.446 -76.955 229.376  1.00  0.00    -0.394 OA
ATOM     23  H   UNL     1     -70.595 -77.006 228.852  1.00  0.00     0.210 HD
ENDBRANCH  21  22
ENDBRANCH  15  21
BRANCH  16  24
ATOM     24  O   UNL     1     -73.589 -77.272 227.495  1.00  0.00    -0.387 OA
ATOM     25  H   UNL     1     -74.010 -76.873 228.288  1.00  0.00     0.211 HD
ENDBRANCH  16  24
ENDBRANCH  10  11
ENDBRANCH   4  10
BRANCH   6  26
ATOM     26  O   UNL     1     -66.735 -77.942 223.286  1.00  0.00    -0.346 OA
BRANCH  26  27
ATOM     27  C   UNL     1     -65.394 -78.307 222.958  1.00  0.00     0.130 C 
ATOM     28  C   UNL     1     -64.836 -77.126 222.106  1.00  0.00     0.033 C 
ATOM     29  C   UNL     1     -65.138 -79.688 222.215  1.00  0.00     0.020 C 
ATOM     30  C   UNL     1     -63.310 -77.233 221.734  1.00  0.00     0.010 C 
ATOM     31  C   UNL     1     -63.689 -79.663 221.468  1.00  0.00     0.006 C 
ATOM     32  C   UNL     1     -65.091 -80.811 223.319  1.00  0.00     0.017 C 
ATOM     33  C   UNL     1     -62.647 -78.624 222.039  1.00  0.00    -0.022 C 
ATOM     34  C   UNL     1     -63.744 -79.538 219.881  1.00  0.00     0.005 C 
ATOM     35  C   UNL     1     -62.432 -78.624 223.607  1.00  0.00     0.012 C 
ATOM     36  C   UNL     1     -61.207 -78.838 221.300  1.00  0.00     0.024 C 
ATOM     37  C   UNL     1     -62.418 -79.224 219.135  1.00  0.00     0.008 C 
ATOM     38  C   UNL     1     -61.148 -79.615 219.932  1.00  0.00    -0.017 C 
ATOM     39  C   UNL     1     -60.062 -79.414 222.129  1.00  0.00    -0.024 C 
ATOM     40  C   UNL     1     -61.255 -81.175 220.153  1.00  0.00     0.013 C 
ATOM     41  C   UNL     1     -59.758 -79.226 219.160  1.00  0.00     0.009 C 
ATOM     42  C   UNL     1     -58.848 -79.685 221.608  1.00  0.00     0.005 C 
ATOM     43  C   UNL     1     -58.484 -79.544 220.131  1.00  0.00     0.096 C 
ATOM     44  C   UNL     1     -59.571 -79.921 217.754  1.00  0.00     0.043 C 
ATOM     45  C   UNL     1     -59.745 -77.678 218.804  1.00  0.00     0.015 C 
ATOM     46  C   UNL     1     -57.600 -80.745 219.738  1.00  0.00     0.037 C 
ATOM     47  O   UNL     1     -57.569 -78.472 220.014  1.00  0.00    -0.369 OA
ATOM     48  C   UNL     1     -58.088 -80.175 217.302  1.00  0.00     0.124 C 
ATOM     49  C   UNL     1     -57.024 -80.228 218.460  1.00  0.00     0.026 C 
ATOM     50  C   UNL     1     -57.966 -82.243 219.813  1.00  0.00     0.014 C 
ATOM     51  C   UNL     1     -56.658 -78.816 218.963  1.00  0.00     0.171 C 
ATOM     52  C   UNL     1     -55.787 -81.102 218.134  1.00  0.00     0.013 C 
ATOM     53  C   UNL     1     -57.256 -83.213 218.785  1.00  0.00    -0.035 C 
ATOM     54  C   UNL     1     -56.151 -82.571 217.864  1.00  0.00     0.007 C 
ATOM     55  C   UNL     1     -56.636 -84.427 219.557  1.00  0.00     0.011 C 
ATOM     56  C   UNL     1     -58.376 -83.830 217.877  1.00  0.00     0.011 C 
BRANCH  29  57
ATOM     57  C   UNL     1     -66.301 -80.037 221.181  1.00  0.00     0.165 C 
BRANCH  57  58
ATOM     58  O   UNL     1     -67.469 -80.523 221.811  1.00  0.00    -0.396 OA
ATOM     59  H   UNL     1     -67.882 -81.215 221.234  1.00  0.00     0.210 HD
ENDBRANCH  57  58
ENDBRANCH  29  57
BRANCH  48  60
ATOM     60  O   UNL     1     -57.664 -79.330 216.243  1.00  0.00    -0.392 OA
ATOM     61  H   UNL     1     -57.034 -78.651 216.607  1.00  0.00     0.210 HD
ENDBRANCH  48  60
ENDBRANCH  26  27
ENDBRANCH   6  26
BRANCH   5  62
ATOM     62  O   UNL     1     -69.619 -78.049 224.159  1.00  0.00    -0.385 OA
ATOM     63  H   UNL     1     -69.424 -77.125 224.499  1.00  0.00     0.211 HD
ENDBRANCH   5  62
TORSDOF 14
ENDMDL
MODEL 9
REMARK VINA RESULT:    -6.378      1.974      3.755
REMARK INTER + INTRA:         -12.183
REMARK INTER:                 -10.636
REMARK INTRA:                  -1.546
REMARK UNBOUND:                -2.075
REMARK SMILES C[C@H]1O[C@@H](O[C@@H]2CC[C@@]3(C)[C@H](CC[C@]4(C)[C@@H]3C=C[C@@]35OC[C@]6(CCC(C)(C)C[C@@H]63)[C@H](O)C[C@@]45C)[C@]2(C)CO)[C@H](O)[C@@H](O[C@H]2O[C@@H](CO)[C@@H](O)[C@@H](O)[C@H]2O)[C@H]1O
REMARK SMILES IDX 1 1 2 2 54 3 41 4 39 5 4 6 3 7 55 8 42 10 43 11 52 12 44 13
REMARK SMILES IDX 50 14 45 15 48 16 53 17 51 19 46 21 47 22 49 24 5 26 6 27
REMARK SMILES IDX 7 28 35 29 8 30 11 31 36 32 9 33 12 34 10 35 16 36 13 37
REMARK SMILES IDX 14 38 17 39 15 40 33 41 18 42 19 43 32 44 34 45 29 46 20 47
REMARK SMILES IDX 30 48 22 49 28 50 21 51 23 52 25 53 24 54 26 55 27 56 37 57
REMARK SMILES IDX 38 58 31 60 40 62
REMARK H PARENT 55 9 53 18 51 20 47 23 49 25 38 59 31 61 40 63
REMARK Flexibility Score: inf
ROOT
ATOM      1  C   UNL     1     -63.633 -75.342 221.577  1.00  0.00     0.041 C 
ATOM      2  C   UNL     1     -62.323 -76.079 221.237  1.00  0.00     0.150 C 
ATOM      3  C   UNL     1     -62.008 -76.270 219.718  1.00  0.00     0.175 C 
ATOM      4  C   UNL     1     -60.608 -76.922 219.643  1.00  0.00     0.186 C 
ATOM      5  C   UNL     1     -60.600 -78.241 220.485  1.00  0.00     0.202 C 
ATOM      6  C   UNL     1     -61.188 -78.053 221.888  1.00  0.00     0.282 C 
ATOM      7  O   UNL     1     -62.421 -77.339 221.854  1.00  0.00    -0.344 OA
ENDROOT
BRANCH   3   8
ATOM      8  O   UNL     1     -62.947 -77.125 219.112  1.00  0.00    -0.388 OA
ATOM      9  H   UNL     1     -62.434 -77.749 218.514  1.00  0.00     0.211 HD
ENDBRANCH   3   8
BRANCH   4  10
ATOM     10  O   UNL     1     -60.236 -77.296 218.324  1.00  0.00    -0.341 OA
BRANCH  10  11
ATOM     11  C   UNL     1     -59.258 -76.551 217.627  1.00  0.00     0.282 C 
ATOM     12  C   UNL     1     -59.509 -75.062 217.225  1.00  0.00     0.202 C 
ATOM     13  O   UNL     1     -58.680 -77.308 216.573  1.00  0.00    -0.341 OA
ATOM     14  C   UNL     1     -58.294 -74.423 216.464  1.00  0.00     0.179 C 
ATOM     15  C   UNL     1     -57.357 -76.817 216.355  1.00  0.00     0.178 C 
ATOM     16  C   UNL     1     -57.420 -75.444 215.663  1.00  0.00     0.177 C 
BRANCH  12  17
ATOM     17  O   UNL     1     -60.735 -74.805 216.596  1.00  0.00    -0.385 OA
ATOM     18  H   UNL     1     -60.821 -75.397 215.779  1.00  0.00     0.211 HD
ENDBRANCH  12  17
BRANCH  14  19
ATOM     19  O   UNL     1     -58.714 -73.396 215.589  1.00  0.00    -0.387 OA
ATOM     20  H   UNL     1     -59.232 -72.745 216.124  1.00  0.00     0.211 HD
ENDBRANCH  14  19
BRANCH  15  21
ATOM     21  C   UNL     1     -56.482 -77.865 215.637  1.00  0.00     0.191 C 
BRANCH  21  22
ATOM     22  O   UNL     1     -55.452 -77.248 214.899  1.00  0.00    -0.394 OA
ATOM     23  H   UNL     1     -55.044 -77.967 214.334  1.00  0.00     0.210 HD
ENDBRANCH  21  22
ENDBRANCH  15  21
BRANCH  16  24
ATOM     24  O   UNL     1     -57.865 -75.592 214.341  1.00  0.00    -0.387 OA
ATOM     25  H   UNL     1     -57.533 -74.809 213.848  1.00  0.00     0.211 HD
ENDBRANCH  16  24
ENDBRANCH  10  11
ENDBRANCH   4  10
BRANCH   6  26
ATOM     26  O   UNL     1     -61.549 -79.300 222.473  1.00  0.00    -0.346 OA
BRANCH  26  27
ATOM     27  C   UNL     1     -62.830 -79.490 223.075  1.00  0.00     0.130 C 
ATOM     28  C   UNL     1     -62.550 -79.715 224.593  1.00  0.00     0.033 C 
ATOM     29  C   UNL     1     -63.774 -80.640 222.516  1.00  0.00     0.020 C 
ATOM     30  C   UNL     1     -63.832 -79.813 225.501  1.00  0.00     0.010 C 
ATOM     31  C   UNL     1     -64.890 -81.043 223.633  1.00  0.00     0.006 C 
ATOM     32  C   UNL     1     -64.534 -80.054 221.266  1.00  0.00     0.017 C 
ATOM     33  C   UNL     1     -65.191 -79.940 224.724  1.00  0.00    -0.022 C 
ATOM     34  C   UNL     1     -64.658 -82.446 224.352  1.00  0.00     0.005 C 
ATOM     35  C   UNL     1     -65.480 -78.478 224.192  1.00  0.00     0.012 C 
ATOM     36  C   UNL     1     -66.436 -80.429 225.659  1.00  0.00     0.024 C 
ATOM     37  C   UNL     1     -65.509 -82.761 225.613  1.00  0.00     0.008 C 
ATOM     38  C   UNL     1     -66.828 -81.952 225.691  1.00  0.00    -0.017 C 
ATOM     39  C   UNL     1     -67.761 -79.683 225.521  1.00  0.00    -0.024 C 
ATOM     40  C   UNL     1     -67.648 -82.362 224.405  1.00  0.00     0.013 C 
ATOM     41  C   UNL     1     -67.687 -82.251 227.053  1.00  0.00     0.009 C 
ATOM     42  C   UNL     1     -68.871 -80.037 226.201  1.00  0.00     0.005 C 
ATOM     43  C   UNL     1     -68.981 -81.257 227.114  1.00  0.00     0.096 C 
ATOM     44  C   UNL     1     -68.134 -83.756 227.230  1.00  0.00     0.043 C 
ATOM     45  C   UNL     1     -66.788 -81.986 228.335  1.00  0.00     0.015 C 
ATOM     46  C   UNL     1     -70.361 -81.906 226.885  1.00  0.00     0.037 C 
ATOM     47  O   UNL     1     -69.108 -80.790 228.444  1.00  0.00    -0.369 OA
ATOM     48  C   UNL     1     -69.459 -83.990 228.042  1.00  0.00     0.124 C 
ATOM     49  C   UNL     1     -70.443 -82.764 228.104  1.00  0.00     0.026 C 
ATOM     50  C   UNL     1     -70.922 -82.471 225.562  1.00  0.00     0.014 C 
ATOM     51  C   UNL     1     -69.973 -81.706 229.125  1.00  0.00     0.171 C 
ATOM     52  C   UNL     1     -71.930 -83.164 228.277  1.00  0.00     0.013 C 
ATOM     53  C   UNL     1     -71.982 -83.640 225.668  1.00  0.00    -0.035 C 
ATOM     54  C   UNL     1     -72.452 -84.031 227.120  1.00  0.00     0.007 C 
ATOM     55  C   UNL     1     -73.239 -83.285 224.803  1.00  0.00     0.011 C 
ATOM     56  C   UNL     1     -71.352 -84.903 224.983  1.00  0.00     0.011 C 
BRANCH  29  57
ATOM     57  C   UNL     1     -62.947 -81.923 222.055  1.00  0.00     0.165 C 
BRANCH  57  58
ATOM     58  O   UNL     1     -63.532 -82.588 220.953  1.00  0.00    -0.396 OA
ATOM     59  H   UNL     1     -63.618 -83.552 221.167  1.00  0.00     0.210 HD
ENDBRANCH  57  58
ENDBRANCH  29  57
BRANCH  48  60
ATOM     60  O   UNL     1     -69.246 -84.554 229.327  1.00  0.00    -0.392 OA
ATOM     61  H   UNL     1     -68.681 -85.367 229.231  1.00  0.00     0.210 HD
ENDBRANCH  48  60
ENDBRANCH  26  27
ENDBRANCH   6  26
BRANCH   5  62
ATOM     62  O   UNL     1     -59.287 -78.754 220.556  1.00  0.00    -0.385 OA
ATOM     63  H   UNL     1     -58.942 -78.504 221.465  1.00  0.00     0.211 HD
ENDBRANCH   5  62
TORSDOF 14
ENDMDL
