MODEL 1
REMARK VINA RESULT:    -6.904      0.000      0.000
REMARK INTER + INTRA:          -8.577
REMARK INTER:                  -8.316
REMARK INTRA:                  -0.261
REMARK UNBOUND:                -0.261
REMARK SMILES O=c1c(O)c(-c2ccc(O)c(O)c2)oc2cc(O)cc(O)c12
REMARK SMILES IDX 5 1 3 2 2 3 1 4 22 5 20 6 19 7 17 8 16 9 15 10 14 11 6 12
REMARK SMILES IDX 7 13 8 14 9 15 13 16 11 17 10 18 12 20 4 22 21 24 18 26
REMARK H PARENT 10 19 12 21 4 23 21 25 18 27
REMARK Flexibility Score: inf
ROOT
ATOM      1  C   UNL     1     -24.181  -0.759  11.503  1.00  0.00     0.180 A 
ATOM      2  C   UNL     1     -24.572  -1.843  10.698  1.00  0.00     0.208 A 
ATOM      3  C   UNL     1     -25.519  -1.632   9.684  1.00  0.00     0.238 A 
ATOM      4  O   UNL     1     -25.809  -2.588   8.920  1.00  0.00    -0.285 OA
ATOM      5  C   UNL     1     -26.106  -0.352   9.522  1.00  0.00     0.111 A 
ATOM      6  C   UNL     1     -27.109  -0.035   8.557  1.00  0.00     0.134 A 
ATOM      7  C   UNL     1     -27.540   1.291   8.419  1.00  0.00     0.093 A 
ATOM      8  C   UNL     1     -27.053   2.297   9.251  1.00  0.00     0.123 A 
ATOM      9  C   UNL     1     -26.113   1.988  10.235  1.00  0.00     0.094 A 
ATOM     10  C   UNL     1     -25.635   0.683  10.373  1.00  0.00     0.146 A 
ATOM     11  O   UNL     1     -24.724   0.437  11.307  1.00  0.00    -0.452 OA
ENDROOT
BRANCH   1  12
ATOM     12  C   UNL     1     -23.178  -0.900  12.583  1.00  0.00     0.025 A 
ATOM     13  C   UNL     1     -21.820  -1.026  12.252  1.00  0.00     0.016 A 
ATOM     14  C   UNL     1     -20.859  -1.182  13.254  1.00  0.00     0.051 A 
ATOM     15  C   UNL     1     -21.243  -1.231  14.600  1.00  0.00     0.157 A 
ATOM     16  C   UNL     1     -23.563  -0.971  13.935  1.00  0.00     0.062 A 
ATOM     17  C   UNL     1     -22.598  -1.129  14.940  1.00  0.00     0.158 A 
BRANCH  15  18
ATOM     18  O   UNL     1     -20.288  -1.384  15.602  1.00  0.00    -0.504 OA
ATOM     19  H   UNL     1     -19.902  -0.585  16.092  1.00  0.00     0.293 HD
ENDBRANCH  15  18
BRANCH  17  20
ATOM     20  O   UNL     1     -22.979  -1.193  16.280  1.00  0.00    -0.504 OA
ATOM     21  H   UNL     1     -22.415  -1.677  16.969  1.00  0.00     0.293 HD
ENDBRANCH  17  20
ENDBRANCH   1  12
BRANCH   2  22
ATOM     22  O   UNL     1     -24.039  -3.114  10.924  1.00  0.00    -0.502 OA
ATOM     23  H   UNL     1     -23.138  -3.400  10.559  1.00  0.00     0.293 HD
ENDBRANCH   2  22
BRANCH   6  24
ATOM     24  O   UNL     1     -27.730  -0.978   7.733  1.00  0.00    -0.507 OA
ATOM     25  H   UNL     1     -27.257  -1.731   7.258  1.00  0.00     0.293 HD
ENDBRANCH   6  24
BRANCH   8  26
ATOM     26  O   UNL     1     -27.516   3.602   9.097  1.00  0.00    -0.508 OA
ATOM     27  H   UNL     1     -28.501   3.806   8.987  1.00  0.00     0.293 HD
ENDBRANCH   8  26
TORSDOF 6
ENDMDL
MODEL 2
REMARK VINA RESULT:    -6.846      1.157      2.834
REMARK INTER + INTRA:          -8.507
REMARK INTER:                  -8.385
REMARK INTRA:                  -0.123
REMARK UNBOUND:                -0.261
REMARK SMILES O=c1c(O)c(-c2ccc(O)c(O)c2)oc2cc(O)cc(O)c12
REMARK SMILES IDX 5 1 3 2 2 3 1 4 22 5 20 6 19 7 17 8 16 9 15 10 14 11 6 12
REMARK SMILES IDX 7 13 8 14 9 15 13 16 11 17 10 18 12 20 4 22 21 24 18 26
REMARK H PARENT 10 19 12 21 4 23 21 25 18 27
REMARK Flexibility Score: inf
ROOT
ATOM      1  C   UNL     1     -24.208   0.152  11.881  1.00  0.00     0.180 A 
ATOM      2  C   UNL     1     -24.796   1.407  12.111  1.00  0.00     0.208 A 
ATOM      3  C   UNL     1     -25.799   1.860  11.239  1.00  0.00     0.238 A 
ATOM      4  O   UNL     1     -26.373   2.950  11.492  1.00  0.00    -0.285 OA
ATOM      5  C   UNL     1     -26.162   1.077  10.115  1.00  0.00     0.111 A 
ATOM      6  C   UNL     1     -27.133   1.456   9.140  1.00  0.00     0.134 A 
ATOM      7  C   UNL     1     -27.487   0.553   8.129  1.00  0.00     0.093 A 
ATOM      8  C   UNL     1     -26.861  -0.687   8.020  1.00  0.00     0.123 A 
ATOM      9  C   UNL     1     -25.871  -1.047   8.935  1.00  0.00     0.094 A 
ATOM     10  C   UNL     1     -25.523  -0.184   9.978  1.00  0.00     0.146 A 
ATOM     11  O   UNL     1     -24.591  -0.575  10.839  1.00  0.00    -0.452 OA
ENDROOT
BRANCH   1  12
ATOM     12  C   UNL     1     -23.155  -0.398  12.765  1.00  0.00     0.025 A 
ATOM     13  C   UNL     1     -21.919  -0.775  12.215  1.00  0.00     0.016 A 
ATOM     14  C   UNL     1     -20.919  -1.316  13.027  1.00  0.00     0.051 A 
ATOM     15  C   UNL     1     -21.145  -1.505  14.396  1.00  0.00     0.157 A 
ATOM     16  C   UNL     1     -23.386  -0.608  14.137  1.00  0.00     0.062 A 
ATOM     17  C   UNL     1     -22.383  -1.154  14.952  1.00  0.00     0.158 A 
BRANCH  15  18
ATOM     18  O   UNL     1     -20.150  -2.042  15.209  1.00  0.00    -0.504 OA
ATOM     19  H   UNL     1     -19.200  -2.159  14.876  1.00  0.00     0.293 HD
ENDBRANCH  15  18
BRANCH  17  20
ATOM     20  O   UNL     1     -22.610  -1.355  16.312  1.00  0.00    -0.504 OA
ATOM     21  H   UNL     1     -23.522  -1.202  16.725  1.00  0.00     0.293 HD
ENDBRANCH  17  20
ENDBRANCH   1  12
BRANCH   2  22
ATOM     22  O   UNL     1     -24.370   2.200  13.180  1.00  0.00    -0.502 OA
ATOM     23  H   UNL     1     -23.393   2.412  13.346  1.00  0.00     0.293 HD
ENDBRANCH   2  22
BRANCH   6  24
ATOM     24  O   UNL     1     -27.757   2.707   9.101  1.00  0.00    -0.507 OA
ATOM     25  H   UNL     1     -27.435   3.497   8.563  1.00  0.00     0.293 HD
ENDBRANCH   6  24
BRANCH   8  26
ATOM     26  O   UNL     1     -27.226  -1.554   6.992  1.00  0.00    -0.508 OA
ATOM     27  H   UNL     1     -27.919  -1.295   6.302  1.00  0.00     0.293 HD
ENDBRANCH   8  26
TORSDOF 6
ENDMDL
MODEL 3
REMARK VINA RESULT:    -6.744      2.104      3.040
REMARK INTER + INTRA:          -8.384
REMARK INTER:                  -8.062
REMARK INTRA:                  -0.322
REMARK UNBOUND:                -0.261
REMARK SMILES O=c1c(O)c(-c2ccc(O)c(O)c2)oc2cc(O)cc(O)c12
REMARK SMILES IDX 5 1 3 2 2 3 1 4 22 5 20 6 19 7 17 8 16 9 15 10 14 11 6 12
REMARK SMILES IDX 7 13 8 14 9 15 13 16 11 17 10 18 12 20 4 22 21 24 18 26
REMARK H PARENT 10 19 12 21 4 23 21 25 18 27
REMARK Flexibility Score: inf
ROOT
ATOM      1  C   UNL     1     -23.087  -1.580  14.189  1.00  0.00     0.180 A 
ATOM      2  C   UNL     1     -23.460  -2.641  13.347  1.00  0.00     0.208 A 
ATOM      3  C   UNL     1     -24.227  -2.365  12.204  1.00  0.00     0.238 A 
ATOM      4  O   UNL     1     -24.495  -3.307  11.415  1.00  0.00    -0.285 OA
ATOM      5  C   UNL     1     -24.660  -1.041  11.947  1.00  0.00     0.111 A 
ATOM      6  C   UNL     1     -25.479  -0.653  10.844  1.00  0.00     0.134 A 
ATOM      7  C   UNL     1     -25.756   0.704  10.634  1.00  0.00     0.093 A 
ATOM      8  C   UNL     1     -25.299   1.679  11.519  1.00  0.00     0.123 A 
ATOM      9  C   UNL     1     -24.544   1.306  12.631  1.00  0.00     0.094 A 
ATOM     10  C   UNL     1     -24.218  -0.035  12.848  1.00  0.00     0.146 A 
ATOM     11  O   UNL     1     -23.479  -0.344  13.907  1.00  0.00    -0.452 OA
ENDROOT
BRANCH   1  12
ATOM     12  C   UNL     1     -22.267  -1.790  15.405  1.00  0.00     0.025 A 
ATOM     13  C   UNL     1     -20.867  -1.767  15.306  1.00  0.00     0.016 A 
ATOM     14  C   UNL     1     -20.074  -1.984  16.435  1.00  0.00     0.051 A 
ATOM     15  C   UNL     1     -20.668  -2.244  17.677  1.00  0.00     0.157 A 
ATOM     16  C   UNL     1     -22.860  -2.073  16.649  1.00  0.00     0.062 A 
ATOM     17  C   UNL     1     -22.065  -2.293  17.783  1.00  0.00     0.158 A 
BRANCH  15  18
ATOM     18  O   UNL     1     -19.881  -2.459  18.806  1.00  0.00    -0.504 OA
ATOM     19  H   UNL     1     -19.871  -3.354  19.282  1.00  0.00     0.293 HD
ENDBRANCH  15  18
BRANCH  17  20
ATOM     20  O   UNL     1     -22.653  -2.566  19.016  1.00  0.00    -0.504 OA
ATOM     21  H   UNL     1     -23.277  -3.354  19.143  1.00  0.00     0.293 HD
ENDBRANCH  17  20
ENDBRANCH   1  12
BRANCH   2  22
ATOM     22  O   UNL     1     -23.089  -3.952  13.658  1.00  0.00    -0.502 OA
ATOM     23  H   UNL     1     -23.767  -4.692  13.798  1.00  0.00     0.293 HD
ENDBRANCH   2  22
BRANCH   6  24
ATOM     24  O   UNL     1     -26.063  -1.553   9.948  1.00  0.00    -0.507 OA
ATOM     25  H   UNL     1     -26.436  -1.307   9.044  1.00  0.00     0.293 HD
ENDBRANCH   6  24
BRANCH   8  26
ATOM     26  O   UNL     1     -25.608   3.018  11.287  1.00  0.00    -0.508 OA
ATOM     27  H   UNL     1     -25.448   3.728  11.991  1.00  0.00     0.293 HD
ENDBRANCH   8  26
TORSDOF 6
ENDMDL
MODEL 4
REMARK VINA RESULT:    -6.303      2.856      7.280
REMARK INTER + INTRA:          -7.853
REMARK INTER:                  -7.531
REMARK INTRA:                  -0.322
REMARK UNBOUND:                -0.261
REMARK SMILES O=c1c(O)c(-c2ccc(O)c(O)c2)oc2cc(O)cc(O)c12
REMARK SMILES IDX 5 1 3 2 2 3 1 4 22 5 20 6 19 7 17 8 16 9 15 10 14 11 6 12
REMARK SMILES IDX 7 13 8 14 9 15 13 16 11 17 10 18 12 20 4 22 21 24 18 26
REMARK H PARENT 10 19 12 21 4 23 21 25 18 27
REMARK Flexibility Score: inf
ROOT
ATOM      1  C   UNL     1     -25.478  -2.189   8.247  1.00  0.00     0.180 A 
ATOM      2  C   UNL     1     -25.288  -3.468   8.798  1.00  0.00     0.208 A 
ATOM      3  C   UNL     1     -24.877  -3.579  10.136  1.00  0.00     0.238 A 
ATOM      4  O   UNL     1     -24.781  -4.725  10.645  1.00  0.00    -0.285 OA
ATOM      5  C   UNL     1     -24.608  -2.411  10.890  1.00  0.00     0.111 A 
ATOM      6  C   UNL     1     -24.144  -2.404  12.240  1.00  0.00     0.134 A 
ATOM      7  C   UNL     1     -24.013  -1.186  12.920  1.00  0.00     0.093 A 
ATOM      8  C   UNL     1     -24.267   0.026  12.282  1.00  0.00     0.123 A 
ATOM      9  C   UNL     1     -24.668   0.035  10.945  1.00  0.00     0.094 A 
ATOM     10  C   UNL     1     -24.845  -1.165  10.251  1.00  0.00     0.146 A 
ATOM     11  O   UNL     1     -25.249  -1.112   8.988  1.00  0.00    -0.452 OA
ENDROOT
BRANCH   1  12
ATOM     12  C   UNL     1     -25.923  -1.992   6.848  1.00  0.00     0.025 A 
ATOM     13  C   UNL     1     -27.295  -1.970   6.557  1.00  0.00     0.016 A 
ATOM     14  C   UNL     1     -27.737  -1.806   5.242  1.00  0.00     0.051 A 
ATOM     15  C   UNL     1     -26.813  -1.679   4.197  1.00  0.00     0.157 A 
ATOM     16  C   UNL     1     -24.997  -1.885   5.794  1.00  0.00     0.062 A 
ATOM     17  C   UNL     1     -25.440  -1.723   4.473  1.00  0.00     0.158 A 
BRANCH  15  18
ATOM     18  O   UNL     1     -27.249  -1.514   2.884  1.00  0.00    -0.504 OA
ATOM     19  H   UNL     1     -26.881  -0.778   2.292  1.00  0.00     0.293 HD
ENDBRANCH  15  18
BRANCH  17  20
ATOM     20  O   UNL     1     -24.523  -1.610   3.430  1.00  0.00    -0.504 OA
ATOM     21  H   UNL     1     -24.176  -0.708   3.125  1.00  0.00     0.293 HD
ENDBRANCH  17  20
ENDBRANCH   1  12
BRANCH   2  22
ATOM     22  O   UNL     1     -25.484  -4.608   8.014  1.00  0.00    -0.502 OA
ATOM     23  H   UNL     1     -24.831  -5.383   8.006  1.00  0.00     0.293 HD
ENDBRANCH   2  22
BRANCH   6  24
ATOM     24  O   UNL     1     -23.775  -3.553  12.947  1.00  0.00    -0.507 OA
ATOM     25  H   UNL     1     -22.828  -3.803  13.188  1.00  0.00     0.293 HD
ENDBRANCH   6  24
BRANCH   8  26
ATOM     26  O   UNL     1     -24.110   1.220  12.983  1.00  0.00    -0.508 OA
ATOM     27  H   UNL     1     -24.317   1.284  13.972  1.00  0.00     0.293 HD
ENDBRANCH   8  26
TORSDOF 6
ENDMDL
MODEL 5
REMARK VINA RESULT:    -6.267      2.018      6.805
REMARK INTER + INTRA:          -7.810
REMARK INTER:                  -7.693
REMARK INTRA:                  -0.117
REMARK UNBOUND:                -0.261
REMARK SMILES O=c1c(O)c(-c2ccc(O)c(O)c2)oc2cc(O)cc(O)c12
REMARK SMILES IDX 5 1 3 2 2 3 1 4 22 5 20 6 19 7 17 8 16 9 15 10 14 11 6 12
REMARK SMILES IDX 7 13 8 14 9 15 13 16 11 17 10 18 12 20 4 22 21 24 18 26
REMARK H PARENT 10 19 12 21 4 23 21 25 18 27
REMARK Flexibility Score: inf
ROOT
ATOM      1  C   UNL     1     -25.129  -0.910  11.898  1.00  0.00     0.180 A 
ATOM      2  C   UNL     1     -25.892  -2.040  12.241  1.00  0.00     0.208 A 
ATOM      3  C   UNL     1     -25.297  -3.057  13.003  1.00  0.00     0.238 A 
ATOM      4  O   UNL     1     -26.005  -4.030  13.370  1.00  0.00    -0.285 OA
ATOM      5  C   UNL     1     -23.931  -2.960  13.366  1.00  0.00     0.111 A 
ATOM      6  C   UNL     1     -23.212  -3.952  14.099  1.00  0.00     0.134 A 
ATOM      7  C   UNL     1     -21.892  -3.699  14.492  1.00  0.00     0.093 A 
ATOM      8  C   UNL     1     -21.244  -2.521  14.126  1.00  0.00     0.123 A 
ATOM      9  C   UNL     1     -21.919  -1.567  13.363  1.00  0.00     0.094 A 
ATOM     10  C   UNL     1     -23.249  -1.773  12.988  1.00  0.00     0.146 A 
ATOM     11  O   UNL     1     -23.860  -0.831  12.280  1.00  0.00    -0.452 OA
ENDROOT
BRANCH   1  12
ATOM     12  C   UNL     1     -25.690   0.210  11.109  1.00  0.00     0.025 A 
ATOM     13  C   UNL     1     -25.780   1.486  11.687  1.00  0.00     0.016 A 
ATOM     14  C   UNL     1     -26.326   2.552  10.968  1.00  0.00     0.051 A 
ATOM     15  C   UNL     1     -26.805   2.355   9.667  1.00  0.00     0.157 A 
ATOM     16  C   UNL     1     -26.192   0.011   9.809  1.00  0.00     0.062 A 
ATOM     17  C   UNL     1     -26.741   1.080   9.088  1.00  0.00     0.158 A 
BRANCH  15  18
ATOM     18  O   UNL     1     -27.348   3.415   8.945  1.00  0.00    -0.504 OA
ATOM     19  H   UNL     1     -26.769   4.017   8.371  1.00  0.00     0.293 HD
ENDBRANCH  15  18
BRANCH  17  20
ATOM     20  O   UNL     1     -27.231   0.884   7.798  1.00  0.00    -0.504 OA
ATOM     21  H   UNL     1     -27.107   1.581   7.072  1.00  0.00     0.293 HD
ENDBRANCH  17  20
ENDBRANCH   1  12
BRANCH   2  22
ATOM     22  O   UNL     1     -27.215  -2.153  11.808  1.00  0.00    -0.502 OA
ATOM     23  H   UNL     1     -28.000  -1.834  12.364  1.00  0.00     0.293 HD
ENDBRANCH   2  22
BRANCH   6  24
ATOM     24  O   UNL     1     -23.733  -5.204  14.442  1.00  0.00    -0.507 OA
ATOM     25  H   UNL     1     -23.907  -5.955  13.791  1.00  0.00     0.293 HD
ENDBRANCH   6  24
BRANCH   8  26
ATOM     26  O   UNL     1     -19.924  -2.310  14.521  1.00  0.00    -0.508 OA
ATOM     27  H   UNL     1     -19.147  -2.542  13.916  1.00  0.00     0.293 HD
ENDBRANCH   8  26
TORSDOF 6
ENDMDL
MODEL 6
REMARK VINA RESULT:    -6.252      2.602      7.312
REMARK INTER + INTRA:          -7.792
REMARK INTER:                  -7.597
REMARK INTRA:                  -0.195
REMARK UNBOUND:                -0.261
REMARK SMILES O=c1c(O)c(-c2ccc(O)c(O)c2)oc2cc(O)cc(O)c12
REMARK SMILES IDX 5 1 3 2 2 3 1 4 22 5 20 6 19 7 17 8 16 9 15 10 14 11 6 12
REMARK SMILES IDX 7 13 8 14 9 15 13 16 11 17 10 18 12 20 4 22 21 24 18 26
REMARK H PARENT 10 19 12 21 4 23 21 25 18 27
REMARK Flexibility Score: inf
ROOT
ATOM      1  C   UNL     1     -23.613  -1.024  13.306  1.00  0.00     0.180 A 
ATOM      2  C   UNL     1     -22.241  -0.930  13.596  1.00  0.00     0.208 A 
ATOM      3  C   UNL     1     -21.636  -1.940  14.360  1.00  0.00     0.238 A 
ATOM      4  O   UNL     1     -20.394  -1.889  14.554  1.00  0.00    -0.285 OA
ATOM      5  C   UNL     1     -22.420  -3.003  14.872  1.00  0.00     0.111 A 
ATOM      6  C   UNL     1     -21.921  -4.058  15.695  1.00  0.00     0.134 A 
ATOM      7  C   UNL     1     -22.769  -5.113  16.055  1.00  0.00     0.093 A 
ATOM      8  C   UNL     1     -24.110  -5.121  15.676  1.00  0.00     0.123 A 
ATOM      9  C   UNL     1     -24.623  -4.068  14.918  1.00  0.00     0.094 A 
ATOM     10  C   UNL     1     -23.793  -3.020  14.511  1.00  0.00     0.146 A 
ATOM     11  O   UNL     1     -24.316  -2.049  13.771  1.00  0.00    -0.452 OA
ENDROOT
BRANCH   1  12
ATOM     12  C   UNL     1     -24.319  -0.005  12.495  1.00  0.00     0.025 A 
ATOM     13  C   UNL     1     -24.524   1.278  13.025  1.00  0.00     0.016 A 
ATOM     14  C   UNL     1     -25.206   2.248  12.287  1.00  0.00     0.051 A 
ATOM     15  C   UNL     1     -25.707   1.944  11.014  1.00  0.00     0.157 A 
ATOM     16  C   UNL     1     -24.841  -0.313  11.225  1.00  0.00     0.062 A 
ATOM     17  C   UNL     1     -25.528   0.659  10.484  1.00  0.00     0.158 A 
BRANCH  15  18
ATOM     18  O   UNL     1     -26.386   2.909  10.273  1.00  0.00    -0.504 OA
ATOM     19  H   UNL     1     -25.913   3.470   9.575  1.00  0.00     0.293 HD
ENDBRANCH  15  18
BRANCH  17  20
ATOM     20  O   UNL     1     -26.039   0.356   9.224  1.00  0.00    -0.504 OA
ATOM     21  H   UNL     1     -25.431   0.207   8.427  1.00  0.00     0.293 HD
ENDBRANCH  17  20
ENDBRANCH   1  12
BRANCH   2  22
ATOM     22  O   UNL     1     -21.500   0.167  13.147  1.00  0.00    -0.502 OA
ATOM     23  H   UNL     1     -20.877   0.688  13.753  1.00  0.00     0.293 HD
ENDBRANCH   2  22
BRANCH   6  24
ATOM     24  O   UNL     1     -20.620  -4.105  16.205  1.00  0.00    -0.507 OA
ATOM     25  H   UNL     1     -20.128  -4.949  16.456  1.00  0.00     0.293 HD
ENDBRANCH   6  24
BRANCH   8  26
ATOM     26  O   UNL     1     -24.929  -6.179  16.066  1.00  0.00    -0.508 OA
ATOM     27  H   UNL     1     -24.768  -6.684  16.928  1.00  0.00     0.293 HD
ENDBRANCH   8  26
TORSDOF 6
ENDMDL
MODEL 7
REMARK VINA RESULT:    -6.234      2.309      3.858
REMARK INTER + INTRA:          -7.771
REMARK INTER:                  -7.455
REMARK INTRA:                  -0.316
REMARK UNBOUND:                -0.261
REMARK SMILES O=c1c(O)c(-c2ccc(O)c(O)c2)oc2cc(O)cc(O)c12
REMARK SMILES IDX 5 1 3 2 2 3 1 4 22 5 20 6 19 7 17 8 16 9 15 10 14 11 6 12
REMARK SMILES IDX 7 13 8 14 9 15 13 16 11 17 10 18 12 20 4 22 21 24 18 26
REMARK H PARENT 10 19 12 21 4 23 21 25 18 27
REMARK Flexibility Score: inf
ROOT
ATOM      1  C   UNL     1     -25.038  -1.132   9.867  1.00  0.00     0.180 A 
ATOM      2  C   UNL     1     -26.065  -0.180   9.753  1.00  0.00     0.208 A 
ATOM      3  C   UNL     1     -26.717  -0.027   8.519  1.00  0.00     0.238 A 
ATOM      4  O   UNL     1     -27.685   0.773   8.443  1.00  0.00    -0.285 OA
ATOM      5  C   UNL     1     -26.297  -0.787   7.400  1.00  0.00     0.111 A 
ATOM      6  C   UNL     1     -26.856  -0.682   6.091  1.00  0.00     0.134 A 
ATOM      7  C   UNL     1     -26.431  -1.561   5.086  1.00  0.00     0.093 A 
ATOM      8  C   UNL     1     -25.426  -2.497   5.324  1.00  0.00     0.123 A 
ATOM      9  C   UNL     1     -24.834  -2.571   6.586  1.00  0.00     0.094 A 
ATOM     10  C   UNL     1     -25.262  -1.734   7.619  1.00  0.00     0.146 A 
ATOM     11  O   UNL     1     -24.687  -1.854   8.810  1.00  0.00    -0.452 OA
ENDROOT
BRANCH   1  12
ATOM     12  C   UNL     1     -24.313  -1.360  11.138  1.00  0.00     0.025 A 
ATOM     13  C   UNL     1     -24.761  -2.356  12.019  1.00  0.00     0.016 A 
ATOM     14  C   UNL     1     -24.106  -2.575  13.234  1.00  0.00     0.051 A 
ATOM     15  C   UNL     1     -23.003  -1.789  13.592  1.00  0.00     0.157 A 
ATOM     16  C   UNL     1     -23.217  -0.560  11.511  1.00  0.00     0.062 A 
ATOM     17  C   UNL     1     -22.560  -0.777  12.730  1.00  0.00     0.158 A 
BRANCH  15  18
ATOM     18  O   UNL     1     -22.345  -2.005  14.801  1.00  0.00    -0.504 OA
ATOM     19  H   UNL     1     -21.785  -1.281  15.236  1.00  0.00     0.293 HD
ENDBRANCH  15  18
BRANCH  17  20
ATOM     20  O   UNL     1     -21.471   0.012  13.096  1.00  0.00    -0.504 OA
ATOM     21  H   UNL     1     -21.595   0.902  13.564  1.00  0.00     0.293 HD
ENDBRANCH  17  20
ENDBRANCH   1  12
BRANCH   2  22
ATOM     22  O   UNL     1     -26.413   0.615  10.848  1.00  0.00    -0.502 OA
ATOM     23  H   UNL     1     -27.044   0.297  11.574  1.00  0.00     0.293 HD
ENDBRANCH   2  22
BRANCH   6  24
ATOM     24  O   UNL     1     -27.804   0.276   5.717  1.00  0.00    -0.507 OA
ATOM     25  H   UNL     1     -27.625   1.057   5.105  1.00  0.00     0.293 HD
ENDBRANCH   6  24
BRANCH   8  26
ATOM     26  O   UNL     1     -25.017  -3.344   4.297  1.00  0.00    -0.508 OA
ATOM     27  H   UNL     1     -25.271  -4.324   4.285  1.00  0.00     0.293 HD
ENDBRANCH   8  26
TORSDOF 6
ENDMDL
MODEL 8
REMARK VINA RESULT:    -6.212      2.916      4.643
REMARK INTER + INTRA:          -7.743
REMARK INTER:                  -7.419
REMARK INTRA:                  -0.325
REMARK UNBOUND:                -0.261
REMARK SMILES O=c1c(O)c(-c2ccc(O)c(O)c2)oc2cc(O)cc(O)c12
REMARK SMILES IDX 5 1 3 2 2 3 1 4 22 5 20 6 19 7 17 8 16 9 15 10 14 11 6 12
REMARK SMILES IDX 7 13 8 14 9 15 13 16 11 17 10 18 12 20 4 22 21 24 18 26
REMARK H PARENT 10 19 12 21 4 23 21 25 18 27
REMARK Flexibility Score: inf
ROOT
ATOM      1  C   UNL     1     -26.164  -1.135   9.354  1.00  0.00     0.180 A 
ATOM      2  C   UNL     1     -27.045  -2.201   9.603  1.00  0.00     0.208 A 
ATOM      3  C   UNL     1     -27.402  -3.050   8.544  1.00  0.00     0.238 A 
ATOM      4  O   UNL     1     -28.132  -4.046   8.788  1.00  0.00    -0.285 OA
ATOM      5  C   UNL     1     -26.919  -2.791   7.238  1.00  0.00     0.111 A 
ATOM      6  C   UNL     1     -27.251  -3.559   6.081  1.00  0.00     0.134 A 
ATOM      7  C   UNL     1     -26.628  -3.272   4.859  1.00  0.00     0.093 A 
ATOM      8  C   UNL     1     -25.736  -2.208   4.737  1.00  0.00     0.123 A 
ATOM      9  C   UNL     1     -25.446  -1.416   5.849  1.00  0.00     0.094 A 
ATOM     10  C   UNL     1     -26.021  -1.700   7.090  1.00  0.00     0.146 A 
ATOM     11  O   UNL     1     -25.700  -0.935   8.127  1.00  0.00    -0.452 OA
ENDROOT
BRANCH   1  12
ATOM     12  C   UNL     1     -25.730  -0.205  10.423  1.00  0.00     0.025 A 
ATOM     13  C   UNL     1     -26.494   0.941  10.693  1.00  0.00     0.016 A 
ATOM     14  C   UNL     1     -26.093   1.843  11.681  1.00  0.00     0.051 A 
ATOM     15  C   UNL     1     -24.912   1.621  12.402  1.00  0.00     0.157 A 
ATOM     16  C   UNL     1     -24.534  -0.414  11.135  1.00  0.00     0.062 A 
ATOM     17  C   UNL     1     -24.130   0.492  12.125  1.00  0.00     0.158 A 
BRANCH  15  18
ATOM     18  O   UNL     1     -24.509   2.516  13.390  1.00  0.00    -0.504 OA
ATOM     19  H   UNL     1     -23.586   2.466  13.806  1.00  0.00     0.293 HD
ENDBRANCH  15  18
BRANCH  17  20
ATOM     20  O   UNL     1     -22.949   0.281  12.835  1.00  0.00    -0.504 OA
ATOM     21  H   UNL     1     -22.957  -0.086  13.779  1.00  0.00     0.293 HD
ENDBRANCH  17  20
ENDBRANCH   1  12
BRANCH   2  22
ATOM     22  O   UNL     1     -27.572  -2.394  10.882  1.00  0.00    -0.502 OA
ATOM     23  H   UNL     1     -28.521  -2.714  11.038  1.00  0.00     0.293 HD
ENDBRANCH   2  22
BRANCH   6  24
ATOM     24  O   UNL     1     -28.197  -4.588   6.069  1.00  0.00    -0.507 OA
ATOM     25  H   UNL     1     -29.164  -4.481   5.805  1.00  0.00     0.293 HD
ENDBRANCH   6  24
BRANCH   8  26
ATOM     26  O   UNL     1     -25.148  -1.941   3.503  1.00  0.00    -0.508 OA
ATOM     27  H   UNL     1     -25.684  -1.565   2.731  1.00  0.00     0.293 HD
ENDBRANCH   8  26
TORSDOF 6
ENDMDL
MODEL 9
REMARK VINA RESULT:    -6.167      1.606      2.194
REMARK INTER + INTRA:          -7.690
REMARK INTER:                  -7.424
REMARK INTRA:                  -0.266
REMARK UNBOUND:                -0.261
REMARK SMILES O=c1c(O)c(-c2ccc(O)c(O)c2)oc2cc(O)cc(O)c12
REMARK SMILES IDX 5 1 3 2 2 3 1 4 22 5 20 6 19 7 17 8 16 9 15 10 14 11 6 12
REMARK SMILES IDX 7 13 8 14 9 15 13 16 11 17 10 18 12 20 4 22 21 24 18 26
REMARK H PARENT 10 19 12 21 4 23 21 25 18 27
REMARK Flexibility Score: inf
ROOT
ATOM      1  C   UNL     1     -24.967  -1.089  10.012  1.00  0.00     0.180 A 
ATOM      2  C   UNL     1     -24.903  -1.916   8.878  1.00  0.00     0.208 A 
ATOM      3  C   UNL     1     -25.712  -1.616   7.771  1.00  0.00     0.238 A 
ATOM      4  O   UNL     1     -25.597  -2.315   6.731  1.00  0.00    -0.285 OA
ATOM      5  C   UNL     1     -26.617  -0.527   7.832  1.00  0.00     0.111 A 
ATOM      6  C   UNL     1     -27.516  -0.159   6.787  1.00  0.00     0.134 A 
ATOM      7  C   UNL     1     -28.290   1.002   6.919  1.00  0.00     0.093 A 
ATOM      8  C   UNL     1     -28.244   1.771   8.080  1.00  0.00     0.123 A 
ATOM      9  C   UNL     1     -27.408   1.390   9.131  1.00  0.00     0.094 A 
ATOM     10  C   UNL     1     -26.596   0.259   9.015  1.00  0.00     0.146 A 
ATOM     11  O   UNL     1     -25.800  -0.056  10.029  1.00  0.00    -0.452 OA
ENDROOT
BRANCH   1  12
ATOM     12  C   UNL     1     -24.134  -1.333  11.213  1.00  0.00     0.025 A 
ATOM     13  C   UNL     1     -24.493  -2.354  12.106  1.00  0.00     0.016 A 
ATOM     14  C   UNL     1     -23.735  -2.588  13.256  1.00  0.00     0.051 A 
ATOM     15  C   UNL     1     -22.617  -1.793  13.538  1.00  0.00     0.157 A 
ATOM     16  C   UNL     1     -23.022  -0.523  11.510  1.00  0.00     0.062 A 
ATOM     17  C   UNL     1     -22.262  -0.756  12.665  1.00  0.00     0.158 A 
BRANCH  15  18
ATOM     18  O   UNL     1     -21.856  -2.024  14.682  1.00  0.00    -0.504 OA
ATOM     19  H   UNL     1     -20.844  -1.984  14.662  1.00  0.00     0.293 HD
ENDBRANCH  15  18
BRANCH  17  20
ATOM     20  O   UNL     1     -21.157   0.042  12.955  1.00  0.00    -0.504 OA
ATOM     21  H   UNL     1     -20.514  -0.195  13.702  1.00  0.00     0.293 HD
ENDBRANCH  17  20
ENDBRANCH   1  12
BRANCH   2  22
ATOM     22  O   UNL     1     -24.061  -3.031   8.866  1.00  0.00    -0.502 OA
ATOM     23  H   UNL     1     -23.189  -3.050   8.351  1.00  0.00     0.293 HD
ENDBRANCH   2  22
BRANCH   6  24
ATOM     24  O   UNL     1     -27.709  -0.904   5.620  1.00  0.00    -0.507 OA
ATOM     25  H   UNL     1     -28.126  -1.821   5.582  1.00  0.00     0.293 HD
ENDBRANCH   6  24
BRANCH   8  26
ATOM     26  O   UNL     1     -29.039   2.910   8.184  1.00  0.00    -0.508 OA
ATOM     27  H   UNL     1     -28.761   3.701   8.752  1.00  0.00     0.293 HD
ENDBRANCH   8  26
TORSDOF 6
ENDMDL
