MODEL 1
REMARK VINA RESULT:    -5.010      0.000      0.000
REMARK INTER + INTRA:          -7.290
REMARK INTER:                  -7.060
REMARK INTRA:                  -0.230
REMARK UNBOUND:                -0.230
REMARK SMILES CC1=CCC(=C(C)C)C(=O)CC(C)=CCC1
REMARK SMILES IDX 12 1 14 2 13 3 15 4 16 5 2 6 1 7 3 8 11 10 9 11 10 12 5 13
REMARK SMILES IDX 6 14 7 15 8 16 4 17
REMARK H PARENT
REMARK Flexibility Score: 60.00
ROOT
ATOM      1  C   UNL     1      17.517 -31.698  21.688  1.00  0.00    -0.070 C 
ATOM      2  C   UNL     1      18.030 -32.097  20.489  1.00  0.00    -0.027 C 
ATOM      3  C   UNL     1      17.262 -30.217  21.843  1.00  0.00     0.039 C 
ENDROOT
BRANCH   2   4
ATOM      4  C   UNL     1      18.363 -33.502  20.034  1.00  0.00     0.032 C 
BRANCH   4   5
ATOM      5  C   UNL     1      17.340 -34.156  19.073  1.00  0.00     0.034 C 
BRANCH   5   6
ATOM      6  C   UNL     1      16.420 -35.167  19.724  1.00  0.00    -0.077 C 
ATOM      7  C   UNL     1      16.833 -36.617  19.732  1.00  0.00     0.039 C 
ATOM      8  C   UNL     1      15.219 -34.848  20.255  1.00  0.00    -0.023 CG0
ATOM      9  G   UNL     1      14.618 -33.465  20.380  1.00  0.00     0.000 G0
ENDBRANCH   5   6
ENDBRANCH   4   5
ENDBRANCH   2   4
BRANCH   1  10
ATOM     10  C   UNL     1      17.065 -32.586  22.851  1.00  0.00     0.111 C 
BRANCH  10  11
ATOM     11  C   UNL     1      15.702 -33.219  22.737  1.00  0.00     0.163 C 
ATOM     12  O   UNL     1      15.460 -34.150  23.550  1.00  0.00    -0.294 OA
BRANCH  11  13
ATOM     13  C   UNL     1      14.650 -32.779  21.737  1.00  0.00    -0.002 C 
ATOM     14  C   UNL     1      13.822 -31.707  21.989  1.00  0.00    -0.069 C 
ATOM     15  C   UNL     1      13.813 -30.969  23.313  1.00  0.00     0.039 C 
ATOM     16  C   UNL     1      12.845 -31.193  20.951  1.00  0.00     0.039 C 
BRANCH  13  17
ATOM     17  C   UNL     1      14.594 -33.478  20.371  1.00  0.00     0.066 CG0
ATOM     18  G   UNL     1      15.218 -34.853  20.272  1.00  0.00     0.000 G0
ENDBRANCH  13  17
ENDBRANCH  11  13
ENDBRANCH  10  11
ENDBRANCH   1  10
TORSDOF 0
ENDMDL
MODEL 2
REMARK VINA RESULT:    -4.660      2.143      4.841
REMARK INTER + INTRA:          -6.797
REMARK INTER:                  -6.568
REMARK INTRA:                  -0.229
REMARK UNBOUND:                -0.230
REMARK SMILES CC1=CCC(=C(C)C)C(=O)CC(C)=CCC1
REMARK SMILES IDX 12 1 14 2 13 3 15 4 16 5 2 6 1 7 3 8 11 10 9 11 10 12 5 13
REMARK SMILES IDX 6 14 7 15 8 16 4 17
REMARK H PARENT
REMARK Flexibility Score: 60.00
ROOT
ATOM      1  C   UNL     1      15.699 -33.993  23.459  1.00  0.00    -0.070 C 
ATOM      2  C   UNL     1      14.933 -33.318  24.363  1.00  0.00    -0.027 C 
ATOM      3  C   UNL     1      16.999 -34.558  23.979  1.00  0.00     0.039 C 
ENDROOT
BRANCH   2   4
ATOM      4  C   UNL     1      13.583 -32.669  24.147  1.00  0.00     0.032 C 
BRANCH   4   5
ATOM      5  C   UNL     1      13.612 -31.161  23.795  1.00  0.00     0.034 C 
BRANCH   5   6
ATOM      6  C   UNL     1      13.361 -30.848  22.336  1.00  0.00    -0.077 C 
ATOM      7  C   UNL     1      11.935 -30.706  21.865  1.00  0.00     0.039 C 
ATOM      8  C   UNL     1      14.345 -30.739  21.417  1.00  0.00    -0.023 CG0
ATOM      9  G   UNL     1      15.836 -30.817  21.666  1.00  0.00     0.000 G0
ENDBRANCH   5   6
ENDBRANCH   4   5
ENDBRANCH   2   4
BRANCH   1  10
ATOM     10  C   UNL     1      15.342 -34.342  22.011  1.00  0.00     0.111 C 
BRANCH  10  11
ATOM     11  C   UNL     1      15.745 -33.350  20.950  1.00  0.00     0.163 C 
ATOM     12  O   UNL     1      15.341 -33.600  19.784  1.00  0.00    -0.294 OA
BRANCH  11  13
ATOM     13  C   UNL     1      16.564 -32.105  21.229  1.00  0.00    -0.002 C 
ATOM     14  C   UNL     1      17.924 -32.073  21.005  1.00  0.00    -0.069 C 
ATOM     15  C   UNL     1      18.716 -33.294  20.582  1.00  0.00     0.039 C 
ATOM     16  C   UNL     1      18.731 -30.801  21.175  1.00  0.00     0.039 C 
BRANCH  13  17
ATOM     17  C   UNL     1      15.835 -30.825  21.662  1.00  0.00     0.066 CG0
ATOM     18  G   UNL     1      14.345 -30.758  21.407  1.00  0.00     0.000 G0
ENDBRANCH  13  17
ENDBRANCH  11  13
ENDBRANCH  10  11
ENDBRANCH   1  10
TORSDOF 0
ENDMDL
MODEL 3
REMARK VINA RESULT:    -4.384      1.726      3.233
REMARK INTER + INTRA:          -6.408
REMARK INTER:                  -6.172
REMARK INTRA:                  -0.237
REMARK UNBOUND:                -0.230
REMARK SMILES CC1=CCC(=C(C)C)C(=O)CC(C)=CCC1
REMARK SMILES IDX 12 1 14 2 13 3 15 4 16 5 2 6 1 7 3 8 11 10 9 11 10 12 5 13
REMARK SMILES IDX 6 14 7 15 8 16 4 17
REMARK H PARENT
REMARK Flexibility Score: 60.00
ROOT
ATOM      1  C   UNL     1      14.672 -33.328  21.132  1.00  0.00    -0.070 C 
ATOM      2  C   UNL     1      14.884 -34.124  20.046  1.00  0.00    -0.027 C 
ATOM      3  C   UNL     1      13.869 -32.071  20.890  1.00  0.00     0.039 C 
ENDROOT
BRANCH   2   4
ATOM      4  C   UNL     1      15.622 -35.444  19.982  1.00  0.00     0.032 C 
BRANCH   4   5
ATOM      5  C   UNL     1      17.131 -35.353  19.650  1.00  0.00     0.034 C 
BRANCH   5   6
ATOM      6  C   UNL     1      18.052 -35.569  20.831  1.00  0.00    -0.077 C 
ATOM      7  C   UNL     1      18.368 -36.984  21.248  1.00  0.00     0.039 C 
ATOM      8  C   UNL     1      18.568 -34.562  21.569  1.00  0.00    -0.023 CG0
ATOM      9  G   UNL     1      18.407 -33.078  21.320  1.00  0.00     0.000 G0
ENDBRANCH   5   6
ENDBRANCH   4   5
ENDBRANCH   2   4
BRANCH   1  10
ATOM     10  C   UNL     1      15.053 -33.615  22.587  1.00  0.00     0.111 C 
BRANCH  10  11
ATOM     11  C   UNL     1      16.414 -33.151  23.040  1.00  0.00     0.163 C 
ATOM     12  O   UNL     1      16.756 -33.503  24.200  1.00  0.00    -0.294 OA
BRANCH  11  13
ATOM     13  C   UNL     1      17.354 -32.331  22.178  1.00  0.00    -0.002 C 
ATOM     14  C   UNL     1      17.351 -30.954  22.218  1.00  0.00    -0.069 C 
ATOM     15  C   UNL     1      16.342 -30.158  23.022  1.00  0.00     0.039 C 
ATOM     16  C   UNL     1      18.361 -30.130  21.444  1.00  0.00     0.039 C 
BRANCH  13  17
ATOM     17  C   UNL     1      18.407 -33.064  21.333  1.00  0.00     0.066 CG0
ATOM     18  G   UNL     1      18.566 -34.551  21.564  1.00  0.00     0.000 G0
ENDBRANCH  13  17
ENDBRANCH  11  13
ENDBRANCH  10  11
ENDBRANCH   1  10
TORSDOF 0
ENDMDL
MODEL 4
REMARK VINA RESULT:    -4.234      1.619      4.189
REMARK INTER + INTRA:          -6.197
REMARK INTER:                  -5.729
REMARK INTRA:                  -0.467
REMARK UNBOUND:                -0.230
REMARK SMILES CC1=CCC(=C(C)C)C(=O)CC(C)=CCC1
REMARK SMILES IDX 12 1 14 2 13 3 15 4 16 5 2 6 1 7 3 8 11 10 9 11 10 12 5 13
REMARK SMILES IDX 6 14 7 15 8 16 4 17
REMARK H PARENT
REMARK Flexibility Score: 60.00
ROOT
ATOM      1  C   UNL     1      16.996 -29.969  22.426  1.00  0.00    -0.070 C 
ATOM      2  C   UNL     1      15.715 -29.503  22.429  1.00  0.00    -0.027 C 
ATOM      3  C   UNL     1      17.820 -29.645  21.203  1.00  0.00     0.039 C 
ENDROOT
BRANCH   2   4
ATOM      4  C   UNL     1      14.668 -29.645  23.514  1.00  0.00     0.032 C 
BRANCH   4   5
ATOM      5  C   UNL     1      13.955 -31.018  23.581  1.00  0.00     0.034 C 
BRANCH   5   6
ATOM      6  C   UNL     1      13.786 -31.708  22.244  1.00  0.00    -0.077 C 
ATOM      7  C   UNL     1      12.811 -31.126  21.252  1.00  0.00     0.039 C 
ATOM      8  C   UNL     1      14.426 -32.850  21.909  1.00  0.00    -0.023 CG0
ATOM      9  G   UNL     1      15.459 -33.589  22.730  1.00  0.00     0.000 G0
ENDBRANCH   5   6
ENDBRANCH   4   5
ENDBRANCH   2   4
BRANCH   1  10
ATOM     10  C   UNL     1      17.730 -30.684  23.564  1.00  0.00     0.111 C 
BRANCH  10  11
ATOM     11  C   UNL     1      17.407 -32.141  23.777  1.00  0.00     0.163 C 
ATOM     12  O   UNL     1      17.543 -32.567  24.955  1.00  0.00    -0.294 OA
BRANCH  11  13
ATOM     13  C   UNL     1      16.922 -33.065  22.677  1.00  0.00    -0.002 C 
ATOM     14  C   UNL     1      17.775 -33.530  21.700  1.00  0.00    -0.069 C 
ATOM     15  C   UNL     1      19.213 -33.068  21.577  1.00  0.00     0.039 C 
ATOM     16  C   UNL     1      17.325 -34.541  20.663  1.00  0.00     0.039 C 
BRANCH  13  17
ATOM     17  C   UNL     1      15.475 -33.578  22.730  1.00  0.00     0.066 CG0
ATOM     18  G   UNL     1      14.446 -32.831  21.911  1.00  0.00     0.000 G0
ENDBRANCH  13  17
ENDBRANCH  11  13
ENDBRANCH  10  11
ENDBRANCH   1  10
TORSDOF 0
ENDMDL
MODEL 5
REMARK VINA RESULT:    -4.230      1.855      2.426
REMARK INTER + INTRA:          -6.191
REMARK INTER:                  -6.251
REMARK INTRA:                   0.060
REMARK UNBOUND:                -0.230
REMARK SMILES CC1=CCC(=C(C)C)C(=O)CC(C)=CCC1
REMARK SMILES IDX 12 1 14 2 13 3 15 4 16 5 2 6 1 7 3 8 11 10 9 11 10 12 5 13
REMARK SMILES IDX 6 14 7 15 8 16 4 17
REMARK H PARENT
REMARK Flexibility Score: 60.00
ROOT
ATOM      1  C   UNL     1      18.881 -30.944  21.403  1.00  0.00    -0.070 C 
ATOM      2  C   UNL     1      19.117 -32.170  20.857  1.00  0.00    -0.027 C 
ATOM      3  C   UNL     1      20.099 -30.101  21.699  1.00  0.00     0.039 C 
ENDROOT
BRANCH   2   4
ATOM      4  C   UNL     1      18.109 -33.217  20.433  1.00  0.00     0.032 C 
BRANCH   4   5
ATOM      5  C   UNL     1      17.329 -33.900  21.583  1.00  0.00     0.034 C 
BRANCH   5   6
ATOM      6  C   UNL     1      15.850 -34.087  21.318  1.00  0.00    -0.077 C 
ATOM      7  C   UNL     1      15.431 -34.970  20.169  1.00  0.00     0.039 C 
ATOM      8  C   UNL     1      14.881 -33.465  22.025  1.00  0.00    -0.023 CG0
ATOM      9  G   UNL     1      15.068 -32.565  23.226  1.00  0.00     0.000 G0
ENDBRANCH   5   6
ENDBRANCH   4   5
ENDBRANCH   2   4
BRANCH   1  10
ATOM     10  C   UNL     1      17.524 -30.277  21.646  1.00  0.00     0.111 C 
BRANCH  10  11
ATOM     11  C   UNL     1      16.807 -30.634  22.923  1.00  0.00     0.163 C 
ATOM     12  O   UNL     1      17.481 -30.517  23.981  1.00  0.00    -0.294 OA
BRANCH  11  13
ATOM     13  C   UNL     1      15.361 -31.085  22.979  1.00  0.00    -0.002 C 
ATOM     14  C   UNL     1      14.326 -30.220  22.697  1.00  0.00    -0.069 C 
ATOM     15  C   UNL     1      14.538 -28.744  22.430  1.00  0.00     0.039 C 
ATOM     16  C   UNL     1      12.886 -30.690  22.642  1.00  0.00     0.039 C 
BRANCH  13  17
ATOM     17  C   UNL     1      15.062 -32.568  23.245  1.00  0.00     0.066 CG0
ATOM     18  G   UNL     1      14.868 -33.461  22.040  1.00  0.00     0.000 G0
ENDBRANCH  13  17
ENDBRANCH  11  13
ENDBRANCH  10  11
ENDBRANCH   1  10
TORSDOF 0
ENDMDL
MODEL 6
REMARK VINA RESULT:    -4.225      1.487      4.082
REMARK INTER + INTRA:          -6.183
REMARK INTER:                  -5.928
REMARK INTRA:                  -0.255
REMARK UNBOUND:                -0.230
REMARK SMILES CC1=CCC(=C(C)C)C(=O)CC(C)=CCC1
REMARK SMILES IDX 12 1 14 2 13 3 15 4 16 5 2 6 1 7 3 8 11 10 9 11 10 12 5 13
REMARK SMILES IDX 6 14 7 15 8 16 4 17
REMARK H PARENT
REMARK Flexibility Score: 60.00
ROOT
ATOM      1  C   UNL     1      17.546 -31.423  22.715  1.00  0.00    -0.070 C 
ATOM      2  C   UNL     1      17.247 -30.218  22.153  1.00  0.00    -0.027 C 
ATOM      3  C   UNL     1      18.829 -32.073  22.253  1.00  0.00     0.039 C 
ENDROOT
BRANCH   2   4
ATOM      4  C   UNL     1      16.057 -29.324  22.431  1.00  0.00     0.032 C 
BRANCH   4   5
ATOM      5  C   UNL     1      14.777 -29.640  21.620  1.00  0.00     0.034 C 
BRANCH   5   6
ATOM      6  C   UNL     1      13.707 -30.383  22.391  1.00  0.00    -0.077 C 
ATOM      7  C   UNL     1      12.841 -29.606  23.351  1.00  0.00     0.039 C 
ATOM      8  C   UNL     1      13.517 -31.718  22.305  1.00  0.00    -0.023 CG0
ATOM      9  G   UNL     1      14.245 -32.684  21.396  1.00  0.00     0.000 G0
ENDBRANCH   5   6
ENDBRANCH   4   5
ENDBRANCH   2   4
BRANCH   1  10
ATOM     10  C   UNL     1      16.795 -32.139  23.841  1.00  0.00     0.111 C 
BRANCH  10  11
ATOM     11  C   UNL     1      15.822 -33.217  23.435  1.00  0.00     0.163 C 
ATOM     12  O   UNL     1      15.326 -33.891  24.377  1.00  0.00    -0.294 OA
BRANCH  11  13
ATOM     13  C   UNL     1      15.420 -33.491  21.999  1.00  0.00    -0.002 C 
ATOM     14  C   UNL     1      16.004 -34.503  21.269  1.00  0.00    -0.069 C 
ATOM     15  C   UNL     1      17.160 -35.332  21.792  1.00  0.00     0.039 C 
ATOM     16  C   UNL     1      15.531 -34.855  19.873  1.00  0.00     0.039 C 
BRANCH  13  17
ATOM     17  C   UNL     1      14.256 -32.692  21.395  1.00  0.00     0.066 CG0
ATOM     18  G   UNL     1      13.524 -31.736  22.311  1.00  0.00     0.000 G0
ENDBRANCH  13  17
ENDBRANCH  11  13
ENDBRANCH  10  11
ENDBRANCH   1  10
TORSDOF 0
ENDMDL
MODEL 7
REMARK VINA RESULT:    -4.133      2.288      5.098
REMARK INTER + INTRA:          -6.055
REMARK INTER:                  -5.988
REMARK INTRA:                  -0.067
REMARK UNBOUND:                -0.230
REMARK SMILES CC1=CCC(=C(C)C)C(=O)CC(C)=CCC1
REMARK SMILES IDX 12 1 14 2 13 3 15 4 16 5 2 6 1 7 3 8 11 10 9 11 10 12 5 13
REMARK SMILES IDX 6 14 7 15 8 16 4 17
REMARK H PARENT
REMARK Flexibility Score: 60.00
ROOT
ATOM      1  C   UNL     1      15.206 -34.085  21.043  1.00  0.00    -0.070 C 
ATOM      2  C   UNL     1      14.269 -33.252  20.508  1.00  0.00    -0.027 C 
ATOM      3  C   UNL     1      15.670 -35.219  20.160  1.00  0.00     0.039 C 
ENDROOT
BRANCH   2   4
ATOM      4  C   UNL     1      13.637 -32.027  21.135  1.00  0.00     0.032 C 
BRANCH   4   5
ATOM      5  C   UNL     1      14.575 -30.809  21.319  1.00  0.00     0.034 C 
BRANCH   5   6
ATOM      6  C   UNL     1      14.682 -30.305  22.743  1.00  0.00    -0.077 C 
ATOM      7  C   UNL     1      13.431 -29.817  23.430  1.00  0.00     0.039 C 
ATOM      8  C   UNL     1      15.849 -30.218  23.417  1.00  0.00    -0.023 CG0
ATOM      9  G   UNL     1      17.212 -30.670  22.939  1.00  0.00     0.000 G0
ENDBRANCH   5   6
ENDBRANCH   4   5
ENDBRANCH   2   4
BRANCH   1  10
ATOM     10  C   UNL     1      15.924 -33.939  22.388  1.00  0.00     0.111 C 
BRANCH  10  11
ATOM     11  C   UNL     1      17.262 -33.244  22.375  1.00  0.00     0.163 C 
ATOM     12  O   UNL     1      18.079 -33.644  21.503  1.00  0.00    -0.294 OA
BRANCH  11  13
ATOM     13  C   UNL     1      17.635 -32.116  23.317  1.00  0.00    -0.002 C 
ATOM     14  C   UNL     1      18.421 -32.336  24.428  1.00  0.00    -0.069 C 
ATOM     15  C   UNL     1      18.868 -33.719  24.857  1.00  0.00     0.039 C 
ATOM     16  C   UNL     1      18.889 -31.198  25.312  1.00  0.00     0.039 C 
BRANCH  13  17
ATOM     17  C   UNL     1      17.218 -30.684  22.953  1.00  0.00     0.066 CG0
ATOM     18  G   UNL     1      15.858 -30.219  23.423  1.00  0.00     0.000 G0
ENDBRANCH  13  17
ENDBRANCH  11  13
ENDBRANCH  10  11
ENDBRANCH   1  10
TORSDOF 0
ENDMDL
MODEL 8
REMARK VINA RESULT:    -4.111      1.957      4.281
REMARK INTER + INTRA:          -6.023
REMARK INTER:                  -5.805
REMARK INTRA:                  -0.218
REMARK UNBOUND:                -0.230
REMARK SMILES CC1=CCC(=C(C)C)C(=O)CC(C)=CCC1
REMARK SMILES IDX 12 1 14 2 13 3 15 4 16 5 2 6 1 7 3 8 11 10 9 11 10 12 5 13
REMARK SMILES IDX 6 14 7 15 8 16 4 17
REMARK H PARENT
REMARK Flexibility Score: 60.00
ROOT
ATOM      1  C   UNL     1      18.117 -31.959  21.336  1.00  0.00    -0.070 C 
ATOM      2  C   UNL     1      17.649 -30.802  21.885  1.00  0.00    -0.027 C 
ATOM      3  C   UNL     1      19.473 -32.422  21.815  1.00  0.00     0.039 C 
ENDROOT
BRANCH   2   4
ATOM      4  C   UNL     1      16.329 -30.109  21.625  1.00  0.00     0.032 C 
BRANCH   4   5
ATOM      5  C   UNL     1      15.226 -30.348  22.686  1.00  0.00     0.034 C 
BRANCH   5   6
ATOM      6  C   UNL     1      14.201 -31.396  22.307  1.00  0.00    -0.077 C 
ATOM      7  C   UNL     1      12.966 -30.958  21.560  1.00  0.00     0.039 C 
ATOM      8  C   UNL     1      14.308 -32.699  22.646  1.00  0.00    -0.023 CG0
ATOM      9  G   UNL     1      15.463 -33.361  23.365  1.00  0.00     0.000 G0
ENDBRANCH   5   6
ENDBRANCH   4   5
ENDBRANCH   2   4
BRANCH   1  10
ATOM     10  C   UNL     1      17.382 -32.900  20.377  1.00  0.00     0.111 C 
BRANCH  10  11
ATOM     11  C   UNL     1      16.475 -33.933  20.996  1.00  0.00     0.163 C 
ATOM     12  O   UNL     1      15.761 -34.589  20.191  1.00  0.00    -0.294 OA
BRANCH  11  13
ATOM     13  C   UNL     1      16.411 -34.214  22.485  1.00  0.00    -0.002 C 
ATOM     14  C   UNL     1      17.260 -35.120  23.083  1.00  0.00    -0.069 C 
ATOM     15  C   UNL     1      18.227 -35.982  22.297  1.00  0.00     0.039 C 
ATOM     16  C   UNL     1      17.277 -35.325  24.585  1.00  0.00     0.039 C 
BRANCH  13  17
ATOM     17  C   UNL     1      15.455 -33.381  23.351  1.00  0.00     0.066 CG0
ATOM     18  G   UNL     1      14.303 -32.697  22.648  1.00  0.00     0.000 G0
ENDBRANCH  13  17
ENDBRANCH  11  13
ENDBRANCH  10  11
ENDBRANCH   1  10
TORSDOF 0
ENDMDL
MODEL 9
REMARK VINA RESULT:    -3.992      2.431      4.952
REMARK INTER + INTRA:          -5.855
REMARK INTER:                  -5.609
REMARK INTRA:                  -0.246
REMARK UNBOUND:                -0.230
REMARK SMILES CC1=CCC(=C(C)C)C(=O)CC(C)=CCC1
REMARK SMILES IDX 12 1 14 2 13 3 15 4 16 5 2 6 1 7 3 8 11 10 9 11 10 12 5 13
REMARK SMILES IDX 6 14 7 15 8 16 4 17
REMARK H PARENT
REMARK Flexibility Score: 60.00
ROOT
ATOM      1  C   UNL     1      16.601 -34.930  20.297  1.00  0.00    -0.070 C 
ATOM      2  C   UNL     1      15.273 -34.625  20.276  1.00  0.00    -0.027 C 
ATOM      3  C   UNL     1      16.953 -36.386  20.098  1.00  0.00     0.039 C 
ENDROOT
BRANCH   2   4
ATOM      4  C   UNL     1      14.622 -33.266  20.420  1.00  0.00     0.032 C 
BRANCH   4   5
ATOM      5  C   UNL     1      14.361 -32.799  21.873  1.00  0.00     0.034 C 
BRANCH   5   6
ATOM      6  C   UNL     1      15.331 -31.755  22.385  1.00  0.00    -0.077 C 
ATOM      7  C   UNL     1      15.159 -30.328  21.928  1.00  0.00     0.039 C 
ATOM      8  C   UNL     1      16.377 -32.041  23.191  1.00  0.00    -0.023 CG0
ATOM      9  G   UNL     1      16.724 -33.386  23.789  1.00  0.00     0.000 G0
ENDBRANCH   5   6
ENDBRANCH   4   5
ENDBRANCH   2   4
BRANCH   1  10
ATOM     10  C   UNL     1      17.781 -33.957  20.384  1.00  0.00     0.111 C 
BRANCH  10  11
ATOM     11  C   UNL     1      18.367 -33.717  21.752  1.00  0.00     0.163 C 
ATOM     12  O   UNL     1      19.409 -33.009  21.785  1.00  0.00    -0.294 OA
BRANCH  11  13
ATOM     13  C   UNL     1      17.762 -34.253  23.034  1.00  0.00    -0.002 C 
ATOM     14  C   UNL     1      18.182 -35.444  23.586  1.00  0.00    -0.069 C 
ATOM     15  C   UNL     1      19.181 -36.357  22.904  1.00  0.00     0.039 C 
ATOM     16  C   UNL     1      17.662 -35.931  24.923  1.00  0.00     0.039 C 
BRANCH  13  17
ATOM     17  C   UNL     1      16.741 -33.386  23.786  1.00  0.00     0.066 CG0
ATOM     18  G   UNL     1      16.389 -32.046  23.176  1.00  0.00     0.000 G0
ENDBRANCH  13  17
ENDBRANCH  11  13
ENDBRANCH  10  11
ENDBRANCH   1  10
TORSDOF 0
ENDMDL
