MODEL 1
REMARK VINA RESULT:    17.904      0.000      0.000
REMARK INTER + INTRA:          27.794
REMARK INTER:                  27.324
REMARK INTRA:                   0.470
REMARK UNBOUND:                 0.470
REMARK SMILES CC1=CCC[C@H](C)C(=O)C[C@@H](C(C)C)C(=O)C1
REMARK SMILES IDX 8 1 9 2 6 3 7 4 5 5 4 6 3 7 2 8 1 9 10 11 11 12 15 13 16 14
REMARK SMILES IDX 17 15 12 17 13 18 14 19
REMARK H PARENT
REMARK Flexibility Score: 70.00
ROOT
ATOM      1  C   UNL     1      35.760  13.739  43.002  1.00  0.00     0.136 C 
ATOM      2  O   UNL     1      36.866  13.360  42.641  1.00  0.00    -0.299 OA
ENDROOT
BRANCH   1   3
ATOM      3  C   UNL     1      35.642  14.934  43.928  1.00  0.00     0.053 C 
ATOM      4  C   UNL     1      36.880  15.826  43.767  1.00  0.00     0.016 C 
BRANCH   3   5
ATOM      5  C   UNL     1      34.345  15.729  43.635  1.00  0.00     0.015 C 
BRANCH   5   6
ATOM      6  C   UNL     1      34.536  17.108  42.954  1.00  0.00     0.028 C 
BRANCH   6   7
ATOM      7  C   UNL     1      33.785  17.359  41.661  1.00  0.00    -0.028 C 
ATOM      8  C   UNL     1      33.947  16.677  40.504  1.00  0.00    -0.070 CG0
ATOM      9  C   UNL     1      33.360  17.269  39.250  1.00  0.00     0.039 C 
ATOM     10  G   UNL     1      34.794  15.428  40.397  1.00  0.00     0.000 G0
ENDBRANCH   6   7
ENDBRANCH   5   6
ENDBRANCH   3   5
ENDBRANCH   1   3
BRANCH   1  11
ATOM     11  C   UNL     1      34.538  12.960  42.589  1.00  0.00     0.087 C 
BRANCH  11  12
ATOM     12  C   UNL     1      34.382  12.796  41.050  1.00  0.00     0.066 C 
BRANCH  12  13
ATOM     13  C   UNL     1      34.058  14.092  40.286  1.00  0.00     0.140 C 
ATOM     14  O   UNL     1      33.161  14.039  39.456  1.00  0.00    -0.299 OA
BRANCH  13  15
ATOM     15  C   UNL     1      34.815  15.406  40.372  1.00  0.00     0.106 CG0
ATOM     16  G   UNL     1      33.951  16.639  40.520  1.00  0.00     0.000 G0
ENDBRANCH  13  15
ENDBRANCH  12  13
BRANCH  12  17
ATOM     17  C   UNL     1      33.389  11.634  40.698  1.00  0.00    -0.006 C 
ATOM     18  C   UNL     1      34.112  10.317  40.361  1.00  0.00     0.008 C 
ATOM     19  C   UNL     1      32.387  11.368  41.839  1.00  0.00     0.008 C 
ENDBRANCH  12  17
ENDBRANCH  11  12
ENDBRANCH   1  11
TORSDOF 1
ENDMDL
MODEL 2
REMARK VINA RESULT:    20.576      2.660      5.445
REMARK INTER + INTRA:          31.872
REMARK INTER:                  29.873
REMARK INTRA:                   1.999
REMARK UNBOUND:                 0.470
REMARK SMILES CC1=CCC[C@H](C)C(=O)C[C@@H](C(C)C)C(=O)C1
REMARK SMILES IDX 8 1 9 2 6 3 7 4 5 5 4 6 3 7 2 8 1 9 10 11 11 12 15 13 16 14
REMARK SMILES IDX 17 15 12 17 13 18 14 19
REMARK H PARENT
REMARK Flexibility Score: 70.00
ROOT
ATOM      1  C   UNL     1      34.947  12.486  40.135  1.00  0.00     0.136 C 
ATOM      2  O   UNL     1      33.844  12.819  39.722  1.00  0.00    -0.299 OA
ENDROOT
BRANCH   1   3
ATOM      3  C   UNL     1      35.535  11.153  39.715  1.00  0.00     0.053 C 
ATOM      4  C   UNL     1      37.052  11.171  39.946  1.00  0.00     0.016 C 
BRANCH   3   5
ATOM      5  C   UNL     1      34.870   9.991  40.494  1.00  0.00     0.015 C 
BRANCH   5   6
ATOM      6  C   UNL     1      33.474   9.548  39.987  1.00  0.00     0.028 C 
BRANCH   6   7
ATOM      7  C   UNL     1      32.260  10.158  40.660  1.00  0.00    -0.028 C 
ATOM      8  C   UNL     1      32.243  10.761  41.871  1.00  0.00    -0.070 CG0
ATOM      9  C   UNL     1      30.903  11.013  42.512  1.00  0.00     0.039 C 
ATOM     10  G   UNL     1      33.499  11.068  42.656  1.00  0.00     0.000 G0
ENDBRANCH   6   7
ENDBRANCH   5   6
ENDBRANCH   3   5
ENDBRANCH   1   3
BRANCH   1  11
ATOM     11  C   UNL     1      35.665  13.369  41.123  1.00  0.00     0.087 C 
BRANCH  11  12
ATOM     12  C   UNL     1      35.324  13.066  42.610  1.00  0.00     0.066 C 
BRANCH  12  13
ATOM     13  C   UNL     1      33.919  12.486  42.851  1.00  0.00     0.140 C 
ATOM     14  O   UNL     1      33.077  13.244  43.311  1.00  0.00    -0.299 OA
BRANCH  13  15
ATOM     15  C   UNL     1      33.497  11.037  42.685  1.00  0.00     0.106 CG0
ATOM     16  G   UNL     1      32.238  10.820  41.875  1.00  0.00     0.000 G0
ENDBRANCH  13  15
ENDBRANCH  12  13
BRANCH  12  17
ATOM     17  C   UNL     1      35.624  14.301  43.528  1.00  0.00    -0.006 C 
ATOM     18  C   UNL     1      37.121  14.657  43.575  1.00  0.00     0.008 C 
ATOM     19  C   UNL     1      34.834  15.549  43.088  1.00  0.00     0.008 C 
ENDBRANCH  12  17
ENDBRANCH  11  12
ENDBRANCH   1  11
TORSDOF 1
ENDMDL
