MODEL 1
REMARK VINA RESULT:    -9.248      0.000      0.000
REMARK INTER + INTRA:         -17.048
REMARK INTER:                 -15.195
REMARK INTRA:                  -1.853
REMARK UNBOUND:                -1.853
REMARK SMILES C[C@@H]1O[C@@H](OC[C@H]2O[C@H](Oc3c(-c4ccc(O)c(O)c4)oc4cc(O)cc(O)c4c3=O)[C@@H](O)[C@H](O)[C@@H]2O)[C@H](O)[C@H](O)[C@H]1O
REMARK SMILES IDX 7 1 36 2 34 3 32 4 9 5 8 6 6 7 5 8 4 9 1 10 2 11 42 12 3 13
REMARK SMILES IDX 40 14 38 15 43 16 41 18 39 20 37 22 35 24 10 26 11 27 12 28
REMARK SMILES IDX 30 29 21 30 29 31 31 32 22 33 27 34 23 35 26 36 24 37 13 38
REMARK SMILES IDX 20 39 14 40 18 41 15 42 16 43 19 44 17 46 28 48 25 50 33 52
REMARK H PARENT 43 17 41 19 39 21 37 23 35 25 19 45 17 47 28 49 25 51 33 53
REMARK Flexibility Score: inf
ROOT
ATOM      1  C   UNL     1     -27.755 -25.488 107.593  1.00  0.00     0.180 C 
ATOM      2  C   UNL     1     -27.293 -26.858 107.029  1.00  0.00     0.177 C 
ATOM      3  C   UNL     1     -27.426 -26.917 105.494  1.00  0.00     0.180 C 
ATOM      4  C   UNL     1     -26.840 -25.643 104.848  1.00  0.00     0.214 C 
ATOM      5  C   UNL     1     -27.285 -24.362 105.584  1.00  0.00     0.339 C 
ATOM      6  O   UNL     1     -27.041 -24.425 106.982  1.00  0.00    -0.332 OA
ENDROOT
BRANCH   1   7
ATOM      7  C   UNL     1     -27.526 -25.421 109.107  1.00  0.00     0.198 C 
BRANCH   7   8
ATOM      8  O   UNL     1     -26.459 -26.282 109.460  1.00  0.00    -0.347 OA
BRANCH   8   9
ATOM      9  C   UNL     1     -26.532 -26.687 110.823  1.00  0.00     0.281 C 
ATOM     10  C   UNL     1     -22.917 -26.791 111.512  1.00  0.00     0.041 C 
ATOM     11  C   UNL     1     -24.230 -27.179 110.833  1.00  0.00     0.150 C 
ATOM     12  C   UNL     1     -24.447 -28.706 110.925  1.00  0.00     0.174 C 
ATOM     13  O   UNL     1     -25.282 -26.469 111.465  1.00  0.00    -0.344 OA
ATOM     14  C   UNL     1     -25.823 -29.083 110.351  1.00  0.00     0.179 C 
ATOM     15  C   UNL     1     -26.937 -28.176 110.928  1.00  0.00     0.202 C 
BRANCH  12  16
ATOM     16  O   UNL     1     -23.444 -29.360 110.196  1.00  0.00    -0.388 OA
ATOM     17  H   UNL     1     -22.756 -28.677 109.960  1.00  0.00     0.211 HD
ENDBRANCH  12  16
BRANCH  14  18
ATOM     18  O   UNL     1     -26.081 -30.440 110.615  1.00  0.00    -0.387 OA
ATOM     19  H   UNL     1     -25.953 -30.580 111.588  1.00  0.00     0.211 HD
ENDBRANCH  14  18
BRANCH  15  20
ATOM     20  O   UNL     1     -27.252 -28.533 112.254  1.00  0.00    -0.385 OA
ATOM     21  H   UNL     1     -26.771 -29.367 112.477  1.00  0.00     0.211 HD
ENDBRANCH  15  20
ENDBRANCH   8   9
ENDBRANCH   7   8
ENDBRANCH   1   7
BRANCH   2  22
ATOM     22  O   UNL     1     -27.966 -27.933 107.634  1.00  0.00    -0.387 OA
ATOM     23  H   UNL     1     -27.682 -27.981 108.578  1.00  0.00     0.211 HD
ENDBRANCH   2  22
BRANCH   3  24
ATOM     24  O   UNL     1     -28.748 -27.144 105.067  1.00  0.00    -0.387 OA
ATOM     25  H   UNL     1     -29.008 -26.412 104.450  1.00  0.00     0.211 HD
ENDBRANCH   3  24
BRANCH   5  26
ATOM     26  O   UNL     1     -28.662 -24.080 105.307  1.00  0.00    -0.454 OA
BRANCH  26  27
ATOM     27  C   UNL     1     -29.152 -22.798 105.012  1.00  0.00     0.214 A 
ATOM     28  C   UNL     1     -29.240 -22.385 103.668  1.00  0.00     0.180 A 
ATOM     29  C   UNL     1     -29.535 -21.899 106.022  1.00  0.00     0.239 A 
ATOM     30  O   UNL     1     -29.591 -21.139 103.374  1.00  0.00    -0.452 OA
ATOM     31  C   UNL     1     -29.912 -20.584 105.670  1.00  0.00     0.111 A 
ATOM     32  O   UNL     1     -29.545 -22.274 107.224  1.00  0.00    -0.285 OA
ATOM     33  C   UNL     1     -29.914 -20.240 104.296  1.00  0.00     0.146 A 
ATOM     34  C   UNL     1     -30.281 -19.607 106.624  1.00  0.00     0.134 A 
ATOM     35  C   UNL     1     -30.258 -18.949 103.894  1.00  0.00     0.094 A 
ATOM     36  C   UNL     1     -30.630 -18.316 106.200  1.00  0.00     0.093 A 
ATOM     37  C   UNL     1     -30.616 -17.983 104.843  1.00  0.00     0.123 A 
BRANCH  28  38
ATOM     38  C   UNL     1     -28.909 -23.302 102.562  1.00  0.00     0.025 A 
ATOM     39  C   UNL     1     -29.481 -24.581 102.521  1.00  0.00     0.062 A 
ATOM     40  C   UNL     1     -28.008 -22.916 101.559  1.00  0.00     0.016 A 
ATOM     41  C   UNL     1     -29.202 -25.450 101.456  1.00  0.00     0.158 A 
ATOM     42  C   UNL     1     -27.718 -23.782 100.504  1.00  0.00     0.051 A 
ATOM     43  C   UNL     1     -28.319 -25.048 100.440  1.00  0.00     0.157 A 
BRANCH  41  44
ATOM     44  O   UNL     1     -29.812 -26.702 101.425  1.00  0.00    -0.504 OA
ATOM     45  H   UNL     1     -30.470 -26.958 100.699  1.00  0.00     0.293 HD
ENDBRANCH  41  44
BRANCH  43  46
ATOM     46  O   UNL     1     -28.049 -25.899  99.370  1.00  0.00    -0.504 OA
ATOM     47  H   UNL     1     -27.716 -25.534  98.485  1.00  0.00     0.293 HD
ENDBRANCH  43  46
ENDBRANCH  28  38
BRANCH  34  48
ATOM     48  O   UNL     1     -30.300 -19.904 107.987  1.00  0.00    -0.507 OA
ATOM     49  H   UNL     1     -29.460 -20.185 108.482  1.00  0.00     0.293 HD
ENDBRANCH  34  48
BRANCH  37  50
ATOM     50  O   UNL     1     -30.958 -16.692 104.446  1.00  0.00    -0.508 OA
ATOM     51  H   UNL     1     -31.062 -16.448 103.465  1.00  0.00     0.293 HD
ENDBRANCH  37  50
ENDBRANCH  26  27
ENDBRANCH   5  26
BRANCH   4  52
ATOM     52  O   UNL     1     -25.433 -25.701 104.869  1.00  0.00    -0.384 OA
ATOM     53  H   UNL     1     -25.108 -24.762 104.857  1.00  0.00     0.211 HD
ENDBRANCH   4  52
TORSDOF 16
ENDMDL
MODEL 2
REMARK VINA RESULT:    -9.141      2.558      7.382
REMARK INTER + INTRA:         -16.872
REMARK INTER:                 -15.190
REMARK INTRA:                  -1.682
REMARK UNBOUND:                -1.853
REMARK SMILES C[C@@H]1O[C@@H](OC[C@H]2O[C@H](Oc3c(-c4ccc(O)c(O)c4)oc4cc(O)cc(O)c4c3=O)[C@@H](O)[C@H](O)[C@@H]2O)[C@H](O)[C@H](O)[C@H]1O
REMARK SMILES IDX 7 1 36 2 34 3 32 4 9 5 8 6 6 7 5 8 4 9 1 10 2 11 42 12 3 13
REMARK SMILES IDX 40 14 38 15 43 16 41 18 39 20 37 22 35 24 10 26 11 27 12 28
REMARK SMILES IDX 30 29 21 30 29 31 31 32 22 33 27 34 23 35 26 36 24 37 13 38
REMARK SMILES IDX 20 39 14 40 18 41 15 42 16 43 19 44 17 46 28 48 25 50 33 52
REMARK H PARENT 43 17 41 19 39 21 37 23 35 25 19 45 17 47 28 49 25 51 33 53
REMARK Flexibility Score: inf
ROOT
ATOM      1  C   UNL     1     -29.071 -20.827 105.687  1.00  0.00     0.180 C 
ATOM      2  C   UNL     1     -29.290 -20.009 104.386  1.00  0.00     0.177 C 
ATOM      3  C   UNL     1     -29.030 -20.860 103.127  1.00  0.00     0.180 C 
ATOM      4  C   UNL     1     -29.737 -22.228 103.239  1.00  0.00     0.214 C 
ATOM      5  C   UNL     1     -29.536 -22.873 104.626  1.00  0.00     0.339 C 
ATOM      6  O   UNL     1     -29.878 -21.994 105.689  1.00  0.00    -0.332 OA
ENDROOT
BRANCH   1   7
ATOM      7  C   UNL     1     -29.426 -19.988 106.920  1.00  0.00     0.198 C 
BRANCH   7   8
ATOM      8  O   UNL     1     -28.290 -19.881 107.759  1.00  0.00    -0.347 OA
BRANCH   8   9
ATOM      9  C   UNL     1     -27.917 -18.524 107.976  1.00  0.00     0.281 C 
ATOM     10  C   UNL     1     -24.651 -19.147 109.557  1.00  0.00     0.041 C 
ATOM     11  C   UNL     1     -26.171 -19.199 109.402  1.00  0.00     0.150 C 
ATOM     12  C   UNL     1     -26.856 -18.655 110.675  1.00  0.00     0.174 C 
ATOM     13  O   UNL     1     -26.527 -18.440 108.259  1.00  0.00    -0.344 OA
ATOM     14  C   UNL     1     -28.379 -18.595 110.476  1.00  0.00     0.179 C 
ATOM     15  C   UNL     1     -28.740 -17.912 109.134  1.00  0.00     0.202 C 
BRANCH  12  16
ATOM     16  O   UNL     1     -26.562 -19.501 111.756  1.00  0.00    -0.388 OA
ATOM     17  H   UNL     1     -26.833 -20.423 111.491  1.00  0.00     0.211 HD
ENDBRANCH  12  16
BRANCH  14  18
ATOM     18  O   UNL     1     -28.965 -17.924 111.563  1.00  0.00    -0.387 OA
ATOM     19  H   UNL     1     -29.945 -17.926 111.417  1.00  0.00     0.211 HD
ENDBRANCH  14  18
BRANCH  15  20
ATOM     20  O   UNL     1     -28.567 -16.516 109.207  1.00  0.00    -0.385 OA
ATOM     21  H   UNL     1     -28.557 -16.153 108.287  1.00  0.00     0.211 HD
ENDBRANCH  15  20
ENDBRANCH   8   9
ENDBRANCH   7   8
ENDBRANCH   1   7
BRANCH   2  22
ATOM     22  O   UNL     1     -28.521 -18.833 104.366  1.00  0.00    -0.387 OA
ATOM     23  H   UNL     1     -28.877 -18.223 105.056  1.00  0.00     0.211 HD
ENDBRANCH   2  22
BRANCH   3  24
ATOM     24  O   UNL     1     -27.659 -21.015 102.845  1.00  0.00    -0.387 OA
ATOM     25  H   UNL     1     -27.488 -20.673 101.929  1.00  0.00     0.211 HD
ENDBRANCH   3  24
BRANCH   5  26
ATOM     26  O   UNL     1     -28.195 -23.358 104.761  1.00  0.00    -0.454 OA
BRANCH  26  27
ATOM     27  C   UNL     1     -27.861 -24.562 105.403  1.00  0.00     0.214 A 
ATOM     28  C   UNL     1     -27.702 -25.732 104.635  1.00  0.00     0.180 A 
ATOM     29  C   UNL     1     -27.708 -24.642 106.798  1.00  0.00     0.239 A 
ATOM     30  O   UNL     1     -27.501 -26.900 105.233  1.00  0.00    -0.452 OA
ATOM     31  C   UNL     1     -27.485 -25.901 107.397  1.00  0.00     0.111 A 
ATOM     32  O   UNL     1     -27.763 -23.595 107.496  1.00  0.00    -0.285 OA
ATOM     33  C   UNL     1     -27.397 -27.033 106.549  1.00  0.00     0.146 A 
ATOM     34  C   UNL     1     -27.350 -26.076 108.794  1.00  0.00     0.134 A 
ATOM     35  C   UNL     1     -27.199 -28.304 107.090  1.00  0.00     0.094 A 
ATOM     36  C   UNL     1     -27.146 -27.361 109.319  1.00  0.00     0.093 A 
ATOM     37  C   UNL     1     -27.073 -28.473 108.475  1.00  0.00     0.123 A 
BRANCH  28  38
ATOM     38  C   UNL     1     -27.793 -25.701 103.165  1.00  0.00     0.025 A 
ATOM     39  C   UNL     1     -28.585 -26.643 102.494  1.00  0.00     0.062 A 
ATOM     40  C   UNL     1     -27.077 -24.750 102.424  1.00  0.00     0.016 A 
ATOM     41  C   UNL     1     -28.708 -26.603 101.098  1.00  0.00     0.158 A 
ATOM     42  C   UNL     1     -27.187 -24.714 101.033  1.00  0.00     0.051 A 
ATOM     43  C   UNL     1     -28.009 -25.632 100.363  1.00  0.00     0.157 A 
BRANCH  41  44
ATOM     44  O   UNL     1     -29.530 -27.532 100.462  1.00  0.00    -0.504 OA
ATOM     45  H   UNL     1     -30.538 -27.488 100.531  1.00  0.00     0.293 HD
ENDBRANCH  41  44
BRANCH  43  46
ATOM     46  O   UNL     1     -28.139 -25.574  98.976  1.00  0.00    -0.504 OA
ATOM     47  H   UNL     1     -27.386 -25.223  98.396  1.00  0.00     0.293 HD
ENDBRANCH  43  46
ENDBRANCH  28  38
BRANCH  34  48
ATOM     48  O   UNL     1     -27.423 -24.989 109.665  1.00  0.00    -0.507 OA
ATOM     49  H   UNL     1     -28.031 -24.199 109.480  1.00  0.00     0.293 HD
ENDBRANCH  34  48
BRANCH  37  50
ATOM     50  O   UNL     1     -26.878 -29.740 109.020  1.00  0.00    -0.508 OA
ATOM     51  H   UNL     1     -26.403 -30.474 108.500  1.00  0.00     0.293 HD
ENDBRANCH  37  50
ENDBRANCH  26  27
ENDBRANCH   5  26
BRANCH   4  52
ATOM     52  O   UNL     1     -31.119 -22.070 103.018  1.00  0.00    -0.384 OA
ATOM     53  H   UNL     1     -31.324 -21.109 103.166  1.00  0.00     0.211 HD
ENDBRANCH   4  52
TORSDOF 16
ENDMDL
MODEL 3
REMARK VINA RESULT:    -8.832      1.630      2.975
REMARK INTER + INTRA:         -16.364
REMARK INTER:                 -14.241
REMARK INTRA:                  -2.123
REMARK UNBOUND:                -1.853
REMARK SMILES C[C@@H]1O[C@@H](OC[C@H]2O[C@H](Oc3c(-c4ccc(O)c(O)c4)oc4cc(O)cc(O)c4c3=O)[C@@H](O)[C@H](O)[C@@H]2O)[C@H](O)[C@H](O)[C@H]1O
REMARK SMILES IDX 7 1 36 2 34 3 32 4 9 5 8 6 6 7 5 8 4 9 1 10 2 11 42 12 3 13
REMARK SMILES IDX 40 14 38 15 43 16 41 18 39 20 37 22 35 24 10 26 11 27 12 28
REMARK SMILES IDX 30 29 21 30 29 31 31 32 22 33 27 34 23 35 26 36 24 37 13 38
REMARK SMILES IDX 20 39 14 40 18 41 15 42 16 43 19 44 17 46 28 48 25 50 33 52
REMARK H PARENT 43 17 41 19 39 21 37 23 35 25 19 45 17 47 28 49 25 51 33 53
REMARK Flexibility Score: inf
ROOT
ATOM      1  C   UNL     1     -28.115 -25.308 107.641  1.00  0.00     0.180 C 
ATOM      2  C   UNL     1     -28.614 -25.167 109.104  1.00  0.00     0.177 C 
ATOM      3  C   UNL     1     -29.448 -23.886 109.302  1.00  0.00     0.180 C 
ATOM      4  C   UNL     1     -30.490 -23.736 108.173  1.00  0.00     0.214 C 
ATOM      5  C   UNL     1     -29.885 -24.021 106.783  1.00  0.00     0.339 C 
ATOM      6  O   UNL     1     -29.204 -25.267 106.732  1.00  0.00    -0.332 OA
ENDROOT
BRANCH   1   7
ATOM      7  C   UNL     1     -27.370 -26.633 107.449  1.00  0.00     0.198 C 
BRANCH   7   8
ATOM      8  O   UNL     1     -27.836 -27.578 108.395  1.00  0.00    -0.347 OA
BRANCH   8   9
ATOM      9  C   UNL     1     -27.032 -28.752 108.414  1.00  0.00     0.281 C 
ATOM     10  C   UNL     1     -27.969 -29.950 111.767  1.00  0.00     0.041 C 
ATOM     11  C   UNL     1     -27.382 -28.993 110.729  1.00  0.00     0.150 C 
ATOM     12  C   UNL     1     -25.925 -28.636 111.096  1.00  0.00     0.174 C 
ATOM     13  O   UNL     1     -27.457 -29.618 109.458  1.00  0.00    -0.344 OA
ATOM     14  C   UNL     1     -25.295 -27.771 109.991  1.00  0.00     0.179 C 
ATOM     15  C   UNL     1     -25.540 -28.387 108.592  1.00  0.00     0.202 C 
BRANCH  12  16
ATOM     16  O   UNL     1     -25.914 -27.925 112.305  1.00  0.00    -0.388 OA
ATOM     17  H   UNL     1     -25.361 -28.447 112.950  1.00  0.00     0.211 HD
ENDBRANCH  12  16
BRANCH  14  18
ATOM     18  O   UNL     1     -23.921 -27.616 110.248  1.00  0.00    -0.387 OA
ATOM     19  H   UNL     1     -23.833 -27.240 111.161  1.00  0.00     0.211 HD
ENDBRANCH  14  18
BRANCH  15  20
ATOM     20  O   UNL     1     -24.706 -29.501 108.370  1.00  0.00    -0.385 OA
ATOM     21  H   UNL     1     -25.158 -30.306 108.726  1.00  0.00     0.211 HD
ENDBRANCH  15  20
ENDBRANCH   8   9
ENDBRANCH   7   8
ENDBRANCH   1   7
BRANCH   2  22
ATOM     22  O   UNL     1     -27.559 -25.230 110.031  1.00  0.00    -0.387 OA
ATOM     23  H   UNL     1     -27.764 -24.610 110.771  1.00  0.00     0.211 HD
ENDBRANCH   2  22
BRANCH   3  24
ATOM     24  O   UNL     1     -28.653 -22.729 109.421  1.00  0.00    -0.387 OA
ATOM     25  H   UNL     1     -28.842 -22.310 110.301  1.00  0.00     0.211 HD
ENDBRANCH   3  24
BRANCH   5  26
ATOM     26  O   UNL     1     -29.033 -22.943 106.378  1.00  0.00    -0.454 OA
BRANCH  26  27
ATOM     27  C   UNL     1     -29.496 -21.773 105.756  1.00  0.00     0.214 A 
ATOM     28  C   UNL     1     -29.744 -21.780 104.369  1.00  0.00     0.180 A 
ATOM     29  C   UNL     1     -29.696 -20.580 106.473  1.00  0.00     0.239 A 
ATOM     30  O   UNL     1     -30.072 -20.655 103.744  1.00  0.00    -0.452 OA
ATOM     31  C   UNL     1     -30.055 -19.406 105.774  1.00  0.00     0.111 A 
ATOM     32  O   UNL     1     -29.562 -20.571 107.725  1.00  0.00    -0.285 OA
ATOM     33  C   UNL     1     -30.225 -19.495 104.371  1.00  0.00     0.146 A 
ATOM     34  C   UNL     1     -30.245 -18.158 106.413  1.00  0.00     0.134 A 
ATOM     35  C   UNL     1     -30.558 -18.361 103.629  1.00  0.00     0.094 A 
ATOM     36  C   UNL     1     -30.586 -17.030 105.651  1.00  0.00     0.093 A 
ATOM     37  C   UNL     1     -30.739 -17.126 104.265  1.00  0.00     0.123 A 
BRANCH  28  38
ATOM     38  C   UNL     1     -29.609 -23.013 103.574  1.00  0.00     0.025 A 
ATOM     39  C   UNL     1     -30.721 -23.844 103.381  1.00  0.00     0.062 A 
ATOM     40  C   UNL     1     -28.371 -23.376 103.024  1.00  0.00     0.016 A 
ATOM     41  C   UNL     1     -30.614 -25.002 102.597  1.00  0.00     0.158 A 
ATOM     42  C   UNL     1     -28.258 -24.534 102.253  1.00  0.00     0.051 A 
ATOM     43  C   UNL     1     -29.378 -25.348 102.026  1.00  0.00     0.157 A 
BRANCH  41  44
ATOM     44  O   UNL     1     -31.745 -25.791 102.395  1.00  0.00    -0.504 OA
ATOM     45  H   UNL     1     -32.388 -25.617 101.633  1.00  0.00     0.293 HD
ENDBRANCH  41  44
BRANCH  43  46
ATOM     46  O   UNL     1     -29.267 -26.488 101.232  1.00  0.00    -0.504 OA
ATOM     47  H   UNL     1     -28.563 -27.190 101.424  1.00  0.00     0.293 HD
ENDBRANCH  43  46
ENDBRANCH  28  38
BRANCH  34  48
ATOM     48  O   UNL     1     -30.094 -18.027 107.794  1.00  0.00    -0.507 OA
ATOM     49  H   UNL     1     -29.199 -17.797 108.212  1.00  0.00     0.293 HD
ENDBRANCH  34  48
BRANCH  37  50
ATOM     50  O   UNL     1     -31.069 -15.991 103.528  1.00  0.00    -0.508 OA
ATOM     51  H   UNL     1     -30.399 -15.550 102.904  1.00  0.00     0.293 HD
ENDBRANCH  37  50
ENDBRANCH  26  27
ENDBRANCH   5  26
BRANCH   4  52
ATOM     52  O   UNL     1     -31.556 -24.630 108.386  1.00  0.00    -0.384 OA
ATOM     53  H   UNL     1     -31.401 -25.054 109.272  1.00  0.00     0.211 HD
ENDBRANCH   4  52
TORSDOF 16
ENDMDL
MODEL 4
REMARK VINA RESULT:    -8.708      2.695      8.182
REMARK INTER + INTRA:         -16.161
REMARK INTER:                 -13.999
REMARK INTRA:                  -2.161
REMARK UNBOUND:                -1.853
REMARK SMILES C[C@@H]1O[C@@H](OC[C@H]2O[C@H](Oc3c(-c4ccc(O)c(O)c4)oc4cc(O)cc(O)c4c3=O)[C@@H](O)[C@H](O)[C@@H]2O)[C@H](O)[C@H](O)[C@H]1O
REMARK SMILES IDX 7 1 36 2 34 3 32 4 9 5 8 6 6 7 5 8 4 9 1 10 2 11 42 12 3 13
REMARK SMILES IDX 40 14 38 15 43 16 41 18 39 20 37 22 35 24 10 26 11 27 12 28
REMARK SMILES IDX 30 29 21 30 29 31 31 32 22 33 27 34 23 35 26 36 24 37 13 38
REMARK SMILES IDX 20 39 14 40 18 41 15 42 16 43 19 44 17 46 28 48 25 50 33 52
REMARK H PARENT 43 17 41 19 39 21 37 23 35 25 19 45 17 47 28 49 25 51 33 53
REMARK Flexibility Score: inf
ROOT
ATOM      1  C   UNL     1     -26.198 -25.025 105.423  1.00  0.00     0.180 C 
ATOM      2  C   UNL     1     -25.963 -26.499 104.996  1.00  0.00     0.177 C 
ATOM      3  C   UNL     1     -26.431 -27.489 106.081  1.00  0.00     0.180 C 
ATOM      4  C   UNL     1     -27.836 -27.109 106.595  1.00  0.00     0.214 C 
ATOM      5  C   UNL     1     -27.965 -25.596 106.865  1.00  0.00     0.339 C 
ATOM      6  O   UNL     1     -27.561 -24.808 105.752  1.00  0.00    -0.332 OA
ENDROOT
BRANCH   1   7
ATOM      7  C   UNL     1     -25.812 -24.066 104.291  1.00  0.00     0.198 C 
BRANCH   7   8
ATOM      8  O   UNL     1     -26.290 -24.575 103.059  1.00  0.00    -0.347 OA
BRANCH   8   9
ATOM      9  C   UNL     1     -27.016 -23.595 102.325  1.00  0.00     0.281 C 
ATOM     10  C   UNL     1     -30.356 -24.311 103.697  1.00  0.00     0.041 C 
ATOM     11  C   UNL     1     -29.054 -24.593 102.947  1.00  0.00     0.150 C 
ATOM     12  C   UNL     1     -29.359 -25.110 101.524  1.00  0.00     0.174 C 
ATOM     13  O   UNL     1     -28.295 -23.396 102.910  1.00  0.00    -0.344 OA
ATOM     14  C   UNL     1     -28.054 -25.280 100.728  1.00  0.00     0.179 C 
ATOM     15  C   UNL     1     -27.161 -24.021 100.845  1.00  0.00     0.202 C 
BRANCH  12  16
ATOM     16  O   UNL     1     -30.014 -26.348 101.612  1.00  0.00    -0.388 OA
ATOM     17  H   UNL     1     -30.571 -26.329 102.439  1.00  0.00     0.211 HD
ENDBRANCH  12  16
BRANCH  14  18
ATOM     18  O   UNL     1     -28.362 -25.565  99.386  1.00  0.00    -0.387 OA
ATOM     19  H   UNL     1     -28.937 -24.830  99.053  1.00  0.00     0.211 HD
ENDBRANCH  14  18
BRANCH  15  20
ATOM     20  O   UNL     1     -27.656 -22.967 100.052  1.00  0.00    -0.385 OA
ATOM     21  H   UNL     1     -28.547 -23.224  99.709  1.00  0.00     0.211 HD
ENDBRANCH  15  20
ENDBRANCH   8   9
ENDBRANCH   7   8
ENDBRANCH   1   7
BRANCH   2  22
ATOM     22  O   UNL     1     -24.625 -26.738 104.639  1.00  0.00    -0.387 OA
ATOM     23  H   UNL     1     -24.078 -25.990 104.979  1.00  0.00     0.211 HD
ENDBRANCH   2  22
BRANCH   3  24
ATOM     24  O   UNL     1     -25.514 -27.610 107.143  1.00  0.00    -0.387 OA
ATOM     25  H   UNL     1     -25.788 -26.987 107.865  1.00  0.00     0.211 HD
ENDBRANCH   3  24
BRANCH   5  26
ATOM     26  O   UNL     1     -27.243 -25.236 108.048  1.00  0.00    -0.454 OA
BRANCH  26  27
ATOM     27  C   UNL     1     -27.857 -24.823 109.242  1.00  0.00     0.214 A 
ATOM     28  C   UNL     1     -27.802 -25.662 110.372  1.00  0.00     0.180 A 
ATOM     29  C   UNL     1     -28.553 -23.605 109.336  1.00  0.00     0.239 A 
ATOM     30  O   UNL     1     -28.473 -25.344 111.473  1.00  0.00    -0.452 OA
ATOM     31  C   UNL     1     -29.246 -23.296 110.527  1.00  0.00     0.111 A 
ATOM     32  O   UNL     1     -28.545 -22.802 108.366  1.00  0.00    -0.285 OA
ATOM     33  C   UNL     1     -29.182 -24.228 111.592  1.00  0.00     0.146 A 
ATOM     34  C   UNL     1     -29.995 -22.108 110.696  1.00  0.00     0.134 A 
ATOM     35  C   UNL     1     -29.867 -23.983 112.784  1.00  0.00     0.094 A 
ATOM     36  C   UNL     1     -30.671 -21.876 111.904  1.00  0.00     0.093 A 
ATOM     37  C   UNL     1     -30.613 -22.808 112.944  1.00  0.00     0.123 A 
BRANCH  28  38
ATOM     38  C   UNL     1     -27.041 -26.923 110.353  1.00  0.00     0.025 A 
ATOM     39  C   UNL     1     -27.678 -28.118 109.992  1.00  0.00     0.062 A 
ATOM     40  C   UNL     1     -25.686 -26.946 110.714  1.00  0.00     0.016 A 
ATOM     41  C   UNL     1     -26.957 -29.320 109.936  1.00  0.00     0.158 A 
ATOM     42  C   UNL     1     -24.967 -28.141 110.671  1.00  0.00     0.051 A 
ATOM     43  C   UNL     1     -25.594 -29.332 110.273  1.00  0.00     0.157 A 
BRANCH  41  44
ATOM     44  O   UNL     1     -27.610 -30.485 109.541  1.00  0.00    -0.504 OA
ATOM     45  H   UNL     1     -27.199 -31.400 109.674  1.00  0.00     0.293 HD
ENDBRANCH  41  44
BRANCH  43  46
ATOM     46  O   UNL     1     -24.865 -30.518 110.204  1.00  0.00    -0.504 OA
ATOM     47  H   UNL     1     -24.175 -30.664 109.476  1.00  0.00     0.293 HD
ENDBRANCH  43  46
ENDBRANCH  28  38
BRANCH  34  48
ATOM     48  O   UNL     1     -30.079 -21.160 109.676  1.00  0.00    -0.507 OA
ATOM     49  H   UNL     1     -30.903 -21.080 109.091  1.00  0.00     0.293 HD
ENDBRANCH  34  48
BRANCH  37  50
ATOM     50  O   UNL     1     -31.299 -22.560 114.130  1.00  0.00    -0.508 OA
ATOM     51  H   UNL     1     -31.837 -21.709 114.265  1.00  0.00     0.293 HD
ENDBRANCH  37  50
ENDBRANCH  26  27
ENDBRANCH   5  26
BRANCH   4  52
ATOM     52  O   UNL     1     -28.807 -27.476 105.644  1.00  0.00    -0.384 OA
ATOM     53  H   UNL     1     -28.543 -28.368 105.295  1.00  0.00     0.211 HD
ENDBRANCH   4  52
TORSDOF 16
ENDMDL
MODEL 5
REMARK VINA RESULT:    -8.696      1.954      4.450
REMARK INTER + INTRA:         -16.140
REMARK INTER:                 -13.554
REMARK INTRA:                  -2.587
REMARK UNBOUND:                -1.853
REMARK SMILES C[C@@H]1O[C@@H](OC[C@H]2O[C@H](Oc3c(-c4ccc(O)c(O)c4)oc4cc(O)cc(O)c4c3=O)[C@@H](O)[C@H](O)[C@@H]2O)[C@H](O)[C@H](O)[C@H]1O
REMARK SMILES IDX 7 1 36 2 34 3 32 4 9 5 8 6 6 7 5 8 4 9 1 10 2 11 42 12 3 13
REMARK SMILES IDX 40 14 38 15 43 16 41 18 39 20 37 22 35 24 10 26 11 27 12 28
REMARK SMILES IDX 30 29 21 30 29 31 31 32 22 33 27 34 23 35 26 36 24 37 13 38
REMARK SMILES IDX 20 39 14 40 18 41 15 42 16 43 19 44 17 46 28 48 25 50 33 52
REMARK H PARENT 43 17 41 19 39 21 37 23 35 25 19 45 17 47 28 49 25 51 33 53
REMARK Flexibility Score: inf
ROOT
ATOM      1  C   UNL     1     -28.265 -25.797 105.499  1.00  0.00     0.180 C 
ATOM      2  C   UNL     1     -27.718 -26.049 104.069  1.00  0.00     0.177 C 
ATOM      3  C   UNL     1     -27.786 -24.777 103.200  1.00  0.00     0.180 C 
ATOM      4  C   UNL     1     -27.233 -23.561 103.973  1.00  0.00     0.214 C 
ATOM      5  C   UNL     1     -27.766 -23.501 105.419  1.00  0.00     0.339 C 
ATOM      6  O   UNL     1     -27.576 -24.723 106.120  1.00  0.00    -0.332 OA
ENDROOT
BRANCH   1   7
ATOM      7  C   UNL     1     -28.101 -27.048 106.370  1.00  0.00     0.198 C 
BRANCH   7   8
ATOM      8  O   UNL     1     -27.636 -26.671 107.653  1.00  0.00    -0.347 OA
BRANCH   8   9
ATOM      9  C   UNL     1     -27.861 -27.691 108.620  1.00  0.00     0.281 C 
ATOM     10  C   UNL     1     -26.083 -26.119 111.434  1.00  0.00     0.041 C 
ATOM     11  C   UNL     1     -26.250 -26.739 110.047  1.00  0.00     0.150 C 
ATOM     12  C   UNL     1     -25.240 -27.891 109.852  1.00  0.00     0.174 C 
ATOM     13  O   UNL     1     -27.586 -27.197 109.924  1.00  0.00    -0.344 OA
ATOM     14  C   UNL     1     -25.486 -28.593 108.506  1.00  0.00     0.179 C 
ATOM     15  C   UNL     1     -26.985 -28.930 108.318  1.00  0.00     0.202 C 
BRANCH  12  16
ATOM     16  O   UNL     1     -23.936 -27.371 109.873  1.00  0.00    -0.388 OA
ATOM     17  H   UNL     1     -23.361 -27.996 109.350  1.00  0.00     0.211 HD
ENDBRANCH  12  16
BRANCH  14  18
ATOM     18  O   UNL     1     -24.690 -29.749 108.431  1.00  0.00    -0.387 OA
ATOM     19  H   UNL     1     -24.080 -29.637 107.658  1.00  0.00     0.211 HD
ENDBRANCH  14  18
BRANCH  15  20
ATOM     20  O   UNL     1     -27.365 -30.034 109.108  1.00  0.00    -0.385 OA
ATOM     21  H   UNL     1     -27.310 -29.772 110.060  1.00  0.00     0.211 HD
ENDBRANCH  15  20
ENDBRANCH   8   9
ENDBRANCH   7   8
ENDBRANCH   1   7
BRANCH   2  22
ATOM     22  O   UNL     1     -28.366 -27.125 103.438  1.00  0.00    -0.387 OA
ATOM     23  H   UNL     1     -28.520 -26.880 102.494  1.00  0.00     0.211 HD
ENDBRANCH   2  22
BRANCH   3  24
ATOM     24  O   UNL     1     -29.078 -24.523 102.702  1.00  0.00    -0.387 OA
ATOM     25  H   UNL     1     -29.005 -23.862 101.965  1.00  0.00     0.211 HD
ENDBRANCH   3  24
BRANCH   5  26
ATOM     26  O   UNL     1     -29.143 -23.103 105.428  1.00  0.00    -0.454 OA
BRANCH  26  27
ATOM     27  C   UNL     1     -29.582 -21.820 105.791  1.00  0.00     0.214 A 
ATOM     28  C   UNL     1     -29.988 -21.579 107.118  1.00  0.00     0.180 A 
ATOM     29  C   UNL     1     -29.654 -20.769 104.859  1.00  0.00     0.239 A 
ATOM     30  O   UNL     1     -30.513 -20.406 107.452  1.00  0.00    -0.452 OA
ATOM     31  C   UNL     1     -30.210 -19.533 105.255  1.00  0.00     0.111 A 
ATOM     32  O   UNL     1     -29.219 -20.937 103.690  1.00  0.00    -0.285 OA
ATOM     33  C   UNL     1     -30.647 -19.401 106.596  1.00  0.00     0.146 A 
ATOM     34  C   UNL     1     -30.349 -18.434 104.375  1.00  0.00     0.134 A 
ATOM     35  C   UNL     1     -31.223 -18.207 107.035  1.00  0.00     0.094 A 
ATOM     36  C   UNL     1     -30.926 -17.241 104.835  1.00  0.00     0.093 A 
ATOM     37  C   UNL     1     -31.365 -17.125 106.157  1.00  0.00     0.123 A 
BRANCH  28  38
ATOM     38  C   UNL     1     -29.881 -22.622 108.153  1.00  0.00     0.025 A 
ATOM     39  C   UNL     1     -30.941 -23.517 108.354  1.00  0.00     0.062 A 
ATOM     40  C   UNL     1     -28.735 -22.717 108.957  1.00  0.00     0.016 A 
ATOM     41  C   UNL     1     -30.838 -24.536 109.312  1.00  0.00     0.158 A 
ATOM     42  C   UNL     1     -28.634 -23.722 109.919  1.00  0.00     0.051 A 
ATOM     43  C   UNL     1     -29.677 -24.643 110.096  1.00  0.00     0.157 A 
BRANCH  41  44
ATOM     44  O   UNL     1     -31.894 -25.433 109.465  1.00  0.00    -0.504 OA
ATOM     45  H   UNL     1     -32.481 -25.430 110.289  1.00  0.00     0.293 HD
ENDBRANCH  41  44
BRANCH  43  46
ATOM     46  O   UNL     1     -29.559 -25.664 111.038  1.00  0.00    -0.504 OA
ATOM     47  H   UNL     1     -29.204 -25.476 111.968  1.00  0.00     0.293 HD
ENDBRANCH  43  46
ENDBRANCH  28  38
BRANCH  34  48
ATOM     48  O   UNL     1     -29.927 -18.518 103.048  1.00  0.00    -0.507 OA
ATOM     49  H   UNL     1     -30.190 -19.297 102.454  1.00  0.00     0.293 HD
ENDBRANCH  34  48
BRANCH  37  50
ATOM     50  O   UNL     1     -31.942 -15.933 106.590  1.00  0.00    -0.508 OA
ATOM     51  H   UNL     1     -31.374 -15.124 106.827  1.00  0.00     0.293 HD
ENDBRANCH  37  50
ENDBRANCH  26  27
ENDBRANCH   5  26
BRANCH   4  52
ATOM     52  O   UNL     1     -25.827 -23.624 104.019  1.00  0.00    -0.384 OA
ATOM     53  H   UNL     1     -25.594 -24.272 104.735  1.00  0.00     0.211 HD
ENDBRANCH   4  52
TORSDOF 16
ENDMDL
MODEL 6
REMARK VINA RESULT:    -8.665      2.683      5.681
REMARK INTER + INTRA:         -16.089
REMARK INTER:                 -13.866
REMARK INTRA:                  -2.223
REMARK UNBOUND:                -1.853
REMARK SMILES C[C@@H]1O[C@@H](OC[C@H]2O[C@H](Oc3c(-c4ccc(O)c(O)c4)oc4cc(O)cc(O)c4c3=O)[C@@H](O)[C@H](O)[C@@H]2O)[C@H](O)[C@H](O)[C@H]1O
REMARK SMILES IDX 7 1 36 2 34 3 32 4 9 5 8 6 6 7 5 8 4 9 1 10 2 11 42 12 3 13
REMARK SMILES IDX 40 14 38 15 43 16 41 18 39 20 37 22 35 24 10 26 11 27 12 28
REMARK SMILES IDX 30 29 21 30 29 31 31 32 22 33 27 34 23 35 26 36 24 37 13 38
REMARK SMILES IDX 20 39 14 40 18 41 15 42 16 43 19 44 17 46 28 48 25 50 33 52
REMARK H PARENT 43 17 41 19 39 21 37 23 35 25 19 45 17 47 28 49 25 51 33 53
REMARK Flexibility Score: inf
ROOT
ATOM      1  C   UNL     1     -28.336 -25.698 109.880  1.00  0.00     0.180 C 
ATOM      2  C   UNL     1     -28.776 -24.418 110.639  1.00  0.00     0.177 C 
ATOM      3  C   UNL     1     -29.161 -23.283 109.669  1.00  0.00     0.180 C 
ATOM      4  C   UNL     1     -30.093 -23.811 108.558  1.00  0.00     0.214 C 
ATOM      5  C   UNL     1     -29.599 -25.151 107.974  1.00  0.00     0.339 C 
ATOM      6  O   UNL     1     -29.348 -26.123 108.980  1.00  0.00    -0.332 OA
ENDROOT
BRANCH   1   7
ATOM      7  C   UNL     1     -28.048 -26.839 110.862  1.00  0.00     0.198 C 
BRANCH   7   8
ATOM      8  O   UNL     1     -26.879 -26.538 111.603  1.00  0.00    -0.347 OA
BRANCH   8   9
ATOM      9  C   UNL     1     -25.813 -27.430 111.297  1.00  0.00     0.281 C 
ATOM     10  C   UNL     1     -24.967 -28.406 114.745  1.00  0.00     0.041 C 
ATOM     11  C   UNL     1     -25.150 -27.463 113.555  1.00  0.00     0.150 C 
ATOM     12  C   UNL     1     -23.850 -26.671 113.297  1.00  0.00     0.174 C 
ATOM     13  O   UNL     1     -25.515 -28.240 112.426  1.00  0.00    -0.344 OA
ATOM     14  C   UNL     1     -23.992 -25.813 112.029  1.00  0.00     0.179 C 
ATOM     15  C   UNL     1     -24.557 -26.645 110.852  1.00  0.00     0.202 C 
BRANCH  12  16
ATOM     16  O   UNL     1     -23.590 -25.838 114.396  1.00  0.00    -0.388 OA
ATOM     17  H   UNL     1     -22.957 -25.132 114.088  1.00  0.00     0.211 HD
ENDBRANCH  12  16
BRANCH  14  18
ATOM     18  O   UNL     1     -22.745 -25.250 111.705  1.00  0.00    -0.387 OA
ATOM     19  H   UNL     1     -22.904 -24.564 111.008  1.00  0.00     0.211 HD
ENDBRANCH  14  18
BRANCH  15  20
ATOM     20  O   UNL     1     -23.577 -27.502 110.314  1.00  0.00    -0.385 OA
ATOM     21  H   UNL     1     -23.411 -28.232 110.960  1.00  0.00     0.211 HD
ENDBRANCH  15  20
ENDBRANCH   8   9
ENDBRANCH   7   8
ENDBRANCH   1   7
BRANCH   2  22
ATOM     22  O   UNL     1     -27.802 -23.987 111.557  1.00  0.00    -0.387 OA
ATOM     23  H   UNL     1     -26.923 -24.316 111.249  1.00  0.00     0.211 HD
ENDBRANCH   2  22
BRANCH   3  24
ATOM     24  O   UNL     1     -28.041 -22.623 109.127  1.00  0.00    -0.387 OA
ATOM     25  H   UNL     1     -27.445 -22.354 109.873  1.00  0.00     0.211 HD
ENDBRANCH   3  24
BRANCH   5  26
ATOM     26  O   UNL     1     -28.446 -24.943 107.150  1.00  0.00    -0.454 OA
BRANCH  26  27
ATOM     27  C   UNL     1     -28.425 -25.170 105.765  1.00  0.00     0.214 A 
ATOM     28  C   UNL     1     -27.622 -26.205 105.247  1.00  0.00     0.180 A 
ATOM     29  C   UNL     1     -29.163 -24.374 104.871  1.00  0.00     0.239 A 
ATOM     30  O   UNL     1     -27.500 -26.361 103.934  1.00  0.00    -0.452 OA
ATOM     31  C   UNL     1     -29.014 -24.577 103.482  1.00  0.00     0.111 A 
ATOM     32  O   UNL     1     -29.951 -23.498 105.316  1.00  0.00    -0.285 OA
ATOM     33  C   UNL     1     -28.139 -25.603 103.051  1.00  0.00     0.146 A 
ATOM     34  C   UNL     1     -29.695 -23.802 102.513  1.00  0.00     0.134 A 
ATOM     35  C   UNL     1     -27.939 -25.832 101.689  1.00  0.00     0.094 A 
ATOM     36  C   UNL     1     -29.486 -24.050 101.149  1.00  0.00     0.093 A 
ATOM     37  C   UNL     1     -28.610 -25.058 100.734  1.00  0.00     0.123 A 
BRANCH  28  38
ATOM     38  C   UNL     1     -26.871 -27.109 106.135  1.00  0.00     0.025 A 
ATOM     39  C   UNL     1     -27.558 -27.910 107.057  1.00  0.00     0.062 A 
ATOM     40  C   UNL     1     -25.470 -27.161 106.084  1.00  0.00     0.016 A 
ATOM     41  C   UNL     1     -26.858 -28.800 107.885  1.00  0.00     0.158 A 
ATOM     42  C   UNL     1     -24.769 -28.036 106.914  1.00  0.00     0.051 A 
ATOM     43  C   UNL     1     -25.457 -28.868 107.811  1.00  0.00     0.157 A 
BRANCH  41  44
ATOM     44  O   UNL     1     -27.570 -29.609 108.768  1.00  0.00    -0.504 OA
ATOM     45  H   UNL     1     -28.326 -29.247 109.334  1.00  0.00     0.293 HD
ENDBRANCH  41  44
BRANCH  43  46
ATOM     46  O   UNL     1     -24.754 -29.762 108.618  1.00  0.00    -0.504 OA
ATOM     47  H   UNL     1     -24.708 -30.747 108.386  1.00  0.00     0.293 HD
ENDBRANCH  43  46
ENDBRANCH  28  38
BRANCH  34  48
ATOM     48  O   UNL     1     -30.572 -22.784 102.893  1.00  0.00    -0.507 OA
ATOM     49  H   UNL     1     -30.437 -22.259 103.750  1.00  0.00     0.293 HD
ENDBRANCH  34  48
BRANCH  37  50
ATOM     50  O   UNL     1     -28.411 -25.281  99.374  1.00  0.00    -0.508 OA
ATOM     51  H   UNL     1     -28.386 -24.514  98.708  1.00  0.00     0.293 HD
ENDBRANCH  37  50
ENDBRANCH  26  27
ENDBRANCH   5  26
BRANCH   4  52
ATOM     52  O   UNL     1     -31.389 -24.001 109.072  1.00  0.00    -0.384 OA
ATOM     53  H   UNL     1     -31.734 -24.844 108.675  1.00  0.00     0.211 HD
ENDBRANCH   4  52
TORSDOF 16
ENDMDL
MODEL 7
REMARK VINA RESULT:    -8.646      2.816      7.068
REMARK INTER + INTRA:         -16.059
REMARK INTER:                 -14.583
REMARK INTRA:                  -1.476
REMARK UNBOUND:                -1.853
REMARK SMILES C[C@@H]1O[C@@H](OC[C@H]2O[C@H](Oc3c(-c4ccc(O)c(O)c4)oc4cc(O)cc(O)c4c3=O)[C@@H](O)[C@H](O)[C@@H]2O)[C@H](O)[C@H](O)[C@H]1O
REMARK SMILES IDX 7 1 36 2 34 3 32 4 9 5 8 6 6 7 5 8 4 9 1 10 2 11 42 12 3 13
REMARK SMILES IDX 40 14 38 15 43 16 41 18 39 20 37 22 35 24 10 26 11 27 12 28
REMARK SMILES IDX 30 29 21 30 29 31 31 32 22 33 27 34 23 35 26 36 24 37 13 38
REMARK SMILES IDX 20 39 14 40 18 41 15 42 16 43 19 44 17 46 28 48 25 50 33 52
REMARK H PARENT 43 17 41 19 39 21 37 23 35 25 19 45 17 47 28 49 25 51 33 53
REMARK Flexibility Score: inf
ROOT
ATOM      1  C   UNL     1     -28.246 -24.122 102.035  1.00  0.00     0.180 C 
ATOM      2  C   UNL     1     -28.696 -25.406 101.287  1.00  0.00     0.177 C 
ATOM      3  C   UNL     1     -29.422 -26.388 102.227  1.00  0.00     0.180 C 
ATOM      4  C   UNL     1     -30.477 -25.649 103.077  1.00  0.00     0.214 C 
ATOM      5  C   UNL     1     -29.931 -24.330 103.661  1.00  0.00     0.339 C 
ATOM      6  O   UNL     1     -29.350 -23.495 102.668  1.00  0.00    -0.332 OA
ENDROOT
BRANCH   1   7
ATOM      7  C   UNL     1     -27.611 -23.123 101.062  1.00  0.00     0.198 C 
BRANCH   7   8
ATOM      8  O   UNL     1     -26.223 -23.385 100.957  1.00  0.00    -0.347 OA
BRANCH   8   9
ATOM      9  C   UNL     1     -25.570 -23.304 102.219  1.00  0.00     0.281 C 
ATOM     10  C   UNL     1     -23.410 -20.415 101.486  1.00  0.00     0.041 C 
ATOM     11  C   UNL     1     -23.965 -21.831 101.331  1.00  0.00     0.150 C 
ATOM     12  C   UNL     1     -22.818 -22.864 101.406  1.00  0.00     0.174 C 
ATOM     13  O   UNL     1     -24.922 -22.047 102.354  1.00  0.00    -0.344 OA
ATOM     14  C   UNL     1     -23.386 -24.293 101.371  1.00  0.00     0.179 C 
ATOM     15  C   UNL     1     -24.550 -24.456 102.379  1.00  0.00     0.202 C 
BRANCH  12  16
ATOM     16  O   UNL     1     -21.958 -22.679 100.313  1.00  0.00    -0.388 OA
ATOM     17  H   UNL     1     -21.329 -21.944 100.554  1.00  0.00     0.211 HD
ENDBRANCH  12  16
BRANCH  14  18
ATOM     18  O   UNL     1     -22.353 -25.210 101.631  1.00  0.00    -0.387 OA
ATOM     19  H   UNL     1     -21.523 -24.839 101.236  1.00  0.00     0.211 HD
ENDBRANCH  14  18
BRANCH  15  20
ATOM     20  O   UNL     1     -24.073 -24.542 103.702  1.00  0.00    -0.385 OA
ATOM     21  H   UNL     1     -23.085 -24.546 103.679  1.00  0.00     0.211 HD
ENDBRANCH  15  20
ENDBRANCH   8   9
ENDBRANCH   7   8
ENDBRANCH   1   7
BRANCH   2  22
ATOM     22  O   UNL     1     -27.626 -26.036 100.628  1.00  0.00    -0.387 OA
ATOM     23  H   UNL     1     -27.986 -26.804 100.124  1.00  0.00     0.211 HD
ENDBRANCH   2  22
BRANCH   3  24
ATOM     24  O   UNL     1     -28.538 -27.125 103.037  1.00  0.00    -0.387 OA
ATOM     25  H   UNL     1     -27.811 -26.520 103.338  1.00  0.00     0.211 HD
ENDBRANCH   3  24
BRANCH   5  26
ATOM     26  O   UNL     1     -29.007 -24.598 104.723  1.00  0.00    -0.454 OA
BRANCH  26  27
ATOM     27  C   UNL     1     -28.956 -23.860 105.917  1.00  0.00     0.214 A 
ATOM     28  C   UNL     1     -28.324 -24.418 107.046  1.00  0.00     0.180 A 
ATOM     29  C   UNL     1     -29.542 -22.587 106.029  1.00  0.00     0.239 A 
ATOM     30  O   UNL     1     -28.366 -23.787 108.213  1.00  0.00    -0.452 OA
ATOM     31  C   UNL     1     -29.558 -21.943 107.285  1.00  0.00     0.111 A 
ATOM     32  O   UNL     1     -30.039 -22.034 105.012  1.00  0.00    -0.285 OA
ATOM     33  C   UNL     1     -28.949 -22.606 108.378  1.00  0.00     0.146 A 
ATOM     34  C   UNL     1     -30.153 -20.676 107.493  1.00  0.00     0.134 A 
ATOM     35  C   UNL     1     -28.955 -22.023 109.647  1.00  0.00     0.094 A 
ATOM     36  C   UNL     1     -30.143 -20.104 108.774  1.00  0.00     0.093 A 
ATOM     37  C   UNL     1     -29.551 -20.772 109.849  1.00  0.00     0.123 A 
BRANCH  28  38
ATOM     38  C   UNL     1     -27.642 -25.722 106.975  1.00  0.00     0.025 A 
ATOM     39  C   UNL     1     -26.540 -25.888 106.125  1.00  0.00     0.062 A 
ATOM     40  C   UNL     1     -28.096 -26.809 107.736  1.00  0.00     0.016 A 
ATOM     41  C   UNL     1     -25.860 -27.113 106.074  1.00  0.00     0.158 A 
ATOM     42  C   UNL     1     -27.430 -28.033 107.679  1.00  0.00     0.051 A 
ATOM     43  C   UNL     1     -26.304 -28.191 106.858  1.00  0.00     0.157 A 
BRANCH  41  44
ATOM     44  O   UNL     1     -24.747 -27.238 105.245  1.00  0.00    -0.504 OA
ATOM     45  H   UNL     1     -24.616 -26.648 104.433  1.00  0.00     0.293 HD
ENDBRANCH  41  44
BRANCH  43  46
ATOM     46  O   UNL     1     -25.623 -29.407 106.826  1.00  0.00    -0.504 OA
ATOM     47  H   UNL     1     -26.073 -30.263 107.129  1.00  0.00     0.293 HD
ENDBRANCH  43  46
ENDBRANCH  28  38
BRANCH  34  48
ATOM     48  O   UNL     1     -30.758 -19.985 106.443  1.00  0.00    -0.507 OA
ATOM     49  H   UNL     1     -31.642 -19.503 106.563  1.00  0.00     0.293 HD
ENDBRANCH  34  48
BRANCH  37  50
ATOM     50  O   UNL     1     -29.561 -20.188 111.114  1.00  0.00    -0.508 OA
ATOM     51  H   UNL     1     -30.430 -19.920 111.568  1.00  0.00     0.293 HD
ENDBRANCH  37  50
ENDBRANCH  26  27
ENDBRANCH   5  26
BRANCH   4  52
ATOM     52  O   UNL     1     -31.604 -25.353 102.287  1.00  0.00    -0.384 OA
ATOM     53  H   UNL     1     -31.464 -25.798 101.410  1.00  0.00     0.211 HD
ENDBRANCH   4  52
TORSDOF 16
ENDMDL
MODEL 8
REMARK VINA RESULT:    -8.604      2.026      9.549
REMARK INTER + INTRA:         -15.989
REMARK INTER:                 -13.942
REMARK INTRA:                  -2.046
REMARK UNBOUND:                -1.853
REMARK SMILES C[C@@H]1O[C@@H](OC[C@H]2O[C@H](Oc3c(-c4ccc(O)c(O)c4)oc4cc(O)cc(O)c4c3=O)[C@@H](O)[C@H](O)[C@@H]2O)[C@H](O)[C@H](O)[C@H]1O
REMARK SMILES IDX 7 1 36 2 34 3 32 4 9 5 8 6 6 7 5 8 4 9 1 10 2 11 42 12 3 13
REMARK SMILES IDX 40 14 38 15 43 16 41 18 39 20 37 22 35 24 10 26 11 27 12 28
REMARK SMILES IDX 30 29 21 30 29 31 31 32 22 33 27 34 23 35 26 36 24 37 13 38
REMARK SMILES IDX 20 39 14 40 18 41 15 42 16 43 19 44 17 46 28 48 25 50 33 52
REMARK H PARENT 43 17 41 19 39 21 37 23 35 25 19 45 17 47 28 49 25 51 33 53
REMARK Flexibility Score: inf
ROOT
ATOM      1  C   UNL     1     -28.910 -21.846 103.852  1.00  0.00     0.180 C 
ATOM      2  C   UNL     1     -28.874 -22.516 102.451  1.00  0.00     0.177 C 
ATOM      3  C   UNL     1     -28.537 -24.017 102.545  1.00  0.00     0.180 C 
ATOM      4  C   UNL     1     -29.384 -24.697 103.641  1.00  0.00     0.214 C 
ATOM      5  C   UNL     1     -29.430 -23.865 104.939  1.00  0.00     0.339 C 
ATOM      6  O   UNL     1     -29.821 -22.518 104.707  1.00  0.00    -0.332 OA
ENDROOT
BRANCH   1   7
ATOM      7  C   UNL     1     -29.338 -20.379 103.740  1.00  0.00     0.198 C 
BRANCH   7   8
ATOM      8  O   UNL     1     -29.955 -19.975 104.949  1.00  0.00    -0.347 OA
BRANCH   8   9
ATOM      9  C   UNL     1     -29.353 -18.803 105.487  1.00  0.00     0.281 C 
ATOM     10  C   UNL     1     -31.779 -18.183 108.185  1.00  0.00     0.041 C 
ATOM     11  C   UNL     1     -31.287 -18.349 106.747  1.00  0.00     0.150 C 
ATOM     12  C   UNL     1     -31.677 -17.114 105.905  1.00  0.00     0.174 C 
ATOM     13  O   UNL     1     -29.882 -18.531 106.777  1.00  0.00    -0.344 OA
ATOM     14  C   UNL     1     -31.080 -17.224 104.492  1.00  0.00     0.179 C 
ATOM     15  C   UNL     1     -29.578 -17.595 104.547  1.00  0.00     0.202 C 
BRANCH  12  16
ATOM     16  O   UNL     1     -33.075 -17.039 105.814  1.00  0.00    -0.388 OA
ATOM     17  H   UNL     1     -33.308 -17.026 104.845  1.00  0.00     0.211 HD
ENDBRANCH  12  16
BRANCH  14  18
ATOM     18  O   UNL     1     -31.283 -16.014 103.806  1.00  0.00    -0.387 OA
ATOM     19  H   UNL     1     -31.308 -15.291 104.484  1.00  0.00     0.211 HD
ENDBRANCH  14  18
BRANCH  15  20
ATOM     20  O   UNL     1     -28.792 -16.491 104.930  1.00  0.00    -0.385 OA
ATOM     21  H   UNL     1     -29.145 -16.136 105.783  1.00  0.00     0.211 HD
ENDBRANCH  15  20
ENDBRANCH   8   9
ENDBRANCH   7   8
ENDBRANCH   1   7
BRANCH   2  22
ATOM     22  O   UNL     1     -27.997 -21.856 101.573  1.00  0.00    -0.387 OA
ATOM     23  H   UNL     1     -27.330 -22.511 101.256  1.00  0.00     0.211 HD
ENDBRANCH   2  22
BRANCH   3  24
ATOM     24  O   UNL     1     -27.163 -24.258 102.737  1.00  0.00    -0.387 OA
ATOM     25  H   UNL     1     -27.062 -25.099 103.255  1.00  0.00     0.211 HD
ENDBRANCH   3  24
BRANCH   5  26
ATOM     26  O   UNL     1     -28.173 -23.933 105.622  1.00  0.00    -0.454 OA
BRANCH  26  27
ATOM     27  C   UNL     1     -27.771 -25.024 106.409  1.00  0.00     0.214 A 
ATOM     28  C   UNL     1     -28.376 -25.230 107.665  1.00  0.00     0.180 A 
ATOM     29  C   UNL     1     -26.758 -25.906 105.993  1.00  0.00     0.239 A 
ATOM     30  O   UNL     1     -27.931 -26.186 108.471  1.00  0.00    -0.452 OA
ATOM     31  C   UNL     1     -26.318 -26.917 106.876  1.00  0.00     0.111 A 
ATOM     32  O   UNL     1     -26.261 -25.792 104.842  1.00  0.00    -0.285 OA
ATOM     33  C   UNL     1     -26.946 -27.012 108.142  1.00  0.00     0.146 A 
ATOM     34  C   UNL     1     -25.284 -27.826 106.550  1.00  0.00     0.134 A 
ATOM     35  C   UNL     1     -26.534 -27.979 109.061  1.00  0.00     0.094 A 
ATOM     36  C   UNL     1     -24.889 -28.796 107.484  1.00  0.00     0.093 A 
ATOM     37  C   UNL     1     -25.506 -28.873 108.736  1.00  0.00     0.123 A 
BRANCH  28  38
ATOM     38  C   UNL     1     -29.482 -24.376 108.130  1.00  0.00     0.025 A 
ATOM     39  C   UNL     1     -29.244 -23.027 108.431  1.00  0.00     0.062 A 
ATOM     40  C   UNL     1     -30.771 -24.902 108.298  1.00  0.00     0.016 A 
ATOM     41  C   UNL     1     -30.294 -22.194 108.842  1.00  0.00     0.158 A 
ATOM     42  C   UNL     1     -31.817 -24.080 108.718  1.00  0.00     0.051 A 
ATOM     43  C   UNL     1     -31.589 -22.721 108.983  1.00  0.00     0.157 A 
BRANCH  41  44
ATOM     44  O   UNL     1     -30.033 -20.850 109.101  1.00  0.00    -0.504 OA
ATOM     45  H   UNL     1     -29.112 -20.527 109.368  1.00  0.00     0.293 HD
ENDBRANCH  41  44
BRANCH  43  46
ATOM     46  O   UNL     1     -32.642 -21.896 109.374  1.00  0.00    -0.504 OA
ATOM     47  H   UNL     1     -32.467 -20.993 109.798  1.00  0.00     0.293 HD
ENDBRANCH  43  46
ENDBRANCH  28  38
BRANCH  34  48
ATOM     48  O   UNL     1     -24.643 -27.773 105.312  1.00  0.00    -0.507 OA
ATOM     49  H   UNL     1     -24.410 -28.615 104.797  1.00  0.00     0.293 HD
ENDBRANCH  34  48
BRANCH  37  50
ATOM     50  O   UNL     1     -25.091 -29.838 109.651  1.00  0.00    -0.508 OA
ATOM     51  H   UNL     1     -25.666 -30.649 109.865  1.00  0.00     0.293 HD
ENDBRANCH  37  50
ENDBRANCH  26  27
ENDBRANCH   5  26
BRANCH   4  52
ATOM     52  O   UNL     1     -30.702 -24.879 103.182  1.00  0.00    -0.384 OA
ATOM     53  H   UNL     1     -31.213 -25.283 103.932  1.00  0.00     0.211 HD
ENDBRANCH   4  52
TORSDOF 16
ENDMDL
MODEL 9
REMARK VINA RESULT:    -8.459      7.541     11.776
REMARK INTER + INTRA:         -15.751
REMARK INTER:                 -13.789
REMARK INTRA:                  -1.962
REMARK UNBOUND:                -1.853
REMARK SMILES C[C@@H]1O[C@@H](OC[C@H]2O[C@H](Oc3c(-c4ccc(O)c(O)c4)oc4cc(O)cc(O)c4c3=O)[C@@H](O)[C@H](O)[C@@H]2O)[C@H](O)[C@H](O)[C@H]1O
REMARK SMILES IDX 7 1 36 2 34 3 32 4 9 5 8 6 6 7 5 8 4 9 1 10 2 11 42 12 3 13
REMARK SMILES IDX 40 14 38 15 43 16 41 18 39 20 37 22 35 24 10 26 11 27 12 28
REMARK SMILES IDX 30 29 21 30 29 31 31 32 22 33 27 34 23 35 26 36 24 37 13 38
REMARK SMILES IDX 20 39 14 40 18 41 15 42 16 43 19 44 17 46 28 48 25 50 33 52
REMARK H PARENT 43 17 41 19 39 21 37 23 35 25 19 45 17 47 28 49 25 51 33 53
REMARK Flexibility Score: inf
ROOT
ATOM      1  C   UNL     1     -27.954 -28.251 115.618  1.00  0.00     0.180 C 
ATOM      2  C   UNL     1     -27.659 -28.323 117.140  1.00  0.00     0.177 C 
ATOM      3  C   UNL     1     -28.379 -29.514 117.804  1.00  0.00     0.180 C 
ATOM      4  C   UNL     1     -28.179 -30.801 116.976  1.00  0.00     0.214 C 
ATOM      5  C   UNL     1     -28.386 -30.557 115.467  1.00  0.00     0.339 C 
ATOM      6  O   UNL     1     -27.609 -29.471 114.980  1.00  0.00    -0.332 OA
ENDROOT
BRANCH   1   7
ATOM      7  C   UNL     1     -27.155 -27.118 114.965  1.00  0.00     0.198 C 
BRANCH   7   8
ATOM      8  O   UNL     1     -26.489 -27.612 113.816  1.00  0.00    -0.347 OA
BRANCH   8   9
ATOM      9  C   UNL     1     -25.149 -27.996 114.104  1.00  0.00     0.281 C 
ATOM     10  C   UNL     1     -23.450 -25.564 111.924  1.00  0.00     0.041 C 
ATOM     11  C   UNL     1     -24.363 -26.738 112.277  1.00  0.00     0.150 C 
ATOM     12  C   UNL     1     -23.976 -27.983 111.448  1.00  0.00     0.174 C 
ATOM     13  O   UNL     1     -24.248 -26.987 113.667  1.00  0.00    -0.344 OA
ATOM     14  C   UNL     1     -24.813 -29.196 111.887  1.00  0.00     0.179 C 
ATOM     15  C   UNL     1     -24.813 -29.346 113.428  1.00  0.00     0.202 C 
BRANCH  12  16
ATOM     16  O   UNL     1     -24.209 -27.725 110.089  1.00  0.00    -0.388 OA
ATOM     17  H   UNL     1     -24.261 -28.606 109.626  1.00  0.00     0.211 HD
ENDBRANCH  12  16
BRANCH  14  18
ATOM     18  O   UNL     1     -24.318 -30.354 111.262  1.00  0.00    -0.387 OA
ATOM     19  H   UNL     1     -24.399 -30.217 110.283  1.00  0.00     0.211 HD
ENDBRANCH  14  18
BRANCH  15  20
ATOM     20  O   UNL     1     -23.588 -29.864 113.892  1.00  0.00    -0.385 OA
ATOM     21  H   UNL     1     -23.521 -30.810 113.613  1.00  0.00     0.211 HD
ENDBRANCH  15  20
ENDBRANCH   8   9
ENDBRANCH   7   8
ENDBRANCH   1   7
BRANCH   2  22
ATOM     22  O   UNL     1     -27.969 -27.119 117.795  1.00  0.00    -0.387 OA
ATOM     23  H   UNL     1     -28.520 -26.571 117.187  1.00  0.00     0.211 HD
ENDBRANCH   2  22
BRANCH   3  24
ATOM     24  O   UNL     1     -29.744 -29.265 118.041  1.00  0.00    -0.387 OA
ATOM     25  H   UNL     1     -30.026 -29.793 118.833  1.00  0.00     0.211 HD
ENDBRANCH   3  24
BRANCH   5  26
ATOM     26  O   UNL     1     -29.776 -30.376 115.175  1.00  0.00    -0.454 OA
BRANCH  26  27
ATOM     27  C   UNL     1     -30.580 -31.353 114.566  1.00  0.00     0.214 A 
ATOM     28  C   UNL     1     -30.720 -31.356 113.164  1.00  0.00     0.180 A 
ATOM     29  C   UNL     1     -31.275 -32.317 115.318  1.00  0.00     0.239 A 
ATOM     30  O   UNL     1     -31.564 -32.198 112.580  1.00  0.00    -0.452 OA
ATOM     31  C   UNL     1     -32.156 -33.202 114.660  1.00  0.00     0.111 A 
ATOM     32  O   UNL     1     -31.100 -32.385 116.564  1.00  0.00    -0.285 OA
ATOM     33  C   UNL     1     -32.277 -33.093 113.253  1.00  0.00     0.146 A 
ATOM     34  C   UNL     1     -32.917 -34.180 115.343  1.00  0.00     0.134 A 
ATOM     35  C   UNL     1     -33.151 -33.929 112.555  1.00  0.00     0.094 A 
ATOM     36  C   UNL     1     -33.785 -35.015 114.623  1.00  0.00     0.093 A 
ATOM     37  C   UNL     1     -33.907 -34.891 113.236  1.00  0.00     0.123 A 
BRANCH  28  38
ATOM     38  C   UNL     1     -29.973 -30.410 112.318  1.00  0.00     0.025 A 
ATOM     39  C   UNL     1     -28.893 -30.864 111.549  1.00  0.00     0.062 A 
ATOM     40  C   UNL     1     -30.317 -29.050 112.290  1.00  0.00     0.016 A 
ATOM     41  C   UNL     1     -28.195 -29.980 110.713  1.00  0.00     0.158 A 
ATOM     42  C   UNL     1     -29.618 -28.165 111.468  1.00  0.00     0.051 A 
ATOM     43  C   UNL     1     -28.561 -28.625 110.668  1.00  0.00     0.157 A 
BRANCH  41  44
ATOM     44  O   UNL     1     -27.147 -30.467 109.934  1.00  0.00    -0.504 OA
ATOM     45  H   UNL     1     -27.292 -30.794 108.987  1.00  0.00     0.293 HD
ENDBRANCH  41  44
BRANCH  43  46
ATOM     46  O   UNL     1     -27.884 -27.743 109.827  1.00  0.00    -0.504 OA
ATOM     47  H   UNL     1     -27.815 -27.921 108.832  1.00  0.00     0.293 HD
ENDBRANCH  43  46
ENDBRANCH  28  38
BRANCH  34  48
ATOM     48  O   UNL     1     -32.824 -34.327 116.727  1.00  0.00    -0.507 OA
ATOM     49  H   UNL     1     -32.375 -33.626 117.307  1.00  0.00     0.293 HD
ENDBRANCH  34  48
BRANCH  37  50
ATOM     50  O   UNL     1     -34.781 -35.726 112.544  1.00  0.00    -0.508 OA
ATOM     51  H   UNL     1     -35.028 -35.549 111.574  1.00  0.00     0.293 HD
ENDBRANCH  37  50
ENDBRANCH  26  27
ENDBRANCH   5  26
BRANCH   4  52
ATOM     52  O   UNL     1     -26.877 -31.298 117.173  1.00  0.00    -0.384 OA
ATOM     53  H   UNL     1     -26.963 -32.278 117.311  1.00  0.00     0.211 HD
ENDBRANCH   4  52
TORSDOF 16
ENDMDL
