MODEL 1
REMARK VINA RESULT:    -5.380      0.000      0.000
REMARK INTER + INTRA:          -5.538
REMARK INTER:                  -5.538
REMARK INTRA:                   0.000
REMARK UNBOUND:                 0.000
REMARK SMILES Cc1cccc(O)c1C
REMARK SMILES IDX 1 1 2 2 8 3 6 4 5 5 4 6 3 7 9 8 7 9
REMARK H PARENT 7 10
REMARK Flexibility Score: inf
ROOT
ATOM      1  C   UNL     1     -13.218  -1.765 -10.992  1.00  0.00     0.045 C 
ATOM      2  C   UNL     1     -13.195  -0.385 -10.389  1.00  0.00    -0.045 A 
ATOM      3  C   UNL     1     -11.996   0.189  -9.892  1.00  0.00    -0.006 A 
ATOM      4  C   UNL     1     -12.034   1.477  -9.316  1.00  0.00     0.118 A 
ATOM      5  C   UNL     1     -13.237   2.194  -9.276  1.00  0.00     0.046 A 
ATOM      6  C   UNL     1     -14.405   1.638  -9.794  1.00  0.00     0.004 A 
ATOM      7  C   UNL     1     -14.387   0.359 -10.347  1.00  0.00     0.004 A 
ATOM      8  C   UNL     1     -10.701  -0.587  -9.924  1.00  0.00     0.048 C 
ENDROOT
BRANCH   4   9
ATOM      9  O   UNL     1     -10.878   2.047  -8.782  1.00  0.00    -0.508 OA
ATOM     10  H   UNL     1     -10.077   1.484  -8.525  1.00  0.00     0.293 HD
ENDBRANCH   4   9
TORSDOF 1
ENDMDL
MODEL 2
REMARK VINA RESULT:    -5.129      0.912      2.664
REMARK INTER + INTRA:          -5.279
REMARK INTER:                  -5.279
REMARK INTRA:                   0.000
REMARK UNBOUND:                 0.000
REMARK SMILES Cc1cccc(O)c1C
REMARK SMILES IDX 1 1 2 2 8 3 6 4 5 5 4 6 3 7 9 8 7 9
REMARK H PARENT 7 10
REMARK Flexibility Score: inf
ROOT
ATOM      1  C   UNL     1     -14.805  -1.353 -10.794  1.00  0.00     0.045 C 
ATOM      2  C   UNL     1     -13.427  -0.922 -10.364  1.00  0.00    -0.045 A 
ATOM      3  C   UNL     1     -13.161   0.409  -9.949  1.00  0.00    -0.006 A 
ATOM      4  C   UNL     1     -11.847   0.767  -9.577  1.00  0.00     0.118 A 
ATOM      5  C   UNL     1     -10.829  -0.196  -9.579  1.00  0.00     0.046 A 
ATOM      6  C   UNL     1     -11.103  -1.509  -9.956  1.00  0.00     0.004 A 
ATOM      7  C   UNL     1     -12.391  -1.872 -10.346  1.00  0.00     0.004 A 
ATOM      8  C   UNL     1     -14.254   1.451  -9.958  1.00  0.00     0.048 C 
ENDROOT
BRANCH   4   9
ATOM      9  O   UNL     1     -11.550   2.078  -9.205  1.00  0.00    -0.508 OA
ATOM     10  H   UNL     1     -11.681   2.406  -8.256  1.00  0.00     0.293 HD
ENDBRANCH   4   9
TORSDOF 1
ENDMDL
MODEL 3
REMARK VINA RESULT:    -5.060      2.023      3.115
REMARK INTER + INTRA:          -5.208
REMARK INTER:                  -5.208
REMARK INTRA:                   0.000
REMARK UNBOUND:                 0.000
REMARK SMILES Cc1cccc(O)c1C
REMARK SMILES IDX 1 1 2 2 8 3 6 4 5 5 4 6 3 7 9 8 7 9
REMARK H PARENT 7 10
REMARK Flexibility Score: inf
ROOT
ATOM      1  C   UNL     1     -12.540   1.905  -9.559  1.00  0.00     0.045 C 
ATOM      2  C   UNL     1     -13.052   0.507  -9.784  1.00  0.00    -0.045 A 
ATOM      3  C   UNL     1     -12.175  -0.563 -10.098  1.00  0.00    -0.006 A 
ATOM      4  C   UNL     1     -12.709  -1.852 -10.321  1.00  0.00     0.118 A 
ATOM      5  C   UNL     1     -14.086  -2.073 -10.192  1.00  0.00     0.046 A 
ATOM      6  C   UNL     1     -14.939  -1.025  -9.852  1.00  0.00     0.004 A 
ATOM      7  C   UNL     1     -14.428   0.256  -9.649  1.00  0.00     0.004 A 
ATOM      8  C   UNL     1     -10.692  -0.324 -10.249  1.00  0.00     0.048 C 
ENDROOT
BRANCH   4   9
ATOM      9  O   UNL     1     -11.873  -2.912 -10.673  1.00  0.00    -0.508 OA
ATOM     10  H   UNL     1     -11.460  -3.518  -9.975  1.00  0.00     0.293 HD
ENDBRANCH   4   9
TORSDOF 1
ENDMDL
MODEL 4
REMARK VINA RESULT:    -5.054      2.015      3.496
REMARK INTER + INTRA:          -5.202
REMARK INTER:                  -5.202
REMARK INTRA:                   0.000
REMARK UNBOUND:                 0.000
REMARK SMILES Cc1cccc(O)c1C
REMARK SMILES IDX 1 1 2 2 8 3 6 4 5 5 4 6 3 7 9 8 7 9
REMARK H PARENT 7 10
REMARK Flexibility Score: inf
ROOT
ATOM      1  C   UNL     1     -14.638   1.503  -9.581  1.00  0.00     0.045 C 
ATOM      2  C   UNL     1     -13.401   0.658  -9.736  1.00  0.00    -0.045 A 
ATOM      3  C   UNL     1     -13.461  -0.656 -10.268  1.00  0.00    -0.006 A 
ATOM      4  C   UNL     1     -12.275  -1.415 -10.371  1.00  0.00     0.118 A 
ATOM      5  C   UNL     1     -11.048  -0.855  -9.991  1.00  0.00     0.046 A 
ATOM      6  C   UNL     1     -10.990   0.447  -9.499  1.00  0.00     0.004 A 
ATOM      7  C   UNL     1     -12.157   1.200  -9.371  1.00  0.00     0.004 A 
ATOM      8  C   UNL     1     -14.784  -1.265 -10.667  1.00  0.00     0.048 C 
ENDROOT
BRANCH   4   9
ATOM      9  O   UNL     1     -12.312  -2.724 -10.851  1.00  0.00    -0.508 OA
ATOM     10  H   UNL     1     -12.939  -3.000 -11.597  1.00  0.00     0.293 HD
ENDBRANCH   4   9
TORSDOF 1
ENDMDL
MODEL 5
REMARK VINA RESULT:    -5.009     16.829     17.968
REMARK INTER + INTRA:          -5.156
REMARK INTER:                  -5.156
REMARK INTRA:                   0.000
REMARK UNBOUND:                 0.000
REMARK SMILES Cc1cccc(O)c1C
REMARK SMILES IDX 1 1 2 2 8 3 6 4 5 5 4 6 3 7 9 8 7 9
REMARK H PARENT 7 10
REMARK Flexibility Score: inf
ROOT
ATOM      1  C   UNL     1     -11.420   7.796   6.542  1.00  0.00     0.045 C 
ATOM      2  C   UNL     1     -11.121   6.434   7.112  1.00  0.00    -0.045 A 
ATOM      3  C   UNL     1     -11.330   5.251   6.357  1.00  0.00    -0.006 A 
ATOM      4  C   UNL     1     -11.056   3.998   6.947  1.00  0.00     0.118 A 
ATOM      5  C   UNL     1     -10.544   3.932   8.249  1.00  0.00     0.046 A 
ATOM      6  C   UNL     1     -10.310   5.098   8.974  1.00  0.00     0.004 A 
ATOM      7  C   UNL     1     -10.596   6.341   8.412  1.00  0.00     0.004 A 
ATOM      8  C   UNL     1     -11.894   5.321   4.958  1.00  0.00     0.048 C 
ENDROOT
BRANCH   4   9
ATOM      9  O   UNL     1     -11.292   2.818   6.241  1.00  0.00    -0.508 OA
ATOM     10  H   UNL     1     -10.751   1.979   6.410  1.00  0.00     0.293 HD
ENDBRANCH   4   9
TORSDOF 1
ENDMDL
MODEL 6
REMARK VINA RESULT:    -4.931     17.255     18.286
REMARK INTER + INTRA:          -5.075
REMARK INTER:                  -5.075
REMARK INTRA:                   0.000
REMARK UNBOUND:                 0.000
REMARK SMILES Cc1cccc(O)c1C
REMARK SMILES IDX 1 1 2 2 8 3 6 4 5 5 4 6 3 7 9 8 7 9
REMARK H PARENT 7 10
REMARK Flexibility Score: inf
ROOT
ATOM      1  C   UNL     1     -13.126   5.727   5.721  1.00  0.00     0.045 C 
ATOM      2  C   UNL     1     -12.108   5.448   6.795  1.00  0.00    -0.045 A 
ATOM      3  C   UNL     1     -11.076   6.373   7.098  1.00  0.00    -0.006 A 
ATOM      4  C   UNL     1     -10.133   6.053   8.100  1.00  0.00     0.118 A 
ATOM      5  C   UNL     1     -10.246   4.852   8.811  1.00  0.00     0.046 A 
ATOM      6  C   UNL     1     -11.279   3.961   8.531  1.00  0.00     0.004 A 
ATOM      7  C   UNL     1     -12.205   4.255   7.531  1.00  0.00     0.004 A 
ATOM      8  C   UNL     1     -10.948   7.663   6.324  1.00  0.00     0.048 C 
ENDROOT
BRANCH   4   9
ATOM      9  O   UNL     1      -9.085   6.927   8.389  1.00  0.00    -0.508 OA
ATOM     10  H   UNL     1      -8.138   6.595   8.525  1.00  0.00     0.293 HD
ENDBRANCH   4   9
TORSDOF 1
ENDMDL
MODEL 7
REMARK VINA RESULT:    -4.654     16.715     17.785
REMARK INTER + INTRA:          -4.790
REMARK INTER:                  -4.790
REMARK INTRA:                   0.000
REMARK UNBOUND:                 0.000
REMARK SMILES Cc1cccc(O)c1C
REMARK SMILES IDX 1 1 2 2 8 3 6 4 5 5 4 6 3 7 9 8 7 9
REMARK H PARENT 7 10
REMARK Flexibility Score: inf
ROOT
ATOM      1  C   UNL     1      -8.882   6.923   7.163  1.00  0.00     0.045 C 
ATOM      2  C   UNL     1     -10.092   6.120   6.762  1.00  0.00    -0.045 A 
ATOM      3  C   UNL     1     -10.692   5.190   7.649  1.00  0.00    -0.006 A 
ATOM      4  C   UNL     1     -11.812   4.445   7.216  1.00  0.00     0.118 A 
ATOM      5  C   UNL     1     -12.344   4.657   5.938  1.00  0.00     0.046 A 
ATOM      6  C   UNL     1     -11.769   5.595   5.082  1.00  0.00     0.004 A 
ATOM      7  C   UNL     1     -10.651   6.322   5.489  1.00  0.00     0.004 A 
ATOM      8  C   UNL     1     -10.113   4.952   9.023  1.00  0.00     0.048 C 
ENDROOT
BRANCH   4   9
ATOM      9  O   UNL     1     -12.395   3.495   8.054  1.00  0.00    -0.508 OA
ATOM     10  H   UNL     1     -13.382   3.274   8.002  1.00  0.00     0.293 HD
ENDBRANCH   4   9
TORSDOF 1
ENDMDL
MODEL 8
REMARK VINA RESULT:    -4.608      2.446      3.392
REMARK INTER + INTRA:          -4.743
REMARK INTER:                  -4.743
REMARK INTRA:                   0.000
REMARK UNBOUND:                 0.000
REMARK SMILES Cc1cccc(O)c1C
REMARK SMILES IDX 1 1 2 2 8 3 6 4 5 5 4 6 3 7 9 8 7 9
REMARK H PARENT 7 10
REMARK Flexibility Score: inf
ROOT
ATOM      1  C   UNL     1     -13.968  -3.422 -10.137  1.00  0.00     0.045 C 
ATOM      2  C   UNL     1     -12.779  -2.499 -10.076  1.00  0.00    -0.045 A 
ATOM      3  C   UNL     1     -11.504  -2.958  -9.655  1.00  0.00    -0.006 A 
ATOM      4  C   UNL     1     -10.427  -2.046  -9.594  1.00  0.00     0.118 A 
ATOM      5  C   UNL     1     -10.612  -0.714  -9.985  1.00  0.00     0.046 A 
ATOM      6  C   UNL     1     -11.858  -0.276 -10.428  1.00  0.00     0.004 A 
ATOM      7  C   UNL     1     -12.935  -1.160 -10.474  1.00  0.00     0.004 A 
ATOM      8  C   UNL     1     -11.306  -4.390  -9.221  1.00  0.00     0.048 C 
ENDROOT
BRANCH   4   9
ATOM      9  O   UNL     1      -9.174  -2.462  -9.144  1.00  0.00    -0.508 OA
ATOM     10  H   UNL     1      -9.039  -3.361  -8.697  1.00  0.00     0.293 HD
ENDBRANCH   4   9
TORSDOF 1
ENDMDL
MODEL 9
REMARK VINA RESULT:    -4.587      5.508      6.465
REMARK INTER + INTRA:          -4.721
REMARK INTER:                  -4.721
REMARK INTRA:                   0.000
REMARK UNBOUND:                 0.000
REMARK SMILES Cc1cccc(O)c1C
REMARK SMILES IDX 1 1 2 2 8 3 6 4 5 5 4 6 3 7 9 8 7 9
REMARK H PARENT 7 10
REMARK Flexibility Score: inf
ROOT
ATOM      1  C   UNL     1     -11.656  -6.456  -6.632  1.00  0.00     0.045 C 
ATOM      2  C   UNL     1     -10.930  -5.338  -7.335  1.00  0.00    -0.045 A 
ATOM      3  C   UNL     1     -10.931  -5.227  -8.750  1.00  0.00    -0.006 A 
ATOM      4  C   UNL     1     -10.216  -4.174  -9.360  1.00  0.00     0.118 A 
ATOM      5  C   UNL     1      -9.550  -3.227  -8.571  1.00  0.00     0.046 A 
ATOM      6  C   UNL     1      -9.579  -3.323  -7.182  1.00  0.00     0.004 A 
ATOM      7  C   UNL     1     -10.263  -4.370  -6.566  1.00  0.00     0.004 A 
ATOM      8  C   UNL     1     -11.638  -6.254  -9.602  1.00  0.00     0.048 C 
ENDROOT
BRANCH   4   9
ATOM      9  O   UNL     1     -10.165  -4.066 -10.750  1.00  0.00    -0.508 OA
ATOM     10  H   UNL     1      -9.321  -3.781 -11.232  1.00  0.00     0.293 HD
ENDBRANCH   4   9
TORSDOF 1
ENDMDL
