MODEL 1
REMARK VINA RESULT:    -1.886      0.000      0.000
REMARK INTER + INTRA:          -2.214
REMARK INTER:                  -2.161
REMARK INTRA:                  -0.053
REMARK UNBOUND:                -0.053
REMARK SMILES O=C([O-])c1cc(O)c(O)c(O)c1
REMARK SMILES IDX 4 1 5 2 12 3 6 4 10 5 8 6 2 7 1 8 3 9 7 10 11 12 9 14
REMARK H PARENT 7 11 11 13 9 15
REMARK Flexibility Score: inf
ROOT
ATOM      1  C   UNL     1      22.634  14.531   1.468  1.00  0.00     0.005 A 
ATOM      2  C   UNL     1      21.809  15.191   0.542  1.00  0.00     0.060 A 
ATOM      3  C   UNL     1      22.081  14.095   2.684  1.00  0.00     0.060 A 
ATOM      4  C   UNL     1      20.457  15.412   0.821  1.00  0.00     0.162 A 
ATOM      5  C   UNL     1      20.726  14.313   2.973  1.00  0.00     0.162 A 
ATOM      6  C   UNL     1      19.909  14.973   2.039  1.00  0.00     0.200 A 
ENDROOT
BRANCH   1   7
ATOM      7  C   UNL     1      24.064  14.301   1.164  1.00  0.00     0.072 C 
ATOM      8  O   UNL     1      24.507  14.474  -0.002  1.00  0.00    -0.545 OA
ATOM      9  O   UNL     1      24.939  13.892   2.163  1.00  0.00    -0.545 OA
ENDBRANCH   1   7
BRANCH   4  10
ATOM     10  O   UNL     1      19.671  16.071  -0.125  1.00  0.00    -0.504 OA
ATOM     11  H   UNL     1      20.021  16.309  -1.045  1.00  0.00     0.293 HD
ENDBRANCH   4  10
BRANCH   5  12
ATOM     12  O   UNL     1      20.189  13.875   4.182  1.00  0.00    -0.504 OA
ATOM     13  H   UNL     1      19.601  13.051   4.235  1.00  0.00     0.293 HD
ENDBRANCH   5  12
BRANCH   6  14
ATOM     14  O   UNL     1      18.559  15.199   2.309  1.00  0.00    -0.502 OA
ATOM     15  H   UNL     1      18.094  14.794   3.113  1.00  0.00     0.293 HD
ENDBRANCH   6  14
TORSDOF 4
ENDMDL
MODEL 2
REMARK VINA RESULT:    -1.660      1.122      4.651
REMARK INTER + INTRA:          -1.955
REMARK INTER:                  -1.908
REMARK INTRA:                  -0.047
REMARK UNBOUND:                -0.053
REMARK SMILES O=C([O-])c1cc(O)c(O)c(O)c1
REMARK SMILES IDX 4 1 5 2 12 3 6 4 10 5 8 6 2 7 1 8 3 9 7 10 11 12 9 14
REMARK H PARENT 7 11 11 13 9 15
REMARK Flexibility Score: inf
ROOT
ATOM      1  C   UNL     1      20.249  14.620   1.176  1.00  0.00     0.005 A 
ATOM      2  C   UNL     1      20.454  14.359   2.540  1.00  0.00     0.060 A 
ATOM      3  C   UNL     1      21.358  14.650   0.313  1.00  0.00     0.060 A 
ATOM      4  C   UNL     1      21.740  14.131   3.039  1.00  0.00     0.162 A 
ATOM      5  C   UNL     1      22.652  14.423   0.803  1.00  0.00     0.162 A 
ATOM      6  C   UNL     1      22.846  14.162   2.170  1.00  0.00     0.200 A 
ENDROOT
BRANCH   1   7
ATOM      7  C   UNL     1      18.884  14.860   0.658  1.00  0.00     0.072 C 
ATOM      8  O   UNL     1      17.955  14.044   0.897  1.00  0.00    -0.545 OA
ATOM      9  O   UNL     1      18.607  15.993  -0.099  1.00  0.00    -0.545 OA
ENDBRANCH   1   7
BRANCH   4  10
ATOM     10  O   UNL     1      21.902  13.875   4.400  1.00  0.00    -0.504 OA
ATOM     11  H   UNL     1      21.115  13.704   5.013  1.00  0.00     0.293 HD
ENDBRANCH   4  10
BRANCH   5  12
ATOM     12  O   UNL     1      23.744  14.455  -0.062  1.00  0.00    -0.504 OA
ATOM     13  H   UNL     1      23.646  14.244  -1.049  1.00  0.00     0.293 HD
ENDBRANCH   5  12
BRANCH   6  14
ATOM     14  O   UNL     1      24.127  13.933   2.676  1.00  0.00    -0.502 OA
ATOM     15  H   UNL     1      24.959  14.045   2.110  1.00  0.00     0.293 HD
ENDBRANCH   6  14
TORSDOF 4
ENDMDL
MODEL 3
REMARK VINA RESULT:    -1.330      1.142      4.113
REMARK INTER + INTRA:          -1.577
REMARK INTER:                  -1.528
REMARK INTRA:                  -0.049
REMARK UNBOUND:                -0.053
REMARK SMILES O=C([O-])c1cc(O)c(O)c(O)c1
REMARK SMILES IDX 4 1 5 2 12 3 6 4 10 5 8 6 2 7 1 8 3 9 7 10 11 12 9 14
REMARK H PARENT 7 11 11 13 9 15
REMARK Flexibility Score: inf
ROOT
ATOM      1  C   UNL     1      20.334  14.663   1.445  1.00  0.00     0.005 A 
ATOM      2  C   UNL     1      21.361  14.664   0.487  1.00  0.00     0.060 A 
ATOM      3  C   UNL     1      20.655  14.396   2.788  1.00  0.00     0.060 A 
ATOM      4  C   UNL     1      22.684  14.407   0.857  1.00  0.00     0.162 A 
ATOM      5  C   UNL     1      21.979  14.137   3.168  1.00  0.00     0.162 A 
ATOM      6  C   UNL     1      22.999  14.142   2.202  1.00  0.00     0.200 A 
ENDROOT
BRANCH   1   7
ATOM      7  C   UNL     1      18.936  14.936   1.043  1.00  0.00     0.072 C 
ATOM      8  O   UNL     1      18.203  15.683   1.743  1.00  0.00    -0.545 OA
ATOM      9  O   UNL     1      18.414  14.372  -0.115  1.00  0.00    -0.545 OA
ENDBRANCH   1   7
BRANCH   4  10
ATOM     10  O   UNL     1      23.675  14.419  -0.125  1.00  0.00    -0.504 OA
ATOM     11  H   UNL     1      23.831  13.632  -0.743  1.00  0.00     0.293 HD
ENDBRANCH   4  10
BRANCH   5  12
ATOM     12  O   UNL     1      22.285  13.875   4.503  1.00  0.00    -0.504 OA
ATOM     13  H   UNL     1      21.704  14.221   5.258  1.00  0.00     0.293 HD
ENDBRANCH   5  12
BRANCH   6  14
ATOM     14  O   UNL     1      24.323  13.886   2.562  1.00  0.00    -0.502 OA
ATOM     15  H   UNL     1      24.924  14.602   2.952  1.00  0.00     0.293 HD
ENDBRANCH   6  14
TORSDOF 4
ENDMDL
