MODEL 1
REMARK VINA RESULT:    -4.312      0.000      0.000
REMARK INTER + INTRA:         -10.448
REMARK INTER:                  -8.345
REMARK INTRA:                  -2.103
REMARK UNBOUND:                -2.103
REMARK SMILES CCCCCCCCCCCCCCCCCC(=O)[O-]
REMARK SMILES IDX 10 1 11 2 12 3 13 4 14 5 15 6 16 7 17 8 18 9 19 10 20 11
REMARK SMILES IDX 9 12 8 13 7 14 6 15 5 16 4 17 3 18 2 19 1 20
REMARK H PARENT
REMARK Flexibility Score: inf
ROOT
ATOM      1  C   UNL     1      16.657   5.476  40.645  1.00  0.00     0.000 C 
ENDROOT
BRANCH   1   2
ATOM      2  C   UNL     1      17.234   4.572  41.750  1.00  0.00     0.000 C 
BRANCH   2   3
ATOM      3  C   UNL     1      17.955   3.336  41.194  1.00  0.00     0.000 C 
BRANCH   3   4
ATOM      4  C   UNL     1      17.021   2.510  40.303  1.00  0.00     0.000 C 
BRANCH   4   5
ATOM      5  C   UNL     1      15.929   1.826  41.135  1.00  0.00     0.000 C 
BRANCH   5   6
ATOM      6  C   UNL     1      15.668   0.398  40.633  1.00  0.00     0.000 C 
BRANCH   6   7
ATOM      7  C   UNL     1      14.218  -0.063  40.874  1.00  0.00     0.006 C 
BRANCH   7   8
ATOM      8  C   UNL     1      13.695  -1.072  39.839  1.00  0.00     0.053 C 
BRANCH   8   9
ATOM      9  C   UNL     1      14.015  -2.485  40.219  1.00  0.00     0.041 C 
ATOM     10  O   UNL     1      13.673  -3.436  39.469  1.00  0.00    -0.550 OA
ATOM     11  O   UNL     1      14.719  -2.748  41.388  1.00  0.00    -0.550 OA
ENDBRANCH   8   9
ENDBRANCH   7   8
ENDBRANCH   6   7
ENDBRANCH   5   6
ENDBRANCH   4   5
ENDBRANCH   3   4
ENDBRANCH   2   3
ENDBRANCH   1   2
BRANCH   1  12
ATOM     12  C   UNL     1      15.273   6.084  40.953  1.00  0.00     0.000 C 
BRANCH  12  13
ATOM     13  C   UNL     1      14.155   5.058  41.208  1.00  0.00    -0.000 C 
BRANCH  13  14
ATOM     14  C   UNL     1      13.616   5.111  42.647  1.00  0.00    -0.000 C 
BRANCH  14  15
ATOM     15  C   UNL     1      14.357   6.138  43.518  1.00  0.00    -0.000 C 
BRANCH  15  16
ATOM     16  C   UNL     1      15.112   5.486  44.690  1.00  0.00    -0.000 C 
BRANCH  16  17
ATOM     17  C   UNL     1      16.407   6.246  45.045  1.00  0.00    -0.000 C 
BRANCH  17  18
ATOM     18  C   UNL     1      16.756   7.370  44.050  1.00  0.00    -0.000 C 
BRANCH  18  19
ATOM     19  C   UNL     1      18.258   7.535  43.771  1.00  0.00    -0.003 C 
ATOM     20  C   UNL     1      18.546   8.066  42.367  1.00  0.00     0.004 C 
ENDBRANCH  18  19
ENDBRANCH  17  18
ENDBRANCH  16  17
ENDBRANCH  15  16
ENDBRANCH  14  15
ENDBRANCH  13  14
ENDBRANCH  12  13
ENDBRANCH   1  12
TORSDOF 16
ENDMDL
MODEL 2
REMARK VINA RESULT:    -4.276      2.556      7.219
REMARK INTER + INTRA:         -10.378
REMARK INTER:                  -9.118
REMARK INTRA:                  -1.260
REMARK UNBOUND:                -2.103
REMARK SMILES CCCCCCCCCCCCCCCCCC(=O)[O-]
REMARK SMILES IDX 10 1 11 2 12 3 13 4 14 5 15 6 16 7 17 8 18 9 19 10 20 11
REMARK SMILES IDX 9 12 8 13 7 14 6 15 5 16 4 17 3 18 2 19 1 20
REMARK H PARENT
REMARK Flexibility Score: inf
ROOT
ATOM      1  C   UNL     1      11.483   4.147  41.211  1.00  0.00     0.000 C 
ENDROOT
BRANCH   1   2
ATOM      2  C   UNL     1      12.065   5.254  42.109  1.00  0.00     0.000 C 
BRANCH   2   3
ATOM      3  C   UNL     1      13.384   4.845  42.781  1.00  0.00     0.000 C 
BRANCH   3   4
ATOM      4  C   UNL     1      14.565   5.623  42.192  1.00  0.00     0.000 C 
BRANCH   4   5
ATOM      5  C   UNL     1      15.038   4.994  40.876  1.00  0.00     0.000 C 
BRANCH   5   6
ATOM      6  C   UNL     1      16.559   5.135  40.713  1.00  0.00     0.000 C 
BRANCH   6   7
ATOM      7  C   UNL     1      17.340   4.594  41.924  1.00  0.00     0.006 C 
BRANCH   7   8
ATOM      8  C   UNL     1      17.231   3.073  42.120  1.00  0.00     0.053 C 
BRANCH   8   9
ATOM      9  C   UNL     1      17.578   2.320  40.874  1.00  0.00     0.041 C 
ATOM     10  O   UNL     1      16.745   1.529  40.359  1.00  0.00    -0.550 OA
ATOM     11  O   UNL     1      18.810   2.515  40.263  1.00  0.00    -0.550 OA
ENDBRANCH   8   9
ENDBRANCH   7   8
ENDBRANCH   6   7
ENDBRANCH   5   6
ENDBRANCH   4   5
ENDBRANCH   3   4
ENDBRANCH   2   3
ENDBRANCH   1   2
BRANCH   1  12
ATOM     12  C   UNL     1      12.199   2.784  41.306  1.00  0.00     0.000 C 
BRANCH  12  13
ATOM     13  C   UNL     1      11.275   1.581  41.565  1.00  0.00    -0.000 C 
BRANCH  13  14
ATOM     14  C   UNL     1      12.045   0.255  41.688  1.00  0.00    -0.000 C 
BRANCH  14  15
ATOM     15  C   UNL     1      12.157  -0.489  40.348  1.00  0.00    -0.000 C 
BRANCH  15  16
ATOM     16  C   UNL     1      13.610  -0.608  39.856  1.00  0.00    -0.000 C 
BRANCH  16  17
ATOM     17  C   UNL     1      14.545  -1.190  40.937  1.00  0.00    -0.000 C 
BRANCH  17  18
ATOM     18  C   UNL     1      14.557  -2.731  40.980  1.00  0.00    -0.000 C 
BRANCH  18  19
ATOM     19  C   UNL     1      13.695  -3.408  39.902  1.00  0.00    -0.003 C 
ATOM     20  C   UNL     1      14.432  -4.530  39.172  1.00  0.00     0.004 C 
ENDBRANCH  18  19
ENDBRANCH  17  18
ENDBRANCH  16  17
ENDBRANCH  15  16
ENDBRANCH  14  15
ENDBRANCH  13  14
ENDBRANCH  12  13
ENDBRANCH   1  12
TORSDOF 16
ENDMDL
MODEL 3
REMARK VINA RESULT:    -4.227      4.287      7.312
REMARK INTER + INTRA:         -10.283
REMARK INTER:                  -8.713
REMARK INTRA:                  -1.570
REMARK UNBOUND:                -2.103
REMARK SMILES CCCCCCCCCCCCCCCCCC(=O)[O-]
REMARK SMILES IDX 10 1 11 2 12 3 13 4 14 5 15 6 16 7 17 8 18 9 19 10 20 11
REMARK SMILES IDX 9 12 8 13 7 14 6 15 5 16 4 17 3 18 2 19 1 20
REMARK H PARENT
REMARK Flexibility Score: inf
ROOT
ATOM      1  C   UNL     1      15.500  -0.125  40.973  1.00  0.00     0.000 C 
ENDROOT
BRANCH   1   2
ATOM      2  C   UNL     1      15.724   1.394  40.861  1.00  0.00     0.000 C 
BRANCH   2   3
ATOM      3  C   UNL     1      17.200   1.765  40.658  1.00  0.00     0.000 C 
BRANCH   3   4
ATOM      4  C   UNL     1      17.344   3.232  40.237  1.00  0.00     0.000 C 
BRANCH   4   5
ATOM      5  C   UNL     1      16.230   4.092  40.846  1.00  0.00     0.000 C 
BRANCH   5   6
ATOM      6  C   UNL     1      16.783   5.435  41.347  1.00  0.00     0.000 C 
BRANCH   6   7
ATOM      7  C   UNL     1      16.209   6.640  40.579  1.00  0.00     0.006 C 
BRANCH   7   8
ATOM      8  C   UNL     1      16.988   7.950  40.783  1.00  0.00     0.053 C 
BRANCH   8   9
ATOM      9  C   UNL     1      16.174   8.981  41.502  1.00  0.00     0.041 C 
ATOM     10  O   UNL     1      16.341  10.204  41.254  1.00  0.00    -0.550 OA
ATOM     11  O   UNL     1      15.210   8.590  42.422  1.00  0.00    -0.550 OA
ENDBRANCH   8   9
ENDBRANCH   7   8
ENDBRANCH   6   7
ENDBRANCH   5   6
ENDBRANCH   4   5
ENDBRANCH   3   4
ENDBRANCH   2   3
ENDBRANCH   1   2
BRANCH   1  12
ATOM     12  C   UNL     1      14.039  -0.553  41.226  1.00  0.00     0.000 C 
BRANCH  12  13
ATOM     13  C   UNL     1      13.171  -0.682  39.962  1.00  0.00    -0.000 C 
BRANCH  13  14
ATOM     14  C   UNL     1      11.687  -0.375  40.226  1.00  0.00    -0.000 C 
BRANCH  14  15
ATOM     15  C   UNL     1      11.430   0.100  41.665  1.00  0.00    -0.000 C 
BRANCH  15  16
ATOM     16  C   UNL     1      11.042   1.587  41.738  1.00  0.00    -0.000 C 
BRANCH  16  17
ATOM     17  C   UNL     1      12.170   2.510  41.232  1.00  0.00    -0.000 C 
BRANCH  17  18
ATOM     18  C   UNL     1      12.072   3.954  41.762  1.00  0.00    -0.000 C 
BRANCH  18  19
ATOM     19  C   UNL     1      12.607   5.027  40.800  1.00  0.00    -0.003 C 
ATOM     20  C   UNL     1      12.624   6.424  41.420  1.00  0.00     0.004 C 
ENDBRANCH  18  19
ENDBRANCH  17  18
ENDBRANCH  16  17
ENDBRANCH  15  16
ENDBRANCH  14  15
ENDBRANCH  13  14
ENDBRANCH  12  13
ENDBRANCH   1  12
TORSDOF 16
ENDMDL
MODEL 4
REMARK VINA RESULT:    -4.220      5.850      8.173
REMARK INTER + INTRA:         -10.270
REMARK INTER:                  -8.035
REMARK INTRA:                  -2.235
REMARK UNBOUND:                -2.103
REMARK SMILES CCCCCCCCCCCCCCCCCC(=O)[O-]
REMARK SMILES IDX 10 1 11 2 12 3 13 4 14 5 15 6 16 7 17 8 18 9 19 10 20 11
REMARK SMILES IDX 9 12 8 13 7 14 6 15 5 16 4 17 3 18 2 19 1 20
REMARK H PARENT
REMARK Flexibility Score: inf
ROOT
ATOM      1  C   UNL     1       7.691   0.337  41.756  1.00  0.00     0.000 C 
ENDROOT
BRANCH   1   2
ATOM      2  C   UNL     1       8.966   1.187  41.903  1.00  0.00     0.000 C 
BRANCH   2   3
ATOM      3  C   UNL     1      10.161   0.383  42.435  1.00  0.00     0.000 C 
BRANCH   3   4
ATOM      4  C   UNL     1      11.442   0.733  41.670  1.00  0.00     0.000 C 
BRANCH   4   5
ATOM      5  C   UNL     1      12.215  -0.533  41.279  1.00  0.00     0.000 C 
BRANCH   5   6
ATOM      6  C   UNL     1      13.398  -0.195  40.360  1.00  0.00     0.000 C 
BRANCH   6   7
ATOM      7  C   UNL     1      13.954  -1.429  39.626  1.00  0.00     0.006 C 
BRANCH   7   8
ATOM      8  C   UNL     1      13.885  -2.732  40.439  1.00  0.00     0.053 C 
BRANCH   8   9
ATOM      9  C   UNL     1      13.502  -3.905  39.589  1.00  0.00     0.041 C 
ATOM     10  O   UNL     1      14.391  -4.646  39.095  1.00  0.00    -0.550 OA
ATOM     11  O   UNL     1      12.162  -4.195  39.369  1.00  0.00    -0.550 OA
ENDBRANCH   8   9
ENDBRANCH   7   8
ENDBRANCH   6   7
ENDBRANCH   5   6
ENDBRANCH   4   5
ENDBRANCH   3   4
ENDBRANCH   2   3
ENDBRANCH   1   2
BRANCH   1  12
ATOM     12  C   UNL     1       7.889  -1.179  41.954  1.00  0.00     0.000 C 
BRANCH  12  13
ATOM     13  C   UNL     1       7.912  -2.008  40.657  1.00  0.00    -0.000 C 
BRANCH  13  14
ATOM     14  C   UNL     1       9.335  -2.236  40.122  1.00  0.00    -0.000 C 
BRANCH  14  15
ATOM     15  C   UNL     1       9.515  -1.722  38.685  1.00  0.00    -0.000 C 
BRANCH  15  16
ATOM     16  C   UNL     1       9.123  -0.242  38.532  1.00  0.00    -0.000 C 
BRANCH  16  17
ATOM     17  C   UNL     1      10.354   0.672  38.354  1.00  0.00    -0.000 C 
BRANCH  17  18
ATOM     18  C   UNL     1      10.455   1.307  36.953  1.00  0.00    -0.000 C 
BRANCH  18  19
ATOM     19  C   UNL     1      10.308   2.837  36.932  1.00  0.00    -0.003 C 
ATOM     20  C   UNL     1      10.683   3.450  35.583  1.00  0.00     0.004 C 
ENDBRANCH  18  19
ENDBRANCH  17  18
ENDBRANCH  16  17
ENDBRANCH  15  16
ENDBRANCH  14  15
ENDBRANCH  13  14
ENDBRANCH  12  13
ENDBRANCH   1  12
TORSDOF 16
ENDMDL
MODEL 5
REMARK VINA RESULT:    -4.220      4.089      7.259
REMARK INTER + INTRA:         -10.270
REMARK INTER:                  -8.358
REMARK INTRA:                  -1.912
REMARK UNBOUND:                -2.103
REMARK SMILES CCCCCCCCCCCCCCCCCC(=O)[O-]
REMARK SMILES IDX 10 1 11 2 12 3 13 4 14 5 15 6 16 7 17 8 18 9 19 10 20 11
REMARK SMILES IDX 9 12 8 13 7 14 6 15 5 16 4 17 3 18 2 19 1 20
REMARK H PARENT
REMARK Flexibility Score: inf
ROOT
ATOM      1  C   UNL     1      11.688   2.732  42.284  1.00  0.00     0.000 C 
ENDROOT
BRANCH   1   2
ATOM      2  C   UNL     1      12.206   4.165  42.058  1.00  0.00     0.000 C 
BRANCH   2   3
ATOM      3  C   UNL     1      13.104   4.287  40.818  1.00  0.00     0.000 C 
BRANCH   3   4
ATOM      4  C   UNL     1      14.375   5.081  41.137  1.00  0.00     0.000 C 
BRANCH   4   5
ATOM      5  C   UNL     1      14.485   5.365  42.640  1.00  0.00     0.000 C 
BRANCH   5   6
ATOM      6  C   UNL     1      15.922   5.147  43.138  1.00  0.00     0.000 C 
BRANCH   6   7
ATOM      7  C   UNL     1      16.928   6.123  42.500  1.00  0.00     0.006 C 
BRANCH   7   8
ATOM      8  C   UNL     1      16.638   7.606  42.783  1.00  0.00     0.053 C 
BRANCH   8   9
ATOM      9  C   UNL     1      17.042   8.486  41.641  1.00  0.00     0.041 C 
ATOM     10  O   UNL     1      18.093   8.239  40.993  1.00  0.00    -0.550 OA
ATOM     11  O   UNL     1      16.242   9.560  41.274  1.00  0.00    -0.550 OA
ENDBRANCH   8   9
ENDBRANCH   7   8
ENDBRANCH   6   7
ENDBRANCH   5   6
ENDBRANCH   4   5
ENDBRANCH   3   4
ENDBRANCH   2   3
ENDBRANCH   1   2
BRANCH   1  12
ATOM     12  C   UNL     1      11.886   1.771  41.093  1.00  0.00     0.000 C 
BRANCH  12  13
ATOM     13  C   UNL     1      11.677   0.282  41.419  1.00  0.00    -0.000 C 
BRANCH  13  14
ATOM     14  C   UNL     1      13.001  -0.484  41.574  1.00  0.00    -0.000 C 
BRANCH  14  15
ATOM     15  C   UNL     1      14.005  -0.162  40.457  1.00  0.00    -0.000 C 
BRANCH  15  16
ATOM     16  C   UNL     1      15.424   0.098  40.991  1.00  0.00    -0.000 C 
BRANCH  16  17
ATOM     17  C   UNL     1      15.762   1.603  41.043  1.00  0.00    -0.000 C 
BRANCH  17  18
ATOM     18  C   UNL     1      17.142   1.947  40.448  1.00  0.00    -0.000 C 
BRANCH  18  19
ATOM     19  C   UNL     1      18.072   2.723  41.394  1.00  0.00    -0.003 C 
ATOM     20  C   UNL     1      19.513   2.786  40.888  1.00  0.00     0.004 C 
ENDBRANCH  18  19
ENDBRANCH  17  18
ENDBRANCH  16  17
ENDBRANCH  15  16
ENDBRANCH  14  15
ENDBRANCH  13  14
ENDBRANCH  12  13
ENDBRANCH   1  12
TORSDOF 16
ENDMDL
MODEL 6
REMARK VINA RESULT:    -4.218      1.857      4.191
REMARK INTER + INTRA:         -10.265
REMARK INTER:                  -8.867
REMARK INTRA:                  -1.398
REMARK UNBOUND:                -2.103
REMARK SMILES CCCCCCCCCCCCCCCCCC(=O)[O-]
REMARK SMILES IDX 10 1 11 2 12 3 13 4 14 5 15 6 16 7 17 8 18 9 19 10 20 11
REMARK SMILES IDX 9 12 8 13 7 14 6 15 5 16 4 17 3 18 2 19 1 20
REMARK H PARENT
REMARK Flexibility Score: inf
ROOT
ATOM      1  C   UNL     1      13.788   5.735  41.642  1.00  0.00     0.000 C 
ENDROOT
BRANCH   1   2
ATOM      2  C   UNL     1      12.659   4.996  42.385  1.00  0.00     0.000 C 
BRANCH   2   3
ATOM      3  C   UNL     1      12.089   3.818  41.583  1.00  0.00     0.000 C 
BRANCH   3   4
ATOM      4  C   UNL     1      11.003   3.086  42.380  1.00  0.00     0.000 C 
BRANCH   4   5
ATOM      5  C   UNL     1      10.809   1.656  41.862  1.00  0.00     0.000 C 
BRANCH   5   6
ATOM      6  C   UNL     1      12.122   1.090  41.301  1.00  0.00     0.000 C 
BRANCH   6   7
ATOM      7  C   UNL     1      12.220  -0.440  41.441  1.00  0.00     0.006 C 
BRANCH   7   8
ATOM      8  C   UNL     1      13.104  -1.117  40.381  1.00  0.00     0.053 C 
BRANCH   8   9
ATOM      9  C   UNL     1      14.489  -1.376  40.886  1.00  0.00     0.041 C 
ATOM     10  O   UNL     1      15.331  -0.441  40.934  1.00  0.00    -0.550 OA
ATOM     11  O   UNL     1      14.840  -2.643  41.334  1.00  0.00    -0.550 OA
ENDBRANCH   8   9
ENDBRANCH   7   8
ENDBRANCH   6   7
ENDBRANCH   5   6
ENDBRANCH   4   5
ENDBRANCH   3   4
ENDBRANCH   2   3
ENDBRANCH   1   2
BRANCH   1  12
ATOM     12  C   UNL     1      14.657   6.656  42.523  1.00  0.00     0.000 C 
BRANCH  12  13
ATOM     13  C   UNL     1      15.442   5.940  43.635  1.00  0.00    -0.000 C 
BRANCH  13  14
ATOM     14  C   UNL     1      16.502   4.971  43.085  1.00  0.00    -0.000 C 
BRANCH  14  15
ATOM     15  C   UNL     1      17.165   5.489  41.799  1.00  0.00    -0.000 C 
BRANCH  15  16
ATOM     16  C   UNL     1      16.964   4.539  40.605  1.00  0.00    -0.000 C 
BRANCH  16  17
ATOM     17  C   UNL     1      16.595   3.109  41.053  1.00  0.00    -0.000 C 
BRANCH  17  18
ATOM     18  C   UNL     1      17.769   2.114  40.969  1.00  0.00    -0.000 C 
BRANCH  18  19
ATOM     19  C   UNL     1      19.011   2.648  40.239  1.00  0.00    -0.003 C 
ATOM     20  C   UNL     1      20.180   2.926  41.183  1.00  0.00     0.004 C 
ENDBRANCH  18  19
ENDBRANCH  17  18
ENDBRANCH  16  17
ENDBRANCH  15  16
ENDBRANCH  14  15
ENDBRANCH  13  14
ENDBRANCH  12  13
ENDBRANCH   1  12
TORSDOF 16
ENDMDL
MODEL 7
REMARK VINA RESULT:    -4.205      3.397      5.591
REMARK INTER + INTRA:         -10.240
REMARK INTER:                  -8.569
REMARK INTRA:                  -1.671
REMARK UNBOUND:                -2.103
REMARK SMILES CCCCCCCCCCCCCCCCCC(=O)[O-]
REMARK SMILES IDX 10 1 11 2 12 3 13 4 14 5 15 6 16 7 17 8 18 9 19 10 20 11
REMARK SMILES IDX 9 12 8 13 7 14 6 15 5 16 4 17 3 18 2 19 1 20
REMARK H PARENT
REMARK Flexibility Score: inf
ROOT
ATOM      1  C   UNL     1      15.382  -0.057  40.984  1.00  0.00     0.000 C 
ENDROOT
BRANCH   1   2
ATOM      2  C   UNL     1      14.009  -0.499  40.445  1.00  0.00     0.000 C 
BRANCH   2   3
ATOM      3  C   UNL     1      12.879  -0.316  41.468  1.00  0.00     0.000 C 
BRANCH   3   4
ATOM      4  C   UNL     1      11.519  -0.663  40.852  1.00  0.00     0.000 C 
BRANCH   4   5
ATOM      5  C   UNL     1      11.150   0.325  39.739  1.00  0.00     0.000 C 
BRANCH   5   6
ATOM      6  C   UNL     1       9.886   1.119  40.105  1.00  0.00     0.000 C 
BRANCH   6   7
ATOM      7  C   UNL     1       9.453   0.908  41.567  1.00  0.00     0.006 C 
BRANCH   7   8
ATOM      8  C   UNL     1       8.016   0.387  41.733  1.00  0.00     0.053 C 
BRANCH   8   9
ATOM      9  C   UNL     1       7.966  -1.107  41.815  1.00  0.00     0.041 C 
ATOM     10  O   UNL     1       7.606  -1.785  40.818  1.00  0.00    -0.550 OA
ATOM     11  O   UNL     1       8.348  -1.752  42.985  1.00  0.00    -0.550 OA
ENDBRANCH   8   9
ENDBRANCH   7   8
ENDBRANCH   6   7
ENDBRANCH   5   6
ENDBRANCH   4   5
ENDBRANCH   3   4
ENDBRANCH   2   3
ENDBRANCH   1   2
BRANCH   1  12
ATOM     12  C   UNL     1      15.735   1.424  40.738  1.00  0.00     0.000 C 
BRANCH  12  13
ATOM     13  C   UNL     1      17.239   1.721  40.601  1.00  0.00    -0.000 C 
BRANCH  13  14
ATOM     14  C   UNL     1      17.549   3.227  40.591  1.00  0.00    -0.000 C 
BRANCH  14  15
ATOM     15  C   UNL     1      16.806   3.990  41.699  1.00  0.00    -0.000 C 
BRANCH  15  16
ATOM     16  C   UNL     1      16.654   5.489  41.386  1.00  0.00    -0.000 C 
BRANCH  16  17
ATOM     17  C   UNL     1      15.244   6.016  41.727  1.00  0.00    -0.000 C 
BRANCH  17  18
ATOM     18  C   UNL     1      14.115   5.308  40.954  1.00  0.00    -0.000 C 
BRANCH  18  19
ATOM     19  C   UNL     1      12.959   4.799  41.830  1.00  0.00    -0.003 C 
ATOM     20  C   UNL     1      12.484   3.402  41.433  1.00  0.00     0.004 C 
ENDBRANCH  18  19
ENDBRANCH  17  18
ENDBRANCH  16  17
ENDBRANCH  15  16
ENDBRANCH  14  15
ENDBRANCH  13  14
ENDBRANCH  12  13
ENDBRANCH   1  12
TORSDOF 16
ENDMDL
MODEL 8
REMARK VINA RESULT:    -4.139      4.265      8.184
REMARK INTER + INTRA:         -10.113
REMARK INTER:                  -8.704
REMARK INTRA:                  -1.409
REMARK UNBOUND:                -2.103
REMARK SMILES CCCCCCCCCCCCCCCCCC(=O)[O-]
REMARK SMILES IDX 10 1 11 2 12 3 13 4 14 5 15 6 16 7 17 8 18 9 19 10 20 11
REMARK SMILES IDX 9 12 8 13 7 14 6 15 5 16 4 17 3 18 2 19 1 20
REMARK H PARENT
REMARK Flexibility Score: inf
ROOT
ATOM      1  C   UNL     1      12.311   0.793  41.018  1.00  0.00     0.000 C 
ENDROOT
BRANCH   1   2
ATOM      2  C   UNL     1      13.008  -0.570  41.187  1.00  0.00     0.000 C 
BRANCH   2   3
ATOM      3  C   UNL     1      14.290  -0.691  40.351  1.00  0.00     0.000 C 
BRANCH   3   4
ATOM      4  C   UNL     1      15.478  -0.043  41.071  1.00  0.00     0.000 C 
BRANCH   4   5
ATOM      5  C   UNL     1      15.703   1.392  40.580  1.00  0.00     0.000 C 
BRANCH   5   6
ATOM      6  C   UNL     1      17.171   1.809  40.754  1.00  0.00     0.000 C 
BRANCH   6   7
ATOM      7  C   UNL     1      17.436   3.259  40.308  1.00  0.00     0.006 C 
BRANCH   7   8
ATOM      8  C   UNL     1      17.122   4.318  41.377  1.00  0.00     0.053 C 
BRANCH   8   9
ATOM      9  C   UNL     1      16.119   5.320  40.897  1.00  0.00     0.041 C 
ATOM     10  O   UNL     1      16.499   6.365  40.306  1.00  0.00    -0.550 OA
ATOM     11  O   UNL     1      14.761   5.085  41.075  1.00  0.00    -0.550 OA
ENDBRANCH   8   9
ENDBRANCH   7   8
ENDBRANCH   6   7
ENDBRANCH   5   6
ENDBRANCH   4   5
ENDBRANCH   3   4
ENDBRANCH   2   3
ENDBRANCH   1   2
BRANCH   1  12
ATOM     12  C   UNL     1      10.871   0.864  41.567  1.00  0.00     0.000 C 
BRANCH  12  13
ATOM     13  C   UNL     1      10.247  -0.495  41.932  1.00  0.00    -0.000 C 
BRANCH  13  14
ATOM     14  C   UNL     1       9.145  -0.926  40.950  1.00  0.00    -0.000 C 
BRANCH  14  15
ATOM     15  C   UNL     1       9.704  -1.356  39.586  1.00  0.00    -0.000 C 
BRANCH  15  16
ATOM     16  C   UNL     1       8.885  -0.800  38.407  1.00  0.00    -0.000 C 
BRANCH  16  17
ATOM     17  C   UNL     1       9.192   0.688  38.135  1.00  0.00    -0.000 C 
BRANCH  17  18
ATOM     18  C   UNL     1      10.674   0.963  37.809  1.00  0.00    -0.000 C 
BRANCH  18  19
ATOM     19  C   UNL     1      10.930   1.484  36.386  1.00  0.00    -0.003 C 
ATOM     20  C   UNL     1       9.714   2.186  35.783  1.00  0.00     0.004 C 
ENDBRANCH  18  19
ENDBRANCH  17  18
ENDBRANCH  16  17
ENDBRANCH  15  16
ENDBRANCH  14  15
ENDBRANCH  13  14
ENDBRANCH  12  13
ENDBRANCH   1  12
TORSDOF 16
ENDMDL
MODEL 9
REMARK VINA RESULT:    -4.081      1.969      2.487
REMARK INTER + INTRA:         -10.001
REMARK INTER:                  -8.286
REMARK INTRA:                  -1.715
REMARK UNBOUND:                -2.103
REMARK SMILES CCCCCCCCCCCCCCCCCC(=O)[O-]
REMARK SMILES IDX 10 1 11 2 12 3 13 4 14 5 15 6 16 7 17 8 18 9 19 10 20 11
REMARK SMILES IDX 9 12 8 13 7 14 6 15 5 16 4 17 3 18 2 19 1 20
REMARK H PARENT
REMARK Flexibility Score: inf
ROOT
ATOM      1  C   UNL     1      16.511   4.515  40.608  1.00  0.00     0.000 C 
ENDROOT
BRANCH   1   2
ATOM      2  C   UNL     1      17.108   3.886  41.881  1.00  0.00     0.000 C 
BRANCH   2   3
ATOM      3  C   UNL     1      17.673   2.478  41.643  1.00  0.00     0.000 C 
BRANCH   3   4
ATOM      4  C   UNL     1      16.836   1.718  40.608  1.00  0.00     0.000 C 
BRANCH   4   5
ATOM      5  C   UNL     1      15.534   1.197  41.229  1.00  0.00     0.000 C 
BRANCH   5   6
ATOM      6  C   UNL     1      15.204  -0.212  40.715  1.00  0.00     0.000 C 
BRANCH   6   7
ATOM      7  C   UNL     1      13.976  -0.828  41.410  1.00  0.00     0.006 C 
BRANCH   7   8
ATOM      8  C   UNL     1      12.814  -1.166  40.462  1.00  0.00     0.053 C 
BRANCH   8   9
ATOM      9  C   UNL     1      11.543  -0.485  40.866  1.00  0.00     0.041 C 
ATOM     10  O   UNL     1      10.448  -0.829  40.349  1.00  0.00    -0.550 OA
ATOM     11  O   UNL     1      11.565   0.509  41.837  1.00  0.00    -0.550 OA
ENDBRANCH   8   9
ENDBRANCH   7   8
ENDBRANCH   6   7
ENDBRANCH   5   6
ENDBRANCH   4   5
ENDBRANCH   3   4
ENDBRANCH   2   3
ENDBRANCH   1   2
BRANCH   1  12
ATOM     12  C   UNL     1      15.477   5.633  40.855  1.00  0.00     0.000 C 
BRANCH  12  13
ATOM     13  C   UNL     1      14.670   5.497  42.158  1.00  0.00    -0.000 C 
BRANCH  13  14
ATOM     14  C   UNL     1      14.376   6.854  42.819  1.00  0.00    -0.000 C 
BRANCH  14  15
ATOM     15  C   UNL     1      14.520   8.031  41.841  1.00  0.00    -0.000 C 
BRANCH  15  16
ATOM     16  C   UNL     1      15.257   9.231  42.462  1.00  0.00    -0.000 C 
BRANCH  16  17
ATOM     17  C   UNL     1      16.505   9.633  41.649  1.00  0.00    -0.000 C 
BRANCH  17  18
ATOM     18  C   UNL     1      17.387   8.437  41.238  1.00  0.00    -0.000 C 
BRANCH  18  19
ATOM     19  C   UNL     1      18.510   8.098  42.231  1.00  0.00    -0.003 C 
ATOM     20  C   UNL     1      18.062   7.129  43.325  1.00  0.00     0.004 C 
ENDBRANCH  18  19
ENDBRANCH  17  18
ENDBRANCH  16  17
ENDBRANCH  15  16
ENDBRANCH  14  15
ENDBRANCH  13  14
ENDBRANCH  12  13
ENDBRANCH   1  12
TORSDOF 16
ENDMDL
