MODEL 1
REMARK VINA RESULT:    -7.319      0.000      0.000
REMARK INTER + INTRA:          -9.073
REMARK INTER:                  -8.817
REMARK INTRA:                  -0.256
REMARK UNBOUND:                -0.256
REMARK SMILES O=c1c(O)c(-c2ccc(O)c(O)c2)oc2cc(O)cc(O)c12
REMARK SMILES IDX 5 1 3 2 2 3 1 4 22 5 20 6 19 7 17 8 16 9 15 10 14 11 6 12
REMARK SMILES IDX 7 13 8 14 9 15 13 16 11 17 10 18 12 20 4 22 21 24 18 26
REMARK H PARENT 10 19 12 21 4 23 21 25 18 27
REMARK Flexibility Score: inf
ROOT
ATOM      1  C   UNL     1     -37.918   4.749  79.566  1.00  0.00     0.180 A 
ATOM      2  C   UNL     1     -38.440   4.761  80.871  1.00  0.00     0.208 A 
ATOM      3  C   UNL     1     -39.750   4.302  81.085  1.00  0.00     0.238 A 
ATOM      4  O   UNL     1     -40.191   4.265  82.264  1.00  0.00    -0.285 OA
ATOM      5  C   UNL     1     -40.526   3.854  79.990  1.00  0.00     0.111 A 
ATOM      6  C   UNL     1     -41.878   3.405  80.086  1.00  0.00     0.134 A 
ATOM      7  C   UNL     1     -42.506   2.860  78.959  1.00  0.00     0.093 A 
ATOM      8  C   UNL     1     -41.853   2.808  77.725  1.00  0.00     0.123 A 
ATOM      9  C   UNL     1     -40.555   3.298  77.609  1.00  0.00     0.094 A 
ATOM     10  C   UNL     1     -39.889   3.813  78.723  1.00  0.00     0.146 A 
ATOM     11  O   UNL     1     -38.648   4.260  78.571  1.00  0.00    -0.452 OA
ENDROOT
BRANCH   1  12
ATOM     12  C   UNL     1     -36.555   5.239  79.258  1.00  0.00     0.025 A 
ATOM     13  C   UNL     1     -35.414   4.492  79.603  1.00  0.00     0.016 A 
ATOM     14  C   UNL     1     -34.137   4.986  79.324  1.00  0.00     0.051 A 
ATOM     15  C   UNL     1     -33.980   6.236  78.711  1.00  0.00     0.157 A 
ATOM     16  C   UNL     1     -36.391   6.501  78.663  1.00  0.00     0.062 A 
ATOM     17  C   UNL     1     -35.110   6.996  78.384  1.00  0.00     0.158 A 
BRANCH  15  18
ATOM     18  O   UNL     1     -32.707   6.731  78.431  1.00  0.00    -0.504 OA
ATOM     19  H   UNL     1     -32.042   6.200  77.882  1.00  0.00     0.293 HD
ENDBRANCH  15  18
BRANCH  17  20
ATOM     20  O   UNL     1     -34.951   8.243  77.780  1.00  0.00    -0.504 OA
ATOM     21  H   UNL     1     -35.419   9.068  78.137  1.00  0.00     0.293 HD
ENDBRANCH  17  20
ENDBRANCH   1  12
BRANCH   2  22
ATOM     22  O   UNL     1     -37.648   5.189  81.941  1.00  0.00    -0.502 OA
ATOM     23  H   UNL     1     -36.637   5.201  81.898  1.00  0.00     0.293 HD
ENDBRANCH   2  22
BRANCH   6  24
ATOM     24  O   UNL     1     -42.651   3.497  81.247  1.00  0.00    -0.507 OA
ATOM     25  H   UNL     1     -42.691   2.792  81.968  1.00  0.00     0.293 HD
ENDBRANCH   6  24
BRANCH   8  26
ATOM     26  O   UNL     1     -42.491   2.279  76.606  1.00  0.00    -0.508 OA
ATOM     27  H   UNL     1     -43.472   2.453  76.423  1.00  0.00     0.293 HD
ENDBRANCH   8  26
TORSDOF 6
ENDMDL
MODEL 2
REMARK VINA RESULT:    -6.409      1.876      7.284
REMARK INTER + INTRA:          -7.976
REMARK INTER:                  -7.660
REMARK INTRA:                  -0.315
REMARK UNBOUND:                -0.256
REMARK SMILES O=c1c(O)c(-c2ccc(O)c(O)c2)oc2cc(O)cc(O)c12
REMARK SMILES IDX 5 1 3 2 2 3 1 4 22 5 20 6 19 7 17 8 16 9 15 10 14 11 6 12
REMARK SMILES IDX 7 13 8 14 9 15 13 16 11 17 10 18 12 20 4 22 21 24 18 26
REMARK H PARENT 10 19 12 21 4 23 21 25 18 27
REMARK Flexibility Score: inf
ROOT
ATOM      1  C   UNL     1     -38.326   6.071  78.199  1.00  0.00     0.180 A 
ATOM      2  C   UNL     1     -38.655   7.270  77.542  1.00  0.00     0.208 A 
ATOM      3  C   UNL     1     -37.637   8.199  77.271  1.00  0.00     0.238 A 
ATOM      4  O   UNL     1     -37.929   9.246  76.635  1.00  0.00    -0.285 OA
ATOM      5  C   UNL     1     -36.309   7.926  77.675  1.00  0.00     0.111 A 
ATOM      6  C   UNL     1     -35.207   8.814  77.487  1.00  0.00     0.134 A 
ATOM      7  C   UNL     1     -33.913   8.385  77.808  1.00  0.00     0.093 A 
ATOM      8  C   UNL     1     -33.689   7.124  78.369  1.00  0.00     0.123 A 
ATOM      9  C   UNL     1     -34.766   6.274  78.610  1.00  0.00     0.094 A 
ATOM     10  C   UNL     1     -36.064   6.660  78.267  1.00  0.00     0.146 A 
ATOM     11  O   UNL     1     -37.060   5.815  78.504  1.00  0.00    -0.452 OA
ENDROOT
BRANCH   1  12
ATOM     12  C   UNL     1     -39.347   5.055  78.540  1.00  0.00     0.025 A 
ATOM     13  C   UNL     1     -39.752   4.083  77.607  1.00  0.00     0.016 A 
ATOM     14  C   UNL     1     -40.735   3.148  77.943  1.00  0.00     0.051 A 
ATOM     15  C   UNL     1     -41.338   3.179  79.207  1.00  0.00     0.157 A 
ATOM     16  C   UNL     1     -39.970   5.094  79.798  1.00  0.00     0.062 A 
ATOM     17  C   UNL     1     -40.956   4.157  80.135  1.00  0.00     0.158 A 
BRANCH  15  18
ATOM     18  O   UNL     1     -42.318   2.248  79.545  1.00  0.00    -0.504 OA
ATOM     19  H   UNL     1     -42.832   1.739  78.836  1.00  0.00     0.293 HD
ENDBRANCH  15  18
BRANCH  17  20
ATOM     20  O   UNL     1     -41.563   4.190  81.390  1.00  0.00    -0.504 OA
ATOM     21  H   UNL     1     -42.357   4.791  81.579  1.00  0.00     0.293 HD
ENDBRANCH  17  20
ENDBRANCH   1  12
BRANCH   2  22
ATOM     22  O   UNL     1     -39.970   7.510  77.133  1.00  0.00    -0.502 OA
ATOM     23  H   UNL     1     -40.758   7.436  77.765  1.00  0.00     0.293 HD
ENDBRANCH   2  22
BRANCH   6  24
ATOM     24  O   UNL     1     -35.331  10.125  77.020  1.00  0.00    -0.507 OA
ATOM     25  H   UNL     1     -34.585  10.805  77.011  1.00  0.00     0.293 HD
ENDBRANCH   6  24
BRANCH   8  26
ATOM     26  O   UNL     1     -32.401   6.712  78.699  1.00  0.00    -0.508 OA
ATOM     27  H   UNL     1     -31.766   6.343  78.001  1.00  0.00     0.293 HD
ENDBRANCH   8  26
TORSDOF 6
ENDMDL
MODEL 3
REMARK VINA RESULT:    -6.389      1.614      6.806
REMARK INTER + INTRA:          -7.952
REMARK INTER:                  -8.163
REMARK INTRA:                   0.211
REMARK UNBOUND:                -0.256
REMARK SMILES O=c1c(O)c(-c2ccc(O)c(O)c2)oc2cc(O)cc(O)c12
REMARK SMILES IDX 5 1 3 2 2 3 1 4 22 5 20 6 19 7 17 8 16 9 15 10 14 11 6 12
REMARK SMILES IDX 7 13 8 14 9 15 13 16 11 17 10 18 12 20 4 22 21 24 18 26
REMARK H PARENT 10 19 12 21 4 23 21 25 18 27
REMARK Flexibility Score: inf
ROOT
ATOM      1  C   UNL     1     -38.063   3.880  80.024  1.00  0.00     0.180 A 
ATOM      2  C   UNL     1     -37.659   3.485  81.311  1.00  0.00     0.208 A 
ATOM      3  C   UNL     1     -36.360   3.795  81.743  1.00  0.00     0.238 A 
ATOM      4  O   UNL     1     -36.023   3.486  82.916  1.00  0.00    -0.285 OA
ATOM      5  C   UNL     1     -35.476   4.482  80.877  1.00  0.00     0.111 A 
ATOM      6  C   UNL     1     -34.124   4.813  81.196  1.00  0.00     0.134 A 
ATOM      7  C   UNL     1     -33.382   5.609  80.314  1.00  0.00     0.093 A 
ATOM      8  C   UNL     1     -33.921   6.031  79.096  1.00  0.00     0.123 A 
ATOM      9  C   UNL     1     -35.219   5.664  78.750  1.00  0.00     0.094 A 
ATOM     10  C   UNL     1     -35.997   4.901  79.625  1.00  0.00     0.146 A 
ATOM     11  O   UNL     1     -37.233   4.581  79.262  1.00  0.00    -0.452 OA
ENDROOT
BRANCH   1  12
ATOM     12  C   UNL     1     -39.408   3.568  79.490  1.00  0.00     0.025 A 
ATOM     13  C   UNL     1     -39.599   3.242  78.135  1.00  0.00     0.016 A 
ATOM     14  C   UNL     1     -40.882   2.975  77.647  1.00  0.00     0.051 A 
ATOM     15  C   UNL     1     -41.991   3.044  78.500  1.00  0.00     0.157 A 
ATOM     16  C   UNL     1     -40.526   3.656  80.335  1.00  0.00     0.062 A 
ATOM     17  C   UNL     1     -41.813   3.389  79.846  1.00  0.00     0.158 A 
BRANCH  15  18
ATOM     18  O   UNL     1     -43.271   2.778  78.017  1.00  0.00    -0.504 OA
ATOM     19  H   UNL     1     -44.059   3.369  78.252  1.00  0.00     0.293 HD
ENDBRANCH  15  18
BRANCH  17  20
ATOM     20  O   UNL     1     -42.919   3.464  80.691  1.00  0.00    -0.504 OA
ATOM     21  H   UNL     1     -43.865   3.403  80.333  1.00  0.00     0.293 HD
ENDBRANCH  17  20
ENDBRANCH   1  12
BRANCH   2  22
ATOM     22  O   UNL     1     -38.555   2.826  82.157  1.00  0.00    -0.502 OA
ATOM     23  H   UNL     1     -38.795   3.179  83.076  1.00  0.00     0.293 HD
ENDBRANCH   2  22
BRANCH   6  24
ATOM     24  O   UNL     1     -33.460   4.366  82.341  1.00  0.00    -0.507 OA
ATOM     25  H   UNL     1     -33.522   3.430  82.713  1.00  0.00     0.293 HD
ENDBRANCH   6  24
BRANCH   8  26
ATOM     26  O   UNL     1     -33.171   6.809  78.218  1.00  0.00    -0.508 OA
ATOM     27  H   UNL     1     -33.302   7.812  78.153  1.00  0.00     0.293 HD
ENDBRANCH   8  26
TORSDOF 6
ENDMDL
MODEL 4
REMARK VINA RESULT:    -6.275      1.592      3.242
REMARK INTER + INTRA:          -7.815
REMARK INTER:                  -7.594
REMARK INTRA:                  -0.220
REMARK UNBOUND:                -0.256
REMARK SMILES O=c1c(O)c(-c2ccc(O)c(O)c2)oc2cc(O)cc(O)c12
REMARK SMILES IDX 5 1 3 2 2 3 1 4 22 5 20 6 19 7 17 8 16 9 15 10 14 11 6 12
REMARK SMILES IDX 7 13 8 14 9 15 13 16 11 17 10 18 12 20 4 22 21 24 18 26
REMARK H PARENT 10 19 12 21 4 23 21 25 18 27
REMARK Flexibility Score: inf
ROOT
ATOM      1  C   UNL     1     -37.632   5.058  80.129  1.00  0.00     0.180 A 
ATOM      2  C   UNL     1     -38.670   4.951  79.187  1.00  0.00     0.208 A 
ATOM      3  C   UNL     1     -39.935   4.516  79.614  1.00  0.00     0.238 A 
ATOM      4  O   UNL     1     -40.874   4.473  78.776  1.00  0.00    -0.285 OA
ATOM      5  C   UNL     1     -40.142   4.177  80.972  1.00  0.00     0.111 A 
ATOM      6  C   UNL     1     -41.372   3.687  81.507  1.00  0.00     0.134 A 
ATOM      7  C   UNL     1     -41.500   3.510  82.890  1.00  0.00     0.093 A 
ATOM      8  C   UNL     1     -40.424   3.743  83.751  1.00  0.00     0.123 A 
ATOM      9  C   UNL     1     -39.203   4.165  83.231  1.00  0.00     0.094 A 
ATOM     10  C   UNL     1     -39.054   4.385  81.860  1.00  0.00     0.146 A 
ATOM     11  O   UNL     1     -37.876   4.798  81.407  1.00  0.00    -0.452 OA
ENDROOT
BRANCH   1  12
ATOM     12  C   UNL     1     -36.266   5.486  79.751  1.00  0.00     0.025 A 
ATOM     13  C   UNL     1     -35.184   4.588  79.778  1.00  0.00     0.016 A 
ATOM     14  C   UNL     1     -33.899   5.021  79.441  1.00  0.00     0.051 A 
ATOM     15  C   UNL     1     -33.673   6.357  79.085  1.00  0.00     0.157 A 
ATOM     16  C   UNL     1     -36.030   6.829  79.414  1.00  0.00     0.062 A 
ATOM     17  C   UNL     1     -34.741   7.263  79.075  1.00  0.00     0.158 A 
BRANCH  15  18
ATOM     18  O   UNL     1     -32.393   6.791  78.747  1.00  0.00    -0.504 OA
ATOM     19  H   UNL     1     -31.956   6.524  77.873  1.00  0.00     0.293 HD
ENDBRANCH  15  18
BRANCH  17  20
ATOM     20  O   UNL     1     -34.513   8.594  78.728  1.00  0.00    -0.504 OA
ATOM     21  H   UNL     1     -34.782   8.959  77.821  1.00  0.00     0.293 HD
ENDBRANCH  17  20
ENDBRANCH   1  12
BRANCH   2  22
ATOM     22  O   UNL     1     -38.450   5.309  77.854  1.00  0.00    -0.502 OA
ATOM     23  H   UNL     1     -37.918   6.131  77.593  1.00  0.00     0.293 HD
ENDBRANCH   2  22
BRANCH   6  24
ATOM     24  O   UNL     1     -42.477   3.337  80.728  1.00  0.00    -0.507 OA
ATOM     25  H   UNL     1     -42.887   2.415  80.694  1.00  0.00     0.293 HD
ENDBRANCH   6  24
BRANCH   8  26
ATOM     26  O   UNL     1     -40.557   3.549  85.123  1.00  0.00    -0.508 OA
ATOM     27  H   UNL     1     -41.316   3.967  85.647  1.00  0.00     0.293 HD
ENDBRANCH   8  26
TORSDOF 6
ENDMDL
MODEL 5
REMARK VINA RESULT:    -6.271      1.633      7.140
REMARK INTER + INTRA:          -7.810
REMARK INTER:                  -7.792
REMARK INTRA:                  -0.017
REMARK UNBOUND:                -0.256
REMARK SMILES O=c1c(O)c(-c2ccc(O)c(O)c2)oc2cc(O)cc(O)c12
REMARK SMILES IDX 5 1 3 2 2 3 1 4 22 5 20 6 19 7 17 8 16 9 15 10 14 11 6 12
REMARK SMILES IDX 7 13 8 14 9 15 13 16 11 17 10 18 12 20 4 22 21 24 18 26
REMARK H PARENT 10 19 12 21 4 23 21 25 18 27
REMARK Flexibility Score: inf
ROOT
ATOM      1  C   UNL     1     -38.405   4.574  79.222  1.00  0.00     0.180 A 
ATOM      2  C   UNL     1     -37.965   5.538  78.298  1.00  0.00     0.208 A 
ATOM      3  C   UNL     1     -36.671   6.067  78.430  1.00  0.00     0.238 A 
ATOM      4  O   UNL     1     -36.264   6.889  77.568  1.00  0.00    -0.285 OA
ATOM      5  C   UNL     1     -35.841   5.640  79.494  1.00  0.00     0.111 A 
ATOM      6  C   UNL     1     -34.527   6.139  79.747  1.00  0.00     0.134 A 
ATOM      7  C   UNL     1     -33.746   5.549  80.748  1.00  0.00     0.093 A 
ATOM      8  C   UNL     1     -34.255   4.523  81.549  1.00  0.00     0.123 A 
ATOM      9  C   UNL     1     -35.557   4.070  81.348  1.00  0.00     0.094 A 
ATOM     10  C   UNL     1     -36.347   4.613  80.333  1.00  0.00     0.146 A 
ATOM     11  O   UNL     1     -37.579   4.145  80.168  1.00  0.00    -0.452 OA
ENDROOT
BRANCH   1  12
ATOM     12  C   UNL     1     -39.763   3.988  79.162  1.00  0.00     0.025 A 
ATOM     13  C   UNL     1     -40.259   3.411  77.979  1.00  0.00     0.016 A 
ATOM     14  C   UNL     1     -41.553   2.886  77.939  1.00  0.00     0.051 A 
ATOM     15  C   UNL     1     -42.375   2.942  79.072  1.00  0.00     0.157 A 
ATOM     16  C   UNL     1     -40.599   4.060  80.288  1.00  0.00     0.062 A 
ATOM     17  C   UNL     1     -41.898   3.534  80.248  1.00  0.00     0.158 A 
BRANCH  15  18
ATOM     18  O   UNL     1     -43.666   2.418  79.035  1.00  0.00    -0.504 OA
ATOM     19  H   UNL     1     -44.473   2.980  79.277  1.00  0.00     0.293 HD
ENDBRANCH  15  18
BRANCH  17  20
ATOM     20  O   UNL     1     -42.720   3.594  81.372  1.00  0.00    -0.504 OA
ATOM     21  H   UNL     1     -43.485   4.256  81.434  1.00  0.00     0.293 HD
ENDBRANCH  17  20
ENDBRANCH   1  12
BRANCH   2  22
ATOM     22  O   UNL     1     -38.793   5.930  77.243  1.00  0.00    -0.502 OA
ATOM     23  H   UNL     1     -38.531   6.654  76.585  1.00  0.00     0.293 HD
ENDBRANCH   2  22
BRANCH   6  24
ATOM     24  O   UNL     1     -33.958   7.219  79.068  1.00  0.00    -0.507 OA
ATOM     25  H   UNL     1     -34.362   7.667  78.259  1.00  0.00     0.293 HD
ENDBRANCH   6  24
BRANCH   8  26
ATOM     26  O   UNL     1     -33.477   3.953  82.553  1.00  0.00    -0.508 OA
ATOM     27  H   UNL     1     -33.863   3.282  83.207  1.00  0.00     0.293 HD
ENDBRANCH   8  26
TORSDOF 6
ENDMDL
MODEL 6
REMARK VINA RESULT:    -6.182      1.311      6.863
REMARK INTER + INTRA:          -7.703
REMARK INTER:                  -7.591
REMARK INTRA:                  -0.112
REMARK UNBOUND:                -0.256
REMARK SMILES O=c1c(O)c(-c2ccc(O)c(O)c2)oc2cc(O)cc(O)c12
REMARK SMILES IDX 5 1 3 2 2 3 1 4 22 5 20 6 19 7 17 8 16 9 15 10 14 11 6 12
REMARK SMILES IDX 7 13 8 14 9 15 13 16 11 17 10 18 12 20 4 22 21 24 18 26
REMARK H PARENT 10 19 12 21 4 23 21 25 18 27
REMARK Flexibility Score: inf
ROOT
ATOM      1  C   UNL     1     -38.131   4.533  79.320  1.00  0.00     0.180 A 
ATOM      2  C   UNL     1     -37.176   3.993  80.199  1.00  0.00     0.208 A 
ATOM      3  C   UNL     1     -35.881   4.536  80.216  1.00  0.00     0.238 A 
ATOM      4  O   UNL     1     -35.047   4.083  81.043  1.00  0.00    -0.285 OA
ATOM      5  C   UNL     1     -35.553   5.600  79.342  1.00  0.00     0.111 A 
ATOM      6  C   UNL     1     -34.261   6.200  79.247  1.00  0.00     0.134 A 
ATOM      7  C   UNL     1     -34.084   7.333  78.443  1.00  0.00     0.093 A 
ATOM      8  C   UNL     1     -35.136   7.848  77.681  1.00  0.00     0.123 A 
ATOM      9  C   UNL     1     -36.385   7.233  77.723  1.00  0.00     0.094 A 
ATOM     10  C   UNL     1     -36.602   6.124  78.544  1.00  0.00     0.146 A 
ATOM     11  O   UNL     1     -37.811   5.575  78.563  1.00  0.00    -0.452 OA
ENDROOT
BRANCH   1  12
ATOM     12  C   UNL     1     -39.508   3.999  79.229  1.00  0.00     0.025 A 
ATOM     13  C   UNL     1     -40.014   3.483  78.022  1.00  0.00     0.016 A 
ATOM     14  C   UNL     1     -41.326   3.007  77.953  1.00  0.00     0.051 A 
ATOM     15  C   UNL     1     -42.155   3.051  79.081  1.00  0.00     0.157 A 
ATOM     16  C   UNL     1     -40.351   4.060  80.351  1.00  0.00     0.062 A 
ATOM     17  C   UNL     1     -41.667   3.582  80.282  1.00  0.00     0.158 A 
BRANCH  15  18
ATOM     18  O   UNL     1     -43.464   2.576  79.016  1.00  0.00    -0.504 OA
ATOM     19  H   UNL     1     -44.209   3.000  79.555  1.00  0.00     0.293 HD
ENDBRANCH  15  18
BRANCH  17  20
ATOM     20  O   UNL     1     -42.496   3.632  81.401  1.00  0.00    -0.504 OA
ATOM     21  H   UNL     1     -42.134   3.479  82.336  1.00  0.00     0.293 HD
ENDBRANCH  17  20
ENDBRANCH   1  12
BRANCH   2  22
ATOM     22  O   UNL     1     -37.527   2.956  81.068  1.00  0.00    -0.502 OA
ATOM     23  H   UNL     1     -38.012   2.124  80.754  1.00  0.00     0.293 HD
ENDBRANCH   2  22
BRANCH   6  24
ATOM     24  O   UNL     1     -33.123   5.710  79.893  1.00  0.00    -0.507 OA
ATOM     25  H   UNL     1     -33.116   5.303  80.816  1.00  0.00     0.293 HD
ENDBRANCH   6  24
BRANCH   8  26
ATOM     26  O   UNL     1     -34.948   8.965  76.872  1.00  0.00    -0.508 OA
ATOM     27  H   UNL     1     -35.028   9.906  77.240  1.00  0.00     0.293 HD
ENDBRANCH   8  26
TORSDOF 6
ENDMDL
MODEL 7
REMARK VINA RESULT:    -6.092      8.977     11.130
REMARK INTER + INTRA:          -7.594
REMARK INTER:                  -7.285
REMARK INTRA:                  -0.309
REMARK UNBOUND:                -0.256
REMARK SMILES O=c1c(O)c(-c2ccc(O)c(O)c2)oc2cc(O)cc(O)c12
REMARK SMILES IDX 5 1 3 2 2 3 1 4 22 5 20 6 19 7 17 8 16 9 15 10 14 11 6 12
REMARK SMILES IDX 7 13 8 14 9 15 13 16 11 17 10 18 12 20 4 22 21 24 18 26
REMARK H PARENT 10 19 12 21 4 23 21 25 18 27
REMARK Flexibility Score: inf
ROOT
ATOM      1  C   UNL     1     -42.470  -4.880  82.257  1.00  0.00     0.180 A 
ATOM      2  C   UNL     1     -42.887  -6.076  82.865  1.00  0.00     0.208 A 
ATOM      3  C   UNL     1     -43.997  -6.757  82.339  1.00  0.00     0.238 A 
ATOM      4  O   UNL     1     -44.332  -7.856  82.855  1.00  0.00    -0.285 OA
ATOM      5  C   UNL     1     -44.684  -6.225  81.222  1.00  0.00     0.111 A 
ATOM      6  C   UNL     1     -45.844  -6.810  80.631  1.00  0.00     0.134 A 
ATOM      7  C   UNL     1     -46.364  -6.269  79.449  1.00  0.00     0.093 A 
ATOM      8  C   UNL     1     -45.805  -5.126  78.872  1.00  0.00     0.123 A 
ATOM      9  C   UNL     1     -44.709  -4.514  79.475  1.00  0.00     0.094 A 
ATOM     10  C   UNL     1     -44.145  -5.051  80.634  1.00  0.00     0.146 A 
ATOM     11  O   UNL     1     -43.094  -4.443  81.171  1.00  0.00    -0.452 OA
ENDROOT
BRANCH   1  12
ATOM     12  C   UNL     1     -41.324  -4.094  82.769  1.00  0.00     0.025 A 
ATOM     13  C   UNL     1     -41.518  -2.980  83.606  1.00  0.00     0.016 A 
ATOM     14  C   UNL     1     -40.423  -2.238  84.057  1.00  0.00     0.051 A 
ATOM     15  C   UNL     1     -39.123  -2.587  83.669  1.00  0.00     0.157 A 
ATOM     16  C   UNL     1     -40.021  -4.427  82.367  1.00  0.00     0.062 A 
ATOM     17  C   UNL     1     -38.922  -3.682  82.819  1.00  0.00     0.158 A 
BRANCH  15  18
ATOM     18  O   UNL     1     -38.029  -1.850  84.118  1.00  0.00    -0.504 OA
ATOM     19  H   UNL     1     -37.576  -1.162  83.529  1.00  0.00     0.293 HD
ENDBRANCH  15  18
BRANCH  17  20
ATOM     20  O   UNL     1     -37.629  -4.025  82.429  1.00  0.00    -0.504 OA
ATOM     21  H   UNL     1     -36.995  -3.339  82.033  1.00  0.00     0.293 HD
ENDBRANCH  17  20
ENDBRANCH   1  12
BRANCH   2  22
ATOM     22  O   UNL     1     -42.181  -6.595  83.954  1.00  0.00    -0.502 OA
ATOM     23  H   UNL     1     -41.696  -7.483  83.915  1.00  0.00     0.293 HD
ENDBRANCH   2  22
BRANCH   6  24
ATOM     24  O   UNL     1     -46.534  -7.897  81.176  1.00  0.00    -0.507 OA
ATOM     25  H   UNL     1     -47.529  -7.920  81.345  1.00  0.00     0.293 HD
ENDBRANCH   6  24
BRANCH   8  26
ATOM     26  O   UNL     1     -46.338  -4.585  77.706  1.00  0.00    -0.508 OA
ATOM     27  H   UNL     1     -46.982  -3.802  77.729  1.00  0.00     0.293 HD
ENDBRANCH   8  26
TORSDOF 6
ENDMDL
MODEL 8
REMARK VINA RESULT:    -5.960      9.217     12.054
REMARK INTER + INTRA:          -7.436
REMARK INTER:                  -7.170
REMARK INTRA:                  -0.266
REMARK UNBOUND:                -0.256
REMARK SMILES O=c1c(O)c(-c2ccc(O)c(O)c2)oc2cc(O)cc(O)c12
REMARK SMILES IDX 5 1 3 2 2 3 1 4 22 5 20 6 19 7 17 8 16 9 15 10 14 11 6 12
REMARK SMILES IDX 7 13 8 14 9 15 13 16 11 17 10 18 12 20 4 22 21 24 18 26
REMARK H PARENT 10 19 12 21 4 23 21 25 18 27
REMARK Flexibility Score: inf
ROOT
ATOM      1  C   UNL     1     -41.011  -4.831  82.166  1.00  0.00     0.180 A 
ATOM      2  C   UNL     1     -41.280  -3.631  82.847  1.00  0.00     0.208 A 
ATOM      3  C   UNL     1     -40.237  -2.988  83.533  1.00  0.00     0.238 A 
ATOM      4  O   UNL     1     -40.472  -1.887  84.095  1.00  0.00    -0.285 OA
ATOM      5  C   UNL     1     -38.943  -3.562  83.543  1.00  0.00     0.111 A 
ATOM      6  C   UNL     1     -37.822  -3.018  84.239  1.00  0.00     0.134 A 
ATOM      7  C   UNL     1     -36.558  -3.598  84.072  1.00  0.00     0.093 A 
ATOM      8  C   UNL     1     -36.388  -4.741  83.287  1.00  0.00     0.123 A 
ATOM      9  C   UNL     1     -37.487  -5.314  82.652  1.00  0.00     0.094 A 
ATOM     10  C   UNL     1     -38.754  -4.737  82.770  1.00  0.00     0.146 A 
ATOM     11  O   UNL     1     -39.773  -5.308  82.139  1.00  0.00    -0.452 OA
ENDROOT
BRANCH   1  12
ATOM     12  C   UNL     1     -42.064  -5.578  81.441  1.00  0.00     0.025 A 
ATOM     13  C   UNL     1     -43.055  -6.300  82.130  1.00  0.00     0.016 A 
ATOM     14  C   UNL     1     -44.024  -7.018  81.425  1.00  0.00     0.051 A 
ATOM     15  C   UNL     1     -44.010  -7.038  80.024  1.00  0.00     0.157 A 
ATOM     16  C   UNL     1     -42.042  -5.619  80.037  1.00  0.00     0.062 A 
ATOM     17  C   UNL     1     -43.014  -6.340  79.330  1.00  0.00     0.158 A 
BRANCH  15  18
ATOM     18  O   UNL     1     -44.976  -7.753  79.317  1.00  0.00    -0.504 OA
ATOM     19  H   UNL     1     -45.965  -7.573  79.442  1.00  0.00     0.293 HD
ENDBRANCH  15  18
BRANCH  17  20
ATOM     20  O   UNL     1     -42.997  -6.366  77.936  1.00  0.00    -0.504 OA
ATOM     21  H   UNL     1     -42.157  -6.150  77.411  1.00  0.00     0.293 HD
ENDBRANCH  17  20
ENDBRANCH   1  12
BRANCH   2  22
ATOM     22  O   UNL     1     -42.560  -3.071  82.806  1.00  0.00    -0.502 OA
ATOM     23  H   UNL     1     -43.360  -3.569  82.434  1.00  0.00     0.293 HD
ENDBRANCH   2  22
BRANCH   6  24
ATOM     24  O   UNL     1     -37.899  -1.935  85.120  1.00  0.00    -0.507 OA
ATOM     25  H   UNL     1     -37.178  -1.675  85.775  1.00  0.00     0.293 HD
ENDBRANCH   6  24
BRANCH   8  26
ATOM     26  O   UNL     1     -35.131  -5.321  83.140  1.00  0.00    -0.508 OA
ATOM     27  H   UNL     1     -34.946  -6.271  83.441  1.00  0.00     0.293 HD
ENDBRANCH   8  26
TORSDOF 6
ENDMDL
MODEL 9
REMARK VINA RESULT:    -5.888     10.590     11.288
REMARK INTER + INTRA:          -7.349
REMARK INTER:                  -7.198
REMARK INTRA:                  -0.151
REMARK UNBOUND:                -0.256
REMARK SMILES O=c1c(O)c(-c2ccc(O)c(O)c2)oc2cc(O)cc(O)c12
REMARK SMILES IDX 5 1 3 2 2 3 1 4 22 5 20 6 19 7 17 8 16 9 15 10 14 11 6 12
REMARK SMILES IDX 7 13 8 14 9 15 13 16 11 17 10 18 12 20 4 22 21 24 18 26
REMARK H PARENT 10 19 12 21 4 23 21 25 18 27
REMARK Flexibility Score: inf
ROOT
ATOM      1  C   UNL     1     -39.160  -5.733  82.592  1.00  0.00     0.180 A 
ATOM      2  C   UNL     1     -39.670  -5.154  83.767  1.00  0.00     0.208 A 
ATOM      3  C   UNL     1     -40.977  -4.643  83.763  1.00  0.00     0.238 A 
ATOM      4  O   UNL     1     -41.446  -4.175  84.834  1.00  0.00    -0.285 OA
ATOM      5  C   UNL     1     -41.752  -4.701  82.580  1.00  0.00     0.111 A 
ATOM      6  C   UNL     1     -43.074  -4.177  82.452  1.00  0.00     0.134 A 
ATOM      7  C   UNL     1     -43.796  -4.408  81.274  1.00  0.00     0.093 A 
ATOM      8  C   UNL     1     -43.220  -5.086  80.197  1.00  0.00     0.123 A 
ATOM      9  C   UNL     1     -41.910  -5.549  80.292  1.00  0.00     0.094 A 
ATOM     10  C   UNL     1     -41.177  -5.367  81.467  1.00  0.00     0.146 A 
ATOM     11  O   UNL     1     -39.936  -5.833  81.519  1.00  0.00    -0.452 OA
ENDROOT
BRANCH   1  12
ATOM     12  C   UNL     1     -37.783  -6.272  82.512  1.00  0.00     0.025 A 
ATOM     13  C   UNL     1     -36.662  -5.448  82.722  1.00  0.00     0.016 A 
ATOM     14  C   UNL     1     -35.372  -5.973  82.617  1.00  0.00     0.051 A 
ATOM     15  C   UNL     1     -35.181  -7.321  82.287  1.00  0.00     0.157 A 
ATOM     16  C   UNL     1     -37.585  -7.617  82.161  1.00  0.00     0.062 A 
ATOM     17  C   UNL     1     -36.291  -8.144  82.055  1.00  0.00     0.158 A 
BRANCH  15  18
ATOM     18  O   UNL     1     -33.895  -7.848  82.183  1.00  0.00    -0.504 OA
ATOM     19  H   UNL     1     -33.649  -8.734  82.609  1.00  0.00     0.293 HD
ENDBRANCH  15  18
BRANCH  17  20
ATOM     20  O   UNL     1     -36.099  -9.483  81.721  1.00  0.00    -0.504 OA
ATOM     21  H   UNL     1     -35.570 -10.109  82.318  1.00  0.00     0.293 HD
ENDBRANCH  17  20
ENDBRANCH   1  12
BRANCH   2  22
ATOM     22  O   UNL     1     -38.894  -5.126  84.930  1.00  0.00    -0.502 OA
ATOM     23  H   UNL     1     -38.604  -5.968  85.410  1.00  0.00     0.293 HD
ENDBRANCH   2  22
BRANCH   6  24
ATOM     24  O   UNL     1     -43.708  -3.408  83.431  1.00  0.00    -0.507 OA
ATOM     25  H   UNL     1     -43.286  -2.626  83.910  1.00  0.00     0.293 HD
ENDBRANCH   6  24
BRANCH   8  26
ATOM     26  O   UNL     1     -43.940  -5.297  79.023  1.00  0.00    -0.508 OA
ATOM     27  H   UNL     1     -44.894  -4.971  78.920  1.00  0.00     0.293 HD
ENDBRANCH   8  26
TORSDOF 6
ENDMDL
