MODEL 1
REMARK VINA RESULT:    -6.336      0.000      0.000
REMARK INTER + INTRA:          -6.522
REMARK INTER:                  -6.522
REMARK INTRA:                   0.000
REMARK UNBOUND:                 0.000
REMARK SMILES O=c1ccc2ccc(O)cc2o1
REMARK SMILES IDX 6 1 7 2 8 3 10 4 11 5 5 6 4 7 3 8 2 9 1 10 12 11 9 12
REMARK H PARENT 9 13
REMARK Flexibility Score: inf
ROOT
ATOM      1  C   UNL     1      49.900 -48.403 165.397  1.00  0.00     0.016 A 
ATOM      2  C   UNL     1      48.719 -47.854 164.887  1.00  0.00     0.047 A 
ATOM      3  C   UNL     1      48.671 -46.509 164.503  1.00  0.00     0.119 A 
ATOM      4  C   UNL     1      49.814 -45.704 164.629  1.00  0.00     0.094 A 
ATOM      5  C   UNL     1      51.000 -46.245 165.138  1.00  0.00     0.142 A 
ATOM      6  C   UNL     1      51.044 -47.603 165.525  1.00  0.00     0.018 A 
ATOM      7  C   UNL     1      52.243 -48.114 166.030  1.00  0.00     0.019 A 
ATOM      8  C   UNL     1      53.353 -47.277 166.137  1.00  0.00     0.094 A 
ATOM      9  C   UNL     1      53.236 -45.941 165.735  1.00  0.00     0.336 A 
ATOM     10  O   UNL     1      54.226 -45.169 165.824  1.00  0.00    -0.246 OA
ATOM     11  O   UNL     1      52.083 -45.480 165.257  1.00  0.00    -0.423 OA
ENDROOT
BRANCH   3  12
ATOM     12  O   UNL     1      47.486 -45.981 163.997  1.00  0.00    -0.508 OA
ATOM     13  H   UNL     1      47.075 -46.327 163.138  1.00  0.00     0.293 HD
ENDBRANCH   3  12
TORSDOF 1
ENDMDL
MODEL 2
REMARK VINA RESULT:    -6.271      1.668      2.332
REMARK INTER + INTRA:          -6.454
REMARK INTER:                  -6.454
REMARK INTRA:                   0.000
REMARK UNBOUND:                 0.000
REMARK SMILES O=c1ccc2ccc(O)cc2o1
REMARK SMILES IDX 6 1 7 2 8 3 10 4 11 5 5 6 4 7 3 8 2 9 1 10 12 11 9 12
REMARK H PARENT 9 13
REMARK Flexibility Score: inf
ROOT
ATOM      1  C   UNL     1      49.766 -46.100 164.779  1.00  0.00     0.016 A 
ATOM      2  C   UNL     1      48.648 -46.933 164.671  1.00  0.00     0.047 A 
ATOM      3  C   UNL     1      48.727 -48.277 165.055  1.00  0.00     0.119 A 
ATOM      4  C   UNL     1      49.933 -48.793 165.552  1.00  0.00     0.094 A 
ATOM      5  C   UNL     1      51.056 -47.967 165.664  1.00  0.00     0.142 A 
ATOM      6  C   UNL     1      50.974 -46.612 165.275  1.00  0.00     0.018 A 
ATOM      7  C   UNL     1      52.113 -45.812 165.399  1.00  0.00     0.019 A 
ATOM      8  C   UNL     1      53.290 -46.369 165.898  1.00  0.00     0.094 A 
ATOM      9  C   UNL     1      53.299 -47.719 166.263  1.00  0.00     0.336 A 
ATOM     10  O   UNL     1      54.351 -48.241 166.716  1.00  0.00    -0.246 OA
ATOM     11  O   UNL     1      52.200 -48.460 166.136  1.00  0.00    -0.423 OA
ENDROOT
BRANCH   3  12
ATOM     12  O   UNL     1      47.602 -49.091 164.940  1.00  0.00    -0.508 OA
ATOM     13  H   UNL     1      47.424 -49.635 164.104  1.00  0.00     0.293 HD
ENDBRANCH   3  12
TORSDOF 1
ENDMDL
MODEL 3
REMARK VINA RESULT:    -6.268     10.265     13.411
REMARK INTER + INTRA:          -6.451
REMARK INTER:                  -6.451
REMARK INTRA:                   0.000
REMARK UNBOUND:                 0.000
REMARK SMILES O=c1ccc2ccc(O)cc2o1
REMARK SMILES IDX 6 1 7 2 8 3 10 4 11 5 5 6 4 7 3 8 2 9 1 10 12 11 9 12
REMARK H PARENT 9 13
REMARK Flexibility Score: inf
ROOT
ATOM      1  C   UNL     1      39.740 -49.242 162.927  1.00  0.00     0.016 A 
ATOM      2  C   UNL     1      40.975 -48.587 162.934  1.00  0.00     0.047 A 
ATOM      3  C   UNL     1      41.158 -47.412 162.195  1.00  0.00     0.119 A 
ATOM      4  C   UNL     1      40.097 -46.887 161.442  1.00  0.00     0.094 A 
ATOM      5  C   UNL     1      38.857 -47.536 161.429  1.00  0.00     0.142 A 
ATOM      6  C   UNL     1      38.677 -48.721 162.176  1.00  0.00     0.018 A 
ATOM      7  C   UNL     1      37.427 -49.347 162.143  1.00  0.00     0.019 A 
ATOM      8  C   UNL     1      36.402 -48.788 161.381  1.00  0.00     0.094 A 
ATOM      9  C   UNL     1      36.653 -47.612 160.665  1.00  0.00     0.336 A 
ATOM     10  O   UNL     1      35.741 -47.093 159.970  1.00  0.00    -0.246 OA
ATOM     11  O   UNL     1      37.851 -47.036 160.713  1.00  0.00    -0.423 OA
ENDROOT
BRANCH   3  12
ATOM     12  O   UNL     1      42.396 -46.774 162.215  1.00  0.00    -0.508 OA
ATOM     13  H   UNL     1      43.249 -47.278 162.426  1.00  0.00     0.293 HD
ENDBRANCH   3  12
TORSDOF 1
ENDMDL
MODEL 4
REMARK VINA RESULT:    -6.104     10.089     13.293
REMARK INTER + INTRA:          -6.283
REMARK INTER:                  -6.283
REMARK INTRA:                   0.000
REMARK UNBOUND:                 0.000
REMARK SMILES O=c1ccc2ccc(O)cc2o1
REMARK SMILES IDX 6 1 7 2 8 3 10 4 11 5 5 6 4 7 3 8 2 9 1 10 12 11 9 12
REMARK H PARENT 9 13
REMARK Flexibility Score: inf
ROOT
ATOM      1  C   UNL     1      40.476 -47.397 161.766  1.00  0.00     0.016 A 
ATOM      2  C   UNL     1      41.514 -47.943 162.528  1.00  0.00     0.047 A 
ATOM      3  C   UNL     1      41.302 -49.101 163.286  1.00  0.00     0.119 A 
ATOM      4  C   UNL     1      40.042 -49.719 163.283  1.00  0.00     0.094 A 
ATOM      5  C   UNL     1      38.999 -49.180 162.524  1.00  0.00     0.142 A 
ATOM      6  C   UNL     1      39.216 -48.011 161.760  1.00  0.00     0.018 A 
ATOM      7  C   UNL     1      38.153 -47.496 161.012  1.00  0.00     0.019 A 
ATOM      8  C   UNL     1      36.919 -48.145 161.039  1.00  0.00     0.094 A 
ATOM      9  C   UNL     1      36.777 -49.298 161.819  1.00  0.00     0.336 A 
ATOM     10  O   UNL     1      35.670 -49.897 161.858  1.00  0.00    -0.246 OA
ATOM     11  O   UNL     1      37.804 -49.767 162.522  1.00  0.00    -0.423 OA
ENDROOT
BRANCH   3  12
ATOM     12  O   UNL     1      42.349 -49.630 164.038  1.00  0.00    -0.508 OA
ATOM     13  H   UNL     1      43.220 -49.127 164.162  1.00  0.00     0.293 HD
ENDBRANCH   3  12
TORSDOF 1
ENDMDL
MODEL 5
REMARK VINA RESULT:    -6.050      5.269      7.474
REMARK INTER + INTRA:          -6.227
REMARK INTER:                  -6.227
REMARK INTRA:                   0.000
REMARK UNBOUND:                 0.000
REMARK SMILES O=c1ccc2ccc(O)cc2o1
REMARK SMILES IDX 6 1 7 2 8 3 10 4 11 5 5 6 4 7 3 8 2 9 1 10 12 11 9 12
REMARK H PARENT 9 13
REMARK Flexibility Score: inf
ROOT
ATOM      1  C   UNL     1      42.613 -48.000 162.876  1.00  0.00     0.016 A 
ATOM      2  C   UNL     1      41.655 -48.576 163.717  1.00  0.00     0.047 A 
ATOM      3  C   UNL     1      41.861 -48.616 165.102  1.00  0.00     0.119 A 
ATOM      4  C   UNL     1      43.034 -48.076 165.650  1.00  0.00     0.094 A 
ATOM      5  C   UNL     1      43.997 -47.498 164.817  1.00  0.00     0.142 A 
ATOM      6  C   UNL     1      43.786 -47.460 163.421  1.00  0.00     0.018 A 
ATOM      7  C   UNL     1      44.767 -46.876 162.613  1.00  0.00     0.019 A 
ATOM      8  C   UNL     1      45.917 -46.352 163.204  1.00  0.00     0.094 A 
ATOM      9  C   UNL     1      46.058 -46.426 164.594  1.00  0.00     0.336 A 
ATOM     10  O   UNL     1      47.089 -45.959 165.146  1.00  0.00    -0.246 OA
ATOM     11  O   UNL     1      45.110 -46.986 165.340  1.00  0.00    -0.423 OA
ENDROOT
BRANCH   3  12
ATOM     12  O   UNL     1      40.895 -49.193 165.923  1.00  0.00    -0.508 OA
ATOM     13  H   UNL     1      39.971 -49.422 165.575  1.00  0.00     0.293 HD
ENDBRANCH   3  12
TORSDOF 1
ENDMDL
MODEL 6
REMARK VINA RESULT:    -6.038      5.972      9.248
REMARK INTER + INTRA:          -6.214
REMARK INTER:                  -6.214
REMARK INTRA:                   0.000
REMARK UNBOUND:                 0.000
REMARK SMILES O=c1ccc2ccc(O)cc2o1
REMARK SMILES IDX 6 1 7 2 8 3 10 4 11 5 5 6 4 7 3 8 2 9 1 10 12 11 9 12
REMARK H PARENT 9 13
REMARK Flexibility Score: inf
ROOT
ATOM      1  C   UNL     1      44.915 -47.382 162.602  1.00  0.00     0.016 A 
ATOM      2  C   UNL     1      45.946 -47.908 163.388  1.00  0.00     0.047 A 
ATOM      3  C   UNL     1      45.674 -48.896 164.342  1.00  0.00     0.119 A 
ATOM      4  C   UNL     1      44.362 -49.362 164.513  1.00  0.00     0.094 A 
ATOM      5  C   UNL     1      43.325 -48.842 163.731  1.00  0.00     0.142 A 
ATOM      6  C   UNL     1      43.603 -47.845 162.770  1.00  0.00     0.018 A 
ATOM      7  C   UNL     1      42.546 -47.344 162.004  1.00  0.00     0.019 A 
ATOM      8  C   UNL     1      41.258 -47.838 162.208  1.00  0.00     0.094 A 
ATOM      9  C   UNL     1      41.057 -48.825 163.179  1.00  0.00     0.336 A 
ATOM     10  O   UNL     1      39.902 -49.284 163.380  1.00  0.00    -0.246 OA
ATOM     11  O   UNL     1      42.080 -49.285 163.895  1.00  0.00    -0.423 OA
ENDROOT
BRANCH   3  12
ATOM     12  O   UNL     1      46.714 -49.408 165.115  1.00  0.00    -0.508 OA
ATOM     13  H   UNL     1      47.264 -50.201 164.805  1.00  0.00     0.293 HD
ENDBRANCH   3  12
TORSDOF 1
ENDMDL
MODEL 7
REMARK VINA RESULT:    -6.030      3.638      5.543
REMARK INTER + INTRA:          -6.206
REMARK INTER:                  -6.206
REMARK INTRA:                   0.000
REMARK UNBOUND:                 0.000
REMARK SMILES O=c1ccc2ccc(O)cc2o1
REMARK SMILES IDX 6 1 7 2 8 3 10 4 11 5 5 6 4 7 3 8 2 9 1 10 12 11 9 12
REMARK H PARENT 9 13
REMARK Flexibility Score: inf
ROOT
ATOM      1  C   UNL     1      44.433 -46.868 164.739  1.00  0.00     0.016 A 
ATOM      2  C   UNL     1      43.528 -47.903 164.481  1.00  0.00     0.047 A 
ATOM      3  C   UNL     1      43.990 -49.200 164.227  1.00  0.00     0.119 A 
ATOM      4  C   UNL     1      45.368 -49.466 164.232  1.00  0.00     0.094 A 
ATOM      5  C   UNL     1      46.280 -48.437 164.489  1.00  0.00     0.142 A 
ATOM      6  C   UNL     1      45.811 -47.129 164.744  1.00  0.00     0.018 A 
ATOM      7  C   UNL     1      46.746 -46.122 164.998  1.00  0.00     0.019 A 
ATOM      8  C   UNL     1      48.105 -46.433 164.992  1.00  0.00     0.094 A 
ATOM      9  C   UNL     1      48.498 -47.751 164.731  1.00  0.00     0.336 A 
ATOM     10  O   UNL     1      49.720 -48.052 164.721  1.00  0.00    -0.246 OA
ATOM     11  O   UNL     1      47.587 -48.691 164.493  1.00  0.00    -0.423 OA
ENDROOT
BRANCH   3  12
ATOM     12  O   UNL     1      43.074 -50.218 163.972  1.00  0.00    -0.508 OA
ATOM     13  H   UNL     1      43.359 -51.096 163.555  1.00  0.00     0.293 HD
ENDBRANCH   3  12
TORSDOF 1
ENDMDL
MODEL 8
REMARK VINA RESULT:    -5.956      5.591      8.898
REMARK INTER + INTRA:          -6.130
REMARK INTER:                  -6.130
REMARK INTRA:                   0.000
REMARK UNBOUND:                 0.000
REMARK SMILES O=c1ccc2ccc(O)cc2o1
REMARK SMILES IDX 6 1 7 2 8 3 10 4 11 5 5 6 4 7 3 8 2 9 1 10 12 11 9 12
REMARK H PARENT 9 13
REMARK Flexibility Score: inf
ROOT
ATOM      1  C   UNL     1      44.432 -48.543 164.784  1.00  0.00     0.016 A 
ATOM      2  C   UNL     1      45.622 -47.818 164.663  1.00  0.00     0.047 A 
ATOM      3  C   UNL     1      45.755 -46.835 163.675  1.00  0.00     0.119 A 
ATOM      4  C   UNL     1      44.689 -46.572 162.801  1.00  0.00     0.094 A 
ATOM      5  C   UNL     1      43.495 -47.292 162.915  1.00  0.00     0.142 A 
ATOM      6  C   UNL     1      43.365 -48.284 163.912  1.00  0.00     0.018 A 
ATOM      7  C   UNL     1      42.160 -48.987 164.001  1.00  0.00     0.019 A 
ATOM      8  C   UNL     1      41.128 -48.692 163.111  1.00  0.00     0.094 A 
ATOM      9  C   UNL     1      41.328 -47.696 162.148  1.00  0.00     0.336 A 
ATOM     10  O   UNL     1      40.409 -47.416 161.335  1.00  0.00    -0.246 OA
ATOM     11  O   UNL     1      42.485 -47.042 162.084  1.00  0.00    -0.423 OA
ENDROOT
BRANCH   3  12
ATOM     12  O   UNL     1      46.948 -46.123 163.570  1.00  0.00    -0.508 OA
ATOM     13  H   UNL     1      47.225 -45.677 162.703  1.00  0.00     0.293 HD
ENDBRANCH   3  12
TORSDOF 1
ENDMDL
MODEL 9
REMARK VINA RESULT:    -5.954      3.361      5.177
REMARK INTER + INTRA:          -6.128
REMARK INTER:                  -6.128
REMARK INTRA:                   0.000
REMARK UNBOUND:                 0.000
REMARK SMILES O=c1ccc2ccc(O)cc2o1
REMARK SMILES IDX 6 1 7 2 8 3 10 4 11 5 5 6 4 7 3 8 2 9 1 10 12 11 9 12
REMARK H PARENT 9 13
REMARK Flexibility Score: inf
ROOT
ATOM      1  C   UNL     1      45.348 -49.524 164.174  1.00  0.00     0.016 A 
ATOM      2  C   UNL     1      43.992 -49.211 164.309  1.00  0.00     0.047 A 
ATOM      3  C   UNL     1      43.594 -47.908 164.630  1.00  0.00     0.119 A 
ATOM      4  C   UNL     1      44.560 -46.908 164.818  1.00  0.00     0.094 A 
ATOM      5  C   UNL     1      45.919 -47.212 164.685  1.00  0.00     0.142 A 
ATOM      6  C   UNL     1      46.317 -48.528 164.361  1.00  0.00     0.018 A 
ATOM      7  C   UNL     1      47.682 -48.801 164.235  1.00  0.00     0.019 A 
ATOM      8  C   UNL     1      48.606 -47.775 164.431  1.00  0.00     0.094 A 
ATOM      9  C   UNL     1      48.140 -46.495 164.750  1.00  0.00     0.336 A 
ATOM     10  O   UNL     1      48.958 -45.555 164.931  1.00  0.00    -0.246 OA
ATOM     11  O   UNL     1      46.835 -46.261 164.864  1.00  0.00    -0.423 OA
ENDROOT
BRANCH   3  12
ATOM     12  O   UNL     1      42.238 -47.616 164.760  1.00  0.00    -0.508 OA
ATOM     13  H   UNL     1      41.734 -47.111 164.040  1.00  0.00     0.293 HD
ENDBRANCH   3  12
TORSDOF 1
ENDMDL
