MODEL 1
REMARK VINA RESULT:    -4.381      0.000      0.000
REMARK INTER + INTRA:          -5.176
REMARK INTER:                  -5.021
REMARK INTRA:                  -0.154
REMARK UNBOUND:                -0.154
REMARK SMILES CC=Cc1ccc(O)c(OC)c1
REMARK SMILES IDX 4 1 12 2 9 3 7 4 6 5 5 6 3 7 1 8 2 9 10 10 11 11 8 12
REMARK H PARENT 8 13
REMARK Flexibility Score: inf
ROOT
ATOM      1  C   UNL     1      79.788  15.748   3.591  1.00  0.00    -0.022 A 
ATOM      2  C   UNL     1      79.322  15.245   2.364  1.00  0.00     0.058 A 
ATOM      3  C   UNL     1      79.045  16.108   1.286  1.00  0.00     0.161 A 
ATOM      4  C   UNL     1      79.249  17.491   1.443  1.00  0.00     0.157 A 
ATOM      5  C   UNL     1      79.725  17.993   2.656  1.00  0.00     0.051 A 
ATOM      6  C   UNL     1      79.998  17.133   3.722  1.00  0.00     0.012 A 
ENDROOT
BRANCH   1   7
ATOM      7  C   UNL     1      80.072  14.791   4.689  1.00  0.00     0.003 C 
ATOM      8  C   UNL     1      79.880  13.875   6.968  1.00  0.00     0.035 C 
ATOM      9  C   UNL     1      79.555  14.890   5.920  1.00  0.00    -0.030 C 
ENDBRANCH   1   7
BRANCH   3  10
ATOM     10  O   UNL     1      78.570  15.631   0.053  1.00  0.00    -0.493 OA
ATOM     11  C   UNL     1      77.864  14.406  -0.122  1.00  0.00     0.278 C 
ENDBRANCH   3  10
BRANCH   4  12
ATOM     12  O   UNL     1      78.986  18.381   0.402  1.00  0.00    -0.504 OA
ATOM     13  H   UNL     1      78.257  18.214  -0.281  1.00  0.00     0.293 HD
ENDBRANCH   4  12
TORSDOF 3
ENDMDL
MODEL 2
REMARK VINA RESULT:    -4.154      1.093      2.688
REMARK INTER + INTRA:          -4.916
REMARK INTER:                  -4.760
REMARK INTRA:                  -0.156
REMARK UNBOUND:                -0.154
REMARK SMILES CC=Cc1ccc(O)c(OC)c1
REMARK SMILES IDX 4 1 12 2 9 3 7 4 6 5 5 6 3 7 1 8 2 9 10 10 11 11 8 12
REMARK H PARENT 8 13
REMARK Flexibility Score: inf
ROOT
ATOM      1  C   UNL     1      79.307  15.085   4.191  1.00  0.00    -0.022 A 
ATOM      2  C   UNL     1      79.570  16.306   3.547  1.00  0.00     0.058 A 
ATOM      3  C   UNL     1      79.428  16.434   2.151  1.00  0.00     0.161 A 
ATOM      4  C   UNL     1      79.010  15.322   1.398  1.00  0.00     0.157 A 
ATOM      5  C   UNL     1      78.735  14.110   2.037  1.00  0.00     0.051 A 
ATOM      6  C   UNL     1      78.876  13.989   3.421  1.00  0.00     0.012 A 
ENDROOT
BRANCH   1   7
ATOM      7  C   UNL     1      79.463  15.011   5.665  1.00  0.00     0.003 C 
ATOM      8  C   UNL     1      80.213  14.018   7.791  1.00  0.00     0.035 C 
ATOM      9  C   UNL     1      80.085  14.012   6.302  1.00  0.00    -0.030 C 
ENDBRANCH   1   7
BRANCH   3  10
ATOM     10  O   UNL     1      79.693  17.641   1.483  1.00  0.00    -0.493 OA
ATOM     11  C   UNL     1      80.442  18.721   2.032  1.00  0.00     0.278 C 
ENDBRANCH   3  10
BRANCH   4  12
ATOM     12  O   UNL     1      78.858  15.404   0.014  1.00  0.00    -0.504 OA
ATOM     13  H   UNL     1      77.978  15.204  -0.445  1.00  0.00     0.293 HD
ENDBRANCH   4  12
TORSDOF 3
ENDMDL
MODEL 3
REMARK VINA RESULT:    -3.683      2.414      5.105
REMARK INTER + INTRA:          -4.375
REMARK INTER:                  -4.231
REMARK INTRA:                  -0.144
REMARK UNBOUND:                -0.154
REMARK SMILES CC=Cc1ccc(O)c(OC)c1
REMARK SMILES IDX 4 1 12 2 9 3 7 4 6 5 5 6 3 7 1 8 2 9 10 10 11 11 8 12
REMARK H PARENT 8 13
REMARK Flexibility Score: inf
ROOT
ATOM      1  C   UNL     1      78.464  17.164   1.092  1.00  0.00    -0.022 A 
ATOM      2  C   UNL     1      78.933  17.231   2.415  1.00  0.00     0.058 A 
ATOM      3  C   UNL     1      79.609  16.141   3.000  1.00  0.00     0.161 A 
ATOM      4  C   UNL     1      79.821  14.977   2.240  1.00  0.00     0.157 A 
ATOM      5  C   UNL     1      79.369  14.912   0.920  1.00  0.00     0.051 A 
ATOM      6  C   UNL     1      78.700  15.994   0.345  1.00  0.00     0.012 A 
ENDROOT
BRANCH   1   7
ATOM      7  C   UNL     1      77.768  18.345   0.523  1.00  0.00     0.003 C 
ATOM      8  C   UNL     1      76.470  20.436   0.612  1.00  0.00     0.035 C 
ATOM      9  C   UNL     1      77.135  19.265   1.260  1.00  0.00    -0.030 C 
ENDBRANCH   1   7
BRANCH   3  10
ATOM     10  O   UNL     1      80.079  16.181   4.323  1.00  0.00    -0.493 OA
ATOM     11  C   UNL     1      79.357  15.699   5.452  1.00  0.00     0.278 C 
ENDBRANCH   3  10
BRANCH   4  12
ATOM     12  O   UNL     1      80.484  13.875   2.780  1.00  0.00    -0.504 OA
ATOM     13  H   UNL     1      80.509  12.978   2.313  1.00  0.00     0.293 HD
ENDBRANCH   4  12
TORSDOF 3
ENDMDL
MODEL 4
REMARK VINA RESULT:    -3.077      1.150      1.517
REMARK INTER + INTRA:          -3.681
REMARK INTER:                  -3.856
REMARK INTRA:                   0.176
REMARK UNBOUND:                -0.154
REMARK SMILES CC=Cc1ccc(O)c(OC)c1
REMARK SMILES IDX 4 1 12 2 9 3 7 4 6 5 5 6 3 7 1 8 2 9 10 10 11 11 8 12
REMARK H PARENT 8 13
REMARK Flexibility Score: inf
ROOT
ATOM      1  C   UNL     1      79.538  14.766   4.618  1.00  0.00    -0.022 A 
ATOM      2  C   UNL     1      79.292  14.001   3.465  1.00  0.00     0.058 A 
ATOM      3  C   UNL     1      79.032  14.621   2.226  1.00  0.00     0.161 A 
ATOM      4  C   UNL     1      79.029  16.025   2.148  1.00  0.00     0.157 A 
ATOM      5  C   UNL     1      79.287  16.789   3.289  1.00  0.00     0.051 A 
ATOM      6  C   UNL     1      79.544  16.170   4.514  1.00  0.00     0.012 A 
ENDROOT
BRANCH   1   7
ATOM      7  C   UNL     1      79.816  14.060   5.893  1.00  0.00     0.003 C 
ATOM      8  C   UNL     1      80.156  13.881   8.327  1.00  0.00     0.035 C 
ATOM      9  C   UNL     1      79.886  14.667   7.084  1.00  0.00    -0.030 C 
ENDBRANCH   1   7
BRANCH   3  10
ATOM     10  O   UNL     1      78.775  13.878   1.062  1.00  0.00    -0.493 OA
ATOM     11  C   UNL     1      77.619  14.032   0.244  1.00  0.00     0.278 C 
ENDBRANCH   3  10
BRANCH   4  12
ATOM     12  O   UNL     1      78.775  16.679   0.943  1.00  0.00    -0.504 OA
ATOM     13  H   UNL     1      77.958  17.262   0.806  1.00  0.00     0.293 HD
ENDBRANCH   4  12
TORSDOF 3
ENDMDL
MODEL 5
REMARK VINA RESULT:    -3.061      3.000      5.290
REMARK INTER + INTRA:          -3.662
REMARK INTER:                  -3.546
REMARK INTRA:                  -0.116
REMARK UNBOUND:                -0.154
REMARK SMILES CC=Cc1ccc(O)c(OC)c1
REMARK SMILES IDX 4 1 12 2 9 3 7 4 6 5 5 6 3 7 1 8 2 9 10 10 11 11 8 12
REMARK H PARENT 8 13
REMARK Flexibility Score: inf
ROOT
ATOM      1  C   UNL     1      79.092  15.962   2.622  1.00  0.00    -0.022 A 
ATOM      2  C   UNL     1      78.765  16.263   3.955  1.00  0.00     0.058 A 
ATOM      3  C   UNL     1      79.375  15.575   5.023  1.00  0.00     0.161 A 
ATOM      4  C   UNL     1      80.330  14.581   4.744  1.00  0.00     0.157 A 
ATOM      5  C   UNL     1      80.667  14.289   3.420  1.00  0.00     0.051 A 
ATOM      6  C   UNL     1      80.060  14.974   2.365  1.00  0.00     0.012 A 
ENDROOT
BRANCH   1   7
ATOM      7  C   UNL     1      78.425  16.725   1.537  1.00  0.00     0.003 C 
ATOM      8  C   UNL     1      77.360  18.697   0.514  1.00  0.00     0.035 C 
ATOM      9  C   UNL     1      78.010  17.992   1.660  1.00  0.00    -0.030 C 
ENDBRANCH   1   7
BRANCH   3  10
ATOM     10  O   UNL     1      79.059  15.851   6.364  1.00  0.00    -0.493 OA
ATOM     11  C   UNL     1      79.833  16.684   7.222  1.00  0.00     0.278 C 
ENDBRANCH   3  10
BRANCH   4  12
ATOM     12  O   UNL     1      80.957  13.875   5.770  1.00  0.00    -0.504 OA
ATOM     13  H   UNL     1      81.513  14.335   6.480  1.00  0.00     0.293 HD
ENDBRANCH   4  12
TORSDOF 3
ENDMDL
MODEL 6
REMARK VINA RESULT:    -2.965      4.576      6.526
REMARK INTER + INTRA:          -3.553
REMARK INTER:                  -3.665
REMARK INTRA:                   0.112
REMARK UNBOUND:                -0.154
REMARK SMILES CC=Cc1ccc(O)c(OC)c1
REMARK SMILES IDX 4 1 12 2 9 3 7 4 6 5 5 6 3 7 1 8 2 9 10 10 11 11 8 12
REMARK H PARENT 8 13
REMARK Flexibility Score: inf
ROOT
ATOM      1  C   UNL     1      79.735  15.207   6.010  1.00  0.00    -0.022 A 
ATOM      2  C   UNL     1      80.263  14.323   6.967  1.00  0.00     0.058 A 
ATOM      3  C   UNL     1      80.475  14.737   8.297  1.00  0.00     0.161 A 
ATOM      4  C   UNL     1      80.143  16.053   8.667  1.00  0.00     0.157 A 
ATOM      5  C   UNL     1      79.606  16.930   7.722  1.00  0.00     0.051 A 
ATOM      6  C   UNL     1      79.397  16.514   6.406  1.00  0.00     0.012 A 
ENDROOT
BRANCH   1   7
ATOM      7  C   UNL     1      79.524  14.713   4.626  1.00  0.00     0.003 C 
ATOM      8  C   UNL     1      80.218  13.950   2.390  1.00  0.00     0.035 C 
ATOM      9  C   UNL     1      80.514  14.461   3.763  1.00  0.00    -0.030 C 
ENDBRANCH   1   7
BRANCH   3  10
ATOM     10  O   UNL     1      81.009  13.875   9.269  1.00  0.00    -0.493 OA
ATOM     11  C   UNL     1      82.224  14.107   9.975  1.00  0.00     0.278 C 
ENDBRANCH   3  10
BRANCH   4  12
ATOM     12  O   UNL     1      80.338  16.505   9.972  1.00  0.00    -0.504 OA
ATOM     13  H   UNL     1      80.866  17.343  10.180  1.00  0.00     0.293 HD
ENDBRANCH   4  12
TORSDOF 3
ENDMDL
MODEL 7
REMARK VINA RESULT:    -2.801      2.358      4.790
REMARK INTER + INTRA:          -3.365
REMARK INTER:                  -3.203
REMARK INTRA:                  -0.162
REMARK UNBOUND:                -0.154
REMARK SMILES CC=Cc1ccc(O)c(OC)c1
REMARK SMILES IDX 4 1 12 2 9 3 7 4 6 5 5 6 3 7 1 8 2 9 10 10 11 11 8 12
REMARK H PARENT 8 13
REMARK Flexibility Score: inf
ROOT
ATOM      1  C   UNL     1      79.577  17.208   2.772  1.00  0.00    -0.022 A 
ATOM      2  C   UNL     1      79.653  16.418   3.931  1.00  0.00     0.058 A 
ATOM      3  C   UNL     1      78.812  15.300   4.103  1.00  0.00     0.161 A 
ATOM      4  C   UNL     1      77.891  14.972   3.092  1.00  0.00     0.157 A 
ATOM      5  C   UNL     1      77.822  15.748   1.932  1.00  0.00     0.051 A 
ATOM      6  C   UNL     1      78.658  16.854   1.767  1.00  0.00     0.012 A 
ENDROOT
BRANCH   1   7
ATOM      7  C   UNL     1      80.494  18.367   2.641  1.00  0.00     0.003 C 
ATOM      8  C   UNL     1      81.776  20.082   1.423  1.00  0.00     0.035 C 
ATOM      9  C   UNL     1      80.858  18.904   1.470  1.00  0.00    -0.030 C 
ENDBRANCH   1   7
BRANCH   3  10
ATOM     10  O   UNL     1      78.863  14.500   5.256  1.00  0.00    -0.493 OA
ATOM     11  C   UNL     1      79.646  14.793   6.409  1.00  0.00     0.278 C 
ENDBRANCH   3  10
BRANCH   4  12
ATOM     12  O   UNL     1      77.039  13.876   3.221  1.00  0.00    -0.504 OA
ATOM     13  H   UNL     1      76.040  13.980   3.345  1.00  0.00     0.293 HD
ENDBRANCH   4  12
TORSDOF 3
ENDMDL
MODEL 8
REMARK VINA RESULT:    -2.492     18.959     20.458
REMARK INTER + INTRA:          -3.010
REMARK INTER:                  -2.832
REMARK INTRA:                  -0.178
REMARK UNBOUND:                -0.154
REMARK SMILES CC=Cc1ccc(O)c(OC)c1
REMARK SMILES IDX 4 1 12 2 9 3 7 4 6 5 5 6 3 7 1 8 2 9 10 10 11 11 8 12
REMARK H PARENT 8 13
REMARK Flexibility Score: inf
ROOT
ATOM      1  C   UNL     1      90.999  26.916  14.295  1.00  0.00    -0.022 A 
ATOM      2  C   UNL     1      89.739  26.784  14.903  1.00  0.00     0.058 A 
ATOM      3  C   UNL     1      89.599  26.859  16.303  1.00  0.00     0.161 A 
ATOM      4  C   UNL     1      90.739  27.078  17.097  1.00  0.00     0.157 A 
ATOM      5  C   UNL     1      91.992  27.223  16.495  1.00  0.00     0.051 A 
ATOM      6  C   UNL     1      92.125  27.148  15.107  1.00  0.00     0.012 A 
ENDROOT
BRANCH   1   7
ATOM      7  C   UNL     1      91.086  26.838  12.815  1.00  0.00     0.003 C 
ATOM      8  C   UNL     1      92.125  26.253  10.660  1.00  0.00     0.035 C 
ATOM      9  C   UNL     1      92.120  26.306  12.154  1.00  0.00    -0.030 C 
ENDBRANCH   1   7
BRANCH   3  10
ATOM     10  O   UNL     1      88.352  26.722  16.935  1.00  0.00    -0.493 OA
ATOM     11  C   UNL     1      87.630  25.498  17.041  1.00  0.00     0.278 C 
ENDBRANCH   3  10
BRANCH   4  12
ATOM     12  O   UNL     1      90.646  27.158  18.486  1.00  0.00    -0.504 OA
ATOM     13  H   UNL     1      91.452  27.337  19.072  1.00  0.00     0.293 HD
ENDBRANCH   4  12
TORSDOF 3
ENDMDL
