MODEL 1
REMARK VINA RESULT:    -5.043      0.000      0.000
REMARK INTER + INTRA:          -8.250
REMARK INTER:                  -7.696
REMARK INTRA:                  -0.554
REMARK UNBOUND:                -0.554
REMARK SMILES CCCCCCCCCCC(=O)[O-]
REMARK SMILES IDX 7 1 8 2 9 3 10 4 11 5 12 6 13 7 6 8 5 9 4 10 3 11 2 12 1 13
REMARK H PARENT
REMARK Flexibility Score: inf
ROOT
ATOM      1  C   UNL     1      10.367 -18.064 -26.364  1.00  0.00     0.000 C 
ENDROOT
BRANCH   1   2
ATOM      2  C   UNL     1       9.039 -17.574 -26.962  1.00  0.00     0.000 C 
BRANCH   2   3
ATOM      3  C   UNL     1       9.012 -17.780 -28.482  1.00  0.00     0.006 C 
BRANCH   3   4
ATOM      4  C   UNL     1       8.220 -16.668 -29.173  1.00  0.00     0.053 C 
BRANCH   4   5
ATOM      5  C   UNL     1       8.580 -16.592 -30.623  1.00  0.00     0.041 C 
ATOM      6  O   UNL     1       9.738 -16.903 -31.006  1.00  0.00    -0.550 OA
ATOM      7  O   UNL     1       7.650 -16.131 -31.548  1.00  0.00    -0.550 OA
ENDBRANCH   4   5
ENDBRANCH   3   4
ENDBRANCH   2   3
ENDBRANCH   1   2
BRANCH   1   8
ATOM      8  C   UNL     1      11.503 -18.108 -27.398  1.00  0.00     0.000 C 
BRANCH   8   9
ATOM      9  C   UNL     1      12.135 -19.505 -27.526  1.00  0.00    -0.000 C 
BRANCH   9  10
ATOM     10  C   UNL     1      11.737 -20.433 -26.359  1.00  0.00    -0.000 C 
BRANCH  10  11
ATOM     11  C   UNL     1      12.127 -21.907 -26.580  1.00  0.00    -0.000 C 
BRANCH  11  12
ATOM     12  C   UNL     1      13.020 -22.157 -27.806  1.00  0.00    -0.003 C 
ATOM     13  C   UNL     1      14.336 -22.850 -27.450  1.00  0.00     0.004 C 
ENDBRANCH  11  12
ENDBRANCH  10  11
ENDBRANCH   9  10
ENDBRANCH   8   9
ENDBRANCH   1   8
TORSDOF 9
ENDMDL
MODEL 2
REMARK VINA RESULT:    -4.983      1.656      2.590
REMARK INTER + INTRA:          -8.159
REMARK INTER:                  -7.446
REMARK INTRA:                  -0.713
REMARK UNBOUND:                -0.554
REMARK SMILES CCCCCCCCCCC(=O)[O-]
REMARK SMILES IDX 7 1 8 2 9 3 10 4 11 5 12 6 13 7 6 8 5 9 4 10 3 11 2 12 1 13
REMARK H PARENT
REMARK Flexibility Score: inf
ROOT
ATOM      1  C   UNL     1      12.417 -18.871 -26.865  1.00  0.00     0.000 C 
ENDROOT
BRANCH   1   2
ATOM      2  C   UNL     1      11.255 -18.594 -25.899  1.00  0.00     0.000 C 
BRANCH   2   3
ATOM      3  C   UNL     1      10.157 -17.771 -26.583  1.00  0.00     0.006 C 
BRANCH   3   4
ATOM      4  C   UNL     1      10.085 -18.084 -28.079  1.00  0.00     0.053 C 
BRANCH   4   5
ATOM      5  C   UNL     1       8.699 -17.864 -28.595  1.00  0.00     0.041 C 
ATOM      6  O   UNL     1       7.723 -17.844 -27.801  1.00  0.00    -0.550 OA
ATOM      7  O   UNL     1       8.477 -17.729 -29.961  1.00  0.00    -0.550 OA
ENDBRANCH   4   5
ENDBRANCH   3   4
ENDBRANCH   2   3
ENDBRANCH   1   2
BRANCH   1   8
ATOM      8  C   UNL     1      12.860 -20.343 -26.854  1.00  0.00     0.000 C 
BRANCH   8   9
ATOM      9  C   UNL     1      11.810 -21.274 -26.222  1.00  0.00    -0.000 C 
BRANCH   9  10
ATOM     10  C   UNL     1      12.205 -22.762 -26.341  1.00  0.00    -0.000 C 
BRANCH  10  11
ATOM     11  C   UNL     1      13.077 -23.074 -27.572  1.00  0.00    -0.000 C 
BRANCH  11  12
ATOM     12  C   UNL     1      12.318 -23.704 -28.751  1.00  0.00    -0.003 C 
ATOM     13  C   UNL     1      11.722 -22.662 -29.698  1.00  0.00     0.004 C 
ENDBRANCH  11  12
ENDBRANCH  10  11
ENDBRANCH   9  10
ENDBRANCH   8   9
ENDBRANCH   1   8
TORSDOF 9
ENDMDL
MODEL 3
REMARK VINA RESULT:    -4.902      1.011      1.724
REMARK INTER + INTRA:          -8.035
REMARK INTER:                  -7.389
REMARK INTRA:                  -0.647
REMARK UNBOUND:                -0.554
REMARK SMILES CCCCCCCCCCC(=O)[O-]
REMARK SMILES IDX 7 1 8 2 9 3 10 4 11 5 12 6 13 7 6 8 5 9 4 10 3 11 2 12 1 13
REMARK H PARENT
REMARK Flexibility Score: inf
ROOT
ATOM      1  C   UNL     1      12.156 -18.186 -27.621  1.00  0.00     0.000 C 
ENDROOT
BRANCH   1   2
ATOM      2  C   UNL     1      10.732 -18.547 -28.071  1.00  0.00     0.000 C 
BRANCH   2   3
ATOM      3  C   UNL     1       9.705 -17.575 -27.476  1.00  0.00     0.006 C 
BRANCH   3   4
ATOM      4  C   UNL     1       8.333 -17.758 -28.128  1.00  0.00     0.053 C 
BRANCH   4   5
ATOM      5  C   UNL     1       8.238 -16.952 -29.385  1.00  0.00     0.041 C 
ATOM      6  O   UNL     1       7.788 -15.777 -29.352  1.00  0.00    -0.550 OA
ATOM      7  O   UNL     1       8.601 -17.516 -30.602  1.00  0.00    -0.550 OA
ENDBRANCH   4   5
ENDBRANCH   3   4
ENDBRANCH   2   3
ENDBRANCH   1   2
BRANCH   1   8
ATOM      8  C   UNL     1      12.732 -19.194 -26.613  1.00  0.00     0.000 C 
BRANCH   8   9
ATOM      9  C   UNL     1      11.735 -20.308 -26.251  1.00  0.00    -0.000 C 
BRANCH   9  10
ATOM     10  C   UNL     1      12.262 -21.707 -26.634  1.00  0.00    -0.000 C 
BRANCH  10  11
ATOM     11  C   UNL     1      12.392 -21.924 -28.154  1.00  0.00    -0.000 C 
BRANCH  11  12
ATOM     12  C   UNL     1      13.619 -22.745 -28.581  1.00  0.00    -0.003 C 
ATOM     13  C   UNL     1      14.654 -22.890 -27.465  1.00  0.00     0.004 C 
ENDBRANCH  11  12
ENDBRANCH  10  11
ENDBRANCH   9  10
ENDBRANCH   8   9
ENDBRANCH   1   8
TORSDOF 9
ENDMDL
MODEL 4
REMARK VINA RESULT:    -4.842      3.264      6.502
REMARK INTER + INTRA:          -7.944
REMARK INTER:                  -7.386
REMARK INTRA:                  -0.557
REMARK UNBOUND:                -0.554
REMARK SMILES CCCCCCCCCCC(=O)[O-]
REMARK SMILES IDX 7 1 8 2 9 3 10 4 11 5 12 6 13 7 6 8 5 9 4 10 3 11 2 12 1 13
REMARK H PARENT
REMARK Flexibility Score: inf
ROOT
ATOM      1  C   UNL     1      11.976 -18.474 -28.676  1.00  0.00     0.000 C 
ENDROOT
BRANCH   1   2
ATOM      2  C   UNL     1      11.679 -19.909 -28.215  1.00  0.00     0.000 C 
BRANCH   2   3
ATOM      3  C   UNL     1      12.319 -20.192 -26.851  1.00  0.00     0.006 C 
BRANCH   3   4
ATOM      4  C   UNL     1      12.969 -18.931 -26.277  1.00  0.00     0.053 C 
BRANCH   4   5
ATOM      5  C   UNL     1      12.288 -18.520 -25.010  1.00  0.00     0.041 C 
ATOM      6  O   UNL     1      11.032 -18.536 -24.932  1.00  0.00    -0.550 OA
ATOM      7  O   UNL     1      13.039 -18.070 -23.930  1.00  0.00    -0.550 OA
ENDBRANCH   4   5
ENDBRANCH   3   4
ENDBRANCH   2   3
ENDBRANCH   1   2
BRANCH   1   8
ATOM      8  C   UNL     1      10.700 -17.661 -28.947  1.00  0.00     0.000 C 
BRANCH   8   9
ATOM      9  C   UNL     1       9.668 -17.780 -27.812  1.00  0.00    -0.000 C 
BRANCH   9  10
ATOM     10  C   UNL     1       8.295 -17.199 -28.211  1.00  0.00    -0.000 C 
BRANCH  10  11
ATOM     11  C   UNL     1       7.461 -16.704 -27.013  1.00  0.00    -0.000 C 
BRANCH  11  12
ATOM     12  C   UNL     1       7.369 -15.175 -26.884  1.00  0.00    -0.003 C 
ATOM     13  C   UNL     1       7.156 -14.478 -28.228  1.00  0.00     0.004 C 
ENDBRANCH  11  12
ENDBRANCH  10  11
ENDBRANCH   9  10
ENDBRANCH   8   9
ENDBRANCH   1   8
TORSDOF 9
ENDMDL
MODEL 5
REMARK VINA RESULT:    -4.749      2.974      5.747
REMARK INTER + INTRA:          -7.802
REMARK INTER:                  -7.234
REMARK INTRA:                  -0.568
REMARK UNBOUND:                -0.554
REMARK SMILES CCCCCCCCCCC(=O)[O-]
REMARK SMILES IDX 7 1 8 2 9 3 10 4 11 5 12 6 13 7 6 8 5 9 4 10 3 11 2 12 1 13
REMARK H PARENT
REMARK Flexibility Score: inf
ROOT
ATOM      1  C   UNL     1      11.757 -21.264 -26.513  1.00  0.00     0.000 C 
ENDROOT
BRANCH   1   2
ATOM      2  C   UNL     1      12.288 -22.701 -26.400  1.00  0.00     0.000 C 
BRANCH   2   3
ATOM      3  C   UNL     1      11.640 -23.611 -27.450  1.00  0.00     0.006 C 
BRANCH   3   4
ATOM      4  C   UNL     1      12.438 -23.600 -28.756  1.00  0.00     0.053 C 
BRANCH   4   5
ATOM      5  C   UNL     1      11.762 -22.742 -29.777  1.00  0.00     0.041 C 
ATOM      6  O   UNL     1      10.505 -22.705 -29.842  1.00  0.00    -0.550 OA
ATOM      7  O   UNL     1      12.519 -22.020 -30.692  1.00  0.00    -0.550 OA
ENDBRANCH   4   5
ENDBRANCH   3   4
ENDBRANCH   2   3
ENDBRANCH   1   2
BRANCH   1   8
ATOM      8  C   UNL     1      12.860 -20.249 -26.854  1.00  0.00     0.000 C 
BRANCH   8   9
ATOM      9  C   UNL     1      12.485 -18.810 -26.459  1.00  0.00    -0.000 C 
BRANCH   9  10
ATOM     10  C   UNL     1      11.045 -18.713 -25.913  1.00  0.00    -0.000 C 
BRANCH  10  11
ATOM     11  C   UNL     1      10.213 -17.588 -26.558  1.00  0.00    -0.000 C 
BRANCH  11  12
ATOM     12  C   UNL     1       9.637 -17.930 -27.942  1.00  0.00    -0.003 C 
ATOM     13  C   UNL     1       8.119 -17.762 -28.010  1.00  0.00     0.004 C 
ENDBRANCH  11  12
ENDBRANCH  10  11
ENDBRANCH   9  10
ENDBRANCH   8   9
ENDBRANCH   1   8
TORSDOF 9
ENDMDL
MODEL 6
REMARK VINA RESULT:    -4.705      1.543      2.395
REMARK INTER + INTRA:          -7.735
REMARK INTER:                  -7.191
REMARK INTRA:                  -0.544
REMARK UNBOUND:                -0.554
REMARK SMILES CCCCCCCCCCC(=O)[O-]
REMARK SMILES IDX 7 1 8 2 9 3 10 4 11 5 12 6 13 7 6 8 5 9 4 10 3 11 2 12 1 13
REMARK H PARENT
REMARK Flexibility Score: inf
ROOT
ATOM      1  C   UNL     1      12.253 -18.735 -26.952  1.00  0.00     0.000 C 
ENDROOT
BRANCH   1   2
ATOM      2  C   UNL     1      11.251 -18.298 -25.873  1.00  0.00     0.000 C 
BRANCH   2   3
ATOM      3  C   UNL     1       9.977 -17.725 -26.506  1.00  0.00     0.006 C 
BRANCH   3   4
ATOM      4  C   UNL     1      10.029 -17.824 -28.033  1.00  0.00     0.053 C 
BRANCH   4   5
ATOM      5  C   UNL     1       8.647 -17.817 -28.606  1.00  0.00     0.041 C 
ATOM      6  O   UNL     1       7.646 -17.880 -27.847  1.00  0.00    -0.550 OA
ATOM      7  O   UNL     1       8.466 -17.791 -29.984  1.00  0.00    -0.550 OA
ENDBRANCH   4   5
ENDBRANCH   3   4
ENDBRANCH   2   3
ENDBRANCH   1   2
BRANCH   1   8
ATOM      8  C   UNL     1      12.520 -20.249 -26.935  1.00  0.00     0.000 C 
BRANCH   8   9
ATOM      9  C   UNL     1      12.163 -20.929 -28.268  1.00  0.00    -0.000 C 
BRANCH   9  10
ATOM     10  C   UNL     1      12.387 -22.456 -28.219  1.00  0.00    -0.000 C 
BRANCH  10  11
ATOM     11  C   UNL     1      13.333 -22.907 -27.090  1.00  0.00    -0.000 C 
BRANCH  11  12
ATOM     12  C   UNL     1      14.815 -22.986 -27.488  1.00  0.00    -0.003 C 
ATOM     13  C   UNL     1      15.017 -23.406 -28.945  1.00  0.00     0.004 C 
ENDBRANCH  11  12
ENDBRANCH  10  11
ENDBRANCH   9  10
ENDBRANCH   8   9
ENDBRANCH   1   8
TORSDOF 9
ENDMDL
MODEL 7
REMARK VINA RESULT:    -4.679      1.922      3.184
REMARK INTER + INTRA:          -7.695
REMARK INTER:                  -6.803
REMARK INTRA:                  -0.892
REMARK UNBOUND:                -0.554
REMARK SMILES CCCCCCCCCCC(=O)[O-]
REMARK SMILES IDX 7 1 8 2 9 3 10 4 11 5 12 6 13 7 6 8 5 9 4 10 3 11 2 12 1 13
REMARK H PARENT
REMARK Flexibility Score: inf
ROOT
ATOM      1  C   UNL     1      12.598 -20.194 -26.985  1.00  0.00     0.000 C 
ENDROOT
BRANCH   1   2
ATOM      2  C   UNL     1      11.868 -19.727 -28.253  1.00  0.00     0.000 C 
BRANCH   2   3
ATOM      3  C   UNL     1      12.025 -18.215 -28.452  1.00  0.00     0.006 C 
BRANCH   3   4
ATOM      4  C   UNL     1      10.839 -17.636 -29.227  1.00  0.00     0.053 C 
BRANCH   4   5
ATOM      5  C   UNL     1       9.579 -17.768 -28.431  1.00  0.00     0.041 C 
ATOM      6  O   UNL     1       8.532 -18.211 -28.972  1.00  0.00    -0.550 OA
ATOM      7  O   UNL     1       9.547 -17.356 -27.105  1.00  0.00    -0.550 OA
ENDBRANCH   4   5
ENDBRANCH   3   4
ENDBRANCH   2   3
ENDBRANCH   1   2
BRANCH   1   8
ATOM      8  C   UNL     1      11.778 -21.204 -26.166  1.00  0.00     0.000 C 
BRANCH   8   9
ATOM      9  C   UNL     1      12.318 -22.640 -26.281  1.00  0.00    -0.000 C 
BRANCH   9  10
ATOM     10  C   UNL     1      11.338 -23.572 -27.026  1.00  0.00    -0.000 C 
BRANCH  10  11
ATOM     11  C   UNL     1      11.784 -23.920 -28.459  1.00  0.00    -0.000 C 
BRANCH  11  12
ATOM     12  C   UNL     1      13.234 -23.533 -28.790  1.00  0.00    -0.003 C 
ATOM     13  C   UNL     1      13.340 -22.610 -30.004  1.00  0.00     0.004 C 
ENDBRANCH  11  12
ENDBRANCH  10  11
ENDBRANCH   9  10
ENDBRANCH   8   9
ENDBRANCH   1   8
TORSDOF 9
ENDMDL
MODEL 8
REMARK VINA RESULT:    -4.668      1.835      3.543
REMARK INTER + INTRA:          -7.678
REMARK INTER:                  -7.049
REMARK INTRA:                  -0.629
REMARK UNBOUND:                -0.554
REMARK SMILES CCCCCCCCCCC(=O)[O-]
REMARK SMILES IDX 7 1 8 2 9 3 10 4 11 5 12 6 13 7 6 8 5 9 4 10 3 11 2 12 1 13
REMARK H PARENT
REMARK Flexibility Score: inf
ROOT
ATOM      1  C   UNL     1      11.762 -20.484 -26.255  1.00  0.00     0.000 C 
ENDROOT
BRANCH   1   2
ATOM      2  C   UNL     1      12.866 -19.474 -26.602  1.00  0.00     0.000 C 
BRANCH   2   3
ATOM      3  C   UNL     1      12.281 -18.233 -27.286  1.00  0.00     0.006 C 
BRANCH   3   4
ATOM      4  C   UNL     1      11.388 -18.626 -28.466  1.00  0.00     0.053 C 
BRANCH   4   5
ATOM      5  C   UNL     1      10.001 -18.099 -28.272  1.00  0.00     0.041 C 
ATOM      6  O   UNL     1       9.179 -18.111 -29.224  1.00  0.00    -0.550 OA
ATOM      7  O   UNL     1       9.631 -17.547 -27.051  1.00  0.00    -0.550 OA
ENDBRANCH   4   5
ENDBRANCH   3   4
ENDBRANCH   2   3
ENDBRANCH   1   2
BRANCH   1   8
ATOM      8  C   UNL     1      12.068 -21.899 -26.773  1.00  0.00     0.000 C 
BRANCH   8   9
ATOM      9  C   UNL     1      13.095 -21.902 -27.918  1.00  0.00    -0.000 C 
BRANCH   9  10
ATOM     10  C   UNL     1      13.622 -23.321 -28.223  1.00  0.00    -0.000 C 
BRANCH  10  11
ATOM     11  C   UNL     1      15.159 -23.427 -28.203  1.00  0.00    -0.000 C 
BRANCH  11  12
ATOM     12  C   UNL     1      15.842 -22.624 -27.083  1.00  0.00    -0.003 C 
ATOM     13  C   UNL     1      17.367 -22.723 -27.129  1.00  0.00     0.004 C 
ENDBRANCH  11  12
ENDBRANCH  10  11
ENDBRANCH   9  10
ENDBRANCH   8   9
ENDBRANCH   1   8
TORSDOF 9
ENDMDL
MODEL 9
REMARK VINA RESULT:    -4.610      3.807      5.382
REMARK INTER + INTRA:          -7.590
REMARK INTER:                  -6.908
REMARK INTRA:                  -0.682
REMARK UNBOUND:                -0.554
REMARK SMILES CCCCCCCCCCC(=O)[O-]
REMARK SMILES IDX 7 1 8 2 9 3 10 4 11 5 12 6 13 7 6 8 5 9 4 10 3 11 2 12 1 13
REMARK H PARENT
REMARK Flexibility Score: inf
ROOT
ATOM      1  C   UNL     1      12.088 -21.904 -26.796  1.00  0.00     0.000 C 
ENDROOT
BRANCH   1   2
ATOM      2  C   UNL     1      12.172 -20.824 -27.885  1.00  0.00     0.000 C 
BRANCH   2   3
ATOM      3  C   UNL     1      11.974 -19.425 -27.289  1.00  0.00     0.006 C 
BRANCH   3   4
ATOM      4  C   UNL     1      13.021 -19.134 -26.210  1.00  0.00     0.053 C 
BRANCH   4   5
ATOM      5  C   UNL     1      12.387 -18.467 -25.031  1.00  0.00     0.041 C 
ATOM      6  O   UNL     1      13.053 -18.266 -23.982  1.00  0.00    -0.550 OA
ATOM      7  O   UNL     1      11.044 -18.110 -25.072  1.00  0.00    -0.550 OA
ENDBRANCH   4   5
ENDBRANCH   3   4
ENDBRANCH   2   3
ENDBRANCH   1   2
BRANCH   1   8
ATOM      8  C   UNL     1      13.173 -22.983 -26.946  1.00  0.00     0.000 C 
BRANCH   8   9
ATOM      9  C   UNL     1      13.891 -22.918 -28.305  1.00  0.00    -0.000 C 
BRANCH   9  10
ATOM     10  C   UNL     1      15.378 -23.318 -28.197  1.00  0.00    -0.000 C 
BRANCH  10  11
ATOM     11  C   UNL     1      16.112 -22.658 -27.015  1.00  0.00    -0.000 C 
BRANCH  11  12
ATOM     12  C   UNL     1      16.986 -23.615 -26.188  1.00  0.00    -0.003 C 
ATOM     13  C   UNL     1      17.385 -24.872 -26.962  1.00  0.00     0.004 C 
ENDBRANCH  11  12
ENDBRANCH  10  11
ENDBRANCH   9  10
ENDBRANCH   8   9
ENDBRANCH   1   8
TORSDOF 9
ENDMDL
