MODEL 1
REMARK VINA RESULT:    -3.099      0.000      0.000
REMARK INTER + INTRA:          -4.136
REMARK INTER:                  -4.004
REMARK INTRA:                  -0.132
REMARK UNBOUND:                -0.132
REMARK SMILES C=CC(=O)CCCCC
REMARK SMILES IDX 6 1 7 2 8 3 9 4 5 5 3 6 4 7 2 8 1 9
REMARK H PARENT
REMARK Flexibility Score: inf
ROOT
ATOM      1  C   UNL     1      16.010 -35.326  31.048  1.00  0.00     0.008 C 
ENDROOT
BRANCH   1   2
ATOM      2  C   UNL     1      16.215 -35.178  32.566  1.00  0.00     0.000 C 
BRANCH   2   3
ATOM      3  C   UNL     1      15.603 -33.885  33.125  1.00  0.00    -0.003 C 
ATOM      4  C   UNL     1      14.509 -33.353  32.204  1.00  0.00     0.004 C 
ENDBRANCH   2   3
ENDBRANCH   1   2
BRANCH   1   5
ATOM      5  C   UNL     1      16.812 -36.474  30.410  1.00  0.00     0.080 C 
BRANCH   5   6
ATOM      6  C   UNL     1      17.414 -36.080  29.091  1.00  0.00     0.155 C 
ATOM      7  O   UNL     1      18.092 -35.019  29.015  1.00  0.00    -0.295 OA
BRANCH   6   8
ATOM      8  C   UNL     1      17.234 -36.942  27.909  1.00  0.00     0.039 C 
ATOM      9  C   UNL     1      17.800 -36.672  26.734  1.00  0.00     0.012 C 
ENDBRANCH   6   8
ENDBRANCH   5   6
ENDBRANCH   1   5
TORSDOF 5
ENDMDL
MODEL 2
REMARK VINA RESULT:    -3.087     15.259     17.325
REMARK INTER + INTRA:          -4.121
REMARK INTER:                  -3.865
REMARK INTRA:                  -0.256
REMARK UNBOUND:                -0.132
REMARK SMILES C=CC(=O)CCCCC
REMARK SMILES IDX 6 1 7 2 8 3 9 4 5 5 3 6 4 7 2 8 1 9
REMARK H PARENT
REMARK Flexibility Score: inf
ROOT
ATOM      1  C   UNL     1       9.921 -32.126  13.788  1.00  0.00     0.008 C 
ENDROOT
BRANCH   1   2
ATOM      2  C   UNL     1      11.452 -32.268  13.740  1.00  0.00     0.000 C 
BRANCH   2   3
ATOM      3  C   UNL     1      12.179 -31.113  14.445  1.00  0.00    -0.003 C 
ATOM      4  C   UNL     1      13.667 -31.114  14.109  1.00  0.00     0.004 C 
ENDBRANCH   2   3
ENDBRANCH   1   2
BRANCH   1   5
ATOM      5  C   UNL     1       9.230 -33.051  14.805  1.00  0.00     0.080 C 
BRANCH   5   6
ATOM      6  C   UNL     1       8.485 -32.280  15.857  1.00  0.00     0.155 C 
ATOM      7  O   UNL     1       7.225 -32.254  15.826  1.00  0.00    -0.295 OA
BRANCH   6   8
ATOM      8  C   UNL     1       9.225 -31.586  16.928  1.00  0.00     0.039 C 
ATOM      9  C   UNL     1       8.986 -31.805  18.219  1.00  0.00     0.012 C 
ENDBRANCH   6   8
ENDBRANCH   5   6
ENDBRANCH   1   5
TORSDOF 5
ENDMDL
MODEL 3
REMARK VINA RESULT:    -2.993     15.179     16.590
REMARK INTER + INTRA:          -4.000
REMARK INTER:                  -3.613
REMARK INTRA:                  -0.387
REMARK UNBOUND:                -0.132
REMARK SMILES C=CC(=O)CCCCC
REMARK SMILES IDX 6 1 7 2 8 3 9 4 5 5 3 6 4 7 2 8 1 9
REMARK H PARENT
REMARK Flexibility Score: inf
ROOT
ATOM      1  C   UNL     1       8.610 -32.225  15.884  1.00  0.00     0.008 C 
ENDROOT
BRANCH   1   2
ATOM      2  C   UNL     1       8.411 -32.486  17.387  1.00  0.00     0.000 C 
BRANCH   2   3
ATOM      3  C   UNL     1       9.179 -31.491  18.270  1.00  0.00    -0.003 C 
ATOM      4  C   UNL     1      10.204 -30.711  17.454  1.00  0.00     0.004 C 
ENDBRANCH   2   3
ENDBRANCH   1   2
BRANCH   1   5
ATOM      5  C   UNL     1       8.892 -33.489  15.054  1.00  0.00     0.080 C 
BRANCH   5   6
ATOM      6  C   UNL     1      10.077 -33.318  14.146  1.00  0.00     0.155 C 
ATOM      7  O   UNL     1      10.649 -34.341  13.680  1.00  0.00    -0.295 OA
BRANCH   6   8
ATOM      8  C   UNL     1      10.543 -31.966  13.785  1.00  0.00     0.039 C 
ATOM      9  C   UNL     1      11.715 -31.482  14.192  1.00  0.00     0.012 C 
ENDBRANCH   6   8
ENDBRANCH   5   6
ENDBRANCH   1   5
TORSDOF 5
ENDMDL
MODEL 4
REMARK VINA RESULT:    -2.955     14.818     17.093
REMARK INTER + INTRA:          -3.951
REMARK INTER:                  -3.590
REMARK INTRA:                  -0.361
REMARK UNBOUND:                -0.132
REMARK SMILES C=CC(=O)CCCCC
REMARK SMILES IDX 6 1 7 2 8 3 9 4 5 5 3 6 4 7 2 8 1 9
REMARK H PARENT
REMARK Flexibility Score: inf
ROOT
ATOM      1  C   UNL     1       8.689 -32.253  14.399  1.00  0.00     0.008 C 
ENDROOT
BRANCH   1   2
ATOM      2  C   UNL     1       9.691 -33.358  14.018  1.00  0.00     0.000 C 
BRANCH   2   3
ATOM      3  C   UNL     1      11.018 -32.798  13.482  1.00  0.00    -0.003 C 
ATOM      4  C   UNL     1      11.417 -31.527  14.225  1.00  0.00     0.004 C 
ENDBRANCH   2   3
ENDBRANCH   1   2
BRANCH   1   5
ATOM      5  C   UNL     1       7.738 -32.631  15.547  1.00  0.00     0.080 C 
BRANCH   5   6
ATOM      6  C   UNL     1       8.469 -32.852  16.840  1.00  0.00     0.155 C 
ATOM      7  O   UNL     1       8.527 -34.015  17.325  1.00  0.00    -0.295 OA
BRANCH   6   8
ATOM      8  C   UNL     1       9.134 -31.722  17.516  1.00  0.00     0.039 C 
ATOM      9  C   UNL     1       9.004 -31.494  18.822  1.00  0.00     0.012 C 
ENDBRANCH   6   8
ENDBRANCH   5   6
ENDBRANCH   1   5
TORSDOF 5
ENDMDL
MODEL 5
REMARK VINA RESULT:    -2.925     14.174     15.087
REMARK INTER + INTRA:          -3.912
REMARK INTER:                  -3.753
REMARK INTRA:                  -0.160
REMARK UNBOUND:                -0.132
REMARK SMILES C=CC(=O)CCCCC
REMARK SMILES IDX 6 1 7 2 8 3 9 4 5 5 3 6 4 7 2 8 1 9
REMARK H PARENT
REMARK Flexibility Score: inf
ROOT
ATOM      1  C   UNL     1      21.862 -22.091  31.753  1.00  0.00     0.008 C 
ENDROOT
BRANCH   1   2
ATOM      2  C   UNL     1      20.790 -22.450  32.798  1.00  0.00     0.000 C 
BRANCH   2   3
ATOM      3  C   UNL     1      20.032 -23.740  32.453  1.00  0.00    -0.003 C 
ATOM      4  C   UNL     1      18.723 -23.431  31.732  1.00  0.00     0.004 C 
ENDBRANCH   2   3
ENDBRANCH   1   2
BRANCH   1   5
ATOM      5  C   UNL     1      23.076 -21.339  32.324  1.00  0.00     0.080 C 
BRANCH   5   6
ATOM      6  C   UNL     1      23.865 -20.641  31.253  1.00  0.00     0.155 C 
ATOM      7  O   UNL     1      24.285 -19.470  31.460  1.00  0.00    -0.295 OA
BRANCH   6   8
ATOM      8  C   UNL     1      24.166 -21.334  29.986  1.00  0.00     0.039 C 
ATOM      9  C   UNL     1      25.246 -22.097  29.828  1.00  0.00     0.012 C 
ENDBRANCH   6   8
ENDBRANCH   5   6
ENDBRANCH   1   5
TORSDOF 5
ENDMDL
MODEL 6
REMARK VINA RESULT:    -2.901     16.970     18.067
REMARK INTER + INTRA:          -3.881
REMARK INTER:                  -3.484
REMARK INTRA:                  -0.397
REMARK UNBOUND:                -0.132
REMARK SMILES C=CC(=O)CCCCC
REMARK SMILES IDX 6 1 7 2 8 3 9 4 5 5 3 6 4 7 2 8 1 9
REMARK H PARENT
REMARK Flexibility Score: inf
ROOT
ATOM      1  C   UNL     1       8.628 -33.087  15.357  1.00  0.00     0.008 C 
ENDROOT
BRANCH   1   2
ATOM      2  C   UNL     1       7.164 -32.613  15.360  1.00  0.00     0.000 C 
BRANCH   2   3
ATOM      3  C   UNL     1       6.393 -33.057  14.108  1.00  0.00    -0.003 C 
ATOM      4  C   UNL     1       6.852 -32.282  12.877  1.00  0.00     0.004 C 
ENDBRANCH   2   3
ENDBRANCH   1   2
BRANCH   1   5
ATOM      5  C   UNL     1       9.662 -31.950  15.409  1.00  0.00     0.080 C 
BRANCH   5   6
ATOM      6  C   UNL     1      10.655 -32.035  14.285  1.00  0.00     0.155 C 
ATOM      7  O   UNL     1      11.681 -31.302  14.311  1.00  0.00    -0.295 OA
BRANCH   6   8
ATOM      8  C   UNL     1      10.441 -32.988  13.180  1.00  0.00     0.039 C 
ATOM      9  C   UNL     1      11.227 -34.045  12.985  1.00  0.00     0.012 C 
ENDBRANCH   6   8
ENDBRANCH   5   6
ENDBRANCH   1   5
TORSDOF 5
ENDMDL
MODEL 7
REMARK VINA RESULT:    -2.896      2.053      5.024
REMARK INTER + INTRA:          -3.874
REMARK INTER:                  -3.635
REMARK INTRA:                  -0.239
REMARK UNBOUND:                -0.132
REMARK SMILES C=CC(=O)CCCCC
REMARK SMILES IDX 6 1 7 2 8 3 9 4 5 5 3 6 4 7 2 8 1 9
REMARK H PARENT
REMARK Flexibility Score: inf
ROOT
ATOM      1  C   UNL     1      16.219 -35.199  31.038  1.00  0.00     0.008 C 
ENDROOT
BRANCH   1   2
ATOM      2  C   UNL     1      16.465 -36.685  30.722  1.00  0.00     0.000 C 
BRANCH   2   3
ATOM      3  C   UNL     1      17.246 -36.894  29.416  1.00  0.00    -0.003 C 
ATOM      4  C   UNL     1      17.600 -35.558  28.769  1.00  0.00     0.004 C 
ENDBRANCH   2   3
ENDBRANCH   1   2
BRANCH   1   5
ATOM      5  C   UNL     1      15.866 -34.914  32.508  1.00  0.00     0.080 C 
BRANCH   5   6
ATOM      6  C   UNL     1      14.839 -33.826  32.643  1.00  0.00     0.155 C 
ATOM      7  O   UNL     1      15.185 -32.626  32.469  1.00  0.00    -0.295 OA
BRANCH   6   8
ATOM      8  C   UNL     1      13.437 -34.167  32.948  1.00  0.00     0.039 C 
ATOM      9  C   UNL     1      13.004 -35.424  33.010  1.00  0.00     0.012 C 
ENDBRANCH   6   8
ENDBRANCH   5   6
ENDBRANCH   1   5
TORSDOF 5
ENDMDL
MODEL 8
REMARK VINA RESULT:    -2.892      2.193      4.820
REMARK INTER + INTRA:          -3.869
REMARK INTER:                  -3.587
REMARK INTRA:                  -0.282
REMARK UNBOUND:                -0.132
REMARK SMILES C=CC(=O)CCCCC
REMARK SMILES IDX 6 1 7 2 8 3 9 4 5 5 3 6 4 7 2 8 1 9
REMARK H PARENT
REMARK Flexibility Score: inf
ROOT
ATOM      1  C   UNL     1      15.990 -37.001  31.535  1.00  0.00     0.008 C 
ENDROOT
BRANCH   1   2
ATOM      2  C   UNL     1      16.798 -37.024  30.225  1.00  0.00     0.000 C 
BRANCH   2   3
ATOM      3  C   UNL     1      17.207 -35.620  29.754  1.00  0.00    -0.003 C 
ATOM      4  C   UNL     1      17.603 -35.629  28.281  1.00  0.00     0.004 C 
ENDBRANCH   2   3
ENDBRANCH   1   2
BRANCH   1   5
ATOM      5  C   UNL     1      15.909 -35.618  32.204  1.00  0.00     0.080 C 
BRANCH   5   6
ATOM      6  C   UNL     1      14.499 -35.105  32.273  1.00  0.00     0.155 C 
ATOM      7  O   UNL     1      13.547 -35.926  32.368  1.00  0.00    -0.295 OA
BRANCH   6   8
ATOM      8  C   UNL     1      14.239 -33.653  32.256  1.00  0.00     0.039 C 
ATOM      9  C   UNL     1      15.211 -32.751  32.382  1.00  0.00     0.012 C 
ENDBRANCH   6   8
ENDBRANCH   5   6
ENDBRANCH   1   5
TORSDOF 5
ENDMDL
MODEL 9
REMARK VINA RESULT:    -2.857     15.433     17.572
REMARK INTER + INTRA:          -3.824
REMARK INTER:                  -3.524
REMARK INTRA:                  -0.300
REMARK UNBOUND:                -0.132
REMARK SMILES C=CC(=O)CCCCC
REMARK SMILES IDX 6 1 7 2 8 3 9 4 5 5 3 6 4 7 2 8 1 9
REMARK H PARENT
REMARK Flexibility Score: inf
ROOT
ATOM      1  C   UNL     1       9.732 -32.624  14.660  1.00  0.00     0.008 C 
ENDROOT
BRANCH   1   2
ATOM      2  C   UNL     1       8.987 -32.242  13.369  1.00  0.00     0.000 C 
BRANCH   2   3
ATOM      3  C   UNL     1       7.885 -33.245  12.999  1.00  0.00    -0.003 C 
ATOM      4  C   UNL     1       6.500 -32.661  13.265  1.00  0.00     0.004 C 
ENDBRANCH   2   3
ENDBRANCH   1   2
BRANCH   1   5
ATOM      5  C   UNL     1       9.285 -31.838  15.905  1.00  0.00     0.080 C 
BRANCH   5   6
ATOM      6  C   UNL     1       8.542 -32.702  16.884  1.00  0.00     0.155 C 
ATOM      7  O   UNL     1       8.070 -33.806  16.498  1.00  0.00    -0.295 OA
BRANCH   6   8
ATOM      8  C   UNL     1       8.394 -32.271  18.286  1.00  0.00     0.039 C 
ATOM      9  C   UNL     1       9.118 -31.285  18.811  1.00  0.00     0.012 C 
ENDBRANCH   6   8
ENDBRANCH   5   6
ENDBRANCH   1   5
TORSDOF 5
ENDMDL
