MODEL 1
REMARK VINA RESULT:    -4.293      0.000      0.000
REMARK INTER + INTRA:         -13.242
REMARK INTER:                  -9.813
REMARK INTRA:                  -3.428
REMARK UNBOUND:                -3.428
REMARK SMILES CCCCCCCCCCCCCCCCCCCCCCCC(=O)[O-]
REMARK SMILES IDX 13 1 14 2 15 3 16 4 17 5 18 6 19 7 20 8 21 9 22 10 23 11
REMARK SMILES IDX 24 12 25 13 26 14 12 15 11 16 10 17 9 18 8 19 7 20 6 21 5 22
REMARK SMILES IDX 4 23 3 24 2 25 1 26
REMARK H PARENT
REMARK Flexibility Score: inf
ROOT
ATOM      1  C   UNL     1      39.887  -6.483   8.841  1.00  0.00     0.000 C 
ENDROOT
BRANCH   1   2
ATOM      2  C   UNL     1      38.366  -6.608   9.048  1.00  0.00     0.000 C 
BRANCH   2   3
ATOM      3  C   UNL     1      37.995  -7.281  10.380  1.00  0.00     0.000 C 
BRANCH   3   4
ATOM      4  C   UNL     1      39.220  -7.803  11.153  1.00  0.00     0.000 C 
BRANCH   4   5
ATOM      5  C   UNL     1      39.320  -9.335  11.266  1.00  0.00     0.000 C 
BRANCH   5   6
ATOM      6  C   UNL     1      38.555 -10.070  10.152  1.00  0.00     0.000 C 
BRANCH   6   7
ATOM      7  C   UNL     1      37.414 -10.942  10.697  1.00  0.00     0.000 C 
BRANCH   7   8
ATOM      8  C   UNL     1      37.323 -10.901  12.234  1.00  0.00     0.000 C 
BRANCH   8   9
ATOM      9  C   UNL     1      35.873 -10.902  12.747  1.00  0.00     0.000 C 
BRANCH   9  10
ATOM     10  C   UNL     1      35.364  -9.541  13.263  1.00  0.00     0.006 C 
BRANCH  10  11
ATOM     11  C   UNL     1      36.471  -8.516  13.552  1.00  0.00     0.053 C 
BRANCH  11  12
ATOM     12  C   UNL     1      35.927  -7.126  13.680  1.00  0.00     0.041 C 
ATOM     13  O   UNL     1      35.125  -6.677  12.820  1.00  0.00    -0.550 OA
ATOM     14  O   UNL     1      36.289  -6.335  14.764  1.00  0.00    -0.550 OA
ENDBRANCH  11  12
ENDBRANCH  10  11
ENDBRANCH   9  10
ENDBRANCH   8   9
ENDBRANCH   7   8
ENDBRANCH   6   7
ENDBRANCH   5   6
ENDBRANCH   4   5
ENDBRANCH   3   4
ENDBRANCH   2   3
ENDBRANCH   1   2
BRANCH   1  15
ATOM     15  C   UNL     1      40.496  -7.448   7.806  1.00  0.00     0.000 C 
BRANCH  15  16
ATOM     16  C   UNL     1      41.814  -8.083   8.280  1.00  0.00     0.000 C 
BRANCH  16  17
ATOM     17  C   UNL     1      41.754  -9.621   8.334  1.00  0.00     0.000 C 
BRANCH  17  18
ATOM     18  C   UNL     1      43.121 -10.333   8.361  1.00  0.00    -0.000 C 
BRANCH  18  19
ATOM     19  C   UNL     1      44.314  -9.479   7.889  1.00  0.00    -0.000 C 
BRANCH  19  20
ATOM     20  C   UNL     1      45.154 -10.105   6.757  1.00  0.00    -0.000 C 
BRANCH  20  21
ATOM     21  C   UNL     1      44.798  -9.619   5.339  1.00  0.00    -0.000 C 
BRANCH  21  22
ATOM     22  C   UNL     1      43.672 -10.409   4.644  1.00  0.00    -0.000 C 
BRANCH  22  23
ATOM     23  C   UNL     1      42.274  -9.763   4.725  1.00  0.00    -0.000 C 
BRANCH  23  24
ATOM     24  C   UNL     1      42.252  -8.231   4.551  1.00  0.00    -0.000 C 
BRANCH  24  25
ATOM     25  C   UNL     1      41.053  -7.687   3.754  1.00  0.00    -0.003 C 
ATOM     26  C   UNL     1      40.557  -6.338   4.271  1.00  0.00     0.004 C 
ENDBRANCH  24  25
ENDBRANCH  23  24
ENDBRANCH  22  23
ENDBRANCH  21  22
ENDBRANCH  20  21
ENDBRANCH  19  20
ENDBRANCH  18  19
ENDBRANCH  17  18
ENDBRANCH  16  17
ENDBRANCH  15  16
ENDBRANCH   1  15
TORSDOF 22
ENDMDL
MODEL 2
REMARK VINA RESULT:    -4.287      3.735      9.336
REMARK INTER + INTRA:         -13.229
REMARK INTER:                 -10.245
REMARK INTRA:                  -2.984
REMARK UNBOUND:                -3.428
REMARK SMILES CCCCCCCCCCCCCCCCCCCCCCCC(=O)[O-]
REMARK SMILES IDX 13 1 14 2 15 3 16 4 17 5 18 6 19 7 20 8 21 9 22 10 23 11
REMARK SMILES IDX 24 12 25 13 26 14 12 15 11 16 10 17 9 18 8 19 7 20 6 21 5 22
REMARK SMILES IDX 4 23 3 24 2 25 1 26
REMARK H PARENT
REMARK Flexibility Score: inf
ROOT
ATOM      1  C   UNL     1      39.499  -6.400   8.519  1.00  0.00     0.000 C 
ENDROOT
BRANCH   1   2
ATOM      2  C   UNL     1      40.224  -7.006   7.303  1.00  0.00     0.000 C 
BRANCH   2   3
ATOM      3  C   UNL     1      41.328  -8.002   7.697  1.00  0.00     0.000 C 
BRANCH   3   4
ATOM      4  C   UNL     1      42.703  -7.642   7.105  1.00  0.00     0.000 C 
BRANCH   4   5
ATOM      5  C   UNL     1      43.333  -8.722   6.208  1.00  0.00     0.000 C 
BRANCH   5   6
ATOM      6  C   UNL     1      42.298  -9.701   5.629  1.00  0.00     0.000 C 
BRANCH   6   7
ATOM      7  C   UNL     1      42.327  -9.751   4.094  1.00  0.00     0.000 C 
BRANCH   7   8
ATOM      8  C   UNL     1      41.176  -8.952   3.457  1.00  0.00     0.000 C 
BRANCH   8   9
ATOM      9  C   UNL     1      41.596  -7.533   3.035  1.00  0.00     0.000 C 
BRANCH   9  10
ATOM     10  C   UNL     1      41.009  -6.399   3.899  1.00  0.00     0.006 C 
BRANCH  10  11
ATOM     11  C   UNL     1      40.443  -5.216   3.099  1.00  0.00     0.053 C 
BRANCH  11  12
ATOM     12  C   UNL     1      41.512  -4.244   2.705  1.00  0.00     0.041 C 
ATOM     13  O   UNL     1      42.116  -4.375   1.608  1.00  0.00    -0.550 OA
ATOM     14  O   UNL     1      41.826  -3.179   3.541  1.00  0.00    -0.550 OA
ENDBRANCH  11  12
ENDBRANCH  10  11
ENDBRANCH   9  10
ENDBRANCH   8   9
ENDBRANCH   7   8
ENDBRANCH   6   7
ENDBRANCH   5   6
ENDBRANCH   4   5
ENDBRANCH   3   4
ENDBRANCH   2   3
ENDBRANCH   1   2
BRANCH   1  15
ATOM     15  C   UNL     1      40.210  -6.584   9.873  1.00  0.00     0.000 C 
BRANCH  15  16
ATOM     16  C   UNL     1      39.372  -7.378  10.889  1.00  0.00     0.000 C 
BRANCH  16  17
ATOM     17  C   UNL     1      37.952  -7.691  10.381  1.00  0.00     0.000 C 
BRANCH  17  18
ATOM     18  C   UNL     1      37.247  -8.872  11.079  1.00  0.00    -0.000 C 
BRANCH  18  19
ATOM     19  C   UNL     1      38.077  -9.577  12.169  1.00  0.00    -0.000 C 
BRANCH  19  20
ATOM     20  C   UNL     1      37.250 -10.232  13.295  1.00  0.00    -0.000 C 
BRANCH  20  21
ATOM     21  C   UNL     1      35.747 -10.382  12.992  1.00  0.00    -0.000 C 
BRANCH  21  22
ATOM     22  C   UNL     1      34.806  -9.742  14.033  1.00  0.00    -0.000 C 
BRANCH  22  23
ATOM     23  C   UNL     1      35.157  -8.292  14.425  1.00  0.00    -0.000 C 
BRANCH  23  24
ATOM     24  C   UNL     1      34.810  -7.227  13.366  1.00  0.00    -0.000 C 
BRANCH  24  25
ATOM     25  C   UNL     1      35.858  -6.111  13.203  1.00  0.00    -0.003 C 
ATOM     26  C   UNL     1      37.162  -6.408  13.943  1.00  0.00     0.004 C 
ENDBRANCH  24  25
ENDBRANCH  23  24
ENDBRANCH  22  23
ENDBRANCH  21  22
ENDBRANCH  20  21
ENDBRANCH  19  20
ENDBRANCH  18  19
ENDBRANCH  17  18
ENDBRANCH  16  17
ENDBRANCH  15  16
ENDBRANCH   1  15
TORSDOF 22
ENDMDL
MODEL 3
REMARK VINA RESULT:    -4.252      3.903     10.703
REMARK INTER + INTRA:         -13.150
REMARK INTER:                  -9.925
REMARK INTRA:                  -3.225
REMARK UNBOUND:                -3.428
REMARK SMILES CCCCCCCCCCCCCCCCCCCCCCCC(=O)[O-]
REMARK SMILES IDX 13 1 14 2 15 3 16 4 17 5 18 6 19 7 20 8 21 9 22 10 23 11
REMARK SMILES IDX 24 12 25 13 26 14 12 15 11 16 10 17 9 18 8 19 7 20 6 21 5 22
REMARK SMILES IDX 4 23 3 24 2 25 1 26
REMARK H PARENT
REMARK Flexibility Score: inf
ROOT
ATOM      1  C   UNL     1      35.623  -6.551  13.854  1.00  0.00     0.000 C 
ENDROOT
BRANCH   1   2
ATOM      2  C   UNL     1      37.129  -6.382  13.581  1.00  0.00     0.000 C 
BRANCH   2   3
ATOM      3  C   UNL     1      37.652  -7.336  12.493  1.00  0.00     0.000 C 
BRANCH   3   4
ATOM      4  C   UNL     1      36.570  -7.740  11.475  1.00  0.00     0.000 C 
BRANCH   4   5
ATOM      5  C   UNL     1      36.248  -9.244  11.423  1.00  0.00     0.000 C 
BRANCH   5   6
ATOM      6  C   UNL     1      37.227 -10.097  12.247  1.00  0.00     0.000 C 
BRANCH   6   7
ATOM      7  C   UNL     1      38.216 -10.877  11.366  1.00  0.00     0.000 C 
BRANCH   7   8
ATOM      8  C   UNL     1      37.858 -10.802   9.871  1.00  0.00     0.000 C 
BRANCH   8   9
ATOM      9  C   UNL     1      38.903 -10.033   9.044  1.00  0.00     0.000 C 
BRANCH   9  10
ATOM     10  C   UNL     1      40.040  -9.394   9.866  1.00  0.00     0.006 C 
BRANCH  10  11
ATOM     11  C   UNL     1      40.163  -7.871   9.706  1.00  0.00     0.053 C 
BRANCH  11  12
ATOM     12  C   UNL     1      40.818  -7.496   8.412  1.00  0.00     0.041 C 
ATOM     13  O   UNL     1      42.042  -7.729   8.230  1.00  0.00    -0.550 OA
ATOM     14  O   UNL     1      40.071  -6.909   7.398  1.00  0.00    -0.550 OA
ENDBRANCH  11  12
ENDBRANCH  10  11
ENDBRANCH   9  10
ENDBRANCH   8   9
ENDBRANCH   7   8
ENDBRANCH   6   7
ENDBRANCH   5   6
ENDBRANCH   4   5
ENDBRANCH   3   4
ENDBRANCH   2   3
ENDBRANCH   1   2
BRANCH   1  15
ATOM     15  C   UNL     1      35.247  -7.711  14.794  1.00  0.00     0.000 C 
BRANCH  15  16
ATOM     16  C   UNL     1      33.921  -8.389  14.410  1.00  0.00     0.000 C 
BRANCH  16  17
ATOM     17  C   UNL     1      34.011  -9.927  14.407  1.00  0.00     0.000 C 
BRANCH  17  18
ATOM     18  C   UNL     1      32.663 -10.667  14.522  1.00  0.00    -0.000 C 
BRANCH  18  19
ATOM     19  C   UNL     1      31.436  -9.761  14.740  1.00  0.00    -0.000 C 
BRANCH  19  20
ATOM     20  C   UNL     1      30.593 -10.096  15.988  1.00  0.00    -0.000 C 
BRANCH  20  21
ATOM     21  C   UNL     1      31.408 -10.364  17.268  1.00  0.00    -0.000 C 
BRANCH  21  22
ATOM     22  C   UNL     1      31.922  -9.101  17.988  1.00  0.00    -0.000 C 
BRANCH  22  23
ATOM     23  C   UNL     1      33.454  -8.922  17.979  1.00  0.00    -0.000 C 
BRANCH  23  24
ATOM     24  C   UNL     1      33.987  -7.814  18.910  1.00  0.00    -0.000 C 
BRANCH  24  25
ATOM     25  C   UNL     1      34.670  -6.638  18.190  1.00  0.00    -0.003 C 
ATOM     26  C   UNL     1      35.019  -5.485  19.132  1.00  0.00     0.004 C 
ENDBRANCH  24  25
ENDBRANCH  23  24
ENDBRANCH  22  23
ENDBRANCH  21  22
ENDBRANCH  20  21
ENDBRANCH  19  20
ENDBRANCH  18  19
ENDBRANCH  17  18
ENDBRANCH  16  17
ENDBRANCH  15  16
ENDBRANCH   1  15
TORSDOF 22
ENDMDL
MODEL 4
REMARK VINA RESULT:    -4.155      1.681      2.972
REMARK INTER + INTRA:         -12.928
REMARK INTER:                 -10.476
REMARK INTRA:                  -2.452
REMARK UNBOUND:                -3.428
REMARK SMILES CCCCCCCCCCCCCCCCCCCCCCCC(=O)[O-]
REMARK SMILES IDX 13 1 14 2 15 3 16 4 17 5 18 6 19 7 20 8 21 9 22 10 23 11
REMARK SMILES IDX 24 12 25 13 26 14 12 15 11 16 10 17 9 18 8 19 7 20 6 21 5 22
REMARK SMILES IDX 4 23 3 24 2 25 1 26
REMARK H PARENT
REMARK Flexibility Score: inf
ROOT
ATOM      1  C   UNL     1      38.326  -6.567   9.074  1.00  0.00     0.000 C 
ENDROOT
BRANCH   1   2
ATOM      2  C   UNL     1      37.918  -7.354  10.332  1.00  0.00     0.000 C 
BRANCH   2   3
ATOM      3  C   UNL     1      39.105  -7.654  11.263  1.00  0.00     0.000 C 
BRANCH   3   4
ATOM      4  C   UNL     1      39.415  -9.158  11.379  1.00  0.00     0.000 C 
BRANCH   4   5
ATOM      5  C   UNL     1      38.437 -10.087  10.639  1.00  0.00     0.000 C 
BRANCH   5   6
ATOM      6  C   UNL     1      37.456 -10.802  11.584  1.00  0.00     0.000 C 
BRANCH   6   7
ATOM      7  C   UNL     1      37.717 -10.475  13.063  1.00  0.00     0.000 C 
BRANCH   7   8
ATOM      8  C   UNL     1      36.522  -9.773  13.731  1.00  0.00     0.000 C 
BRANCH   8   9
ATOM      9  C   UNL     1      35.683  -8.947  12.740  1.00  0.00     0.000 C 
BRANCH   9  10
ATOM     10  C   UNL     1      35.311  -7.531  13.226  1.00  0.00     0.006 C 
BRANCH  10  11
ATOM     11  C   UNL     1      35.458  -7.319  14.740  1.00  0.00     0.053 C 
BRANCH  11  12
ATOM     12  C   UNL     1      34.173  -7.568  15.468  1.00  0.00     0.041 C 
ATOM     13  O   UNL     1      34.072  -7.288  16.692  1.00  0.00    -0.550 OA
ATOM     14  O   UNL     1      33.079  -8.090  14.789  1.00  0.00    -0.550 OA
ENDBRANCH  11  12
ENDBRANCH  10  11
ENDBRANCH   9  10
ENDBRANCH   8   9
ENDBRANCH   7   8
ENDBRANCH   6   7
ENDBRANCH   5   6
ENDBRANCH   4   5
ENDBRANCH   3   4
ENDBRANCH   2   3
ENDBRANCH   1   2
BRANCH   1  15
ATOM     15  C   UNL     1      39.841  -6.367   8.880  1.00  0.00     0.000 C 
BRANCH  15  16
ATOM     16  C   UNL     1      40.412  -7.194   7.716  1.00  0.00     0.000 C 
BRANCH  16  17
ATOM     17  C   UNL     1      41.395  -8.285   8.181  1.00  0.00     0.000 C 
BRANCH  17  18
ATOM     18  C   UNL     1      42.720  -8.357   7.395  1.00  0.00    -0.000 C 
BRANCH  18  19
ATOM     19  C   UNL     1      42.662  -7.795   5.962  1.00  0.00    -0.000 C 
BRANCH  19  20
ATOM     20  C   UNL     1      41.975  -8.713   4.930  1.00  0.00    -0.000 C 
BRANCH  20  21
ATOM     21  C   UNL     1      41.199  -7.976   3.821  1.00  0.00    -0.000 C 
BRANCH  21  22
ATOM     22  C   UNL     1      40.997  -6.467   4.061  1.00  0.00    -0.000 C 
BRANCH  22  23
ATOM     23  C   UNL     1      41.120  -5.584   2.802  1.00  0.00    -0.000 C 
BRANCH  23  24
ATOM     24  C   UNL     1      41.376  -4.088   3.077  1.00  0.00    -0.000 C 
BRANCH  24  25
ATOM     25  C   UNL     1      40.119  -3.268   3.417  1.00  0.00    -0.003 C 
ATOM     26  C   UNL     1      39.075  -3.287   2.301  1.00  0.00     0.004 C 
ENDBRANCH  24  25
ENDBRANCH  23  24
ENDBRANCH  22  23
ENDBRANCH  21  22
ENDBRANCH  20  21
ENDBRANCH  19  20
ENDBRANCH  18  19
ENDBRANCH  17  18
ENDBRANCH  16  17
ENDBRANCH  15  16
ENDBRANCH   1  15
TORSDOF 22
ENDMDL
MODEL 5
REMARK VINA RESULT:    -4.108      3.566      9.117
REMARK INTER + INTRA:         -12.820
REMARK INTER:                 -10.496
REMARK INTRA:                  -2.323
REMARK UNBOUND:                -3.428
REMARK SMILES CCCCCCCCCCCCCCCCCCCCCCCC(=O)[O-]
REMARK SMILES IDX 13 1 14 2 15 3 16 4 17 5 18 6 19 7 20 8 21 9 22 10 23 11
REMARK SMILES IDX 24 12 25 13 26 14 12 15 11 16 10 17 9 18 8 19 7 20 6 21 5 22
REMARK SMILES IDX 4 23 3 24 2 25 1 26
REMARK H PARENT
REMARK Flexibility Score: inf
ROOT
ATOM      1  C   UNL     1      43.469  -7.701   6.702  1.00  0.00     0.000 C 
ENDROOT
BRANCH   1   2
ATOM      2  C   UNL     1      44.331  -8.923   6.337  1.00  0.00     0.000 C 
BRANCH   2   3
ATOM      3  C   UNL     1      43.734 -10.250   6.834  1.00  0.00     0.000 C 
BRANCH   3   4
ATOM      4  C   UNL     1      43.164 -11.118   5.697  1.00  0.00     0.000 C 
BRANCH   4   5
ATOM      5  C   UNL     1      41.741 -10.748   5.241  1.00  0.00     0.000 C 
BRANCH   5   6
ATOM      6  C   UNL     1      41.561 -10.821   3.715  1.00  0.00     0.000 C 
BRANCH   6   7
ATOM      7  C   UNL     1      40.962  -9.534   3.129  1.00  0.00     0.000 C 
BRANCH   7   8
ATOM      8  C   UNL     1      41.681  -8.268   3.631  1.00  0.00     0.000 C 
BRANCH   8   9
ATOM      9  C   UNL     1      41.382  -7.029   2.769  1.00  0.00     0.000 C 
BRANCH   9  10
ATOM     10  C   UNL     1      40.477  -5.975   3.438  1.00  0.00     0.006 C 
BRANCH  10  11
ATOM     11  C   UNL     1      40.922  -4.521   3.216  1.00  0.00     0.053 C 
BRANCH  11  12
ATOM     12  C   UNL     1      39.841  -3.696   2.587  1.00  0.00     0.041 C 
ATOM     13  O   UNL     1      39.376  -4.011   1.460  1.00  0.00    -0.550 OA
ATOM     14  O   UNL     1      39.331  -2.590   3.258  1.00  0.00    -0.550 OA
ENDBRANCH  11  12
ENDBRANCH  10  11
ENDBRANCH   9  10
ENDBRANCH   8   9
ENDBRANCH   7   8
ENDBRANCH   6   7
ENDBRANCH   5   6
ENDBRANCH   4   5
ENDBRANCH   3   4
ENDBRANCH   2   3
ENDBRANCH   1   2
BRANCH   1  15
ATOM     15  C   UNL     1      42.274  -7.988   7.631  1.00  0.00     0.000 C 
BRANCH  15  16
ATOM     16  C   UNL     1      40.953  -7.400   7.109  1.00  0.00     0.000 C 
BRANCH  16  17
ATOM     17  C   UNL     1      40.011  -6.944   8.239  1.00  0.00     0.000 C 
BRANCH  17  18
ATOM     18  C   UNL     1      40.456  -7.331   9.665  1.00  0.00    -0.000 C 
BRANCH  18  19
ATOM     19  C   UNL     1      39.327  -7.378  10.712  1.00  0.00    -0.000 C 
BRANCH  19  20
ATOM     20  C   UNL     1      37.899  -7.366  10.130  1.00  0.00    -0.000 C 
BRANCH  20  21
ATOM     21  C   UNL     1      36.821  -7.983  11.042  1.00  0.00    -0.000 C 
BRANCH  21  22
ATOM     22  C   UNL     1      37.305  -9.154  11.921  1.00  0.00    -0.000 C 
BRANCH  22  23
ATOM     23  C   UNL     1      36.847  -9.098  13.393  1.00  0.00    -0.000 C 
BRANCH  23  24
ATOM     24  C   UNL     1      35.475  -8.434  13.625  1.00  0.00    -0.000 C 
BRANCH  24  25
ATOM     25  C   UNL     1      35.495  -7.222  14.573  1.00  0.00    -0.003 C 
ATOM     26  C   UNL     1      36.597  -6.219  14.234  1.00  0.00     0.004 C 
ENDBRANCH  24  25
ENDBRANCH  23  24
ENDBRANCH  22  23
ENDBRANCH  21  22
ENDBRANCH  20  21
ENDBRANCH  19  20
ENDBRANCH  18  19
ENDBRANCH  17  18
ENDBRANCH  16  17
ENDBRANCH  15  16
ENDBRANCH   1  15
TORSDOF 22
ENDMDL
MODEL 6
REMARK VINA RESULT:    -4.083      4.381     11.286
REMARK INTER + INTRA:         -12.763
REMARK INTER:                 -10.659
REMARK INTRA:                  -2.105
REMARK UNBOUND:                -3.428
REMARK SMILES CCCCCCCCCCCCCCCCCCCCCCCC(=O)[O-]
REMARK SMILES IDX 13 1 14 2 15 3 16 4 17 5 18 6 19 7 20 8 21 9 22 10 23 11
REMARK SMILES IDX 24 12 25 13 26 14 12 15 11 16 10 17 9 18 8 19 7 20 6 21 5 22
REMARK SMILES IDX 4 23 3 24 2 25 1 26
REMARK H PARENT
REMARK Flexibility Score: inf
ROOT
ATOM      1  C   UNL     1      34.322  -7.539  14.764  1.00  0.00     0.000 C 
ENDROOT
BRANCH   1   2
ATOM      2  C   UNL     1      34.959  -6.956  13.490  1.00  0.00     0.000 C 
BRANCH   2   3
ATOM      3  C   UNL     1      36.338  -6.324  13.745  1.00  0.00     0.000 C 
BRANCH   3   4
ATOM      4  C   UNL     1      37.494  -7.130  13.124  1.00  0.00     0.000 C 
BRANCH   4   5
ATOM      5  C   UNL     1      37.079  -8.431  12.414  1.00  0.00     0.000 C 
BRANCH   5   6
ATOM      6  C   UNL     1      37.309  -9.684  13.275  1.00  0.00     0.000 C 
BRANCH   6   7
ATOM      7  C   UNL     1      38.218 -10.714  12.587  1.00  0.00     0.000 C 
BRANCH   7   8
ATOM      8  C   UNL     1      39.241 -10.059  11.642  1.00  0.00     0.000 C 
BRANCH   8   9
ATOM      9  C   UNL     1      39.042 -10.464  10.171  1.00  0.00     0.000 C 
BRANCH   9  10
ATOM     10  C   UNL     1      38.784  -9.291   9.203  1.00  0.00     0.006 C 
BRANCH  10  11
ATOM     11  C   UNL     1      40.034  -8.473   8.847  1.00  0.00     0.053 C 
BRANCH  11  12
ATOM     12  C   UNL     1      39.984  -7.094   9.431  1.00  0.00     0.041 C 
ATOM     13  O   UNL     1      40.202  -6.916  10.658  1.00  0.00    -0.550 OA
ATOM     14  O   UNL     1      39.719  -6.001   8.614  1.00  0.00    -0.550 OA
ENDBRANCH  11  12
ENDBRANCH  10  11
ENDBRANCH   9  10
ENDBRANCH   8   9
ENDBRANCH   7   8
ENDBRANCH   6   7
ENDBRANCH   5   6
ENDBRANCH   4   5
ENDBRANCH   3   4
ENDBRANCH   2   3
ENDBRANCH   1   2
BRANCH   1  15
ATOM     15  C   UNL     1      33.885  -9.013  14.671  1.00  0.00     0.000 C 
BRANCH  15  16
ATOM     16  C   UNL     1      32.398  -9.221  15.004  1.00  0.00     0.000 C 
BRANCH  16  17
ATOM     17  C   UNL     1      31.905  -8.308  16.142  1.00  0.00     0.000 C 
BRANCH  17  18
ATOM     18  C   UNL     1      31.367  -9.041  17.389  1.00  0.00    -0.000 C 
BRANCH  18  19
ATOM     19  C   UNL     1      32.213  -8.868  18.665  1.00  0.00    -0.000 C 
BRANCH  19  20
ATOM     20  C   UNL     1      33.732  -8.754  18.428  1.00  0.00    -0.000 C 
BRANCH  20  21
ATOM     21  C   UNL     1      34.548  -8.298  19.653  1.00  0.00    -0.000 C 
BRANCH  21  22
ATOM     22  C   UNL     1      34.390  -6.809  20.023  1.00  0.00    -0.000 C 
BRANCH  22  23
ATOM     23  C   UNL     1      34.809  -5.815  18.922  1.00  0.00    -0.000 C 
BRANCH  23  24
ATOM     24  C   UNL     1      34.499  -4.335  19.226  1.00  0.00    -0.000 C 
BRANCH  24  25
ATOM     25  C   UNL     1      35.125  -3.797  20.525  1.00  0.00    -0.003 C 
ATOM     26  C   UNL     1      36.653  -3.833  20.509  1.00  0.00     0.004 C 
ENDBRANCH  24  25
ENDBRANCH  23  24
ENDBRANCH  22  23
ENDBRANCH  21  22
ENDBRANCH  20  21
ENDBRANCH  19  20
ENDBRANCH  18  19
ENDBRANCH  17  18
ENDBRANCH  16  17
ENDBRANCH  15  16
ENDBRANCH   1  15
TORSDOF 22
ENDMDL
MODEL 7
REMARK VINA RESULT:    -4.001      3.792     10.133
REMARK INTER + INTRA:         -12.575
REMARK INTER:                 -10.898
REMARK INTRA:                  -1.678
REMARK UNBOUND:                -3.428
REMARK SMILES CCCCCCCCCCCCCCCCCCCCCCCC(=O)[O-]
REMARK SMILES IDX 13 1 14 2 15 3 16 4 17 5 18 6 19 7 20 8 21 9 22 10 23 11
REMARK SMILES IDX 24 12 25 13 26 14 12 15 11 16 10 17 9 18 8 19 7 20 6 21 5 22
REMARK SMILES IDX 4 23 3 24 2 25 1 26
REMARK H PARENT
REMARK Flexibility Score: inf
ROOT
ATOM      1  C   UNL     1      39.498  -6.578   8.872  1.00  0.00     0.000 C 
ENDROOT
BRANCH   1   2
ATOM      2  C   UNL     1      40.176  -7.009   7.559  1.00  0.00     0.000 C 
BRANCH   2   3
ATOM      3  C   UNL     1      41.180  -8.158   7.752  1.00  0.00     0.000 C 
BRANCH   3   4
ATOM      4  C   UNL     1      42.612  -7.784   7.326  1.00  0.00     0.000 C 
BRANCH   4   5
ATOM      5  C   UNL     1      43.168  -8.578   6.130  1.00  0.00     0.000 C 
BRANCH   5   6
ATOM      6  C   UNL     1      42.080  -8.989   5.124  1.00  0.00     0.000 C 
BRANCH   6   7
ATOM      7  C   UNL     1      42.310  -8.388   3.728  1.00  0.00     0.000 C 
BRANCH   7   8
ATOM      8  C   UNL     1      40.992  -8.083   2.994  1.00  0.00     0.000 C 
BRANCH   8   9
ATOM      9  C   UNL     1      41.032  -6.753   2.221  1.00  0.00     0.000 C 
BRANCH   9  10
ATOM     10  C   UNL     1      40.775  -5.496   3.076  1.00  0.00     0.006 C 
BRANCH  10  11
ATOM     11  C   UNL     1      40.683  -4.189   2.275  1.00  0.00     0.053 C 
BRANCH  11  12
ATOM     12  C   UNL     1      39.326  -3.564   2.377  1.00  0.00     0.041 C 
ATOM     13  O   UNL     1      39.154  -2.532   3.079  1.00  0.00    -0.550 OA
ATOM     14  O   UNL     1      38.255  -4.108   1.679  1.00  0.00    -0.550 OA
ENDBRANCH  11  12
ENDBRANCH  10  11
ENDBRANCH   9  10
ENDBRANCH   8   9
ENDBRANCH   7   8
ENDBRANCH   6   7
ENDBRANCH   5   6
ENDBRANCH   4   5
ENDBRANCH   3   4
ENDBRANCH   2   3
ENDBRANCH   1   2
BRANCH   1  15
ATOM     15  C   UNL     1      40.261  -6.936  10.161  1.00  0.00     0.000 C 
BRANCH  15  16
ATOM     16  C   UNL     1      39.415  -7.752  11.153  1.00  0.00     0.000 C 
BRANCH  16  17
ATOM     17  C   UNL     1      38.180  -8.398  10.498  1.00  0.00     0.000 C 
BRANCH  17  18
ATOM     18  C   UNL     1      36.819  -7.920  11.043  1.00  0.00    -0.000 C 
BRANCH  18  19
ATOM     19  C   UNL     1      36.894  -6.986  12.266  1.00  0.00    -0.000 C 
BRANCH  19  20
ATOM     20  C   UNL     1      36.805  -7.696  13.632  1.00  0.00    -0.000 C 
BRANCH  20  21
ATOM     21  C   UNL     1      36.167  -9.099  13.595  1.00  0.00    -0.000 C 
BRANCH  21  22
ATOM     22  C   UNL     1      34.787  -9.204  14.275  1.00  0.00    -0.000 C 
BRANCH  22  23
ATOM     23  C   UNL     1      34.178  -7.862  14.726  1.00  0.00    -0.000 C 
BRANCH  23  24
ATOM     24  C   UNL     1      33.141  -7.965  15.863  1.00  0.00    -0.000 C 
BRANCH  24  25
ATOM     25  C   UNL     1      31.674  -8.021  15.398  1.00  0.00    -0.003 C 
ATOM     26  C   UNL     1      31.241  -9.420  14.960  1.00  0.00     0.004 C 
ENDBRANCH  24  25
ENDBRANCH  23  24
ENDBRANCH  22  23
ENDBRANCH  21  22
ENDBRANCH  20  21
ENDBRANCH  19  20
ENDBRANCH  18  19
ENDBRANCH  17  18
ENDBRANCH  16  17
ENDBRANCH  15  16
ENDBRANCH   1  15
TORSDOF 22
ENDMDL
MODEL 8
REMARK VINA RESULT:    -3.998      3.464      9.448
REMARK INTER + INTRA:         -12.569
REMARK INTER:                  -9.939
REMARK INTRA:                  -2.630
REMARK UNBOUND:                -3.428
REMARK SMILES CCCCCCCCCCCCCCCCCCCCCCCC(=O)[O-]
REMARK SMILES IDX 13 1 14 2 15 3 16 4 17 5 18 6 19 7 20 8 21 9 22 10 23 11
REMARK SMILES IDX 24 12 25 13 26 14 12 15 11 16 10 17 9 18 8 19 7 20 6 21 5 22
REMARK SMILES IDX 4 23 3 24 2 25 1 26
REMARK H PARENT
REMARK Flexibility Score: inf
ROOT
ATOM      1  C   UNL     1      38.677  -6.754   8.987  1.00  0.00     0.000 C 
ENDROOT
BRANCH   1   2
ATOM      2  C   UNL     1      39.892  -7.437   8.332  1.00  0.00     0.000 C 
BRANCH   2   3
ATOM      3  C   UNL     1      40.605  -8.423   9.273  1.00  0.00     0.000 C 
BRANCH   3   4
ATOM      4  C   UNL     1      40.374  -9.897   8.888  1.00  0.00     0.000 C 
BRANCH   4   5
ATOM      5  C   UNL     1      41.533 -10.851   9.224  1.00  0.00     0.000 C 
BRANCH   5   6
ATOM      6  C   UNL     1      42.456 -11.121   8.023  1.00  0.00     0.000 C 
BRANCH   6   7
ATOM      7  C   UNL     1      43.945 -11.030   8.392  1.00  0.00     0.000 C 
BRANCH   7   8
ATOM      8  C   UNL     1      44.657  -9.864   7.683  1.00  0.00     0.000 C 
BRANCH   8   9
ATOM      9  C   UNL     1      44.012  -8.500   7.983  1.00  0.00     0.000 C 
BRANCH   9  10
ATOM     10  C   UNL     1      43.547  -7.713   6.740  1.00  0.00     0.006 C 
BRANCH  10  11
ATOM     11  C   UNL     1      42.922  -8.579   5.636  1.00  0.00     0.053 C 
BRANCH  11  12
ATOM     12  C   UNL     1      41.874  -7.834   4.867  1.00  0.00     0.041 C 
ATOM     13  O   UNL     1      41.433  -8.299   3.783  1.00  0.00    -0.550 OA
ATOM     14  O   UNL     1      41.369  -6.637   5.360  1.00  0.00    -0.550 OA
ENDBRANCH  11  12
ENDBRANCH  10  11
ENDBRANCH   9  10
ENDBRANCH   8   9
ENDBRANCH   7   8
ENDBRANCH   6   7
ENDBRANCH   5   6
ENDBRANCH   4   5
ENDBRANCH   3   4
ENDBRANCH   2   3
ENDBRANCH   1   2
BRANCH   1  15
ATOM     15  C   UNL     1      38.512  -7.004  10.497  1.00  0.00     0.000 C 
BRANCH  15  16
ATOM     16  C   UNL     1      37.210  -7.746  10.845  1.00  0.00     0.000 C 
BRANCH  16  17
ATOM     17  C   UNL     1      37.387  -9.275  10.897  1.00  0.00     0.000 C 
BRANCH  17  18
ATOM     18  C   UNL     1      38.287  -9.796  12.035  1.00  0.00    -0.000 C 
BRANCH  18  19
ATOM     19  C   UNL     1      37.537 -10.388  13.244  1.00  0.00    -0.000 C 
BRANCH  19  20
ATOM     20  C   UNL     1      36.062 -10.750  12.980  1.00  0.00    -0.000 C 
BRANCH  20  21
ATOM     21  C   UNL     1      35.056 -10.150  13.982  1.00  0.00    -0.000 C 
BRANCH  21  22
ATOM     22  C   UNL     1      34.920  -8.615  13.928  1.00  0.00    -0.000 C 
BRANCH  22  23
ATOM     23  C   UNL     1      33.744  -8.035  14.739  1.00  0.00    -0.000 C 
BRANCH  23  24
ATOM     24  C   UNL     1      32.826  -9.084  15.399  1.00  0.00    -0.000 C 
BRANCH  24  25
ATOM     25  C   UNL     1      31.466  -9.280  14.706  1.00  0.00    -0.003 C 
ATOM     26  C   UNL     1      30.478 -10.083  15.550  1.00  0.00     0.004 C 
ENDBRANCH  24  25
ENDBRANCH  23  24
ENDBRANCH  22  23
ENDBRANCH  21  22
ENDBRANCH  20  21
ENDBRANCH  19  20
ENDBRANCH  18  19
ENDBRANCH  17  18
ENDBRANCH  16  17
ENDBRANCH  15  16
ENDBRANCH   1  15
TORSDOF 22
ENDMDL
MODEL 9
REMARK VINA RESULT:    -3.977      2.408      4.463
REMARK INTER + INTRA:         -12.519
REMARK INTER:                  -9.904
REMARK INTRA:                  -2.615
REMARK UNBOUND:                -3.428
REMARK SMILES CCCCCCCCCCCCCCCCCCCCCCCC(=O)[O-]
REMARK SMILES IDX 13 1 14 2 15 3 16 4 17 5 18 6 19 7 20 8 21 9 22 10 23 11
REMARK SMILES IDX 24 12 25 13 26 14 12 15 11 16 10 17 9 18 8 19 7 20 6 21 5 22
REMARK SMILES IDX 4 23 3 24 2 25 1 26
REMARK H PARENT
REMARK Flexibility Score: inf
ROOT
ATOM      1  C   UNL     1      42.784  -7.855   7.637  1.00  0.00     0.000 C 
ENDROOT
BRANCH   1   2
ATOM      2  C   UNL     1      41.471  -8.653   7.542  1.00  0.00     0.000 C 
BRANCH   2   3
ATOM      3  C   UNL     1      41.260  -9.603   8.733  1.00  0.00     0.000 C 
BRANCH   3   4
ATOM      4  C   UNL     1      40.315 -10.775   8.408  1.00  0.00     0.000 C 
BRANCH   4   5
ATOM      5  C   UNL     1      39.289 -11.114   9.505  1.00  0.00     0.000 C 
BRANCH   5   6
ATOM      6  C   UNL     1      37.912 -10.478   9.256  1.00  0.00     0.000 C 
BRANCH   6   7
ATOM      7  C   UNL     1      37.076 -10.359  10.540  1.00  0.00     0.000 C 
BRANCH   7   8
ATOM      8  C   UNL     1      37.944 -10.102  11.786  1.00  0.00     0.000 C 
BRANCH   8   9
ATOM      9  C   UNL     1      37.603  -8.776  12.489  1.00  0.00     0.000 C 
BRANCH   9  10
ATOM     10  C   UNL     1      37.909  -7.508  11.668  1.00  0.00     0.006 C 
BRANCH  10  11
ATOM     11  C   UNL     1      39.319  -7.469  11.058  1.00  0.00     0.053 C 
BRANCH  11  12
ATOM     12  C   UNL     1      39.366  -6.641   9.810  1.00  0.00     0.041 C 
ATOM     13  O   UNL     1      40.386  -5.952   9.545  1.00  0.00    -0.550 OA
ATOM     14  O   UNL     1      38.292  -6.648   8.930  1.00  0.00    -0.550 OA
ENDBRANCH  11  12
ENDBRANCH  10  11
ENDBRANCH   9  10
ENDBRANCH   8   9
ENDBRANCH   7   8
ENDBRANCH   6   7
ENDBRANCH   5   6
ENDBRANCH   4   5
ENDBRANCH   3   4
ENDBRANCH   2   3
ENDBRANCH   1   2
BRANCH   1  15
ATOM     15  C   UNL     1      43.656  -7.861   6.367  1.00  0.00     0.000 C 
BRANCH  15  16
ATOM     16  C   UNL     1      43.745  -9.247   5.707  1.00  0.00     0.000 C 
BRANCH  16  17
ATOM     17  C   UNL     1      43.206  -9.260   4.264  1.00  0.00     0.000 C 
BRANCH  17  18
ATOM     18  C   UNL     1      41.772  -9.805   4.101  1.00  0.00    -0.000 C 
BRANCH  18  19
ATOM     19  C   UNL     1      40.965  -9.187   2.943  1.00  0.00    -0.000 C 
BRANCH  19  20
ATOM     20  C   UNL     1      41.088  -7.656   2.809  1.00  0.00    -0.000 C 
BRANCH  20  21
ATOM     21  C   UNL     1      40.732  -6.862   4.081  1.00  0.00    -0.000 C 
BRANCH  21  22
ATOM     22  C   UNL     1      40.685  -5.332   3.901  1.00  0.00    -0.000 C 
BRANCH  22  23
ATOM     23  C   UNL     1      41.381  -4.802   2.631  1.00  0.00    -0.000 C 
BRANCH  23  24
ATOM     24  C   UNL     1      40.504  -3.909   1.730  1.00  0.00    -0.000 C 
BRANCH  24  25
ATOM     25  C   UNL     1      39.099  -3.613   2.285  1.00  0.00    -0.003 C 
ATOM     26  C   UNL     1      38.826  -2.118   2.445  1.00  0.00     0.004 C 
ENDBRANCH  24  25
ENDBRANCH  23  24
ENDBRANCH  22  23
ENDBRANCH  21  22
ENDBRANCH  20  21
ENDBRANCH  19  20
ENDBRANCH  18  19
ENDBRANCH  17  18
ENDBRANCH  16  17
ENDBRANCH  15  16
ENDBRANCH   1  15
TORSDOF 22
ENDMDL
