MODEL 1
REMARK VINA RESULT:    -3.126      0.000      0.000
REMARK INTER + INTRA:          -4.290
REMARK INTER:                  -4.040
REMARK INTRA:                  -0.250
REMARK UNBOUND:                -0.250
REMARK SMILES CCCCCCC(=O)[O-]
REMARK SMILES IDX 5 1 6 2 7 3 8 4 9 5 4 6 3 7 2 8 1 9
REMARK H PARENT
REMARK Flexibility Score: inf
ROOT
ATOM      1  C   UNL     1      -1.330   0.663   8.011  1.00  0.00     0.006 C 
ENDROOT
BRANCH   1   2
ATOM      2  C   UNL     1      -2.194  -0.198   8.943  1.00  0.00     0.053 C 
BRANCH   2   3
ATOM      3  C   UNL     1      -3.643   0.126   8.757  1.00  0.00     0.041 C 
ATOM      4  O   UNL     1      -4.417  -0.712   8.223  1.00  0.00    -0.550 OA
ATOM      5  O   UNL     1      -4.130   1.373   9.129  1.00  0.00    -0.550 OA
ENDBRANCH   2   3
ENDBRANCH   1   2
BRANCH   1   6
ATOM      6  C   UNL     1       0.018   0.005   7.679  1.00  0.00     0.000 C 
BRANCH   6   7
ATOM      7  C   UNL     1       0.084  -1.464   8.121  1.00  0.00    -0.000 C 
BRANCH   7   8
ATOM      8  C   UNL     1       1.384  -1.751   8.880  1.00  0.00    -0.003 C 
ATOM      9  C   UNL     1       2.139  -0.462   9.190  1.00  0.00     0.004 C 
ENDBRANCH   7   8
ENDBRANCH   6   7
ENDBRANCH   1   6
TORSDOF 5
ENDMDL
MODEL 2
REMARK VINA RESULT:    -3.093      1.041      1.543
REMARK INTER + INTRA:          -4.247
REMARK INTER:                  -3.871
REMARK INTRA:                  -0.376
REMARK UNBOUND:                -0.250
REMARK SMILES CCCCCCC(=O)[O-]
REMARK SMILES IDX 5 1 6 2 7 3 8 4 9 5 4 6 3 7 2 8 1 9
REMARK H PARENT
REMARK Flexibility Score: inf
ROOT
ATOM      1  C   UNL     1      -1.247   0.755   8.062  1.00  0.00     0.006 C 
ENDROOT
BRANCH   1   2
ATOM      2  C   UNL     1      -1.981   0.276   9.322  1.00  0.00     0.053 C 
BRANCH   2   3
ATOM      3  C   UNL     1      -3.085  -0.666   8.955  1.00  0.00     0.041 C 
ATOM      4  O   UNL     1      -3.022  -1.878   9.290  1.00  0.00    -0.550 OA
ATOM      5  O   UNL     1      -4.161  -0.216   8.200  1.00  0.00    -0.550 OA
ENDBRANCH   2   3
ENDBRANCH   1   2
BRANCH   1   6
ATOM      6  C   UNL     1      -0.133  -0.209   7.624  1.00  0.00     0.000 C 
BRANCH   6   7
ATOM      7  C   UNL     1       0.938  -0.406   8.706  1.00  0.00    -0.000 C 
BRANCH   7   8
ATOM      8  C   UNL     1       1.332  -1.883   8.825  1.00  0.00    -0.003 C 
ATOM      9  C   UNL     1       0.257  -2.791   8.235  1.00  0.00     0.004 C 
ENDBRANCH   7   8
ENDBRANCH   6   7
ENDBRANCH   1   6
TORSDOF 5
ENDMDL
MODEL 3
REMARK VINA RESULT:    -3.041      3.173      4.822
REMARK INTER + INTRA:          -4.179
REMARK INTER:                  -3.964
REMARK INTRA:                  -0.215
REMARK UNBOUND:                -0.250
REMARK SMILES CCCCCCC(=O)[O-]
REMARK SMILES IDX 5 1 6 2 7 3 8 4 9 5 4 6 3 7 2 8 1 9
REMARK H PARENT
REMARK Flexibility Score: inf
ROOT
ATOM      1  C   UNL     1      -0.091   0.030   7.631  1.00  0.00     0.006 C 
ENDROOT
BRANCH   1   2
ATOM      2  C   UNL     1       0.027  -1.379   8.229  1.00  0.00     0.053 C 
BRANCH   2   3
ATOM      3  C   UNL     1       1.406  -1.605   8.763  1.00  0.00     0.041 C 
ATOM      4  O   UNL     1       1.821  -2.775   8.973  1.00  0.00    -0.550 OA
ATOM      5  O   UNL     1       2.218  -0.521   9.074  1.00  0.00    -0.550 OA
ENDBRANCH   2   3
ENDBRANCH   1   2
BRANCH   1   6
ATOM      6  C   UNL     1      -1.410   0.723   8.004  1.00  0.00     0.000 C 
BRANCH   6   7
ATOM      7  C   UNL     1      -2.256  -0.104   8.984  1.00  0.00    -0.000 C 
BRANCH   7   8
ATOM      8  C   UNL     1      -3.747   0.000   8.645  1.00  0.00    -0.003 C 
ATOM      9  C   UNL     1      -4.415  -1.371   8.666  1.00  0.00     0.004 C 
ENDBRANCH   7   8
ENDBRANCH   6   7
ENDBRANCH   1   6
TORSDOF 5
ENDMDL
MODEL 4
REMARK VINA RESULT:    -2.991      2.462      3.398
REMARK INTER + INTRA:          -4.116
REMARK INTER:                  -3.977
REMARK INTRA:                  -0.139
REMARK UNBOUND:                -0.250
REMARK SMILES CCCCCCC(=O)[O-]
REMARK SMILES IDX 5 1 6 2 7 3 8 4 9 5 4 6 3 7 2 8 1 9
REMARK H PARENT
REMARK Flexibility Score: inf
ROOT
ATOM      1  C   UNL     1       0.971  -0.731   8.763  1.00  0.00     0.006 C 
ENDROOT
BRANCH   1   2
ATOM      2  C   UNL     1      -0.091  -0.358   7.719  1.00  0.00     0.053 C 
BRANCH   2   3
ATOM      3  C   UNL     1      -0.718   0.957   8.061  1.00  0.00     0.041 C 
ATOM      4  O   UNL     1      -1.906   1.005   8.474  1.00  0.00    -0.550 OA
ATOM      5  O   UNL     1      -0.006   2.136   7.877  1.00  0.00    -0.550 OA
ENDBRANCH   2   3
ENDBRANCH   1   2
BRANCH   1   6
ATOM      6  C   UNL     1       1.308  -2.230   8.753  1.00  0.00     0.000 C 
BRANCH   6   7
ATOM      7  C   UNL     1       0.188  -3.085   8.143  1.00  0.00    -0.000 C 
BRANCH   7   8
ATOM      8  C   UNL     1       0.561  -4.572   8.160  1.00  0.00    -0.003 C 
ATOM      9  C   UNL     1       0.156  -5.258   6.859  1.00  0.00     0.004 C 
ENDBRANCH   7   8
ENDBRANCH   6   7
ENDBRANCH   1   6
TORSDOF 5
ENDMDL
MODEL 5
REMARK VINA RESULT:    -2.953      3.210      3.711
REMARK INTER + INTRA:          -4.065
REMARK INTER:                  -3.852
REMARK INTRA:                  -0.213
REMARK UNBOUND:                -0.250
REMARK SMILES CCCCCCC(=O)[O-]
REMARK SMILES IDX 5 1 6 2 7 3 8 4 9 5 4 6 3 7 2 8 1 9
REMARK H PARENT
REMARK Flexibility Score: inf
ROOT
ATOM      1  C   UNL     1      -0.264   0.189   7.625  1.00  0.00     0.006 C 
ENDROOT
BRANCH   1   2
ATOM      2  C   UNL     1      -0.434   1.538   8.337  1.00  0.00     0.053 C 
BRANCH   2   3
ATOM      3  C   UNL     1       0.752   2.415   8.080  1.00  0.00     0.041 C 
ATOM      4  O   UNL     1       0.617   3.494   7.445  1.00  0.00    -0.550 OA
ATOM      5  O   UNL     1       2.015   2.017   8.501  1.00  0.00    -0.550 OA
ENDBRANCH   2   3
ENDBRANCH   1   2
BRANCH   1   6
ATOM      6  C   UNL     1      -0.448  -1.006   8.574  1.00  0.00     0.000 C 
BRANCH   6   7
ATOM      7  C   UNL     1       0.690  -2.031   8.462  1.00  0.00    -0.000 C 
BRANCH   7   8
ATOM      8  C   UNL     1       1.975  -1.495   9.103  1.00  0.00    -0.003 C 
ATOM      9  C   UNL     1       2.864  -2.633   9.596  1.00  0.00     0.004 C 
ENDBRANCH   7   8
ENDBRANCH   6   7
ENDBRANCH   1   6
TORSDOF 5
ENDMDL
MODEL 6
REMARK VINA RESULT:    -2.951      3.737      4.406
REMARK INTER + INTRA:          -4.064
REMARK INTER:                  -3.789
REMARK INTRA:                  -0.275
REMARK UNBOUND:                -0.250
REMARK SMILES CCCCCCC(=O)[O-]
REMARK SMILES IDX 5 1 6 2 7 3 8 4 9 5 4 6 3 7 2 8 1 9
REMARK H PARENT
REMARK Flexibility Score: inf
ROOT
ATOM      1  C   UNL     1      -0.003   1.660   8.821  1.00  0.00     0.006 C 
ENDROOT
BRANCH   1   2
ATOM      2  C   UNL     1       0.228   3.043   8.195  1.00  0.00     0.053 C 
BRANCH   2   3
ATOM      3  C   UNL     1       1.629   3.154   7.681  1.00  0.00     0.041 C 
ATOM      4  O   UNL     1       1.871   3.816   6.638  1.00  0.00    -0.550 OA
ATOM      5  O   UNL     1       2.662   2.486   8.327  1.00  0.00    -0.550 OA
ENDBRANCH   2   3
ENDBRANCH   1   2
BRANCH   1   6
ATOM      6  C   UNL     1      -0.662   0.673   7.844  1.00  0.00     0.000 C 
BRANCH   6   7
ATOM      7  C   UNL     1       0.016  -0.705   7.848  1.00  0.00    -0.000 C 
BRANCH   7   8
ATOM      8  C   UNL     1       1.236  -0.712   8.776  1.00  0.00    -0.003 C 
ATOM      9  C   UNL     1       1.782  -2.125   8.959  1.00  0.00     0.004 C 
ENDBRANCH   7   8
ENDBRANCH   6   7
ENDBRANCH   1   6
TORSDOF 5
ENDMDL
MODEL 7
REMARK VINA RESULT:    -2.896      1.598      2.774
REMARK INTER + INTRA:          -3.992
REMARK INTER:                  -3.641
REMARK INTRA:                  -0.351
REMARK UNBOUND:                -0.250
REMARK SMILES CCCCCCC(=O)[O-]
REMARK SMILES IDX 5 1 6 2 7 3 8 4 9 5 4 6 3 7 2 8 1 9
REMARK H PARENT
REMARK Flexibility Score: inf
ROOT
ATOM      1  C   UNL     1       0.059  -1.424   8.387  1.00  0.00     0.006 C 
ENDROOT
BRANCH   1   2
ATOM      2  C   UNL     1      -0.121  -0.127   7.587  1.00  0.00     0.053 C 
BRANCH   2   3
ATOM      3  C   UNL     1      -1.098   0.777   8.272  1.00  0.00     0.041 C 
ATOM      4  O   UNL     1      -0.688   1.750   8.958  1.00  0.00    -0.550 OA
ATOM      5  O   UNL     1      -2.460   0.515   8.193  1.00  0.00    -0.550 OA
ENDBRANCH   2   3
ENDBRANCH   1   2
BRANCH   1   6
ATOM      6  C   UNL     1       1.523  -1.680   8.778  1.00  0.00     0.000 C 
BRANCH   6   7
ATOM      7  C   UNL     1       1.996  -0.775   9.924  1.00  0.00    -0.000 C 
BRANCH   7   8
ATOM      8  C   UNL     1       3.291  -0.046   9.549  1.00  0.00    -0.003 C 
ATOM      9  C   UNL     1       2.998   1.325   8.946  1.00  0.00     0.004 C 
ENDBRANCH   7   8
ENDBRANCH   6   7
ENDBRANCH   1   6
TORSDOF 5
ENDMDL
MODEL 8
REMARK VINA RESULT:    -2.895     12.528     13.450
REMARK INTER + INTRA:          -3.991
REMARK INTER:                  -3.804
REMARK INTRA:                  -0.187
REMARK UNBOUND:                -0.250
REMARK SMILES CCCCCCC(=O)[O-]
REMARK SMILES IDX 5 1 6 2 7 3 8 4 9 5 4 6 3 7 2 8 1 9
REMARK H PARENT
REMARK Flexibility Score: inf
ROOT
ATOM      1  C   UNL     1       3.018  -1.279  -3.621  1.00  0.00     0.006 C 
ENDROOT
BRANCH   1   2
ATOM      2  C   UNL     1       4.281  -0.836  -2.869  1.00  0.00     0.053 C 
BRANCH   2   3
ATOM      3  C   UNL     1       5.414  -0.635  -3.826  1.00  0.00     0.041 C 
ATOM      4  O   UNL     1       6.017  -1.627  -4.312  1.00  0.00    -0.550 OA
ATOM      5  O   UNL     1       5.836   0.651  -4.143  1.00  0.00    -0.550 OA
ENDBRANCH   2   3
ENDBRANCH   1   2
BRANCH   1   6
ATOM      6  C   UNL     1       1.736  -1.068  -2.800  1.00  0.00     0.000 C 
BRANCH   6   7
ATOM      7  C   UNL     1       0.725  -2.209  -2.979  1.00  0.00    -0.000 C 
BRANCH   7   8
ATOM      8  C   UNL     1       0.858  -3.242  -1.854  1.00  0.00    -0.003 C 
ATOM      9  C   UNL     1       1.637  -4.469  -2.320  1.00  0.00     0.004 C 
ENDBRANCH   7   8
ENDBRANCH   6   7
ENDBRANCH   1   6
TORSDOF 5
ENDMDL
MODEL 9
REMARK VINA RESULT:    -2.861      1.625      2.708
REMARK INTER + INTRA:          -3.947
REMARK INTER:                  -3.772
REMARK INTRA:                  -0.175
REMARK UNBOUND:                -0.250
REMARK SMILES CCCCCCC(=O)[O-]
REMARK SMILES IDX 5 1 6 2 7 3 8 4 9 5 4 6 3 7 2 8 1 9
REMARK H PARENT
REMARK Flexibility Score: inf
ROOT
ATOM      1  C   UNL     1       0.438  -0.928   8.318  1.00  0.00     0.006 C 
ENDROOT
BRANCH   1   2
ATOM      2  C   UNL     1      -0.301   0.228   7.629  1.00  0.00     0.053 C 
BRANCH   2   3
ATOM      3  C   UNL     1      -1.497   0.635   8.431  1.00  0.00     0.041 C 
ATOM      4  O   UNL     1      -1.576   1.798   8.906  1.00  0.00    -0.550 OA
ATOM      5  O   UNL     1      -2.502  -0.287   8.696  1.00  0.00    -0.550 OA
ENDBRANCH   2   3
ENDBRANCH   1   2
BRANCH   1   6
ATOM      6  C   UNL     1       1.731  -0.472   9.013  1.00  0.00     0.000 C 
BRANCH   6   7
ATOM      7  C   UNL     1       2.616  -1.650   9.446  1.00  0.00    -0.000 C 
BRANCH   7   8
ATOM      8  C   UNL     1       1.942  -2.989   9.125  1.00  0.00    -0.003 C 
ATOM      9  C   UNL     1       2.838  -4.164   9.509  1.00  0.00     0.004 C 
ENDBRANCH   7   8
ENDBRANCH   6   7
ENDBRANCH   1   6
TORSDOF 5
ENDMDL
