MODEL 1
REMARK VINA RESULT:    -4.666      0.000      0.000
REMARK INTER + INTRA:         -13.838
REMARK INTER:                 -10.122
REMARK INTRA:                  -3.716
REMARK UNBOUND:                -3.716
REMARK SMILES CCCCCCCCCCCCCCCCCCCCCC(=O)[O-]
REMARK SMILES IDX 12 1 11 2 10 3 9 4 8 5 7 6 6 7 5 8 4 9 3 10 2 11 1 12 13 13
REMARK SMILES IDX 14 14 15 15 16 16 17 17 18 18 19 19 20 20 21 21 22 22 23 23
REMARK SMILES IDX 24 24
REMARK H PARENT
REMARK Flexibility Score: inf
ROOT
ATOM      1  C   UNL     1      28.905  13.805 -10.083  1.00  0.00     0.000 C 
ENDROOT
BRANCH   1   2
ATOM      2  C   UNL     1      28.754  13.009 -11.397  1.00  0.00     0.000 C 
BRANCH   2   3
ATOM      3  C   UNL     1      27.284  12.687 -11.720  1.00  0.00     0.000 C 
BRANCH   3   4
ATOM      4  C   UNL     1      26.841  13.245 -13.082  1.00  0.00    -0.000 C 
BRANCH   4   5
ATOM      5  C   UNL     1      25.396  13.769 -13.065  1.00  0.00    -0.000 C 
BRANCH   5   6
ATOM      6  C   UNL     1      25.364  15.279 -12.795  1.00  0.00    -0.000 C 
BRANCH   6   7
ATOM      7  C   UNL     1      25.998  16.063 -13.954  1.00  0.00    -0.000 C 
BRANCH   7   8
ATOM      8  C   UNL     1      26.589  17.410 -13.490  1.00  0.00    -0.000 C 
BRANCH   8   9
ATOM      9  C   UNL     1      26.551  17.604 -11.965  1.00  0.00    -0.000 C 
BRANCH   9  10
ATOM     10  C   UNL     1      25.645  18.765 -11.532  1.00  0.00    -0.000 C 
BRANCH  10  11
ATOM     11  C   UNL     1      24.340  18.244 -10.919  1.00  0.00    -0.003 C 
ATOM     12  C   UNL     1      23.196  18.302 -11.928  1.00  0.00     0.004 C 
ENDBRANCH  10  11
ENDBRANCH   9  10
ENDBRANCH   8   9
ENDBRANCH   7   8
ENDBRANCH   6   7
ENDBRANCH   5   6
ENDBRANCH   4   5
ENDBRANCH   3   4
ENDBRANCH   2   3
ENDBRANCH   1   2
BRANCH   1  13
ATOM     13  C   UNL     1      28.079  15.107 -10.044  1.00  0.00     0.000 C 
BRANCH  13  14
ATOM     14  C   UNL     1      27.110  15.229  -8.855  1.00  0.00     0.000 C 
BRANCH  14  15
ATOM     15  C   UNL     1      25.617  15.165  -9.232  1.00  0.00     0.000 C 
BRANCH  15  16
ATOM     16  C   UNL     1      25.006  13.750  -9.112  1.00  0.00     0.000 C 
BRANCH  16  17
ATOM     17  C   UNL     1      23.471  13.747  -9.001  1.00  0.00     0.000 C 
BRANCH  17  18
ATOM     18  C   UNL     1      22.786  13.907 -10.370  1.00  0.00     0.000 C 
BRANCH  18  19
ATOM     19  C   UNL     1      21.909  15.168 -10.444  1.00  0.00     0.000 C 
BRANCH  19  20
ATOM     20  C   UNL     1      21.851  15.924  -9.107  1.00  0.00     0.006 C 
BRANCH  20  21
ATOM     21  C   UNL     1      20.918  17.142  -9.170  1.00  0.00     0.053 C 
BRANCH  21  22
ATOM     22  C   UNL     1      19.947  17.164  -8.029  1.00  0.00     0.041 C 
ATOM     23  O   UNL     1      18.721  16.966  -8.238  1.00  0.00    -0.550 OA
ATOM     24  O   UNL     1      20.393  17.424  -6.740  1.00  0.00    -0.550 OA
ENDBRANCH  21  22
ENDBRANCH  20  21
ENDBRANCH  19  20
ENDBRANCH  18  19
ENDBRANCH  17  18
ENDBRANCH  16  17
ENDBRANCH  15  16
ENDBRANCH  14  15
ENDBRANCH  13  14
ENDBRANCH   1  13
TORSDOF 20
ENDMDL
MODEL 2
REMARK VINA RESULT:    -4.638      3.175      5.597
REMARK INTER + INTRA:         -13.776
REMARK INTER:                 -10.062
REMARK INTRA:                  -3.714
REMARK UNBOUND:                -3.716
REMARK SMILES CCCCCCCCCCCCCCCCCCCCCC(=O)[O-]
REMARK SMILES IDX 12 1 11 2 10 3 9 4 8 5 7 6 6 7 5 8 4 9 3 10 2 11 1 12 13 13
REMARK SMILES IDX 14 14 15 15 16 16 17 17 18 18 19 19 20 20 21 21 22 22 23 23
REMARK SMILES IDX 24 24
REMARK H PARENT
REMARK Flexibility Score: inf
ROOT
ATOM      1  C   UNL     1      27.476  12.698 -11.908  1.00  0.00     0.000 C 
ENDROOT
BRANCH   1   2
ATOM      2  C   UNL     1      28.895  13.009 -11.386  1.00  0.00     0.000 C 
BRANCH   2   3
ATOM      3  C   UNL     1      28.901  14.146 -10.348  1.00  0.00     0.000 C 
BRANCH   3   4
ATOM      4  C   UNL     1      27.647  15.031 -10.431  1.00  0.00    -0.000 C 
BRANCH   4   5
ATOM      5  C   UNL     1      26.928  15.168  -9.080  1.00  0.00    -0.000 C 
BRANCH   5   6
ATOM      6  C   UNL     1      26.273  13.843  -8.669  1.00  0.00    -0.000 C 
BRANCH   6   7
ATOM      7  C   UNL     1      25.017  13.563  -9.508  1.00  0.00    -0.000 C 
BRANCH   7   8
ATOM      8  C   UNL     1      23.719  13.787  -8.704  1.00  0.00    -0.000 C 
BRANCH   8   9
ATOM      9  C   UNL     1      22.726  14.737  -9.394  1.00  0.00    -0.000 C 
BRANCH   9  10
ATOM     10  C   UNL     1      22.242  15.866  -8.472  1.00  0.00    -0.000 C 
BRANCH  10  11
ATOM     11  C   UNL     1      21.465  16.924  -9.262  1.00  0.00    -0.003 C 
ATOM     12  C   UNL     1      20.613  16.281 -10.355  1.00  0.00     0.004 C 
ENDBRANCH  10  11
ENDBRANCH   9  10
ENDBRANCH   8   9
ENDBRANCH   7   8
ENDBRANCH   6   7
ENDBRANCH   5   6
ENDBRANCH   4   5
ENDBRANCH   3   4
ENDBRANCH   2   3
ENDBRANCH   1   2
BRANCH   1  13
ATOM     13  C   UNL     1      27.298  12.951 -13.419  1.00  0.00     0.000 C 
BRANCH  13  14
ATOM     14  C   UNL     1      25.856  13.252 -13.864  1.00  0.00     0.000 C 
BRANCH  14  15
ATOM     15  C   UNL     1      25.477  14.746 -13.850  1.00  0.00     0.000 C 
BRANCH  15  16
ATOM     16  C   UNL     1      24.656  15.166 -12.610  1.00  0.00     0.000 C 
BRANCH  16  17
ATOM     17  C   UNL     1      23.552  16.194 -12.918  1.00  0.00     0.000 C 
BRANCH  17  18
ATOM     18  C   UNL     1      23.705  17.481 -12.088  1.00  0.00     0.000 C 
BRANCH  18  19
ATOM     19  C   UNL     1      25.009  17.503 -11.273  1.00  0.00     0.000 C 
BRANCH  19  20
ATOM     20  C   UNL     1      26.031  18.512 -11.822  1.00  0.00     0.006 C 
BRANCH  20  21
ATOM     21  C   UNL     1      27.170  17.823 -12.587  1.00  0.00     0.053 C 
BRANCH  21  22
ATOM     22  C   UNL     1      27.118  18.118 -14.055  1.00  0.00     0.041 C 
ATOM     23  O   UNL     1      26.012  18.139 -14.658  1.00  0.00    -0.550 OA
ATOM     24  O   UNL     1      28.291  18.348 -14.762  1.00  0.00    -0.550 OA
ENDBRANCH  21  22
ENDBRANCH  20  21
ENDBRANCH  19  20
ENDBRANCH  18  19
ENDBRANCH  17  18
ENDBRANCH  16  17
ENDBRANCH  15  16
ENDBRANCH  14  15
ENDBRANCH  13  14
ENDBRANCH   1  13
TORSDOF 20
ENDMDL
MODEL 3
REMARK VINA RESULT:    -4.620      1.311      2.203
REMARK INTER + INTRA:         -13.738
REMARK INTER:                 -10.679
REMARK INTRA:                  -3.059
REMARK UNBOUND:                -3.716
REMARK SMILES CCCCCCCCCCCCCCCCCCCCCC(=O)[O-]
REMARK SMILES IDX 12 1 11 2 10 3 9 4 8 5 7 6 6 7 5 8 4 9 3 10 2 11 1 12 13 13
REMARK SMILES IDX 14 14 15 15 16 16 17 17 18 18 19 19 20 20 21 21 22 22 23 23
REMARK SMILES IDX 24 24
REMARK H PARENT
REMARK Flexibility Score: inf
ROOT
ATOM      1  C   UNL     1      27.804  15.186 -10.413  1.00  0.00     0.000 C 
ENDROOT
BRANCH   1   2
ATOM      2  C   UNL     1      29.054  14.284 -10.329  1.00  0.00     0.000 C 
BRANCH   2   3
ATOM      3  C   UNL     1      28.978  13.087 -11.293  1.00  0.00     0.000 C 
BRANCH   3   4
ATOM      4  C   UNL     1      27.532  12.700 -11.645  1.00  0.00    -0.000 C 
BRANCH   4   5
ATOM      5  C   UNL     1      27.183  12.988 -13.114  1.00  0.00    -0.000 C 
BRANCH   5   6
ATOM      6  C   UNL     1      25.861  13.757 -13.223  1.00  0.00    -0.000 C 
BRANCH   6   7
ATOM      7  C   UNL     1      26.041  15.060 -14.016  1.00  0.00    -0.000 C 
BRANCH   7   8
ATOM      8  C   UNL     1      25.333  16.254 -13.343  1.00  0.00    -0.000 C 
BRANCH   8   9
ATOM      9  C   UNL     1      26.121  17.570 -13.441  1.00  0.00    -0.000 C 
BRANCH   9  10
ATOM     10  C   UNL     1      26.532  18.124 -12.069  1.00  0.00    -0.000 C 
BRANCH  10  11
ATOM     11  C   UNL     1      25.341  18.785 -11.366  1.00  0.00    -0.003 C 
ATOM     12  C   UNL     1      24.416  19.466 -12.372  1.00  0.00     0.004 C 
ENDBRANCH  10  11
ENDBRANCH   9  10
ENDBRANCH   8   9
ENDBRANCH   7   8
ENDBRANCH   6   7
ENDBRANCH   5   6
ENDBRANCH   4   5
ENDBRANCH   3   4
ENDBRANCH   2   3
ENDBRANCH   1   2
BRANCH   1  13
ATOM     13  C   UNL     1      26.979  15.232  -9.112  1.00  0.00     0.000 C 
BRANCH  13  14
ATOM     14  C   UNL     1      25.513  14.784  -9.253  1.00  0.00     0.000 C 
BRANCH  14  15
ATOM     15  C   UNL     1      24.541  15.893  -9.702  1.00  0.00     0.000 C 
BRANCH  15  16
ATOM     16  C   UNL     1      23.303  15.363 -10.460  1.00  0.00     0.000 C 
BRANCH  16  17
ATOM     17  C   UNL     1      22.439  16.473 -11.085  1.00  0.00     0.000 C 
BRANCH  17  18
ATOM     18  C   UNL     1      21.896  17.454 -10.031  1.00  0.00     0.000 C 
BRANCH  18  19
ATOM     19  C   UNL     1      20.713  16.871  -9.239  1.00  0.00     0.000 C 
BRANCH  19  20
ATOM     20  C   UNL     1      21.017  16.738  -7.738  1.00  0.00     0.006 C 
BRANCH  20  21
ATOM     21  C   UNL     1      21.889  17.891  -7.220  1.00  0.00     0.053 C 
BRANCH  21  22
ATOM     22  C   UNL     1      21.101  18.860  -6.391  1.00  0.00     0.041 C 
ATOM     23  O   UNL     1      20.910  18.637  -5.167  1.00  0.00    -0.550 OA
ATOM     24  O   UNL     1      20.562  19.999  -6.976  1.00  0.00    -0.550 OA
ENDBRANCH  21  22
ENDBRANCH  20  21
ENDBRANCH  19  20
ENDBRANCH  18  19
ENDBRANCH  17  18
ENDBRANCH  16  17
ENDBRANCH  15  16
ENDBRANCH  14  15
ENDBRANCH  13  14
ENDBRANCH   1  13
TORSDOF 20
ENDMDL
MODEL 4
REMARK VINA RESULT:    -4.591      2.970      5.343
REMARK INTER + INTRA:         -13.674
REMARK INTER:                 -10.245
REMARK INTRA:                  -3.429
REMARK UNBOUND:                -3.716
REMARK SMILES CCCCCCCCCCCCCCCCCCCCCC(=O)[O-]
REMARK SMILES IDX 12 1 11 2 10 3 9 4 8 5 7 6 6 7 5 8 4 9 3 10 2 11 1 12 13 13
REMARK SMILES IDX 14 14 15 15 16 16 17 17 18 18 19 19 20 20 21 21 22 22 23 23
REMARK SMILES IDX 24 24
REMARK H PARENT
REMARK Flexibility Score: inf
ROOT
ATOM      1  C   UNL     1      25.274  14.050 -13.094  1.00  0.00     0.000 C 
ENDROOT
BRANCH   1   2
ATOM      2  C   UNL     1      26.136  13.181 -14.034  1.00  0.00     0.000 C 
BRANCH   2   3
ATOM      3  C   UNL     1      27.448  12.725 -13.370  1.00  0.00     0.000 C 
BRANCH   3   4
ATOM      4  C   UNL     1      27.480  13.014 -11.861  1.00  0.00    -0.000 C 
BRANCH   4   5
ATOM      5  C   UNL     1      28.908  13.041 -11.294  1.00  0.00    -0.000 C 
BRANCH   5   6
ATOM      6  C   UNL     1      29.080  14.190 -10.292  1.00  0.00    -0.000 C 
BRANCH   6   7
ATOM      7  C   UNL     1      27.871  15.137 -10.324  1.00  0.00    -0.000 C 
BRANCH   7   8
ATOM      8  C   UNL     1      26.982  14.989  -9.072  1.00  0.00    -0.000 C 
BRANCH   8   9
ATOM      9  C   UNL     1      25.619  15.688  -9.200  1.00  0.00    -0.000 C 
BRANCH   9  10
ATOM     10  C   UNL     1      24.485  14.721  -9.571  1.00  0.00    -0.000 C 
BRANCH  10  11
ATOM     11  C   UNL     1      24.882  13.270  -9.275  1.00  0.00    -0.003 C 
ATOM     12  C   UNL     1      24.106  12.719  -8.081  1.00  0.00     0.004 C 
ENDBRANCH  10  11
ENDBRANCH   9  10
ENDBRANCH   8   9
ENDBRANCH   7   8
ENDBRANCH   6   7
ENDBRANCH   5   6
ENDBRANCH   4   5
ENDBRANCH   3   4
ENDBRANCH   2   3
ENDBRANCH   1   2
BRANCH   1  13
ATOM     13  C   UNL     1      24.880  15.415 -13.693  1.00  0.00     0.000 C 
BRANCH  13  14
ATOM     14  C   UNL     1      25.955  16.075 -14.574  1.00  0.00     0.000 C 
BRANCH  14  15
ATOM     15  C   UNL     1      26.155  17.582 -14.326  1.00  0.00     0.000 C 
BRANCH  15  16
ATOM     16  C   UNL     1      27.132  17.897 -13.170  1.00  0.00     0.000 C 
BRANCH  16  17
ATOM     17  C   UNL     1      26.443  18.049 -11.802  1.00  0.00     0.000 C 
BRANCH  17  18
ATOM     18  C   UNL     1      25.212  18.971 -11.867  1.00  0.00     0.000 C 
BRANCH  18  19
ATOM     19  C   UNL     1      23.921  18.258 -11.432  1.00  0.00     0.000 C 
BRANCH  19  20
ATOM     20  C   UNL     1      22.675  18.809 -12.145  1.00  0.00     0.006 C 
BRANCH  20  21
ATOM     21  C   UNL     1      22.237  17.918 -13.316  1.00  0.00     0.053 C 
BRANCH  21  22
ATOM     22  C   UNL     1      22.622  18.503 -14.640  1.00  0.00     0.041 C 
ATOM     23  O   UNL     1      22.611  19.751 -14.808  1.00  0.00    -0.550 OA
ATOM     24  O   UNL     1      22.973  17.670 -15.695  1.00  0.00    -0.550 OA
ENDBRANCH  21  22
ENDBRANCH  20  21
ENDBRANCH  19  20
ENDBRANCH  18  19
ENDBRANCH  17  18
ENDBRANCH  16  17
ENDBRANCH  15  16
ENDBRANCH  14  15
ENDBRANCH  13  14
ENDBRANCH   1  13
TORSDOF 20
ENDMDL
MODEL 5
REMARK VINA RESULT:    -4.560      3.717      6.192
REMARK INTER + INTRA:         -13.606
REMARK INTER:                  -9.364
REMARK INTRA:                  -4.242
REMARK UNBOUND:                -3.716
REMARK SMILES CCCCCCCCCCCCCCCCCCCCCC(=O)[O-]
REMARK SMILES IDX 12 1 11 2 10 3 9 4 8 5 7 6 6 7 5 8 4 9 3 10 2 11 1 12 13 13
REMARK SMILES IDX 14 14 15 15 16 16 17 17 18 18 19 19 20 20 21 21 22 22 23 23
REMARK SMILES IDX 24 24
REMARK H PARENT
REMARK Flexibility Score: inf
ROOT
ATOM      1  C   UNL     1      26.369  16.742 -12.110  1.00  0.00     0.000 C 
ENDROOT
BRANCH   1   2
ATOM      2  C   UNL     1      26.277  16.022 -13.472  1.00  0.00     0.000 C 
BRANCH   2   3
ATOM      3  C   UNL     1      25.125  15.001 -13.518  1.00  0.00     0.000 C 
BRANCH   3   4
ATOM      4  C   UNL     1      24.536  14.710 -12.129  1.00  0.00    -0.000 C 
BRANCH   4   5
ATOM      5  C   UNL     1      24.899  13.309 -11.613  1.00  0.00    -0.000 C 
BRANCH   5   6
ATOM      6  C   UNL     1      25.002  13.297 -10.083  1.00  0.00    -0.000 C 
BRANCH   6   7
ATOM      7  C   UNL     1      24.846  14.712  -9.506  1.00  0.00    -0.000 C 
BRANCH   7   8
ATOM      8  C   UNL     1      26.141  15.211  -8.832  1.00  0.00    -0.000 C 
BRANCH   8   9
ATOM      9  C   UNL     1      27.355  14.304  -9.089  1.00  0.00    -0.000 C 
BRANCH   9  10
ATOM     10  C   UNL     1      28.532  15.051  -9.734  1.00  0.00    -0.000 C 
BRANCH  10  11
ATOM     11  C   UNL     1      29.402  14.096 -10.559  1.00  0.00    -0.003 C 
ATOM     12  C   UNL     1      28.550  13.037 -11.256  1.00  0.00     0.004 C 
ENDBRANCH  10  11
ENDBRANCH   9  10
ENDBRANCH   8   9
ENDBRANCH   7   8
ENDBRANCH   6   7
ENDBRANCH   5   6
ENDBRANCH   4   5
ENDBRANCH   3   4
ENDBRANCH   2   3
ENDBRANCH   1   2
BRANCH   1  13
ATOM     13  C   UNL     1      26.399  18.280 -12.218  1.00  0.00     0.000 C 
BRANCH  13  14
ATOM     14  C   UNL     1      25.310  19.012 -11.415  1.00  0.00     0.000 C 
BRANCH  14  15
ATOM     15  C   UNL     1      24.461  18.103 -10.505  1.00  0.00     0.000 C 
BRANCH  15  16
ATOM     16  C   UNL     1      23.017  17.890 -11.014  1.00  0.00     0.000 C 
BRANCH  16  17
ATOM     17  C   UNL     1      22.737  18.553 -12.375  1.00  0.00     0.000 C 
BRANCH  17  18
ATOM     18  C   UNL     1      22.355  17.528 -13.457  1.00  0.00     0.000 C 
BRANCH  18  19
ATOM     19  C   UNL     1      23.129  17.742 -14.768  1.00  0.00     0.000 C 
BRANCH  19  20
ATOM     20  C   UNL     1      23.873  19.087 -14.801  1.00  0.00     0.006 C 
BRANCH  20  21
ATOM     21  C   UNL     1      24.213  19.526 -16.232  1.00  0.00     0.053 C 
BRANCH  21  22
ATOM     22  C   UNL     1      25.513  18.946 -16.702  1.00  0.00     0.041 C 
ATOM     23  O   UNL     1      25.654  18.600 -17.904  1.00  0.00    -0.550 OA
ATOM     24  O   UNL     1      26.561  18.770 -15.807  1.00  0.00    -0.550 OA
ENDBRANCH  21  22
ENDBRANCH  20  21
ENDBRANCH  19  20
ENDBRANCH  18  19
ENDBRANCH  17  18
ENDBRANCH  16  17
ENDBRANCH  15  16
ENDBRANCH  14  15
ENDBRANCH  13  14
ENDBRANCH   1  13
TORSDOF 20
ENDMDL
MODEL 6
REMARK VINA RESULT:    -4.554      3.599      5.761
REMARK INTER + INTRA:         -13.595
REMARK INTER:                 -10.164
REMARK INTRA:                  -3.431
REMARK UNBOUND:                -3.716
REMARK SMILES CCCCCCCCCCCCCCCCCCCCCC(=O)[O-]
REMARK SMILES IDX 12 1 11 2 10 3 9 4 8 5 7 6 6 7 5 8 4 9 3 10 2 11 1 12 13 13
REMARK SMILES IDX 14 14 15 15 16 16 17 17 18 18 19 19 20 20 21 21 22 22 23 23
REMARK SMILES IDX 24 24
REMARK H PARENT
REMARK Flexibility Score: inf
ROOT
ATOM      1  C   UNL     1      27.738  15.013  -8.866  1.00  0.00     0.000 C 
ENDROOT
BRANCH   1   2
ATOM      2  C   UNL     1      26.664  13.907  -8.793  1.00  0.00     0.000 C 
BRANCH   2   3
ATOM      3  C   UNL     1      25.279  14.406  -9.244  1.00  0.00     0.000 C 
BRANCH   3   4
ATOM      4  C   UNL     1      25.124  15.929  -9.108  1.00  0.00    -0.000 C 
BRANCH   4   5
ATOM      5  C   UNL     1      23.750  16.429  -9.580  1.00  0.00    -0.000 C 
BRANCH   5   6
ATOM      6  C   UNL     1      23.358  15.781 -10.914  1.00  0.00    -0.000 C 
BRANCH   6   7
ATOM      7  C   UNL     1      22.119  16.461 -11.517  1.00  0.00    -0.000 C 
BRANCH   7   8
ATOM      8  C   UNL     1      22.482  17.398 -12.688  1.00  0.00    -0.000 C 
BRANCH   8   9
ATOM      9  C   UNL     1      23.107  18.729 -12.238  1.00  0.00    -0.000 C 
BRANCH   9  10
ATOM     10  C   UNL     1      24.521  18.943 -12.795  1.00  0.00    -0.000 C 
BRANCH  10  11
ATOM     11  C   UNL     1      25.565  18.903 -11.672  1.00  0.00    -0.003 C 
ATOM     12  C   UNL     1      26.613  17.824 -11.934  1.00  0.00     0.004 C 
ENDBRANCH  10  11
ENDBRANCH   9  10
ENDBRANCH   8   9
ENDBRANCH   7   8
ENDBRANCH   6   7
ENDBRANCH   5   6
ENDBRANCH   4   5
ENDBRANCH   3   4
ENDBRANCH   2   3
ENDBRANCH   1   2
BRANCH   1  13
ATOM     13  C   UNL     1      28.550  15.009 -10.176  1.00  0.00     0.000 C 
BRANCH  13  14
ATOM     14  C   UNL     1      29.227  13.670 -10.520  1.00  0.00     0.000 C 
BRANCH  14  15
ATOM     15  C   UNL     1      28.614  12.928 -11.723  1.00  0.00     0.000 C 
BRANCH  15  16
ATOM     16  C   UNL     1      27.369  13.628 -12.315  1.00  0.00     0.000 C 
BRANCH  16  17
ATOM     17  C   UNL     1      26.847  12.973 -13.607  1.00  0.00     0.000 C 
BRANCH  17  18
ATOM     18  C   UNL     1      25.483  13.541 -14.040  1.00  0.00     0.000 C 
BRANCH  18  19
ATOM     19  C   UNL     1      25.381  15.059 -13.813  1.00  0.00     0.000 C 
BRANCH  19  20
ATOM     20  C   UNL     1      25.244  15.843 -15.129  1.00  0.00     0.006 C 
BRANCH  20  21
ATOM     21  C   UNL     1      26.541  15.827 -15.950  1.00  0.00     0.053 C 
BRANCH  21  22
ATOM     22  C   UNL     1      27.245  17.150 -15.911  1.00  0.00     0.041 C 
ATOM     23  O   UNL     1      26.676  18.155 -15.410  1.00  0.00    -0.550 OA
ATOM     24  O   UNL     1      28.520  17.276 -16.448  1.00  0.00    -0.550 OA
ENDBRANCH  21  22
ENDBRANCH  20  21
ENDBRANCH  19  20
ENDBRANCH  18  19
ENDBRANCH  17  18
ENDBRANCH  16  17
ENDBRANCH  15  16
ENDBRANCH  14  15
ENDBRANCH  13  14
ENDBRANCH   1  13
TORSDOF 20
ENDMDL
MODEL 7
REMARK VINA RESULT:    -4.525      1.760      4.468
REMARK INTER + INTRA:         -13.531
REMARK INTER:                 -10.198
REMARK INTRA:                  -3.333
REMARK UNBOUND:                -3.716
REMARK SMILES CCCCCCCCCCCCCCCCCCCCCC(=O)[O-]
REMARK SMILES IDX 12 1 11 2 10 3 9 4 8 5 7 6 6 7 5 8 4 9 3 10 2 11 1 12 13 13
REMARK SMILES IDX 14 14 15 15 16 16 17 17 18 18 19 19 20 20 21 21 22 22 23 23
REMARK SMILES IDX 24 24
REMARK H PARENT
REMARK Flexibility Score: inf
ROOT
ATOM      1  C   UNL     1      26.592  18.103 -11.818  1.00  0.00     0.000 C 
ENDROOT
BRANCH   1   2
ATOM      2  C   UNL     1      26.748  17.300 -13.127  1.00  0.00     0.000 C 
BRANCH   2   3
ATOM      3  C   UNL     1      25.402  17.074 -13.839  1.00  0.00     0.000 C 
BRANCH   3   4
ATOM      4  C   UNL     1      24.918  15.618 -13.744  1.00  0.00    -0.000 C 
BRANCH   4   5
ATOM      5  C   UNL     1      25.623  14.831 -12.628  1.00  0.00    -0.000 C 
BRANCH   5   6
ATOM      6  C   UNL     1      24.655  14.520 -11.480  1.00  0.00    -0.000 C 
BRANCH   6   7
ATOM      7  C   UNL     1      25.417  14.141 -10.201  1.00  0.00    -0.000 C 
BRANCH   7   8
ATOM      8  C   UNL     1      25.979  15.378  -9.471  1.00  0.00    -0.000 C 
BRANCH   8   9
ATOM      9  C   UNL     1      27.454  15.232  -9.062  1.00  0.00    -0.000 C 
BRANCH   9  10
ATOM     10  C   UNL     1      28.413  15.271 -10.261  1.00  0.00    -0.000 C 
BRANCH  10  11
ATOM     11  C   UNL     1      29.243  13.984 -10.342  1.00  0.00    -0.003 C 
ATOM     12  C   UNL     1      28.704  13.049 -11.423  1.00  0.00     0.004 C 
ENDBRANCH  10  11
ENDBRANCH   9  10
ENDBRANCH   8   9
ENDBRANCH   7   8
ENDBRANCH   6   7
ENDBRANCH   5   6
ENDBRANCH   4   5
ENDBRANCH   3   4
ENDBRANCH   2   3
ENDBRANCH   1   2
BRANCH   1  13
ATOM     13  C   UNL     1      25.253  18.859 -11.706  1.00  0.00     0.000 C 
BRANCH  13  14
ATOM     14  C   UNL     1      24.226  18.227 -10.750  1.00  0.00     0.000 C 
BRANCH  14  15
ATOM     15  C   UNL     1      22.821  18.029 -11.353  1.00  0.00     0.000 C 
BRANCH  15  16
ATOM     16  C   UNL     1      21.927  17.065 -10.540  1.00  0.00     0.000 C 
BRANCH  16  17
ATOM     17  C   UNL     1      22.544  16.634  -9.196  1.00  0.00     0.000 C 
BRANCH  17  18
ATOM     18  C   UNL     1      21.606  16.909  -8.008  1.00  0.00     0.000 C 
BRANCH  18  19
ATOM     19  C   UNL     1      22.047  18.128  -7.181  1.00  0.00     0.000 C 
BRANCH  19  20
ATOM     20  C   UNL     1      20.855  18.926  -6.626  1.00  0.00     0.006 C 
BRANCH  20  21
ATOM     21  C   UNL     1      19.883  19.358  -7.732  1.00  0.00     0.053 C 
BRANCH  21  22
ATOM     22  C   UNL     1      18.950  20.436  -7.269  1.00  0.00     0.041 C 
ATOM     23  O   UNL     1      19.397  21.438  -6.650  1.00  0.00    -0.550 OA
ATOM     24  O   UNL     1      17.586  20.325  -7.503  1.00  0.00    -0.550 OA
ENDBRANCH  21  22
ENDBRANCH  20  21
ENDBRANCH  19  20
ENDBRANCH  18  19
ENDBRANCH  17  18
ENDBRANCH  16  17
ENDBRANCH  15  16
ENDBRANCH  14  15
ENDBRANCH  13  14
ENDBRANCH   1  13
TORSDOF 20
ENDMDL
MODEL 8
REMARK VINA RESULT:    -4.517      3.625      5.858
REMARK INTER + INTRA:         -13.514
REMARK INTER:                  -9.830
REMARK INTRA:                  -3.684
REMARK UNBOUND:                -3.716
REMARK SMILES CCCCCCCCCCCCCCCCCCCCCC(=O)[O-]
REMARK SMILES IDX 12 1 11 2 10 3 9 4 8 5 7 6 6 7 5 8 4 9 3 10 2 11 1 12 13 13
REMARK SMILES IDX 14 14 15 15 16 16 17 17 18 18 19 19 20 20 21 21 22 22 23 23
REMARK SMILES IDX 24 24
REMARK H PARENT
REMARK Flexibility Score: inf
ROOT
ATOM      1  C   UNL     1      26.381  16.946 -12.528  1.00  0.00     0.000 C 
ENDROOT
BRANCH   1   2
ATOM      2  C   UNL     1      26.370  18.472 -12.296  1.00  0.00     0.000 C 
BRANCH   2   3
ATOM      3  C   UNL     1      25.297  18.902 -11.280  1.00  0.00     0.000 C 
BRANCH   3   4
ATOM      4  C   UNL     1      24.277  17.789 -10.988  1.00  0.00    -0.000 C 
BRANCH   4   5
ATOM      5  C   UNL     1      22.883  18.101 -11.553  1.00  0.00    -0.000 C 
BRANCH   5   6
ATOM      6  C   UNL     1      22.400  16.973 -12.474  1.00  0.00    -0.000 C 
BRANCH   6   7
ATOM      7  C   UNL     1      22.356  17.434 -13.939  1.00  0.00    -0.000 C 
BRANCH   7   8
ATOM      8  C   UNL     1      22.820  18.897 -14.102  1.00  0.00    -0.000 C 
BRANCH   8   9
ATOM      9  C   UNL     1      23.747  19.116 -15.308  1.00  0.00    -0.000 C 
BRANCH   9  10
ATOM     10  C   UNL     1      24.801  20.204 -15.062  1.00  0.00    -0.000 C 
BRANCH  10  11
ATOM     11  C   UNL     1      24.176  21.601 -15.139  1.00  0.00    -0.003 C 
ATOM     12  C   UNL     1      25.134  22.597 -15.790  1.00  0.00     0.004 C 
ENDBRANCH  10  11
ENDBRANCH   9  10
ENDBRANCH   8   9
ENDBRANCH   7   8
ENDBRANCH   6   7
ENDBRANCH   5   6
ENDBRANCH   4   5
ENDBRANCH   3   4
ENDBRANCH   2   3
ENDBRANCH   1   2
BRANCH   1  13
ATOM     13  C   UNL     1      25.980  16.529 -13.956  1.00  0.00     0.000 C 
BRANCH  13  14
ATOM     14  C   UNL     1      25.295  15.155 -14.066  1.00  0.00     0.000 C 
BRANCH  14  15
ATOM     15  C   UNL     1      25.636  14.172 -12.929  1.00  0.00     0.000 C 
BRANCH  15  16
ATOM     16  C   UNL     1      24.426  13.813 -12.036  1.00  0.00     0.000 C 
BRANCH  16  17
ATOM     17  C   UNL     1      24.813  13.430 -10.596  1.00  0.00     0.000 C 
BRANCH  17  18
ATOM     18  C   UNL     1      24.629  14.598  -9.611  1.00  0.00     0.000 C 
BRANCH  18  19
ATOM     19  C   UNL     1      25.969  15.161  -9.110  1.00  0.00     0.000 C 
BRANCH  19  20
ATOM     20  C   UNL     1      26.996  14.056  -8.810  1.00  0.00     0.006 C 
BRANCH  20  21
ATOM     21  C   UNL     1      28.433  14.597  -8.771  1.00  0.00     0.053 C 
BRANCH  21  22
ATOM     22  C   UNL     1      29.014  14.742 -10.145  1.00  0.00     0.041 C 
ATOM     23  O   UNL     1      29.164  15.885 -10.651  1.00  0.00    -0.550 OA
ATOM     24  O   UNL     1      29.371  13.614 -10.873  1.00  0.00    -0.550 OA
ENDBRANCH  21  22
ENDBRANCH  20  21
ENDBRANCH  19  20
ENDBRANCH  18  19
ENDBRANCH  17  18
ENDBRANCH  16  17
ENDBRANCH  15  16
ENDBRANCH  14  15
ENDBRANCH  13  14
ENDBRANCH   1  13
TORSDOF 20
ENDMDL
MODEL 9
REMARK VINA RESULT:    -4.489      3.174      5.492
REMARK INTER + INTRA:         -13.453
REMARK INTER:                  -9.610
REMARK INTRA:                  -3.843
REMARK UNBOUND:                -3.716
REMARK SMILES CCCCCCCCCCCCCCCCCCCCCC(=O)[O-]
REMARK SMILES IDX 12 1 11 2 10 3 9 4 8 5 7 6 6 7 5 8 4 9 3 10 2 11 1 12 13 13
REMARK SMILES IDX 14 14 15 15 16 16 17 17 18 18 19 19 20 20 21 21 22 22 23 23
REMARK SMILES IDX 24 24
REMARK H PARENT
REMARK Flexibility Score: inf
ROOT
ATOM      1  C   UNL     1      26.202  13.455 -13.828  1.00  0.00     0.000 C 
ENDROOT
BRANCH   1   2
ATOM      2  C   UNL     1      27.463  12.774 -13.257  1.00  0.00     0.000 C 
BRANCH   2   3
ATOM      3  C   UNL     1      27.425  12.664 -11.722  1.00  0.00     0.000 C 
BRANCH   3   4
ATOM      4  C   UNL     1      28.705  13.196 -11.057  1.00  0.00    -0.000 C 
BRANCH   4   5
ATOM      5  C   UNL     1      28.611  14.687 -10.699  1.00  0.00    -0.000 C 
BRANCH   5   6
ATOM      6  C   UNL     1      28.656  14.891  -9.180  1.00  0.00    -0.000 C 
BRANCH   6   7
ATOM      7  C   UNL     1      27.315  14.514  -8.531  1.00  0.00    -0.000 C 
BRANCH   7   8
ATOM      8  C   UNL     1      26.133  15.294  -9.144  1.00  0.00    -0.000 C 
BRANCH   8   9
ATOM      9  C   UNL     1      24.809  14.513  -9.126  1.00  0.00    -0.000 C 
BRANCH   9  10
ATOM     10  C   UNL     1      23.636  15.315  -9.708  1.00  0.00    -0.000 C 
BRANCH  10  11
ATOM     11  C   UNL     1      23.299  16.518  -8.819  1.00  0.00    -0.003 C 
ATOM     12  C   UNL     1      22.248  17.410  -9.476  1.00  0.00     0.004 C 
ENDBRANCH  10  11
ENDBRANCH   9  10
ENDBRANCH   8   9
ENDBRANCH   7   8
ENDBRANCH   6   7
ENDBRANCH   5   6
ENDBRANCH   4   5
ENDBRANCH   3   4
ENDBRANCH   2   3
ENDBRANCH   1   2
BRANCH   1  13
ATOM     13  C   UNL     1      25.342  14.168 -12.766  1.00  0.00     0.000 C 
BRANCH  13  14
ATOM     14  C   UNL     1      25.081  15.661 -13.033  1.00  0.00     0.000 C 
BRANCH  14  15
ATOM     15  C   UNL     1      26.346  16.496 -13.312  1.00  0.00     0.000 C 
BRANCH  15  16
ATOM     16  C   UNL     1      26.714  17.467 -12.167  1.00  0.00     0.000 C 
BRANCH  16  17
ATOM     17  C   UNL     1      25.494  18.013 -11.403  1.00  0.00     0.000 C 
BRANCH  17  18
ATOM     18  C   UNL     1      24.866  19.233 -12.100  1.00  0.00     0.000 C 
BRANCH  18  19
ATOM     19  C   UNL     1      23.449  18.945 -12.623  1.00  0.00     0.000 C 
BRANCH  19  20
ATOM     20  C   UNL     1      23.232  19.462 -14.055  1.00  0.00     0.006 C 
BRANCH  20  21
ATOM     21  C   UNL     1      22.868  18.334 -15.029  1.00  0.00     0.053 C 
BRANCH  21  22
ATOM     22  C   UNL     1      24.050  17.886 -15.835  1.00  0.00     0.041 C 
ATOM     23  O   UNL     1      25.075  18.613 -15.915  1.00  0.00    -0.550 OA
ATOM     24  O   UNL     1      24.011  16.675 -16.515  1.00  0.00    -0.550 OA
ENDBRANCH  21  22
ENDBRANCH  20  21
ENDBRANCH  19  20
ENDBRANCH  18  19
ENDBRANCH  17  18
ENDBRANCH  16  17
ENDBRANCH  15  16
ENDBRANCH  14  15
ENDBRANCH  13  14
ENDBRANCH   1  13
TORSDOF 20
ENDMDL
