MODEL 1
REMARK VINA RESULT:     0.686      0.000      0.000
REMARK INTER + INTRA:           0.767
REMARK INTER:                   0.767
REMARK INTRA:                   0.000
REMARK UNBOUND:                 0.000
REMARK SMILES Oc1cc(O)c2c(c1)CCc1cc(O)c(O)cc1-2
REMARK SMILES IDX 10 1 9 2 7 3 6 4 18 5 17 6 15 7 13 8 12 9 11 10 4 11 3 12
REMARK SMILES IDX 2 13 8 14 14 15 5 17 1 19 16 21
REMARK H PARENT 14 16 5 18 1 20 16 22
REMARK Flexibility Score: inf
ROOT
ATOM      1  C   UNL     1      32.525  24.183  34.931  1.00  0.00     0.041 C 
ATOM      2  C   UNL     1      31.318  25.125  34.852  1.00  0.00     0.041 C 
ATOM      3  C   UNL     1      30.619  24.980  33.522  1.00  0.00    -0.032 A 
ATOM      4  C   UNL     1      31.372  24.735  32.349  1.00  0.00     0.027 A 
ATOM      5  C   UNL     1      32.863  24.658  32.472  1.00  0.00    -0.007 A 
ATOM      6  C   UNL     1      33.729  24.946  31.397  1.00  0.00     0.059 A 
ATOM      7  C   UNL     1      35.120  24.856  31.553  1.00  0.00     0.158 A 
ATOM      8  C   UNL     1      35.662  24.505  32.798  1.00  0.00     0.157 A 
ATOM      9  C   UNL     1      34.816  24.275  33.885  1.00  0.00     0.054 A 
ATOM     10  C   UNL     1      33.426  24.383  33.739  1.00  0.00    -0.036 A 
ATOM     11  C   UNL     1      30.680  24.501  31.134  1.00  0.00     0.127 A 
ATOM     12  C   UNL     1      29.286  24.644  31.084  1.00  0.00     0.093 A 
ATOM     13  C   UNL     1      28.561  24.966  32.235  1.00  0.00     0.119 A 
ATOM     14  C   UNL     1      29.227  25.125  33.451  1.00  0.00     0.050 A 
ENDROOT
BRANCH   8  15
ATOM     15  O   UNL     1      37.041  24.392  32.978  1.00  0.00    -0.504 OA
ATOM     16  H   UNL     1      37.444  23.775  33.673  1.00  0.00     0.293 HD
ENDBRANCH   8  15
BRANCH  11  17
ATOM     17  O   UNL     1      31.358  24.090  29.988  1.00  0.00    -0.507 OA
ATOM     18  H   UNL     1      32.011  24.698  29.506  1.00  0.00     0.293 HD
ENDBRANCH  11  17
BRANCH  13  19
ATOM     19  O   UNL     1      27.178  25.115  32.185  1.00  0.00    -0.508 OA
ATOM     20  H   UNL     1      26.561  24.526  32.733  1.00  0.00     0.293 HD
ENDBRANCH  13  19
BRANCH   7  21
ATOM     21  O   UNL     1      35.963  25.125  30.476  1.00  0.00    -0.504 OA
ATOM     22  H   UNL     1      36.273  26.066  30.265  1.00  0.00     0.293 HD
ENDBRANCH   7  21
TORSDOF 4
ENDMDL
MODEL 2
REMARK VINA RESULT:     2.555      2.250      5.418
REMARK INTER + INTRA:           2.854
REMARK INTER:                   2.854
REMARK INTRA:                   0.000
REMARK UNBOUND:                 0.000
REMARK SMILES Oc1cc(O)c2c(c1)CCc1cc(O)c(O)cc1-2
REMARK SMILES IDX 10 1 9 2 7 3 6 4 18 5 17 6 15 7 13 8 12 9 11 10 4 11 3 12
REMARK SMILES IDX 2 13 8 14 14 15 5 17 1 19 16 21
REMARK H PARENT 14 16 5 18 1 20 16 22
REMARK Flexibility Score: inf
ROOT
ATOM      1  C   UNL     1      35.837  25.125  33.701  1.00  0.00     0.041 C 
ATOM      2  C   UNL     1      36.527  24.131  32.760  1.00  0.00     0.041 C 
ATOM      3  C   UNL     1      35.955  24.234  31.367  1.00  0.00    -0.032 A 
ATOM      4  C   UNL     1      34.577  24.502  31.186  1.00  0.00     0.027 A 
ATOM      5  C   UNL     1      33.720  24.644  32.407  1.00  0.00    -0.007 A 
ATOM      6  C   UNL     1      32.334  24.385  32.396  1.00  0.00     0.059 A 
ATOM      7  C   UNL     1      31.567  24.536  33.560  1.00  0.00     0.158 A 
ATOM      8  C   UNL     1      32.185  24.921  34.759  1.00  0.00     0.157 A 
ATOM      9  C   UNL     1      33.566  25.123  34.795  1.00  0.00     0.054 A 
ATOM     10  C   UNL     1      34.340  24.954  33.639  1.00  0.00    -0.036 A 
ATOM     11  C   UNL     1      34.090  24.694  29.869  1.00  0.00     0.127 A 
ATOM     12  C   UNL     1      34.940  24.491  28.772  1.00  0.00     0.093 A 
ATOM     13  C   UNL     1      36.281  24.148  28.964  1.00  0.00     0.119 A 
ATOM     14  C   UNL     1      36.787  24.028  30.258  1.00  0.00     0.050 A 
ENDROOT
BRANCH   8  15
ATOM     15  O   UNL     1      31.444  25.095  35.928  1.00  0.00    -0.504 OA
ATOM     16  H   UNL     1      31.593  24.521  36.749  1.00  0.00     0.293 HD
ENDBRANCH   8  15
BRANCH  11  17
ATOM     17  O   UNL     1      32.784  25.125  29.640  1.00  0.00    -0.507 OA
ATOM     18  H   UNL     1      31.989  24.505  29.751  1.00  0.00     0.293 HD
ENDBRANCH  11  17
BRANCH  13  19
ATOM     19  O   UNL     1      37.124  23.938  27.875  1.00  0.00    -0.508 OA
ATOM     20  H   UNL     1      37.585  24.710  27.407  1.00  0.00     0.293 HD
ENDBRANCH  13  19
BRANCH   7  21
ATOM     21  O   UNL     1      30.194  24.295  33.529  1.00  0.00    -0.504 OA
ATOM     22  H   UNL     1      29.724  23.803  34.280  1.00  0.00     0.293 HD
ENDBRANCH   7  21
TORSDOF 4
ENDMDL
MODEL 3
REMARK VINA RESULT:     3.684      1.794      5.614
REMARK INTER + INTRA:           4.115
REMARK INTER:                   4.115
REMARK INTRA:                   0.000
REMARK UNBOUND:                 0.000
REMARK SMILES Oc1cc(O)c2c(c1)CCc1cc(O)c(O)cc1-2
REMARK SMILES IDX 10 1 9 2 7 3 6 4 18 5 17 6 15 7 13 8 12 9 11 10 4 11 3 12
REMARK SMILES IDX 2 13 8 14 14 15 5 17 1 19 16 21
REMARK H PARENT 14 16 5 18 1 20 16 22
REMARK Flexibility Score: inf
ROOT
ATOM      1  C   UNL     1      33.472  25.125  33.116  1.00  0.00     0.041 C 
ATOM      2  C   UNL     1      34.575  24.244  32.521  1.00  0.00     0.041 C 
ATOM      3  C   UNL     1      34.611  24.383  31.018  1.00  0.00    -0.032 A 
ATOM      4  C   UNL     1      33.407  24.552  30.294  1.00  0.00     0.027 A 
ATOM      5  C   UNL     1      32.118  24.557  31.059  1.00  0.00    -0.007 A 
ATOM      6  C   UNL     1      30.888  24.191  30.475  1.00  0.00     0.059 A 
ATOM      7  C   UNL     1      29.704  24.214  31.226  1.00  0.00     0.158 A 
ATOM      8  C   UNL     1      29.742  24.576  32.581  1.00  0.00     0.157 A 
ATOM      9  C   UNL     1      30.963  24.882  33.184  1.00  0.00     0.054 A 
ATOM     10  C   UNL     1      32.153  24.842  32.443  1.00  0.00    -0.036 A 
ATOM     11  C   UNL     1      33.481  24.783  28.897  1.00  0.00     0.127 A 
ATOM     12  C   UNL     1      34.718  24.711  28.241  1.00  0.00     0.093 A 
ATOM     13  C   UNL     1      35.891  24.462  28.958  1.00  0.00     0.119 A 
ATOM     14  C   UNL     1      35.837  24.308  30.343  1.00  0.00     0.050 A 
ENDROOT
BRANCH   8  15
ATOM     15  O   UNL     1      28.577  24.624  33.347  1.00  0.00    -0.504 OA
ATOM     16  H   UNL     1      28.550  25.069  34.257  1.00  0.00     0.293 HD
ENDBRANCH   8  15
BRANCH  11  17
ATOM     17  O   UNL     1      32.346  25.123  28.163  1.00  0.00    -0.507 OA
ATOM     18  H   UNL     1      31.953  26.058  28.188  1.00  0.00     0.293 HD
ENDBRANCH  11  17
BRANCH  13  19
ATOM     19  O   UNL     1      37.119  24.383  28.306  1.00  0.00    -0.508 OA
ATOM     20  H   UNL     1      37.453  23.512  27.910  1.00  0.00     0.293 HD
ENDBRANCH  13  19
BRANCH   7  21
ATOM     21  O   UNL     1      28.491  23.869  30.630  1.00  0.00    -0.504 OA
ATOM     22  H   UNL     1      27.786  24.565  30.417  1.00  0.00     0.293 HD
ENDBRANCH   7  21
TORSDOF 4
ENDMDL
