MODEL 1
REMARK VINA RESULT:    -4.493      0.000      0.000
REMARK INTER + INTRA:          -5.241
REMARK INTER:                  -5.281
REMARK INTRA:                   0.040
REMARK UNBOUND:                 0.040
REMARK SMILES O=c1c(O)c(-c2ccc(O)cc2)oc2cc(O)cc(O)c12
REMARK SMILES IDX 5 1 3 2 2 3 1 4 21 5 19 6 18 7 16 8 15 9 14 10 13 11 6 12
REMARK SMILES IDX 7 13 8 14 9 15 12 16 11 17 10 18 4 20 20 22 17 24
REMARK H PARENT 10 19 4 21 20 23 17 25
REMARK Flexibility Score: inf
ROOT
ATOM      1  C   UNL     1      22.031  44.563  30.053  1.00  0.00     0.180 A 
ATOM      2  C   UNL     1      22.478  45.245  28.907  1.00  0.00     0.208 A 
ATOM      3  C   UNL     1      22.516  44.564  27.680  1.00  0.00     0.238 A 
ATOM      4  O   UNL     1      22.866  45.196  26.649  1.00  0.00    -0.285 OA
ATOM      5  C   UNL     1      22.123  43.206  27.616  1.00  0.00     0.111 A 
ATOM      6  C   UNL     1      22.160  42.407  26.434  1.00  0.00     0.134 A 
ATOM      7  C   UNL     1      21.623  41.113  26.457  1.00  0.00     0.093 A 
ATOM      8  C   UNL     1      21.113  40.566  27.634  1.00  0.00     0.123 A 
ATOM      9  C   UNL     1      21.127  41.318  28.810  1.00  0.00     0.094 A 
ATOM     10  C   UNL     1      21.622  42.625  28.809  1.00  0.00     0.146 A 
ATOM     11  O   UNL     1      21.606  43.310  29.946  1.00  0.00    -0.452 OA
ENDROOT
BRANCH   1  12
ATOM     12  C   UNL     1      21.987  45.206  31.385  1.00  0.00     0.021 A 
ATOM     13  C   UNL     1      20.810  45.216  32.156  1.00  0.00     0.016 A 
ATOM     14  C   UNL     1      20.785  45.851  33.401  1.00  0.00     0.047 A 
ATOM     15  C   UNL     1      21.931  46.496  33.886  1.00  0.00     0.115 A 
ATOM     16  C   UNL     1      23.125  45.874  31.870  1.00  0.00     0.016 A 
ATOM     17  C   UNL     1      23.097  46.507  33.116  1.00  0.00     0.047 A 
BRANCH  15  18
ATOM     18  O   UNL     1      21.919  47.132  35.125  1.00  0.00    -0.508 OA
ATOM     19  H   UNL     1      22.405  46.742  35.924  1.00  0.00     0.293 HD
ENDBRANCH  15  18
ENDBRANCH   1  12
BRANCH   2  20
ATOM     20  O   UNL     1      22.841  46.593  28.988  1.00  0.00    -0.502 OA
ATOM     21  H   UNL     1      22.248  47.291  29.419  1.00  0.00     0.293 HD
ENDBRANCH   2  20
BRANCH   6  22
ATOM     22  O   UNL     1      22.732  42.823  25.228  1.00  0.00    -0.507 OA
ATOM     23  H   UNL     1      23.599  42.470  24.851  1.00  0.00     0.293 HD
ENDBRANCH   6  22
BRANCH   8  24
ATOM     24  O   UNL     1      20.602  39.270  27.625  1.00  0.00    -0.508 OA
ATOM     25  H   UNL     1      20.513  38.731  28.478  1.00  0.00     0.293 HD
ENDBRANCH   8  24
TORSDOF 5
ENDMDL
MODEL 2
REMARK VINA RESULT:    -3.924      1.403      3.210
REMARK INTER + INTRA:          -4.572
REMARK INTER:                  -4.499
REMARK INTRA:                  -0.073
REMARK UNBOUND:                 0.040
REMARK SMILES O=c1c(O)c(-c2ccc(O)cc2)oc2cc(O)cc(O)c12
REMARK SMILES IDX 5 1 3 2 2 3 1 4 21 5 19 6 18 7 16 8 15 9 14 10 13 11 6 12
REMARK SMILES IDX 7 13 8 14 9 15 12 16 11 17 10 18 4 20 20 22 17 24
REMARK H PARENT 10 19 4 21 20 23 17 25
REMARK Flexibility Score: inf
ROOT
ATOM      1  C   UNL     1      22.061  44.600  29.749  1.00  0.00     0.180 A 
ATOM      2  C   UNL     1      21.832  43.240  29.477  1.00  0.00     0.208 A 
ATOM      3  C   UNL     1      21.856  42.798  28.145  1.00  0.00     0.238 A 
ATOM      4  O   UNL     1      21.704  41.570  27.912  1.00  0.00    -0.285 OA
ATOM      5  C   UNL     1      22.091  43.723  27.100  1.00  0.00     0.111 A 
ATOM      6  C   UNL     1      22.096  43.393  25.711  1.00  0.00     0.134 A 
ATOM      7  C   UNL     1      22.470  44.363  24.772  1.00  0.00     0.093 A 
ATOM      8  C   UNL     1      22.773  45.666  25.164  1.00  0.00     0.123 A 
ATOM      9  C   UNL     1      22.713  46.015  26.514  1.00  0.00     0.094 A 
ATOM     10  C   UNL     1      22.379  45.060  27.477  1.00  0.00     0.146 A 
ATOM     11  O   UNL     1      22.344  45.430  28.753  1.00  0.00    -0.452 OA
ENDROOT
BRANCH   1  12
ATOM     12  C   UNL     1      22.027  45.144  31.125  1.00  0.00     0.021 A 
ATOM     13  C   UNL     1      20.896  44.993  31.946  1.00  0.00     0.016 A 
ATOM     14  C   UNL     1      20.878  45.538  33.234  1.00  0.00     0.047 A 
ATOM     15  C   UNL     1      21.985  46.251  33.712  1.00  0.00     0.115 A 
ATOM     16  C   UNL     1      23.125  45.880  31.605  1.00  0.00     0.016 A 
ATOM     17  C   UNL     1      23.105  46.422  32.894  1.00  0.00     0.047 A 
BRANCH  15  18
ATOM     18  O   UNL     1      21.980  46.797  34.993  1.00  0.00    -0.508 OA
ATOM     19  H   UNL     1      22.085  47.794  35.144  1.00  0.00     0.293 HD
ENDBRANCH  15  18
ENDBRANCH   1  12
BRANCH   2  20
ATOM     20  O   UNL     1      21.624  42.338  30.525  1.00  0.00    -0.502 OA
ATOM     21  H   UNL     1      22.028  42.469  31.444  1.00  0.00     0.293 HD
ENDBRANCH   2  20
BRANCH   6  22
ATOM     22  O   UNL     1      21.720  42.146  25.203  1.00  0.00    -0.507 OA
ATOM     23  H   UNL     1      21.986  41.259  25.603  1.00  0.00     0.293 HD
ENDBRANCH   6  22
BRANCH   8  24
ATOM     24  O   UNL     1      23.125  46.610  24.201  1.00  0.00    -0.508 OA
ATOM     25  H   UNL     1      24.081  46.931  24.100  1.00  0.00     0.293 HD
ENDBRANCH   8  24
TORSDOF 5
ENDMDL
MODEL 3
REMARK VINA RESULT:    -3.745      0.358      1.115
REMARK INTER + INTRA:          -4.362
REMARK INTER:                  -4.461
REMARK INTRA:                   0.099
REMARK UNBOUND:                 0.040
REMARK SMILES O=c1c(O)c(-c2ccc(O)cc2)oc2cc(O)cc(O)c12
REMARK SMILES IDX 5 1 3 2 2 3 1 4 21 5 19 6 18 7 16 8 15 9 14 10 13 11 6 12
REMARK SMILES IDX 7 13 8 14 9 15 12 16 11 17 10 18 4 20 20 22 17 24
REMARK H PARENT 10 19 4 21 20 23 17 25
REMARK Flexibility Score: inf
ROOT
ATOM      1  C   UNL     1      22.036  44.500  30.182  1.00  0.00     0.180 A 
ATOM      2  C   UNL     1      22.610  45.041  29.019  1.00  0.00     0.208 A 
ATOM      3  C   UNL     1      22.654  44.259  27.853  1.00  0.00     0.238 A 
ATOM      4  O   UNL     1      23.120  44.769  26.801  1.00  0.00    -0.285 OA
ATOM      5  C   UNL     1      22.140  42.941  27.870  1.00  0.00     0.111 A 
ATOM      6  C   UNL     1      22.170  42.046  26.759  1.00  0.00     0.134 A 
ATOM      7  C   UNL     1      21.514  40.811  26.849  1.00  0.00     0.093 A 
ATOM      8  C   UNL     1      20.888  40.412  28.029  1.00  0.00     0.123 A 
ATOM      9  C   UNL     1      20.904  41.255  29.141  1.00  0.00     0.094 A 
ATOM     10  C   UNL     1      21.519  42.508  29.070  1.00  0.00     0.146 A 
ATOM     11  O   UNL     1      21.502  43.285  30.147  1.00  0.00    -0.452 OA
ENDROOT
BRANCH   1  12
ATOM     12  C   UNL     1      21.976  45.253  31.454  1.00  0.00     0.021 A 
ATOM     13  C   UNL     1      23.075  45.997  31.919  1.00  0.00     0.016 A 
ATOM     14  C   UNL     1      23.003  46.681  33.137  1.00  0.00     0.047 A 
ATOM     15  C   UNL     1      21.837  46.620  33.911  1.00  0.00     0.115 A 
ATOM     16  C   UNL     1      20.817  45.181  32.248  1.00  0.00     0.016 A 
ATOM     17  C   UNL     1      20.747  45.867  33.464  1.00  0.00     0.047 A 
BRANCH  15  18
ATOM     18  O   UNL     1      21.752  47.297  35.125  1.00  0.00    -0.508 OA
ATOM     19  H   UNL     1      21.472  48.271  35.169  1.00  0.00     0.293 HD
ENDBRANCH  15  18
ENDBRANCH   1  12
BRANCH   2  20
ATOM     20  O   UNL     1      23.092  46.353  29.018  1.00  0.00    -0.502 OA
ATOM     21  H   UNL     1      23.417  46.813  28.176  1.00  0.00     0.293 HD
ENDBRANCH   2  20
BRANCH   6  22
ATOM     22  O   UNL     1      22.846  42.306  25.563  1.00  0.00    -0.507 OA
ATOM     23  H   UNL     1      23.163  41.599  24.917  1.00  0.00     0.293 HD
ENDBRANCH   6  22
BRANCH   8  24
ATOM     24  O   UNL     1      20.259  39.170  28.088  1.00  0.00    -0.508 OA
ATOM     25  H   UNL     1      19.919  38.790  28.964  1.00  0.00     0.293 HD
ENDBRANCH   8  24
TORSDOF 5
ENDMDL
MODEL 4
REMARK VINA RESULT:    -3.660      1.153      3.082
REMARK INTER + INTRA:          -4.263
REMARK INTER:                  -4.205
REMARK INTRA:                  -0.058
REMARK UNBOUND:                 0.040
REMARK SMILES O=c1c(O)c(-c2ccc(O)cc2)oc2cc(O)cc(O)c12
REMARK SMILES IDX 5 1 3 2 2 3 1 4 21 5 19 6 18 7 16 8 15 9 14 10 13 11 6 12
REMARK SMILES IDX 7 13 8 14 9 15 12 16 11 17 10 18 4 20 20 22 17 24
REMARK H PARENT 10 19 4 21 20 23 17 25
REMARK Flexibility Score: inf
ROOT
ATOM      1  C   UNL     1      21.718  43.815  30.392  1.00  0.00     0.180 A 
ATOM      2  C   UNL     1      21.261  42.500  30.584  1.00  0.00     0.208 A 
ATOM      3  C   UNL     1      21.168  41.642  29.477  1.00  0.00     0.238 A 
ATOM      4  O   UNL     1      20.810  40.450  29.664  1.00  0.00    -0.285 OA
ATOM      5  C   UNL     1      21.518  42.114  28.189  1.00  0.00     0.111 A 
ATOM      6  C   UNL     1      21.424  41.344  26.991  1.00  0.00     0.134 A 
ATOM      7  C   UNL     1      21.921  41.870  25.791  1.00  0.00     0.093 A 
ATOM      8  C   UNL     1      22.447  43.160  25.733  1.00  0.00     0.123 A 
ATOM      9  C   UNL     1      22.488  43.943  26.887  1.00  0.00     0.094 A 
ATOM     10  C   UNL     1      22.034  43.433  28.106  1.00  0.00     0.146 A 
ATOM     11  O   UNL     1      22.101  44.207  29.183  1.00  0.00    -0.452 OA
ENDROOT
BRANCH   1  12
ATOM     12  C   UNL     1      21.819  44.785  31.506  1.00  0.00     0.021 A 
ATOM     13  C   UNL     1      23.051  45.360  31.868  1.00  0.00     0.016 A 
ATOM     14  C   UNL     1      23.125  46.254  32.941  1.00  0.00     0.047 A 
ATOM     15  C   UNL     1      21.974  46.575  33.672  1.00  0.00     0.115 A 
ATOM     16  C   UNL     1      20.673  45.096  32.258  1.00  0.00     0.016 A 
ATOM     17  C   UNL     1      20.751  45.992  33.329  1.00  0.00     0.047 A 
BRANCH  15  18
ATOM     18  O   UNL     1      22.035  47.466  34.741  1.00  0.00    -0.508 OA
ATOM     19  H   UNL     1      21.205  47.933  35.088  1.00  0.00     0.293 HD
ENDBRANCH  15  18
ENDBRANCH   1  12
BRANCH   2  20
ATOM     20  O   UNL     1      20.942  42.047  31.868  1.00  0.00    -0.502 OA
ATOM     21  H   UNL     1      21.033  41.076  32.141  1.00  0.00     0.293 HD
ENDBRANCH   2  20
BRANCH   6  22
ATOM     22  O   UNL     1      20.832  40.079  26.919  1.00  0.00    -0.507 OA
ATOM     23  H   UNL     1      20.321  39.729  26.123  1.00  0.00     0.293 HD
ENDBRANCH   6  22
BRANCH   8  24
ATOM     24  O   UNL     1      22.917  43.657  24.519  1.00  0.00    -0.508 OA
ATOM     25  H   UNL     1      23.448  44.519  24.471  1.00  0.00     0.293 HD
ENDBRANCH   8  24
TORSDOF 5
ENDMDL
MODEL 5
REMARK VINA RESULT:    -2.355      2.011      2.685
REMARK INTER + INTRA:          -2.728
REMARK INTER:                  -3.039
REMARK INTRA:                   0.311
REMARK UNBOUND:                 0.040
REMARK SMILES O=c1c(O)c(-c2ccc(O)cc2)oc2cc(O)cc(O)c12
REMARK SMILES IDX 5 1 3 2 2 3 1 4 21 5 19 6 18 7 16 8 15 9 14 10 13 11 6 12
REMARK SMILES IDX 7 13 8 14 9 15 12 16 11 17 10 18 4 20 20 22 17 24
REMARK H PARENT 10 19 4 21 20 23 17 25
REMARK Flexibility Score: inf
ROOT
ATOM      1  C   UNL     1      22.493  45.311  28.527  1.00  0.00     0.180 A 
ATOM      2  C   UNL     1      22.638  46.519  27.823  1.00  0.00     0.208 A 
ATOM      3  C   UNL     1      22.723  46.485  26.422  1.00  0.00     0.238 A 
ATOM      4  O   UNL     1      22.799  47.574  25.795  1.00  0.00    -0.285 OA
ATOM      5  C   UNL     1      22.678  45.244  25.744  1.00  0.00     0.111 A 
ATOM      6  C   UNL     1      22.797  45.089  24.330  1.00  0.00     0.134 A 
ATOM      7  C   UNL     1      22.607  43.826  23.755  1.00  0.00     0.093 A 
ATOM      8  C   UNL     1      22.369  42.703  24.546  1.00  0.00     0.123 A 
ATOM      9  C   UNL     1      22.311  42.833  25.934  1.00  0.00     0.094 A 
ATOM     10  C   UNL     1      22.460  44.086  26.534  1.00  0.00     0.146 A 
ATOM     11  O   UNL     1      22.387  44.169  27.858  1.00  0.00    -0.452 OA
ENDROOT
BRANCH   1  12
ATOM     12  C   UNL     1      22.421  45.264  30.005  1.00  0.00     0.021 A 
ATOM     13  C   UNL     1      21.616  44.322  30.670  1.00  0.00     0.016 A 
ATOM     14  C   UNL     1      21.546  44.313  32.067  1.00  0.00     0.047 A 
ATOM     15  C   UNL     1      22.267  45.253  32.815  1.00  0.00     0.115 A 
ATOM     16  C   UNL     1      23.125  46.217  30.762  1.00  0.00     0.016 A 
ATOM     17  C   UNL     1      23.053  46.204  32.158  1.00  0.00     0.047 A 
BRANCH  15  18
ATOM     18  O   UNL     1      22.205  45.254  34.206  1.00  0.00    -0.508 OA
ATOM     19  H   UNL     1      22.166  44.390  34.734  1.00  0.00     0.293 HD
ENDBRANCH  15  18
ENDBRANCH   1  12
BRANCH   2  20
ATOM     20  O   UNL     1      22.658  47.735  28.511  1.00  0.00    -0.502 OA
ATOM     21  H   UNL     1      23.473  48.064  29.013  1.00  0.00     0.293 HD
ENDBRANCH   2  20
BRANCH   6  22
ATOM     22  O   UNL     1      23.123  46.129  23.454  1.00  0.00    -0.507 OA
ATOM     23  H   UNL     1      22.740  47.061  23.501  1.00  0.00     0.293 HD
ENDBRANCH   6  22
BRANCH   8  24
ATOM     24  O   UNL     1      22.201  41.458  23.942  1.00  0.00    -0.508 OA
ATOM     25  H   UNL     1      22.523  41.281  22.997  1.00  0.00     0.293 HD
ENDBRANCH   8  24
TORSDOF 5
ENDMDL
