MODEL 1
REMARK VINA RESULT:    -4.348      0.000      0.000
REMARK INTER + INTRA:          -9.746
REMARK INTER:                  -7.652
REMARK INTRA:                  -2.093
REMARK UNBOUND:                -2.093
REMARK SMILES CCCCCCC=CCCCCCCCC(=O)[O-]
REMARK SMILES IDX 10 1 11 2 12 3 13 4 14 5 15 6 16 7 17 8 18 9 9 10 8 11 7 12
REMARK SMILES IDX 6 13 5 14 4 15 3 16 2 17 1 18
REMARK H PARENT
REMARK Flexibility Score: inf
ROOT
ATOM      1  C   UNL     1      39.845   3.364  -7.257  1.00  0.00     0.004 C 
ENDROOT
BRANCH   1   2
ATOM      2  C   UNL     1      40.181   2.387  -8.395  1.00  0.00     0.000 C 
BRANCH   2   3
ATOM      3  C   UNL     1      41.520   2.730  -9.082  1.00  0.00     0.000 C 
BRANCH   3   4
ATOM      4  C   UNL     1      42.534   3.414  -8.149  1.00  0.00     0.000 C 
BRANCH   4   5
ATOM      5  C   UNL     1      43.521   2.423  -7.510  1.00  0.00     0.006 C 
BRANCH   5   6
ATOM      6  C   UNL     1      43.408   2.398  -5.980  1.00  0.00     0.053 C 
BRANCH   6   7
ATOM      7  C   UNL     1      42.555   1.260  -5.504  1.00  0.00     0.041 C 
ATOM      8  O   UNL     1      42.810   0.082  -5.864  1.00  0.00    -0.550 OA
ATOM      9  O   UNL     1      41.461   1.509  -4.685  1.00  0.00    -0.550 OA
ENDBRANCH   6   7
ENDBRANCH   5   6
ENDBRANCH   4   5
ENDBRANCH   3   4
ENDBRANCH   2   3
ENDBRANCH   1   2
BRANCH   1  10
ATOM     10  C   UNL     1      38.635   4.247  -7.590  1.00  0.00     0.027 C 
BRANCH  10  11
ATOM     11  C   UNL     1      38.968   5.714  -7.442  1.00  0.00    -0.031 C 
ATOM     12  C   UNL     1      39.590   6.465  -8.371  1.00  0.00    -0.031 C 
BRANCH  12  13
ATOM     13  C   UNL     1      40.104   5.951  -9.690  1.00  0.00     0.027 C 
BRANCH  13  14
ATOM     14  C   UNL     1      38.987   5.912 -10.741  1.00  0.00     0.004 C 
BRANCH  14  15
ATOM     15  C   UNL     1      38.962   4.562 -11.466  1.00  0.00     0.000 C 
BRANCH  15  16
ATOM     16  C   UNL     1      37.521   4.065 -11.653  1.00  0.00    -0.000 C 
BRANCH  16  17
ATOM     17  C   UNL     1      37.107   3.038 -10.588  1.00  0.00    -0.003 C 
ATOM     18  C   UNL     1      35.594   2.978 -10.381  1.00  0.00     0.004 C 
ENDBRANCH  16  17
ENDBRANCH  15  16
ENDBRANCH  14  15
ENDBRANCH  13  14
ENDBRANCH  12  13
ENDBRANCH  10  11
ENDBRANCH   1  10
TORSDOF 13
ENDMDL
MODEL 2
REMARK VINA RESULT:    -4.323     11.192     13.575
REMARK INTER + INTRA:          -9.701
REMARK INTER:                  -8.453
REMARK INTRA:                  -1.249
REMARK UNBOUND:                -2.093
REMARK SMILES CCCCCCC=CCCCCCCCC(=O)[O-]
REMARK SMILES IDX 10 1 11 2 12 3 13 4 14 5 15 6 16 7 17 8 18 9 9 10 8 11 7 12
REMARK SMILES IDX 6 13 5 14 4 15 3 16 2 17 1 18
REMARK H PARENT
REMARK Flexibility Score: inf
ROOT
ATOM      1  C   UNL     1      38.978   8.166   4.417  1.00  0.00     0.004 C 
ENDROOT
BRANCH   1   2
ATOM      2  C   UNL     1      37.915   7.124   4.035  1.00  0.00     0.000 C 
BRANCH   2   3
ATOM      3  C   UNL     1      36.492   7.721   4.022  1.00  0.00     0.000 C 
BRANCH   3   4
ATOM      4  C   UNL     1      36.361   9.024   4.828  1.00  0.00     0.000 C 
BRANCH   4   5
ATOM      5  C   UNL     1      35.277   9.963   4.273  1.00  0.00     0.006 C 
BRANCH   5   6
ATOM      6  C   UNL     1      34.513   9.338   3.100  1.00  0.00     0.053 C 
BRANCH   6   7
ATOM      7  C   UNL     1      34.145  10.361   2.067  1.00  0.00     0.041 C 
ATOM      8  O   UNL     1      34.869  11.376   1.893  1.00  0.00    -0.550 OA
ATOM      9  O   UNL     1      32.985  10.205   1.319  1.00  0.00    -0.550 OA
ENDBRANCH   6   7
ENDBRANCH   5   6
ENDBRANCH   4   5
ENDBRANCH   3   4
ENDBRANCH   2   3
ENDBRANCH   1   2
BRANCH   1  10
ATOM     10  C   UNL     1      40.300   7.944   3.670  1.00  0.00     0.027 C 
BRANCH  10  11
ATOM     11  C   UNL     1      40.152   6.900   2.588  1.00  0.00    -0.031 C 
ATOM     12  C   UNL     1      40.683   6.983   1.354  1.00  0.00    -0.031 C 
BRANCH  12  13
ATOM     13  C   UNL     1      41.470   8.156   0.832  1.00  0.00     0.027 C 
BRANCH  13  14
ATOM     14  C   UNL     1      41.015   8.542  -0.581  1.00  0.00     0.004 C 
BRANCH  14  15
ATOM     15  C   UNL     1      41.511   9.943  -0.954  1.00  0.00     0.000 C 
BRANCH  15  16
ATOM     16  C   UNL     1      40.682  11.026  -0.248  1.00  0.00    -0.000 C 
BRANCH  16  17
ATOM     17  C   UNL     1      41.501  11.819   0.781  1.00  0.00    -0.003 C 
ATOM     18  C   UNL     1      41.087  11.521   2.222  1.00  0.00     0.004 C 
ENDBRANCH  16  17
ENDBRANCH  15  16
ENDBRANCH  14  15
ENDBRANCH  13  14
ENDBRANCH  12  13
ENDBRANCH  10  11
ENDBRANCH   1  10
TORSDOF 13
ENDMDL
MODEL 3
REMARK VINA RESULT:    -4.251      2.643      6.186
REMARK INTER + INTRA:          -9.574
REMARK INTER:                  -7.628
REMARK INTRA:                  -1.947
REMARK UNBOUND:                -2.093
REMARK SMILES CCCCCCC=CCCCCCCCC(=O)[O-]
REMARK SMILES IDX 10 1 11 2 12 3 13 4 14 5 15 6 16 7 17 8 18 9 9 10 8 11 7 12
REMARK SMILES IDX 6 13 5 14 4 15 3 16 2 17 1 18
REMARK H PARENT
REMARK Flexibility Score: inf
ROOT
ATOM      1  C   UNL     1      38.681   4.890  -8.020  1.00  0.00     0.004 C 
ENDROOT
BRANCH   1   2
ATOM      2  C   UNL     1      39.383   5.795  -9.046  1.00  0.00     0.000 C 
BRANCH   2   3
ATOM      3  C   UNL     1      38.801   5.627 -10.465  1.00  0.00     0.000 C 
BRANCH   3   4
ATOM      4  C   UNL     1      39.472   4.508 -11.280  1.00  0.00     0.000 C 
BRANCH   4   5
ATOM      5  C   UNL     1      38.466   3.484 -11.831  1.00  0.00     0.006 C 
BRANCH   5   6
ATOM      6  C   UNL     1      37.017   3.856 -11.493  1.00  0.00     0.053 C 
BRANCH   6   7
ATOM      7  C   UNL     1      36.458   2.986 -10.407  1.00  0.00     0.041 C 
ATOM      8  O   UNL     1      37.210   2.201  -9.773  1.00  0.00    -0.550 OA
ATOM      9  O   UNL     1      35.100   3.024 -10.118  1.00  0.00    -0.550 OA
ENDBRANCH   6   7
ENDBRANCH   5   6
ENDBRANCH   4   5
ENDBRANCH   3   4
ENDBRANCH   2   3
ENDBRANCH   1   2
BRANCH   1  10
ATOM     10  C   UNL     1      39.678   4.047  -7.214  1.00  0.00     0.027 C 
BRANCH  10  11
ATOM     11  C   UNL     1      39.831   2.664  -7.803  1.00  0.00    -0.031 C 
ATOM     12  C   UNL     1      40.841   2.267  -8.599  1.00  0.00    -0.031 C 
BRANCH  12  13
ATOM     13  C   UNL     1      41.960   3.155  -9.077  1.00  0.00     0.027 C 
BRANCH  13  14
ATOM     14  C   UNL     1      42.853   3.594  -7.910  1.00  0.00     0.004 C 
BRANCH  14  15
ATOM     15  C   UNL     1      43.534   2.386  -7.256  1.00  0.00     0.000 C 
BRANCH  15  16
ATOM     16  C   UNL     1      43.252   2.347  -5.746  1.00  0.00    -0.000 C 
BRANCH  16  17
ATOM     17  C   UNL     1      42.605   1.028  -5.301  1.00  0.00    -0.003 C 
ATOM     18  C   UNL     1      42.926  -0.135  -6.240  1.00  0.00     0.004 C 
ENDBRANCH  16  17
ENDBRANCH  15  16
ENDBRANCH  14  15
ENDBRANCH  13  14
ENDBRANCH  12  13
ENDBRANCH  10  11
ENDBRANCH   1  10
TORSDOF 13
ENDMDL
MODEL 4
REMARK VINA RESULT:    -4.189      1.536      3.526
REMARK INTER + INTRA:          -9.466
REMARK INTER:                  -7.023
REMARK INTRA:                  -2.443
REMARK UNBOUND:                -2.093
REMARK SMILES CCCCCCC=CCCCCCCCC(=O)[O-]
REMARK SMILES IDX 10 1 11 2 12 3 13 4 14 5 15 6 16 7 17 8 18 9 9 10 8 11 7 12
REMARK SMILES IDX 6 13 5 14 4 15 3 16 2 17 1 18
REMARK H PARENT
REMARK Flexibility Score: inf
ROOT
ATOM      1  C   UNL     1      41.188   3.497 -11.636  1.00  0.00     0.004 C 
ENDROOT
BRANCH   1   2
ATOM      2  C   UNL     1      42.148   3.921 -10.512  1.00  0.00     0.000 C 
BRANCH   2   3
ATOM      3  C   UNL     1      43.245   2.867 -10.254  1.00  0.00     0.000 C 
BRANCH   3   4
ATOM      4  C   UNL     1      43.654   2.749  -8.776  1.00  0.00     0.000 C 
BRANCH   4   5
ATOM      5  C   UNL     1      42.598   3.326  -7.817  1.00  0.00     0.006 C 
BRANCH   5   6
ATOM      6  C   UNL     1      41.965   2.245  -6.933  1.00  0.00     0.053 C 
BRANCH   6   7
ATOM      7  C   UNL     1      42.897   1.799  -5.846  1.00  0.00     0.041 C 
ATOM      8  O   UNL     1      43.750   2.596  -5.375  1.00  0.00    -0.550 OA
ATOM      9  O   UNL     1      42.840   0.494  -5.374  1.00  0.00    -0.550 OA
ENDBRANCH   6   7
ENDBRANCH   5   6
ENDBRANCH   4   5
ENDBRANCH   3   4
ENDBRANCH   2   3
ENDBRANCH   1   2
BRANCH   1  10
ATOM     10  C   UNL     1      39.731   3.433 -11.159  1.00  0.00     0.027 C 
BRANCH  10  11
ATOM     11  C   UNL     1      39.552   2.393 -10.077  1.00  0.00    -0.031 C 
ATOM     12  C   UNL     1      38.877   2.579  -8.928  1.00  0.00    -0.031 C 
BRANCH  12  13
ATOM     13  C   UNL     1      38.232   3.874  -8.507  1.00  0.00     0.027 C 
BRANCH  13  14
ATOM     14  C   UNL     1      38.966   4.493  -7.311  1.00  0.00     0.004 C 
BRANCH  14  15
ATOM     15  C   UNL     1      39.236   5.984  -7.544  1.00  0.00     0.000 C 
BRANCH  15  16
ATOM     16  C   UNL     1      40.296   6.186  -8.637  1.00  0.00    -0.000 C 
BRANCH  16  17
ATOM     17  C   UNL     1      39.997   7.396  -9.534  1.00  0.00    -0.003 C 
ATOM     18  C   UNL     1      39.343   7.002 -10.858  1.00  0.00     0.004 C 
ENDBRANCH  16  17
ENDBRANCH  15  16
ENDBRANCH  14  15
ENDBRANCH  13  14
ENDBRANCH  12  13
ENDBRANCH  10  11
ENDBRANCH   1  10
TORSDOF 13
ENDMDL
MODEL 5
REMARK VINA RESULT:    -4.160      0.897      2.802
REMARK INTER + INTRA:          -9.414
REMARK INTER:                  -7.331
REMARK INTRA:                  -2.083
REMARK UNBOUND:                -2.093
REMARK SMILES CCCCCCC=CCCCCCCCC(=O)[O-]
REMARK SMILES IDX 10 1 11 2 12 3 13 4 14 5 15 6 16 7 17 8 18 9 9 10 8 11 7 12
REMARK SMILES IDX 6 13 5 14 4 15 3 16 2 17 1 18
REMARK H PARENT
REMARK Flexibility Score: inf
ROOT
ATOM      1  C   UNL     1      38.880   1.490  -8.963  1.00  0.00     0.004 C 
ENDROOT
BRANCH   1   2
ATOM      2  C   UNL     1      40.124   2.115  -8.310  1.00  0.00     0.000 C 
BRANCH   2   3
ATOM      3  C   UNL     1      41.098   2.699  -9.354  1.00  0.00     0.000 C 
BRANCH   3   4
ATOM      4  C   UNL     1      42.546   2.821  -8.848  1.00  0.00     0.000 C 
BRANCH   4   5
ATOM      5  C   UNL     1      42.630   3.059  -7.331  1.00  0.00     0.006 C 
BRANCH   5   6
ATOM      6  C   UNL     1      43.467   1.988  -6.621  1.00  0.00     0.053 C 
BRANCH   6   7
ATOM      7  C   UNL     1      42.686   1.291  -5.548  1.00  0.00     0.041 C 
ATOM      8  O   UNL     1      43.054   0.163  -5.127  1.00  0.00    -0.550 OA
ATOM      9  O   UNL     1      41.535   1.875  -5.037  1.00  0.00    -0.550 OA
ENDBRANCH   6   7
ENDBRANCH   5   6
ENDBRANCH   4   5
ENDBRANCH   3   4
ENDBRANCH   2   3
ENDBRANCH   1   2
BRANCH   1  10
ATOM     10  C   UNL     1      38.575   2.105 -10.335  1.00  0.00     0.027 C 
BRANCH  10  11
ATOM     11  C   UNL     1      37.248   2.828 -10.331  1.00  0.00    -0.031 C 
ATOM     12  C   UNL     1      36.939   3.886 -11.103  1.00  0.00    -0.031 C 
BRANCH  12  13
ATOM     13  C   UNL     1      37.887   4.557 -12.063  1.00  0.00     0.027 C 
BRANCH  13  14
ATOM     14  C   UNL     1      38.398   5.887 -11.494  1.00  0.00     0.004 C 
BRANCH  14  15
ATOM     15  C   UNL     1      39.717   5.689 -10.737  1.00  0.00     0.000 C 
BRANCH  15  16
ATOM     16  C   UNL     1      39.874   6.735  -9.624  1.00  0.00    -0.000 C 
BRANCH  16  17
ATOM     17  C   UNL     1      39.957   6.103  -8.227  1.00  0.00    -0.003 C 
ATOM     18  C   UNL     1      38.688   5.341  -7.847  1.00  0.00     0.004 C 
ENDBRANCH  16  17
ENDBRANCH  15  16
ENDBRANCH  14  15
ENDBRANCH  13  14
ENDBRANCH  12  13
ENDBRANCH  10  11
ENDBRANCH   1  10
TORSDOF 13
ENDMDL
MODEL 6
REMARK VINA RESULT:    -4.139     13.735     16.138
REMARK INTER + INTRA:          -9.378
REMARK INTER:                  -7.200
REMARK INTRA:                  -2.178
REMARK UNBOUND:                -2.093
REMARK SMILES CCCCCCC=CCCCCCCCC(=O)[O-]
REMARK SMILES IDX 10 1 11 2 12 3 13 4 14 5 15 6 16 7 17 8 18 9 9 10 8 11 7 12
REMARK SMILES IDX 6 13 5 14 4 15 3 16 2 17 1 18
REMARK H PARENT
REMARK Flexibility Score: inf
ROOT
ATOM      1  C   UNL     1      37.706   8.379   6.135  1.00  0.00     0.004 C 
ENDROOT
BRANCH   1   2
ATOM      2  C   UNL     1      37.313   9.808   6.546  1.00  0.00     0.000 C 
BRANCH   2   3
ATOM      3  C   UNL     1      35.851  10.139   6.178  1.00  0.00     0.000 C 
BRANCH   3   4
ATOM      4  C   UNL     1      35.717  11.248   5.121  1.00  0.00     0.000 C 
BRANCH   4   5
ATOM      5  C   UNL     1      35.179  10.729   3.776  1.00  0.00     0.006 C 
BRANCH   5   6
ATOM      6  C   UNL     1      33.981  11.546   3.277  1.00  0.00     0.053 C 
BRANCH   6   7
ATOM      7  C   UNL     1      33.080  10.732   2.398  1.00  0.00     0.041 C 
ATOM      8  O   UNL     1      31.832  10.779   2.553  1.00  0.00    -0.550 OA
ATOM      9  O   UNL     1      33.623   9.900   1.427  1.00  0.00    -0.550 OA
ENDBRANCH   6   7
ENDBRANCH   5   6
ENDBRANCH   4   5
ENDBRANCH   3   4
ENDBRANCH   2   3
ENDBRANCH   1   2
BRANCH   1  10
ATOM     10  C   UNL     1      37.980   8.266   4.629  1.00  0.00     0.027 C 
BRANCH  10  11
ATOM     11  C   UNL     1      37.679   6.875   4.119  1.00  0.00    -0.031 C 
ATOM     12  C   UNL     1      36.448   6.388   3.879  1.00  0.00    -0.031 C 
BRANCH  12  13
ATOM     13  C   UNL     1      35.163   7.132   4.131  1.00  0.00     0.027 C 
BRANCH  13  14
ATOM     14  C   UNL     1      34.259   6.361   5.101  1.00  0.00     0.004 C 
BRANCH  14  15
ATOM     15  C   UNL     1      34.025   7.161   6.387  1.00  0.00     0.000 C 
BRANCH  15  16
ATOM     16  C   UNL     1      34.565   6.405   7.610  1.00  0.00    -0.000 C 
BRANCH  16  17
ATOM     17  C   UNL     1      35.326   5.128   7.227  1.00  0.00    -0.003 C 
ATOM     18  C   UNL     1      36.762   5.115   7.750  1.00  0.00     0.004 C 
ENDBRANCH  16  17
ENDBRANCH  15  16
ENDBRANCH  14  15
ENDBRANCH  13  14
ENDBRANCH  12  13
ENDBRANCH  10  11
ENDBRANCH   1  10
TORSDOF 13
ENDMDL
MODEL 7
REMARK VINA RESULT:    -4.086     13.481     15.816
REMARK INTER + INTRA:          -9.285
REMARK INTER:                  -6.998
REMARK INTRA:                  -2.287
REMARK UNBOUND:                -2.093
REMARK SMILES CCCCCCC=CCCCCCCCC(=O)[O-]
REMARK SMILES IDX 10 1 11 2 12 3 13 4 14 5 15 6 16 7 17 8 18 9 9 10 8 11 7 12
REMARK SMILES IDX 6 13 5 14 4 15 3 16 2 17 1 18
REMARK H PARENT
REMARK Flexibility Score: inf
ROOT
ATOM      1  C   UNL     1      37.006   9.463   6.788  1.00  0.00     0.004 C 
ENDROOT
BRANCH   1   2
ATOM      2  C   UNL     1      37.360  10.765   6.050  1.00  0.00     0.000 C 
BRANCH   2   3
ATOM      3  C   UNL     1      36.387  11.060   4.890  1.00  0.00     0.000 C 
BRANCH   3   4
ATOM      4  C   UNL     1      35.022  11.601   5.350  1.00  0.00     0.000 C 
BRANCH   4   5
ATOM      5  C   UNL     1      34.038  11.807   4.187  1.00  0.00     0.006 C 
BRANCH   5   6
ATOM      6  C   UNL     1      34.548  11.189   2.879  1.00  0.00     0.053 C 
BRANCH   6   7
ATOM      7  C   UNL     1      33.450  10.500   2.124  1.00  0.00     0.041 C 
ATOM      8  O   UNL     1      33.727   9.643   1.245  1.00  0.00    -0.550 OA
ATOM      9  O   UNL     1      32.124  10.828   2.374  1.00  0.00    -0.550 OA
ENDBRANCH   6   7
ENDBRANCH   5   6
ENDBRANCH   4   5
ENDBRANCH   3   4
ENDBRANCH   2   3
ENDBRANCH   1   2
BRANCH   1  10
ATOM     10  C   UNL     1      38.170   8.464   6.789  1.00  0.00     0.027 C 
BRANCH  10  11
ATOM     11  C   UNL     1      38.862   8.425   5.446  1.00  0.00    -0.031 C 
ATOM     12  C   UNL     1      38.538   7.604   4.430  1.00  0.00    -0.031 C 
BRANCH  12  13
ATOM     13  C   UNL     1      37.462   6.550   4.485  1.00  0.00     0.027 C 
BRANCH  13  14
ATOM     14  C   UNL     1      36.402   6.787   3.401  1.00  0.00     0.004 C 
BRANCH  14  15
ATOM     15  C   UNL     1      35.327   7.765   3.889  1.00  0.00     0.000 C 
BRANCH  15  16
ATOM     16  C   UNL     1      34.220   7.026   4.655  1.00  0.00    -0.000 C 
BRANCH  16  17
ATOM     17  C   UNL     1      34.077   7.516   6.104  1.00  0.00    -0.003 C 
ATOM     18  C   UNL     1      34.740   6.579   7.113  1.00  0.00     0.004 C 
ENDBRANCH  16  17
ENDBRANCH  15  16
ENDBRANCH  14  15
ENDBRANCH  13  14
ENDBRANCH  12  13
ENDBRANCH  10  11
ENDBRANCH   1  10
TORSDOF 13
ENDMDL
MODEL 8
REMARK VINA RESULT:    -4.041      1.283      2.886
REMARK INTER + INTRA:          -9.205
REMARK INTER:                  -6.798
REMARK INTRA:                  -2.407
REMARK UNBOUND:                -2.093
REMARK SMILES CCCCCCC=CCCCCCCCC(=O)[O-]
REMARK SMILES IDX 10 1 11 2 12 3 13 4 14 5 15 6 16 7 17 8 18 9 9 10 8 11 7 12
REMARK SMILES IDX 6 13 5 14 4 15 3 16 2 17 1 18
REMARK H PARENT
REMARK Flexibility Score: inf
ROOT
ATOM      1  C   UNL     1      41.280   5.962  -9.016  1.00  0.00     0.004 C 
ENDROOT
BRANCH   1   2
ATOM      2  C   UNL     1      42.634   5.285  -8.746  1.00  0.00     0.000 C 
BRANCH   2   3
ATOM      3  C   UNL     1      42.862   4.057  -9.652  1.00  0.00     0.000 C 
BRANCH   3   4
ATOM      4  C   UNL     1      43.188   2.769  -8.876  1.00  0.00     0.000 C 
BRANCH   4   5
ATOM      5  C   UNL     1      43.063   2.942  -7.353  1.00  0.00     0.006 C 
BRANCH   5   6
ATOM      6  C   UNL     1      43.786   1.830  -6.582  1.00  0.00     0.053 C 
BRANCH   6   7
ATOM      7  C   UNL     1      42.823   0.943  -5.851  1.00  0.00     0.041 C 
ATOM      8  O   UNL     1      42.836  -0.301  -6.044  1.00  0.00    -0.550 OA
ATOM      9  O   UNL     1      41.894   1.496  -4.980  1.00  0.00    -0.550 OA
ENDBRANCH   6   7
ENDBRANCH   5   6
ENDBRANCH   4   5
ENDBRANCH   3   4
ENDBRANCH   2   3
ENDBRANCH   1   2
BRANCH   1  10
ATOM     10  C   UNL     1      40.908   5.938 -10.504  1.00  0.00     0.027 C 
BRANCH  10  11
ATOM     11  C   UNL     1      39.419   6.106 -10.701  1.00  0.00    -0.031 C 
ATOM     12  C   UNL     1      38.600   5.185 -11.243  1.00  0.00    -0.031 C 
BRANCH  12  13
ATOM     13  C   UNL     1      39.044   3.854 -11.791  1.00  0.00     0.027 C 
BRANCH  13  14
ATOM     14  C   UNL     1      38.582   2.703 -10.888  1.00  0.00     0.004 C 
BRANCH  14  15
ATOM     15  C   UNL     1      39.715   2.243  -9.964  1.00  0.00     0.000 C 
BRANCH  15  16
ATOM     16  C   UNL     1      39.193   1.980  -8.544  1.00  0.00    -0.000 C 
BRANCH  16  17
ATOM     17  C   UNL     1      39.512   3.129  -7.575  1.00  0.00    -0.003 C 
ATOM     18  C   UNL     1      38.458   4.235  -7.604  1.00  0.00     0.004 C 
ENDBRANCH  16  17
ENDBRANCH  15  16
ENDBRANCH  14  15
ENDBRANCH  13  14
ENDBRANCH  12  13
ENDBRANCH  10  11
ENDBRANCH   1  10
TORSDOF 13
ENDMDL
MODEL 9
REMARK VINA RESULT:    -3.987      3.117      5.580
REMARK INTER + INTRA:          -9.109
REMARK INTER:                  -6.790
REMARK INTRA:                  -2.319
REMARK UNBOUND:                -2.093
REMARK SMILES CCCCCCC=CCCCCCCCC(=O)[O-]
REMARK SMILES IDX 10 1 11 2 12 3 13 4 14 5 15 6 16 7 17 8 18 9 9 10 8 11 7 12
REMARK SMILES IDX 6 13 5 14 4 15 3 16 2 17 1 18
REMARK H PARENT
REMARK Flexibility Score: inf
ROOT
ATOM      1  C   UNL     1      38.501   4.585  -7.657  1.00  0.00     0.004 C 
ENDROOT
BRANCH   1   2
ATOM      2  C   UNL     1      39.416   3.349  -7.685  1.00  0.00     0.000 C 
BRANCH   2   3
ATOM      3  C   UNL     1      38.872   2.242  -8.612  1.00  0.00     0.000 C 
BRANCH   3   4
ATOM      4  C   UNL     1      39.729   2.011  -9.868  1.00  0.00     0.000 C 
BRANCH   4   5
ATOM      5  C   UNL     1      39.246   2.826 -11.079  1.00  0.00     0.006 C 
BRANCH   5   6
ATOM      6  C   UNL     1      37.861   2.380 -11.563  1.00  0.00     0.053 C 
BRANCH   6   7
ATOM      7  C   UNL     1      36.816   3.422 -11.297  1.00  0.00     0.041 C 
ATOM      8  O   UNL     1      36.956   4.590 -11.744  1.00  0.00    -0.550 OA
ATOM      9  O   UNL     1      35.703   3.107 -10.528  1.00  0.00    -0.550 OA
ENDBRANCH   6   7
ENDBRANCH   5   6
ENDBRANCH   4   5
ENDBRANCH   3   4
ENDBRANCH   2   3
ENDBRANCH   1   2
BRANCH   1  10
ATOM     10  C   UNL     1      39.257   5.872  -8.010  1.00  0.00     0.027 C 
BRANCH  10  11
ATOM     11  C   UNL     1      39.771   5.836  -9.431  1.00  0.00    -0.031 C 
ATOM     12  C   UNL     1      41.044   6.071  -9.800  1.00  0.00    -0.031 C 
BRANCH  12  13
ATOM     13  C   UNL     1      42.156   6.461  -8.861  1.00  0.00     0.027 C 
BRANCH  13  14
ATOM     14  C   UNL     1      42.897   5.223  -8.339  1.00  0.00     0.004 C 
BRANCH  14  15
ATOM     15  C   UNL     1      42.757   4.049  -9.315  1.00  0.00     0.000 C 
BRANCH  15  16
ATOM     16  C   UNL     1      43.091   2.718  -8.624  1.00  0.00    -0.000 C 
BRANCH  16  17
ATOM     17  C   UNL     1      42.903   2.780  -7.101  1.00  0.00    -0.003 C 
ATOM     18  C   UNL     1      42.516   1.430  -6.498  1.00  0.00     0.004 C 
ENDBRANCH  16  17
ENDBRANCH  15  16
ENDBRANCH  14  15
ENDBRANCH  13  14
ENDBRANCH  12  13
ENDBRANCH  10  11
ENDBRANCH   1  10
TORSDOF 13
ENDMDL
