MODEL 1
REMARK VINA RESULT:    -2.702      0.000      0.000
REMARK INTER + INTRA:          -6.889
REMARK INTER:                  -5.071
REMARK INTRA:                  -1.818
REMARK UNBOUND:                -1.818
REMARK SMILES O=C([O-])CCCCCCCCCCCCCCC(=O)[O-]
REMARK SMILES IDX 10 1 9 2 8 3 7 4 6 5 5 6 4 7 2 8 1 9 3 10 11 11 12 12 13 13
REMARK SMILES IDX 14 14 15 15 16 16 17 17 18 18 19 19 20 20
REMARK H PARENT
REMARK Flexibility Score: inf
ROOT
ATOM      1  C   UNL     1     -15.038 -12.732  19.488  1.00  0.00     0.000 C 
ENDROOT
BRANCH   1   2
ATOM      2  C   UNL     1     -15.121 -13.319  20.910  1.00  0.00     0.000 C 
BRANCH   2   3
ATOM      3  C   UNL     1     -14.024 -12.786  21.841  1.00  0.00     0.000 C 
BRANCH   3   4
ATOM      4  C   UNL     1     -12.876 -13.799  21.972  1.00  0.00     0.000 C 
BRANCH   4   5
ATOM      5  C   UNL     1     -11.986 -13.849  20.720  1.00  0.00     0.000 C 
BRANCH   5   6
ATOM      6  C   UNL     1     -11.643 -12.452  20.182  1.00  0.00     0.006 C 
BRANCH   6   7
ATOM      7  C   UNL     1     -10.654 -12.543  19.016  1.00  0.00     0.053 C 
BRANCH   7   8
ATOM      8  C   UNL     1     -11.362 -12.358  17.712  1.00  0.00     0.041 C 
ATOM      9  O   UNL     1     -11.266 -13.233  16.809  1.00  0.00    -0.550 OA
ATOM     10  O   UNL     1     -12.087 -11.197  17.473  1.00  0.00    -0.550 OA
ENDBRANCH   7   8
ENDBRANCH   6   7
ENDBRANCH   5   6
ENDBRANCH   4   5
ENDBRANCH   3   4
ENDBRANCH   2   3
ENDBRANCH   1   2
BRANCH   1  11
ATOM     11  C   UNL     1     -14.713 -13.755  18.380  1.00  0.00     0.000 C 
BRANCH  11  12
ATOM     12  C   UNL     1     -15.023 -15.223  18.736  1.00  0.00     0.000 C 
BRANCH  12  13
ATOM     13  C   UNL     1     -13.787 -16.131  18.896  1.00  0.00     0.000 C 
BRANCH  13  14
ATOM     14  C   UNL     1     -13.592 -16.726  20.303  1.00  0.00     0.000 C 
BRANCH  14  15
ATOM     15  C   UNL     1     -14.435 -17.990  20.539  1.00  0.00     0.000 C 
BRANCH  15  16
ATOM     16  C   UNL     1     -15.011 -18.061  21.962  1.00  0.00     0.006 C 
BRANCH  16  17
ATOM     17  C   UNL     1     -15.125 -16.681  22.626  1.00  0.00     0.053 C 
BRANCH  17  18
ATOM     18  C   UNL     1     -14.474 -16.694  23.973  1.00  0.00     0.041 C 
ATOM     19  O   UNL     1     -14.348 -15.625  24.626  1.00  0.00    -0.550 OA
ATOM     20  O   UNL     1     -13.965 -17.880  24.488  1.00  0.00    -0.550 OA
ENDBRANCH  17  18
ENDBRANCH  16  17
ENDBRANCH  15  16
ENDBRANCH  14  15
ENDBRANCH  13  14
ENDBRANCH  12  13
ENDBRANCH  11  12
ENDBRANCH   1  11
TORSDOF 15
ENDMDL
MODEL 2
REMARK VINA RESULT:    -2.702      1.254      6.403
REMARK INTER + INTRA:          -6.889
REMARK INTER:                  -5.960
REMARK INTRA:                  -0.928
REMARK UNBOUND:                -1.818
REMARK SMILES O=C([O-])CCCCCCCCCCCCCCC(=O)[O-]
REMARK SMILES IDX 10 1 9 2 8 3 7 4 6 5 5 6 4 7 2 8 1 9 3 10 11 11 12 12 13 13
REMARK SMILES IDX 14 14 15 15 16 16 17 17 18 18 19 19 20 20
REMARK H PARENT
REMARK Flexibility Score: inf
ROOT
ATOM      1  C   UNL     1     -14.901 -15.362  18.628  1.00  0.00     0.000 C 
ENDROOT
BRANCH   1   2
ATOM      2  C   UNL     1     -13.670 -16.227  18.956  1.00  0.00     0.000 C 
BRANCH   2   3
ATOM      3  C   UNL     1     -14.020 -17.482  19.768  1.00  0.00     0.000 C 
BRANCH   3   4
ATOM      4  C   UNL     1     -14.951 -17.136  20.939  1.00  0.00     0.000 C 
BRANCH   4   5
ATOM      5  C   UNL     1     -14.818 -18.121  22.111  1.00  0.00     0.000 C 
BRANCH   5   6
ATOM      6  C   UNL     1     -14.793 -17.417  23.476  1.00  0.00     0.006 C 
BRANCH   6   7
ATOM      7  C   UNL     1     -15.125 -15.929  23.330  1.00  0.00     0.053 C 
BRANCH   7   8
ATOM      8  C   UNL     1     -14.020 -15.088  23.887  1.00  0.00     0.041 C 
ATOM      9  O   UNL     1     -12.824 -15.320  23.566  1.00  0.00    -0.550 OA
ATOM     10  O   UNL     1     -14.307 -14.079  24.799  1.00  0.00    -0.550 OA
ENDBRANCH   7   8
ENDBRANCH   6   7
ENDBRANCH   5   6
ENDBRANCH   4   5
ENDBRANCH   3   4
ENDBRANCH   2   3
ENDBRANCH   1   2
BRANCH   1  11
ATOM     11  C   UNL     1     -14.747 -13.861  18.950  1.00  0.00     0.000 C 
BRANCH  11  12
ATOM     12  C   UNL     1     -14.786 -13.508  20.450  1.00  0.00     0.000 C 
BRANCH  12  13
ATOM     13  C   UNL     1     -13.419 -13.174  21.079  1.00  0.00     0.000 C 
BRANCH  13  14
ATOM     14  C   UNL     1     -12.214 -13.891  20.442  1.00  0.00     0.000 C 
BRANCH  14  15
ATOM     15  C   UNL     1     -11.366 -12.960  19.559  1.00  0.00     0.000 C 
BRANCH  15  16
ATOM     16  C   UNL     1     -11.311 -13.423  18.094  1.00  0.00     0.006 C 
BRANCH  16  17
ATOM     17  C   UNL     1     -10.948 -12.288  17.126  1.00  0.00     0.053 C 
BRANCH  17  18
ATOM     18  C   UNL     1     -11.841 -11.108  17.346  1.00  0.00     0.041 C 
ATOM     19  O   UNL     1     -12.952 -11.253  17.921  1.00  0.00    -0.550 OA
ATOM     20  O   UNL     1     -11.468  -9.856  16.875  1.00  0.00    -0.550 OA
ENDBRANCH  17  18
ENDBRANCH  16  17
ENDBRANCH  15  16
ENDBRANCH  14  15
ENDBRANCH  13  14
ENDBRANCH  12  13
ENDBRANCH  11  12
ENDBRANCH   1  11
TORSDOF 15
ENDMDL
MODEL 3
REMARK VINA RESULT:    -2.317      1.563      2.781
REMARK INTER + INTRA:          -6.167
REMARK INTER:                  -5.178
REMARK INTRA:                  -0.989
REMARK UNBOUND:                -1.818
REMARK SMILES O=C([O-])CCCCCCCCCCCCCCC(=O)[O-]
REMARK SMILES IDX 10 1 9 2 8 3 7 4 6 5 5 6 4 7 2 8 1 9 3 10 11 11 12 12 13 13
REMARK SMILES IDX 14 14 15 15 16 16 17 17 18 18 19 19 20 20
REMARK H PARENT
REMARK Flexibility Score: inf
ROOT
ATOM      1  C   UNL     1     -14.991 -15.925  19.236  1.00  0.00     0.000 C 
ENDROOT
BRANCH   1   2
ATOM      2  C   UNL     1     -14.690 -14.787  20.230  1.00  0.00     0.000 C 
BRANCH   2   3
ATOM      3  C   UNL     1     -14.704 -13.400  19.573  1.00  0.00     0.000 C 
BRANCH   3   4
ATOM      4  C   UNL     1     -13.619 -12.496  20.177  1.00  0.00     0.000 C 
BRANCH   4   5
ATOM      5  C   UNL     1     -12.205 -13.070  19.998  1.00  0.00     0.000 C 
BRANCH   5   6
ATOM      6  C   UNL     1     -11.862 -13.350  18.527  1.00  0.00     0.006 C 
BRANCH   6   7
ATOM      7  C   UNL     1     -10.997 -12.229  17.944  1.00  0.00     0.053 C 
BRANCH   7   8
ATOM      8  C   UNL     1     -11.855 -11.110  17.444  1.00  0.00     0.041 C 
ATOM      9  O   UNL     1     -13.106 -11.251  17.380  1.00  0.00    -0.550 OA
ATOM     10  O   UNL     1     -11.270  -9.930  17.001  1.00  0.00    -0.550 OA
ENDBRANCH   7   8
ENDBRANCH   6   7
ENDBRANCH   5   6
ENDBRANCH   4   5
ENDBRANCH   3   4
ENDBRANCH   2   3
ENDBRANCH   1   2
BRANCH   1  11
ATOM     11  C   UNL     1     -14.053 -17.145  19.341  1.00  0.00     0.000 C 
BRANCH  11  12
ATOM     12  C   UNL     1     -13.870 -17.706  20.765  1.00  0.00     0.000 C 
BRANCH  12  13
ATOM     13  C   UNL     1     -15.115 -17.613  21.670  1.00  0.00     0.000 C 
BRANCH  13  14
ATOM     14  C   UNL     1     -14.917 -18.125  23.108  1.00  0.00     0.000 C 
BRANCH  14  15
ATOM     15  C   UNL     1     -14.941 -16.996  24.153  1.00  0.00     0.000 C 
BRANCH  15  16
ATOM     16  C   UNL     1     -15.045 -15.602  23.515  1.00  0.00     0.006 C 
BRANCH  16  17
ATOM     17  C   UNL     1     -14.271 -14.532  24.297  1.00  0.00     0.053 C 
BRANCH  17  18
ATOM     18  C   UNL     1     -13.042 -14.124  23.548  1.00  0.00     0.041 C 
ATOM     19  O   UNL     1     -12.714 -12.910  23.481  1.00  0.00    -0.550 OA
ATOM     20  O   UNL     1     -12.282 -15.079  22.885  1.00  0.00    -0.550 OA
ENDBRANCH  17  18
ENDBRANCH  16  17
ENDBRANCH  15  16
ENDBRANCH  14  15
ENDBRANCH  13  14
ENDBRANCH  12  13
ENDBRANCH  11  12
ENDBRANCH   1  11
TORSDOF 15
ENDMDL
MODEL 4
REMARK VINA RESULT:    -2.134      2.048      5.669
REMARK INTER + INTRA:          -5.824
REMARK INTER:                  -4.714
REMARK INTRA:                  -1.109
REMARK UNBOUND:                -1.818
REMARK SMILES O=C([O-])CCCCCCCCCCCCCCC(=O)[O-]
REMARK SMILES IDX 10 1 9 2 8 3 7 4 6 5 5 6 4 7 2 8 1 9 3 10 11 11 12 12 13 13
REMARK SMILES IDX 14 14 15 15 16 16 17 17 18 18 19 19 20 20
REMARK H PARENT
REMARK Flexibility Score: inf
ROOT
ATOM      1  C   UNL     1     -11.473 -13.854  19.895  1.00  0.00     0.000 C 
ENDROOT
BRANCH   1   2
ATOM      2  C   UNL     1     -11.907 -13.832  21.373  1.00  0.00     0.000 C 
BRANCH   2   3
ATOM      3  C   UNL     1     -13.024 -12.818  21.654  1.00  0.00     0.000 C 
BRANCH   3   4
ATOM      4  C   UNL     1     -13.868 -13.251  22.862  1.00  0.00     0.000 C 
BRANCH   4   5
ATOM      5  C   UNL     1     -13.743 -14.753  23.162  1.00  0.00     0.000 C 
BRANCH   5   6
ATOM      6  C   UNL     1     -14.058 -15.092  24.626  1.00  0.00     0.006 C 
BRANCH   6   7
ATOM      7  C   UNL     1     -15.063 -16.244  24.717  1.00  0.00     0.053 C 
BRANCH   7   8
ATOM      8  C   UNL     1     -14.564 -17.436  23.963  1.00  0.00     0.041 C 
ATOM      9  O   UNL     1     -13.605 -18.117  24.416  1.00  0.00    -0.550 OA
ATOM     10  O   UNL     1     -15.125 -17.767  22.734  1.00  0.00    -0.550 OA
ENDBRANCH   7   8
ENDBRANCH   6   7
ENDBRANCH   5   6
ENDBRANCH   4   5
ENDBRANCH   3   4
ENDBRANCH   2   3
ENDBRANCH   1   2
BRANCH   1  11
ATOM     11  C   UNL     1     -10.796 -12.561  19.397  1.00  0.00     0.000 C 
BRANCH  11  12
ATOM     12  C   UNL     1     -11.061 -12.215  17.917  1.00  0.00     0.000 C 
BRANCH  12  13
ATOM     13  C   UNL     1     -12.548 -12.068  17.537  1.00  0.00     0.000 C 
BRANCH  13  14
ATOM     14  C   UNL     1     -13.447 -11.470  18.634  1.00  0.00     0.000 C 
BRANCH  14  15
ATOM     15  C   UNL     1     -14.903 -11.958  18.544  1.00  0.00     0.000 C 
BRANCH  15  16
ATOM     16  C   UNL     1     -15.125 -13.293  19.273  1.00  0.00     0.006 C 
BRANCH  16  17
ATOM     17  C   UNL     1     -14.830 -14.510  18.385  1.00  0.00     0.053 C 
BRANCH  17  18
ATOM     18  C   UNL     1     -14.394 -15.672  19.220  1.00  0.00     0.041 C 
ATOM     19  O   UNL     1     -14.961 -15.911  20.319  1.00  0.00    -0.550 OA
ATOM     20  O   UNL     1     -13.332 -16.466  18.807  1.00  0.00    -0.550 OA
ENDBRANCH  17  18
ENDBRANCH  16  17
ENDBRANCH  15  16
ENDBRANCH  14  15
ENDBRANCH  13  14
ENDBRANCH  12  13
ENDBRANCH  11  12
ENDBRANCH   1  11
TORSDOF 15
ENDMDL
MODEL 5
REMARK VINA RESULT:    -1.761      1.925      3.617
REMARK INTER + INTRA:          -5.124
REMARK INTER:                  -4.482
REMARK INTRA:                  -0.642
REMARK UNBOUND:                -1.818
REMARK SMILES O=C([O-])CCCCCCCCCCCCCCC(=O)[O-]
REMARK SMILES IDX 10 1 9 2 8 3 7 4 6 5 5 6 4 7 2 8 1 9 3 10 11 11 12 12 13 13
REMARK SMILES IDX 14 14 15 15 16 16 17 17 18 18 19 19 20 20
REMARK H PARENT
REMARK Flexibility Score: inf
ROOT
ATOM      1  C   UNL     1     -12.838 -13.337  23.178  1.00  0.00     0.000 C 
ENDROOT
BRANCH   1   2
ATOM      2  C   UNL     1     -13.275 -13.591  21.722  1.00  0.00     0.000 C 
BRANCH   2   3
ATOM      3  C   UNL     1     -14.783 -13.406  21.510  1.00  0.00     0.000 C 
BRANCH   3   4
ATOM      4  C   UNL     1     -15.061 -12.295  20.485  1.00  0.00     0.000 C 
BRANCH   4   5
ATOM      5  C   UNL     1     -13.873 -12.054  19.540  1.00  0.00     0.000 C 
BRANCH   5   6
ATOM      6  C   UNL     1     -13.646 -13.218  18.564  1.00  0.00     0.006 C 
BRANCH   6   7
ATOM      7  C   UNL     1     -12.173 -13.313  18.159  1.00  0.00     0.053 C 
BRANCH   7   8
ATOM      8  C   UNL     1     -11.455 -12.043  18.489  1.00  0.00     0.041 C 
ATOM      9  O   UNL     1     -10.890 -11.906  19.607  1.00  0.00    -0.550 OA
ATOM     10  O   UNL     1     -11.451 -10.991  17.581  1.00  0.00    -0.550 OA
ENDBRANCH   7   8
ENDBRANCH   6   7
ENDBRANCH   5   6
ENDBRANCH   4   5
ENDBRANCH   3   4
ENDBRANCH   2   3
ENDBRANCH   1   2
BRANCH   1  11
ATOM     11  C   UNL     1     -13.952 -13.512  24.231  1.00  0.00     0.000 C 
BRANCH  11  12
ATOM     12  C   UNL     1     -14.196 -14.964  24.687  1.00  0.00     0.000 C 
BRANCH  12  13
ATOM     13  C   UNL     1     -13.815 -16.046  23.657  1.00  0.00     0.000 C 
BRANCH  13  14
ATOM     14  C   UNL     1     -14.982 -16.924  23.169  1.00  0.00     0.000 C 
BRANCH  14  15
ATOM     15  C   UNL     1     -14.517 -18.112  22.310  1.00  0.00     0.000 C 
BRANCH  15  16
ATOM     16  C   UNL     1     -15.125 -18.095  20.899  1.00  0.00     0.006 C 
BRANCH  16  17
ATOM     17  C   UNL     1     -14.978 -16.734  20.204  1.00  0.00     0.053 C 
BRANCH  17  18
ATOM     18  C   UNL     1     -13.635 -16.622  19.555  1.00  0.00     0.041 C 
ATOM     19  O   UNL     1     -13.491 -16.916  18.339  1.00  0.00    -0.550 OA
ATOM     20  O   UNL     1     -12.530 -16.235  20.305  1.00  0.00    -0.550 OA
ENDBRANCH  17  18
ENDBRANCH  16  17
ENDBRANCH  15  16
ENDBRANCH  14  15
ENDBRANCH  13  14
ENDBRANCH  12  13
ENDBRANCH  11  12
ENDBRANCH   1  11
TORSDOF 15
ENDMDL
MODEL 6
REMARK VINA RESULT:    -1.583      1.180      6.647
REMARK INTER + INTRA:          -4.789
REMARK INTER:                  -3.980
REMARK INTRA:                  -0.809
REMARK UNBOUND:                -1.818
REMARK SMILES O=C([O-])CCCCCCCCCCCCCCC(=O)[O-]
REMARK SMILES IDX 10 1 9 2 8 3 7 4 6 5 5 6 4 7 2 8 1 9 3 10 11 11 12 12 13 13
REMARK SMILES IDX 14 14 15 15 16 16 17 17 18 18 19 19 20 20
REMARK H PARENT
REMARK Flexibility Score: inf
ROOT
ATOM      1  C   UNL     1     -11.853 -14.149  20.010  1.00  0.00     0.000 C 
ENDROOT
BRANCH   1   2
ATOM      2  C   UNL     1     -12.014 -15.611  19.549  1.00  0.00     0.000 C 
BRANCH   2   3
ATOM      3  C   UNL     1     -13.454 -15.954  19.141  1.00  0.00     0.000 C 
BRANCH   3   4
ATOM      4  C   UNL     1     -13.790 -17.411  19.491  1.00  0.00     0.000 C 
BRANCH   4   5
ATOM      5  C   UNL     1     -15.125 -17.546  20.241  1.00  0.00     0.000 C 
BRANCH   5   6
ATOM      6  C   UNL     1     -14.954 -18.125  21.654  1.00  0.00     0.006 C 
BRANCH   6   7
ATOM      7  C   UNL     1     -14.002 -17.261  22.487  1.00  0.00     0.053 C 
BRANCH   7   8
ATOM      8  C   UNL     1     -14.676 -16.795  23.738  1.00  0.00     0.041 C 
ATOM      9  O   UNL     1     -14.895 -15.567  23.920  1.00  0.00    -0.550 OA
ATOM     10  O   UNL     1     -15.019 -17.711  24.726  1.00  0.00    -0.550 OA
ENDBRANCH   7   8
ENDBRANCH   6   7
ENDBRANCH   5   6
ENDBRANCH   4   5
ENDBRANCH   3   4
ENDBRANCH   2   3
ENDBRANCH   1   2
BRANCH   1  11
ATOM     11  C   UNL     1     -11.990 -13.928  21.530  1.00  0.00     0.000 C 
BRANCH  11  12
ATOM     12  C   UNL     1     -13.262 -13.173  21.967  1.00  0.00     0.000 C 
BRANCH  12  13
ATOM     13  C   UNL     1     -14.587 -13.773  21.456  1.00  0.00     0.000 C 
BRANCH  13  14
ATOM     14  C   UNL     1     -15.076 -13.221  20.105  1.00  0.00     0.000 C 
BRANCH  14  15
ATOM     15  C   UNL     1     -14.672 -11.754  19.879  1.00  0.00     0.000 C 
BRANCH  15  16
ATOM     16  C   UNL     1     -14.250 -11.473  18.428  1.00  0.00     0.006 C 
BRANCH  16  17
ATOM     17  C   UNL     1     -13.107 -12.381  17.955  1.00  0.00     0.053 C 
BRANCH  17  18
ATOM     18  C   UNL     1     -11.889 -11.570  17.646  1.00  0.00     0.041 C 
ATOM     19  O   UNL     1     -10.747 -11.991  17.972  1.00  0.00    -0.550 OA
ATOM     20  O   UNL     1     -12.017 -10.327  17.040  1.00  0.00    -0.550 OA
ENDBRANCH  17  18
ENDBRANCH  16  17
ENDBRANCH  15  16
ENDBRANCH  14  15
ENDBRANCH  13  14
ENDBRANCH  12  13
ENDBRANCH  11  12
ENDBRANCH   1  11
TORSDOF 15
ENDMDL
MODEL 7
REMARK VINA RESULT:    -1.418      2.242      5.770
REMARK INTER + INTRA:          -4.478
REMARK INTER:                  -4.226
REMARK INTRA:                  -0.253
REMARK UNBOUND:                -1.818
REMARK SMILES O=C([O-])CCCCCCCCCCCCCCC(=O)[O-]
REMARK SMILES IDX 10 1 9 2 8 3 7 4 6 5 5 6 4 7 2 8 1 9 3 10 11 11 12 12 13 13
REMARK SMILES IDX 14 14 15 15 16 16 17 17 18 18 19 19 20 20
REMARK H PARENT
REMARK Flexibility Score: inf
ROOT
ATOM      1  C   UNL     1     -13.186 -14.558  19.033  1.00  0.00     0.000 C 
ENDROOT
BRANCH   1   2
ATOM      2  C   UNL     1     -13.744 -15.959  18.714  1.00  0.00     0.000 C 
BRANCH   2   3
ATOM      3  C   UNL     1     -13.151 -17.057  19.608  1.00  0.00     0.000 C 
BRANCH   3   4
ATOM      4  C   UNL     1     -14.262 -17.897  20.255  1.00  0.00     0.000 C 
BRANCH   4   5
ATOM      5  C   UNL     1     -15.025 -17.129  21.346  1.00  0.00     0.000 C 
BRANCH   5   6
ATOM      6  C   UNL     1     -14.123 -16.721  22.521  1.00  0.00     0.006 C 
BRANCH   6   7
ATOM      7  C   UNL     1     -14.894 -15.865  23.530  1.00  0.00     0.053 C 
BRANCH   7   8
ATOM      8  C   UNL     1     -14.000 -14.827  24.131  1.00  0.00     0.041 C 
ATOM      9  O   UNL     1     -14.386 -14.157  25.125  1.00  0.00    -0.550 OA
ATOM     10  O   UNL     1     -12.759 -14.565  23.561  1.00  0.00    -0.550 OA
ENDBRANCH   7   8
ENDBRANCH   6   7
ENDBRANCH   5   6
ENDBRANCH   4   5
ENDBRANCH   3   4
ENDBRANCH   2   3
ENDBRANCH   1   2
BRANCH   1  11
ATOM     11  C   UNL     1     -11.859 -14.551  19.820  1.00  0.00     0.000 C 
BRANCH  11  12
ATOM     12  C   UNL     1     -10.990 -13.293  19.621  1.00  0.00     0.000 C 
BRANCH  12  13
ATOM     13  C   UNL     1     -11.210 -12.550  18.288  1.00  0.00     0.000 C 
BRANCH  13  14
ATOM     14  C   UNL     1     -12.229 -11.398  18.343  1.00  0.00     0.000 C 
BRANCH  14  15
ATOM     15  C   UNL     1     -13.538 -11.724  17.604  1.00  0.00     0.000 C 
BRANCH  15  16
ATOM     16  C   UNL     1     -14.786 -11.427  18.450  1.00  0.00     0.006 C 
BRANCH  16  17
ATOM     17  C   UNL     1     -15.125 -12.562  19.426  1.00  0.00     0.053 C 
BRANCH  17  18
ATOM     18  C   UNL     1     -15.061 -12.074  20.839  1.00  0.00     0.041 C 
ATOM     19  O   UNL     1     -15.119 -10.840  21.086  1.00  0.00    -0.550 OA
ATOM     20  O   UNL     1     -14.891 -12.977  21.880  1.00  0.00    -0.550 OA
ENDBRANCH  17  18
ENDBRANCH  16  17
ENDBRANCH  15  16
ENDBRANCH  14  15
ENDBRANCH  13  14
ENDBRANCH  12  13
ENDBRANCH  11  12
ENDBRANCH   1  11
TORSDOF 15
ENDMDL
