MODEL 1
REMARK VINA RESULT:     2.092      0.000      0.000
REMARK INTER + INTRA:           2.092
REMARK INTER:                   2.092
REMARK INTRA:                   0.000
REMARK UNBOUND:                 0.000
REMARK SMILES CC1(C)O[C@]2(C)CC[C@H]1CC2
REMARK SMILES IDX 1 1 2 2 9 3 8 4 7 5 5 6 4 7 11 8 10 9 6 10 3 11
REMARK H PARENT
REMARK Flexibility Score: inf
ROOT
ATOM      1  C   UNL     1      -0.859   7.429  10.282  1.00  0.00     0.042 C 
ATOM      2  C   UNL     1      -1.296   8.902  10.130  1.00  0.00     0.066 C 
ATOM      3  C   UNL     1      -2.222   9.080   8.866  1.00  0.00     0.021 C 
ATOM      4  C   UNL     1      -2.671  10.559   8.792  1.00  0.00     0.009 C 
ATOM      5  C   UNL     1      -3.266  10.978  10.159  1.00  0.00     0.035 C 
ATOM      6  C   UNL     1      -3.298   9.754  11.117  1.00  0.00     0.066 C 
ATOM      7  O   UNL     1      -1.963   9.296  11.339  1.00  0.00    -0.369 OA
ATOM      8  C   UNL     1      -4.125   8.615  10.454  1.00  0.00     0.035 C 
ATOM      9  C   UNL     1      -3.511   8.251   9.080  1.00  0.00     0.009 C 
ATOM     10  C   UNL     1      -3.916  10.146  12.464  1.00  0.00     0.042 C 
ATOM     11  C   UNL     1      -0.014   9.750   9.993  1.00  0.00     0.042 C 
ENDROOT
TORSDOF 0
ENDMDL
MODEL 2
REMARK VINA RESULT:     2.747      1.235      2.567
REMARK INTER + INTRA:           2.747
REMARK INTER:                   2.747
REMARK INTRA:                   0.000
REMARK UNBOUND:                 0.000
REMARK SMILES CC1(C)O[C@]2(C)CC[C@H]1CC2
REMARK SMILES IDX 1 1 2 2 9 3 8 4 7 5 5 6 4 7 11 8 10 9 6 10 3 11
REMARK H PARENT
REMARK Flexibility Score: inf
ROOT
ATOM      1  C   UNL     1      -0.269   9.371  10.750  1.00  0.00     0.042 C 
ATOM      2  C   UNL     1      -1.481   9.016   9.862  1.00  0.00     0.066 C 
ATOM      3  C   UNL     1      -2.709   8.569  10.746  1.00  0.00     0.021 C 
ATOM      4  C   UNL     1      -3.905   8.277   9.811  1.00  0.00     0.009 C 
ATOM      5  C   UNL     1      -4.125   9.489   8.873  1.00  0.00     0.035 C 
ATOM      6  C   UNL     1      -3.133  10.628   9.243  1.00  0.00     0.066 C 
ATOM      7  O   UNL     1      -1.794  10.163   9.057  1.00  0.00    -0.369 OA
ATOM      8  C   UNL     1      -3.337  11.012  10.736  1.00  0.00     0.035 C 
ATOM      9  C   UNL     1      -3.137   9.765  11.631  1.00  0.00     0.009 C 
ATOM     10  C   UNL     1      -3.361  11.848   8.343  1.00  0.00     0.042 C 
ATOM     11  C   UNL     1      -1.042   7.876   8.919  1.00  0.00     0.042 C 
ENDROOT
TORSDOF 0
ENDMDL
MODEL 3
REMARK VINA RESULT:     4.628      0.865      3.326
REMARK INTER + INTRA:           4.628
REMARK INTER:                   4.628
REMARK INTRA:                   0.000
REMARK UNBOUND:                 0.000
REMARK SMILES CC1(C)O[C@]2(C)CC[C@H]1CC2
REMARK SMILES IDX 1 1 2 2 9 3 8 4 7 5 5 6 4 7 11 8 10 9 6 10 3 11
REMARK H PARENT
REMARK Flexibility Score: inf
ROOT
ATOM      1  C   UNL     1      -4.093  11.556  10.420  1.00  0.00     0.042 C 
ATOM      2  C   UNL     1      -3.557  10.174  10.855  1.00  0.00     0.066 C 
ATOM      3  C   UNL     1      -4.125   9.037   9.920  1.00  0.00     0.021 C 
ATOM      4  C   UNL     1      -3.516   7.687  10.367  1.00  0.00     0.009 C 
ATOM      5  C   UNL     1      -1.976   7.824  10.444  1.00  0.00     0.035 C 
ATOM      6  C   UNL     1      -1.548   9.239   9.960  1.00  0.00     0.066 C 
ATOM      7  O   UNL     1      -2.123  10.223  10.823  1.00  0.00    -0.369 OA
ATOM      8  C   UNL     1      -2.075   9.459   8.513  1.00  0.00     0.035 C 
ATOM      9  C   UNL     1      -3.613   9.283   8.481  1.00  0.00     0.009 C 
ATOM     10  C   UNL     1      -0.023   9.377   9.999  1.00  0.00     0.042 C 
ATOM     11  C   UNL     1      -3.996   9.950  12.318  1.00  0.00     0.042 C 
ENDROOT
TORSDOF 0
ENDMDL
MODEL 4
REMARK VINA RESULT:     4.702      1.411      3.049
REMARK INTER + INTRA:           4.702
REMARK INTER:                   4.702
REMARK INTRA:                   0.000
REMARK UNBOUND:                 0.000
REMARK SMILES CC1(C)O[C@]2(C)CC[C@H]1CC2
REMARK SMILES IDX 1 1 2 2 9 3 8 4 7 5 5 6 4 7 11 8 10 9 6 10 3 11
REMARK H PARENT
REMARK Flexibility Score: inf
ROOT
ATOM      1  C   UNL     1      -1.666   7.421   9.623  1.00  0.00     0.042 C 
ATOM      2  C   UNL     1      -2.881   8.343   9.865  1.00  0.00     0.066 C 
ATOM      3  C   UNL     1      -2.673   9.206  11.170  1.00  0.00     0.021 C 
ATOM      4  C   UNL     1      -3.892  10.145  11.334  1.00  0.00     0.009 C 
ATOM      5  C   UNL     1      -4.118  10.920  10.013  1.00  0.00     0.035 C 
ATOM      6  C   UNL     1      -2.996  10.565   8.995  1.00  0.00     0.066 C 
ATOM      7  O   UNL     1      -3.052   9.168   8.703  1.00  0.00    -0.369 OA
ATOM      8  C   UNL     1      -1.615  10.899   9.629  1.00  0.00     0.035 C 
ATOM      9  C   UNL     1      -1.447  10.126  10.960  1.00  0.00     0.009 C 
ATOM     10  C   UNL     1      -3.189  11.350   7.694  1.00  0.00     0.042 C 
ATOM     11  C   UNL     1      -4.125   7.440  10.000  1.00  0.00     0.042 C 
ENDROOT
TORSDOF 0
ENDMDL
