MODEL 1
REMARK VINA RESULT:    -3.114      0.000      0.000
REMARK INTER + INTRA:          -4.485
REMARK INTER:                  -4.115
REMARK INTRA:                  -0.370
REMARK UNBOUND:                -0.370
REMARK SMILES CCCCC=CC=CCO
REMARK SMILES IDX 5 1 6 2 4 3 3 4 2 5 1 6 7 7 8 8 9 9 10 10
REMARK H PARENT 10 11
REMARK Flexibility Score: inf
ROOT
ATOM      1  C   UNL     1     140.000 -50.305  68.832  1.00  0.00    -0.027 C 
ATOM      2  C   UNL     1     140.807 -49.854  67.869  1.00  0.00    -0.005 C 
ENDROOT
BRANCH   1   3
ATOM      3  C   UNL     1     139.153 -51.530  68.640  1.00  0.00     0.027 C 
BRANCH   3   4
ATOM      4  C   UNL     1     139.219 -52.027  67.188  1.00  0.00     0.004 C 
BRANCH   4   5
ATOM      5  C   UNL     1     137.858 -51.958  66.479  1.00  0.00    -0.003 C 
ATOM      6  C   UNL     1     137.428 -50.525  66.162  1.00  0.00     0.004 C 
ENDBRANCH   4   5
ENDBRANCH   3   4
ENDBRANCH   1   3
BRANCH   2   7
ATOM      7  C   UNL     1     141.620 -48.644  68.065  1.00  0.00    -0.002 C 
ATOM      8  C   UNL     1     141.478 -47.582  67.269  1.00  0.00     0.001 C 
BRANCH   8   9
ATOM      9  C   UNL     1     142.297 -46.345  67.470  1.00  0.00     0.183 C 
BRANCH   9  10
ATOM     10  O   UNL     1     142.552 -45.742  66.232  1.00  0.00    -0.392 OA
ATOM     11  H   UNL     1     142.822 -46.475  65.620  1.00  0.00     0.210 HD
ENDBRANCH   9  10
ENDBRANCH   8   9
ENDBRANCH   2   7
TORSDOF 6
ENDMDL
MODEL 2
REMARK VINA RESULT:    -3.019     25.163     25.945
REMARK INTER + INTRA:          -4.359
REMARK INTER:                  -4.040
REMARK INTRA:                  -0.319
REMARK UNBOUND:                -0.370
REMARK SMILES CCCCC=CC=CCO
REMARK SMILES IDX 5 1 6 2 4 3 3 4 2 5 1 6 7 7 8 8 9 9 10 10
REMARK H PARENT 10 11
REMARK Flexibility Score: inf
ROOT
ATOM      1  C   UNL     1     127.190 -34.148  83.210  1.00  0.00    -0.027 C 
ATOM      2  C   UNL     1     126.478 -35.253  82.971  1.00  0.00    -0.005 C 
ENDROOT
BRANCH   1   3
ATOM      3  C   UNL     1     127.300 -33.048  82.195  1.00  0.00     0.027 C 
BRANCH   3   4
ATOM      4  C   UNL     1     125.981 -32.270  82.074  1.00  0.00     0.004 C 
BRANCH   4   5
ATOM      5  C   UNL     1     125.483 -32.175  80.624  1.00  0.00    -0.003 C 
ATOM      6  C   UNL     1     124.905 -33.494  80.110  1.00  0.00     0.004 C 
ENDBRANCH   4   5
ENDBRANCH   3   4
ENDBRANCH   1   3
BRANCH   2   7
ATOM      7  C   UNL     1     126.391 -36.330  83.970  1.00  0.00    -0.002 C 
ATOM      8  C   UNL     1     125.771 -37.478  83.690  1.00  0.00     0.001 C 
BRANCH   8   9
ATOM      9  C   UNL     1     125.686 -38.580  84.700  1.00  0.00     0.183 C 
BRANCH   9  10
ATOM     10  O   UNL     1     124.346 -38.938  84.897  1.00  0.00    -0.392 OA
ATOM     11  H   UNL     1     123.862 -38.094  85.089  1.00  0.00     0.210 HD
ENDBRANCH   9  10
ENDBRANCH   8   9
ENDBRANCH   2   7
TORSDOF 6
ENDMDL
MODEL 3
REMARK VINA RESULT:    -2.980      1.276      2.494
REMARK INTER + INTRA:          -4.308
REMARK INTER:                  -3.922
REMARK INTRA:                  -0.385
REMARK UNBOUND:                -0.370
REMARK SMILES CCCCC=CC=CCO
REMARK SMILES IDX 5 1 6 2 4 3 3 4 2 5 1 6 7 7 8 8 9 9 10 10
REMARK H PARENT 10 11
REMARK Flexibility Score: inf
ROOT
ATOM      1  C   UNL     1     141.538 -48.465  68.029  1.00  0.00    -0.027 C 
ATOM      2  C   UNL     1     140.495 -47.755  67.590  1.00  0.00    -0.005 C 
ENDROOT
BRANCH   1   3
ATOM      3  C   UNL     1     141.380 -49.532  69.073  1.00  0.00     0.027 C 
BRANCH   3   4
ATOM      4  C   UNL     1     139.906 -49.935  69.235  1.00  0.00     0.004 C 
BRANCH   4   5
ATOM      5  C   UNL     1     139.630 -51.366  68.750  1.00  0.00    -0.003 C 
ATOM      6  C   UNL     1     139.280 -51.429  67.263  1.00  0.00     0.004 C 
ENDBRANCH   4   5
ENDBRANCH   3   4
ENDBRANCH   1   3
BRANCH   2   7
ATOM      7  C   UNL     1     140.667 -46.701  66.578  1.00  0.00    -0.002 C 
ATOM      8  C   UNL     1     141.750 -45.922  66.573  1.00  0.00     0.001 C 
BRANCH   8   9
ATOM      9  C   UNL     1     141.933 -44.854  65.540  1.00  0.00     0.183 C 
BRANCH   9  10
ATOM     10  O   UNL     1     143.181 -45.004  64.921  1.00  0.00    -0.392 OA
ATOM     11  H   UNL     1     143.222 -45.947  64.612  1.00  0.00     0.210 HD
ENDBRANCH   9  10
ENDBRANCH   8   9
ENDBRANCH   2   7
TORSDOF 6
ENDMDL
MODEL 4
REMARK VINA RESULT:    -2.950      1.573      2.662
REMARK INTER + INTRA:          -4.268
REMARK INTER:                  -4.019
REMARK INTRA:                  -0.250
REMARK UNBOUND:                -0.370
REMARK SMILES CCCCC=CC=CCO
REMARK SMILES IDX 5 1 6 2 4 3 3 4 2 5 1 6 7 7 8 8 9 9 10 10
REMARK H PARENT 10 11
REMARK Flexibility Score: inf
ROOT
ATOM      1  C   UNL     1     140.283 -49.557  67.863  1.00  0.00    -0.027 C 
ATOM      2  C   UNL     1     141.552 -49.148  67.783  1.00  0.00    -0.005 C 
ENDROOT
BRANCH   1   3
ATOM      3  C   UNL     1     139.932 -51.009  68.011  1.00  0.00     0.027 C 
BRANCH   3   4
ATOM      4  C   UNL     1     139.034 -51.240  69.235  1.00  0.00     0.004 C 
BRANCH   4   5
ATOM      5  C   UNL     1     139.663 -50.714  70.535  1.00  0.00    -0.003 C 
ATOM      6  C   UNL     1     139.600 -51.730  71.676  1.00  0.00     0.004 C 
ENDBRANCH   4   5
ENDBRANCH   3   4
ENDBRANCH   1   3
BRANCH   2   7
ATOM      7  C   UNL     1     141.881 -47.723  67.622  1.00  0.00    -0.002 C 
ATOM      8  C   UNL     1     141.184 -46.944  66.793  1.00  0.00     0.001 C 
BRANCH   8   9
ATOM      9  C   UNL     1     141.509 -45.492  66.633  1.00  0.00     0.183 C 
BRANCH   9  10
ATOM     10  O   UNL     1     142.606 -45.346  65.774  1.00  0.00    -0.392 OA
ATOM     11  H   UNL     1     142.505 -44.454  65.350  1.00  0.00     0.210 HD
ENDBRANCH   9  10
ENDBRANCH   8   9
ENDBRANCH   2   7
TORSDOF 6
ENDMDL
MODEL 5
REMARK VINA RESULT:    -2.883     24.548     25.545
REMARK INTER + INTRA:          -4.180
REMARK INTER:                  -3.914
REMARK INTRA:                  -0.265
REMARK UNBOUND:                -0.370
REMARK SMILES CCCCC=CC=CCO
REMARK SMILES IDX 5 1 6 2 4 3 3 4 2 5 1 6 7 7 8 8 9 9 10 10
REMARK H PARENT 10 11
REMARK Flexibility Score: inf
ROOT
ATOM      1  C   UNL     1     127.170 -34.147  83.161  1.00  0.00    -0.027 C 
ATOM      2  C   UNL     1     126.305 -35.158  83.038  1.00  0.00    -0.005 C 
ENDROOT
BRANCH   1   3
ATOM      3  C   UNL     1     127.218 -33.027  82.163  1.00  0.00     0.027 C 
BRANCH   3   4
ATOM      4  C   UNL     1     128.663 -32.715  81.748  1.00  0.00     0.004 C 
BRANCH   4   5
ATOM      5  C   UNL     1     129.642 -33.835  82.136  1.00  0.00    -0.003 C 
ATOM      6  C   UNL     1     130.930 -33.303  82.764  1.00  0.00     0.004 C 
ENDBRANCH   4   5
ENDBRANCH   3   4
ENDBRANCH   1   3
BRANCH   2   7
ATOM      7  C   UNL     1     126.279 -36.258  84.016  1.00  0.00    -0.002 C 
ATOM      8  C   UNL     1     125.775 -37.451  83.696  1.00  0.00     0.001 C 
BRANCH   8   9
ATOM      9  C   UNL     1     125.754 -38.575  84.684  1.00  0.00     0.183 C 
BRANCH   9  10
ATOM     10  O   UNL     1     124.429 -38.929  84.969  1.00  0.00    -0.392 OA
ATOM     11  H   UNL     1     123.868 -38.445  84.309  1.00  0.00     0.210 HD
ENDBRANCH   9  10
ENDBRANCH   8   9
ENDBRANCH   2   7
TORSDOF 6
ENDMDL
MODEL 6
REMARK VINA RESULT:    -2.633      3.239      4.749
REMARK INTER + INTRA:          -3.849
REMARK INTER:                  -3.500
REMARK INTRA:                  -0.349
REMARK UNBOUND:                -0.370
REMARK SMILES CCCCC=CC=CCO
REMARK SMILES IDX 5 1 6 2 4 3 3 4 2 5 1 6 7 7 8 8 9 9 10 10
REMARK H PARENT 10 11
REMARK Flexibility Score: inf
ROOT
ATOM      1  C   UNL     1     141.214 -48.339  69.497  1.00  0.00    -0.027 C 
ATOM      2  C   UNL     1     141.792 -48.394  68.294  1.00  0.00    -0.005 C 
ENDROOT
BRANCH   1   3
ATOM      3  C   UNL     1     141.506 -49.361  70.558  1.00  0.00     0.027 C 
BRANCH   3   4
ATOM      4  C   UNL     1     142.143 -48.709  71.795  1.00  0.00     0.004 C 
BRANCH   4   5
ATOM      5  C   UNL     1     142.103 -47.174  71.738  1.00  0.00    -0.003 C 
ATOM      6  C   UNL     1     143.497 -46.546  71.744  1.00  0.00     0.004 C 
ENDBRANCH   4   5
ENDBRANCH   3   4
ENDBRANCH   1   3
BRANCH   2   7
ATOM      7  C   UNL     1     141.485 -47.394  67.259  1.00  0.00    -0.002 C 
ATOM      8  C   UNL     1     142.235 -46.300  67.115  1.00  0.00     0.001 C 
BRANCH   8   9
ATOM      9  C   UNL     1     141.932 -45.284  66.058  1.00  0.00     0.183 C 
BRANCH   9  10
ATOM     10  O   UNL     1     143.018 -45.178  65.179  1.00  0.00    -0.392 OA
ATOM     11  H   UNL     1     143.040 -44.232  64.883  1.00  0.00     0.210 HD
ENDBRANCH   9  10
ENDBRANCH   8   9
ENDBRANCH   2   7
TORSDOF 6
ENDMDL
MODEL 7
REMARK VINA RESULT:    -2.597      1.382      2.368
REMARK INTER + INTRA:          -3.802
REMARK INTER:                  -3.415
REMARK INTRA:                  -0.388
REMARK UNBOUND:                -0.370
REMARK SMILES CCCCC=CC=CCO
REMARK SMILES IDX 5 1 6 2 4 3 3 4 2 5 1 6 7 7 8 8 9 9 10 10
REMARK H PARENT 10 11
REMARK Flexibility Score: inf
ROOT
ATOM      1  C   UNL     1     138.920 -48.779  66.502  1.00  0.00    -0.027 C 
ATOM      2  C   UNL     1     138.805 -47.598  67.115  1.00  0.00    -0.005 C 
ENDROOT
BRANCH   1   3
ATOM      3  C   UNL     1     137.764 -49.732  66.409  1.00  0.00     0.027 C 
BRANCH   3   4
ATOM      4  C   UNL     1     138.182 -51.152  66.819  1.00  0.00     0.004 C 
BRANCH   4   5
ATOM      5  C   UNL     1     139.517 -51.177  67.578  1.00  0.00    -0.003 C 
ATOM      6  C   UNL     1     139.339 -51.380  69.082  1.00  0.00     0.004 C 
ENDBRANCH   4   5
ENDBRANCH   3   4
ENDBRANCH   1   3
BRANCH   2   7
ATOM      7  C   UNL     1     139.951 -46.679  67.212  1.00  0.00    -0.002 C 
ATOM      8  C   UNL     1     141.204 -47.129  67.115  1.00  0.00     0.001 C 
BRANCH   8   9
ATOM      9  C   UNL     1     142.372 -46.197  67.204  1.00  0.00     0.183 C 
BRANCH   9  10
ATOM     10  O   UNL     1     142.557 -45.552  65.975  1.00  0.00    -0.392 OA
ATOM     11  H   UNL     1     141.851 -44.857  65.921  1.00  0.00     0.210 HD
ENDBRANCH   9  10
ENDBRANCH   8   9
ENDBRANCH   2   7
TORSDOF 6
ENDMDL
MODEL 8
REMARK VINA RESULT:    -2.495      2.884      5.460
REMARK INTER + INTRA:          -3.667
REMARK INTER:                  -3.381
REMARK INTRA:                  -0.286
REMARK UNBOUND:                -0.370
REMARK SMILES CCCCC=CC=CCO
REMARK SMILES IDX 5 1 6 2 4 3 3 4 2 5 1 6 7 7 8 8 9 9 10 10
REMARK H PARENT 10 11
REMARK Flexibility Score: inf
ROOT
ATOM      1  C   UNL     1     141.511 -47.741  67.370  1.00  0.00    -0.027 C 
ATOM      2  C   UNL     1     141.600 -48.758  68.231  1.00  0.00    -0.005 C 
ENDROOT
BRANCH   1   3
ATOM      3  C   UNL     1     142.284 -46.470  67.570  1.00  0.00     0.027 C 
BRANCH   3   4
ATOM      4  C   UNL     1     141.919 -45.426  66.505  1.00  0.00     0.004 C 
BRANCH   4   5
ATOM      5  C   UNL     1     140.534 -45.674  65.886  1.00  0.00    -0.003 C 
ATOM      6  C   UNL     1     140.081 -44.533  64.974  1.00  0.00     0.004 C 
ENDBRANCH   4   5
ENDBRANCH   3   4
ENDBRANCH   1   3
BRANCH   2   7
ATOM      7  C   UNL     1     140.825 -49.993  68.030  1.00  0.00    -0.002 C 
ATOM      8  C   UNL     1     139.564 -49.951  67.596  1.00  0.00     0.001 C 
BRANCH   8   9
ATOM      9  C   UNL     1     138.774 -51.205  67.382  1.00  0.00     0.183 C 
BRANCH   9  10
ATOM     10  O   UNL     1     138.926 -52.053  68.487  1.00  0.00    -0.392 OA
ATOM     11  H   UNL     1     138.107 -52.613  68.516  1.00  0.00     0.210 HD
ENDBRANCH   9  10
ENDBRANCH   8   9
ENDBRANCH   2   7
TORSDOF 6
ENDMDL
MODEL 9
REMARK VINA RESULT:    -2.477     24.753     25.339
REMARK INTER + INTRA:          -3.643
REMARK INTER:                  -3.352
REMARK INTRA:                  -0.291
REMARK UNBOUND:                -0.370
REMARK SMILES CCCCC=CC=CCO
REMARK SMILES IDX 5 1 6 2 4 3 3 4 2 5 1 6 7 7 8 8 9 9 10 10
REMARK H PARENT 10 11
REMARK Flexibility Score: inf
ROOT
ATOM      1  C   UNL     1     127.564 -34.908  83.753  1.00  0.00    -0.027 C 
ATOM      2  C   UNL     1     128.168 -34.101  82.876  1.00  0.00    -0.005 C 
ENDROOT
BRANCH   1   3
ATOM      3  C   UNL     1     128.278 -36.077  84.367  1.00  0.00     0.027 C 
BRANCH   3   4
ATOM      4  C   UNL     1     127.736 -37.407  83.823  1.00  0.00     0.004 C 
BRANCH   4   5
ATOM      5  C   UNL     1     126.202 -37.480  83.870  1.00  0.00    -0.003 C 
ATOM      6  C   UNL     1     125.690 -38.628  84.741  1.00  0.00     0.004 C 
ENDBRANCH   4   5
ENDBRANCH   3   4
ENDBRANCH   1   3
BRANCH   2   7
ATOM      7  C   UNL     1     127.452 -32.968  82.270  1.00  0.00    -0.002 C 
ATOM      8  C   UNL     1     126.139 -33.028  82.037  1.00  0.00     0.001 C 
BRANCH   8   9
ATOM      9  C   UNL     1     125.404 -31.875  81.429  1.00  0.00     0.183 C 
BRANCH   9  10
ATOM     10  O   UNL     1     125.571 -31.890  80.038  1.00  0.00    -0.392 OA
ATOM     11  H   UNL     1     124.763 -32.332  79.670  1.00  0.00     0.210 HD
ENDBRANCH   9  10
ENDBRANCH   8   9
ENDBRANCH   2   7
TORSDOF 6
ENDMDL
