MODEL 1
REMARK VINA RESULT:    -4.300      0.000      0.000
REMARK INTER + INTRA:         -10.673
REMARK INTER:                  -7.820
REMARK INTRA:                  -2.854
REMARK UNBOUND:                -2.854
REMARK SMILES CCCCCCCCCCCCCC[C@@H](C)C(=O)[O-]
REMARK SMILES IDX 9 1 10 2 11 3 12 4 13 5 14 6 15 7 16 8 17 9 18 10 19 11 8 12
REMARK SMILES IDX 7 13 6 14 5 15 4 16 3 17 2 18 1 19
REMARK H PARENT
REMARK Flexibility Score: inf
ROOT
ATOM      1  C   UNL     1     -11.982   3.543  -8.772  1.00  0.00     0.000 C 
ENDROOT
BRANCH   1   2
ATOM      2  C   UNL     1     -11.899   5.042  -9.109  1.00  0.00     0.000 C 
BRANCH   2   3
ATOM      3  C   UNL     1     -12.966   5.479 -10.127  1.00  0.00     0.000 C 
BRANCH   3   4
ATOM      4  C   UNL     1     -12.377   6.294 -11.291  1.00  0.00     0.000 C 
BRANCH   4   5
ATOM      5  C   UNL     1     -11.140   7.107 -10.876  1.00  0.00     0.001 C 
BRANCH   5   6
ATOM      6  C   UNL     1     -10.253   7.496 -12.073  1.00  0.00     0.009 C 
BRANCH   6   7
ATOM      7  C   UNL     1      -8.971   8.243 -11.645  1.00  0.00     0.032 C 
ATOM      8  C   UNL     1      -8.998   8.640 -10.162  1.00  0.00     0.014 C 
BRANCH   7   9
ATOM      9  C   UNL     1      -7.763   7.391 -11.923  1.00  0.00     0.044 C 
ATOM     10  O   UNL     1      -7.651   6.778 -13.018  1.00  0.00    -0.550 OA
ATOM     11  O   UNL     1      -6.759   7.278 -10.970  1.00  0.00    -0.550 OA
ENDBRANCH   7   9
ENDBRANCH   6   7
ENDBRANCH   5   6
ENDBRANCH   4   5
ENDBRANCH   3   4
ENDBRANCH   2   3
ENDBRANCH   1   2
BRANCH   1  12
ATOM     12  C   UNL     1     -13.125   2.834  -9.518  1.00  0.00     0.000 C 
BRANCH  12  13
ATOM     13  C   UNL     1     -12.619   1.715 -10.445  1.00  0.00    -0.000 C 
BRANCH  13  14
ATOM     14  C   UNL     1     -12.746   2.068 -11.939  1.00  0.00    -0.000 C 
BRANCH  14  15
ATOM     15  C   UNL     1     -11.652   3.002 -12.492  1.00  0.00    -0.000 C 
BRANCH  15  16
ATOM     16  C   UNL     1     -10.250   2.663 -11.963  1.00  0.00    -0.000 C 
BRANCH  16  17
ATOM     17  C   UNL     1      -9.367   3.909 -11.781  1.00  0.00    -0.000 C 
BRANCH  17  18
ATOM     18  C   UNL     1      -8.635   3.958 -10.423  1.00  0.00    -0.003 C 
ATOM     19  C   UNL     1      -8.541   2.581  -9.766  1.00  0.00     0.004 C 
ENDBRANCH  17  18
ENDBRANCH  16  17
ENDBRANCH  15  16
ENDBRANCH  14  15
ENDBRANCH  13  14
ENDBRANCH  12  13
ENDBRANCH   1  12
TORSDOF 14
ENDMDL
MODEL 2
REMARK VINA RESULT:    -4.144      1.837      4.609
REMARK INTER + INTRA:         -10.390
REMARK INTER:                  -8.324
REMARK INTRA:                  -2.066
REMARK UNBOUND:                -2.854
REMARK SMILES CCCCCCCCCCCCCC[C@@H](C)C(=O)[O-]
REMARK SMILES IDX 9 1 10 2 11 3 12 4 13 5 14 6 15 7 16 8 17 9 18 10 19 11 8 12
REMARK SMILES IDX 7 13 6 14 5 15 4 16 3 17 2 18 1 19
REMARK H PARENT
REMARK Flexibility Score: inf
ROOT
ATOM      1  C   UNL     1     -12.412   2.047 -10.697  1.00  0.00     0.000 C 
ENDROOT
BRANCH   1   2
ATOM      2  C   UNL     1     -13.125   1.504  -9.445  1.00  0.00     0.000 C 
BRANCH   2   3
ATOM      3  C   UNL     1     -12.148   0.881  -8.433  1.00  0.00     0.000 C 
BRANCH   3   4
ATOM      4  C   UNL     1     -11.018   1.845  -8.030  1.00  0.00     0.000 C 
BRANCH   4   5
ATOM      5  C   UNL     1      -9.623   1.226  -8.211  1.00  0.00     0.001 C 
BRANCH   5   6
ATOM      6  C   UNL     1      -8.604   2.218  -8.806  1.00  0.00     0.009 C 
BRANCH   6   7
ATOM      7  C   UNL     1      -9.276   3.331  -9.639  1.00  0.00     0.032 C 
ATOM      8  C   UNL     1      -8.878   4.735  -9.162  1.00  0.00     0.014 C 
BRANCH   7   9
ATOM      9  C   UNL     1      -8.925   3.167 -11.092  1.00  0.00     0.044 C 
ATOM     10  O   UNL     1      -8.100   2.287 -11.456  1.00  0.00    -0.550 OA
ATOM     11  O   UNL     1      -9.514   3.988 -12.046  1.00  0.00    -0.550 OA
ENDBRANCH   7   9
ENDBRANCH   6   7
ENDBRANCH   5   6
ENDBRANCH   4   5
ENDBRANCH   3   4
ENDBRANCH   2   3
ENDBRANCH   1   2
BRANCH   1  12
ATOM     12  C   UNL     1     -12.843   3.481 -11.044  1.00  0.00     0.000 C 
BRANCH  12  13
ATOM     13  C   UNL     1     -12.736   4.436  -9.842  1.00  0.00    -0.000 C 
BRANCH  13  14
ATOM     14  C   UNL     1     -12.950   5.913 -10.226  1.00  0.00    -0.000 C 
BRANCH  14  15
ATOM     15  C   UNL     1     -12.917   6.212 -11.737  1.00  0.00    -0.000 C 
BRANCH  15  16
ATOM     16  C   UNL     1     -11.562   6.763 -12.210  1.00  0.00    -0.000 C 
BRANCH  16  17
ATOM     17  C   UNL     1     -10.664   7.212 -11.044  1.00  0.00    -0.000 C 
BRANCH  17  18
ATOM     18  C   UNL     1      -9.581   8.233 -11.453  1.00  0.00    -0.003 C 
ATOM     19  C   UNL     1      -9.017   8.991 -10.251  1.00  0.00     0.004 C 
ENDBRANCH  17  18
ENDBRANCH  16  17
ENDBRANCH  15  16
ENDBRANCH  14  15
ENDBRANCH  13  14
ENDBRANCH  12  13
ENDBRANCH   1  12
TORSDOF 14
ENDMDL
MODEL 3
REMARK VINA RESULT:    -4.079     17.331     20.306
REMARK INTER + INTRA:         -10.271
REMARK INTER:                  -8.448
REMARK INTRA:                  -1.823
REMARK UNBOUND:                -2.854
REMARK SMILES CCCCCCCCCCCCCC[C@@H](C)C(=O)[O-]
REMARK SMILES IDX 9 1 10 2 11 3 12 4 13 5 14 6 15 7 16 8 17 9 18 10 19 11 8 12
REMARK SMILES IDX 7 13 6 14 5 15 4 16 3 17 2 18 1 19
REMARK H PARENT
REMARK Flexibility Score: inf
ROOT
ATOM      1  C   UNL     1       6.255   6.794 -23.178  1.00  0.00     0.000 C 
ENDROOT
BRANCH   1   2
ATOM      2  C   UNL     1       7.018   7.476 -24.328  1.00  0.00     0.000 C 
BRANCH   2   3
ATOM      3  C   UNL     1       6.077   8.072 -25.389  1.00  0.00     0.000 C 
BRANCH   3   4
ATOM      4  C   UNL     1       6.548   7.786 -26.826  1.00  0.00     0.000 C 
BRANCH   4   5
ATOM      5  C   UNL     1       6.228   6.352 -27.277  1.00  0.00     0.001 C 
BRANCH   5   6
ATOM      6  C   UNL     1       4.791   5.924 -26.925  1.00  0.00     0.009 C 
BRANCH   6   7
ATOM      7  C   UNL     1       4.744   4.601 -26.129  1.00  0.00     0.032 C 
ATOM      8  C   UNL     1       6.146   4.067 -25.806  1.00  0.00     0.014 C 
BRANCH   7   9
ATOM      9  C   UNL     1       3.966   4.796 -24.857  1.00  0.00     0.044 C 
ATOM     10  O   UNL     1       3.180   5.772 -24.731  1.00  0.00    -0.550 OA
ATOM     11  O   UNL     1       4.110   3.894 -23.810  1.00  0.00    -0.550 OA
ENDBRANCH   7   9
ENDBRANCH   6   7
ENDBRANCH   5   6
ENDBRANCH   4   5
ENDBRANCH   3   4
ENDBRANCH   2   3
ENDBRANCH   1   2
BRANCH   1  12
ATOM     12  C   UNL     1       7.060   5.654 -22.532  1.00  0.00     0.000 C 
BRANCH  12  13
ATOM     13  C   UNL     1       6.366   5.076 -21.286  1.00  0.00    -0.000 C 
BRANCH  13  14
ATOM     14  C   UNL     1       5.385   6.066 -20.631  1.00  0.00    -0.000 C 
BRANCH  14  15
ATOM     15  C   UNL     1       3.906   5.632 -20.639  1.00  0.00    -0.000 C 
BRANCH  15  16
ATOM     16  C   UNL     1       3.526   4.771 -19.424  1.00  0.00    -0.000 C 
BRANCH  16  17
ATOM     17  C   UNL     1       2.924   5.600 -18.275  1.00  0.00    -0.000 C 
BRANCH  17  18
ATOM     18  C   UNL     1       3.674   5.439 -16.936  1.00  0.00    -0.003 C 
ATOM     19  C   UNL     1       5.076   4.856 -17.123  1.00  0.00     0.004 C 
ENDBRANCH  17  18
ENDBRANCH  16  17
ENDBRANCH  15  16
ENDBRANCH  14  15
ENDBRANCH  13  14
ENDBRANCH  12  13
ENDBRANCH   1  12
TORSDOF 14
ENDMDL
MODEL 4
REMARK VINA RESULT:    -3.985     16.868     19.939
REMARK INTER + INTRA:         -10.100
REMARK INTER:                  -8.525
REMARK INTRA:                  -1.575
REMARK UNBOUND:                -2.854
REMARK SMILES CCCCCCCCCCCCCC[C@@H](C)C(=O)[O-]
REMARK SMILES IDX 9 1 10 2 11 3 12 4 13 5 14 6 15 7 16 8 17 9 18 10 19 11 8 12
REMARK SMILES IDX 7 13 6 14 5 15 4 16 3 17 2 18 1 19
REMARK H PARENT
REMARK Flexibility Score: inf
ROOT
ATOM      1  C   UNL     1       6.131   6.749 -23.230  1.00  0.00     0.000 C 
ENDROOT
BRANCH   1   2
ATOM      2  C   UNL     1       6.904   5.493 -22.791  1.00  0.00     0.000 C 
BRANCH   2   3
ATOM      3  C   UNL     1       6.453   4.972 -21.416  1.00  0.00     0.000 C 
BRANCH   3   4
ATOM      4  C   UNL     1       5.645   6.015 -20.623  1.00  0.00     0.000 C 
BRANCH   4   5
ATOM      5  C   UNL     1       4.542   5.377 -19.763  1.00  0.00     0.001 C 
BRANCH   5   6
ATOM      6  C   UNL     1       4.959   5.209 -18.290  1.00  0.00     0.009 C 
BRANCH   6   7
ATOM      7  C   UNL     1       3.774   5.379 -17.314  1.00  0.00     0.032 C 
ATOM      8  C   UNL     1       2.430   5.025 -17.965  1.00  0.00     0.014 C 
BRANCH   7   9
ATOM      9  C   UNL     1       3.989   4.530 -16.092  1.00  0.00     0.044 C 
ATOM     10  O   UNL     1       3.021   4.231 -15.342  1.00  0.00    -0.550 OA
ATOM     11  O   UNL     1       5.261   4.066 -15.783  1.00  0.00    -0.550 OA
ENDBRANCH   7   9
ENDBRANCH   6   7
ENDBRANCH   5   6
ENDBRANCH   4   5
ENDBRANCH   3   4
ENDBRANCH   2   3
ENDBRANCH   1   2
BRANCH   1  12
ATOM     12  C   UNL     1       6.923   7.608 -24.231  1.00  0.00     0.000 C 
BRANCH  12  13
ATOM     13  C   UNL     1       6.061   8.073 -25.418  1.00  0.00    -0.000 C 
BRANCH  13  14
ATOM     14  C   UNL     1       6.548   7.517 -26.769  1.00  0.00    -0.000 C 
BRANCH  14  15
ATOM     15  C   UNL     1       5.679   6.397 -27.373  1.00  0.00    -0.000 C 
BRANCH  15  16
ATOM     16  C   UNL     1       6.028   5.004 -26.826  1.00  0.00    -0.000 C 
BRANCH  16  17
ATOM     17  C   UNL     1       4.870   4.369 -26.037  1.00  0.00    -0.000 C 
BRANCH  17  18
ATOM     18  C   UNL     1       3.560   5.184 -26.094  1.00  0.00    -0.003 C 
ATOM     19  C   UNL     1       3.089   5.622 -24.707  1.00  0.00     0.004 C 
ENDBRANCH  17  18
ENDBRANCH  16  17
ENDBRANCH  15  16
ENDBRANCH  14  15
ENDBRANCH  13  14
ENDBRANCH  12  13
ENDBRANCH   1  12
TORSDOF 14
ENDMDL
MODEL 5
REMARK VINA RESULT:    -3.921     12.217     14.453
REMARK INTER + INTRA:          -9.985
REMARK INTER:                  -7.576
REMARK INTRA:                  -2.408
REMARK UNBOUND:                -2.854
REMARK SMILES CCCCCCCCCCCCCC[C@@H](C)C(=O)[O-]
REMARK SMILES IDX 9 1 10 2 11 3 12 4 13 5 14 6 15 7 16 8 17 9 18 10 19 11 8 12
REMARK SMILES IDX 7 13 6 14 5 15 4 16 3 17 2 18 1 19
REMARK H PARENT
REMARK Flexibility Score: inf
ROOT
ATOM      1  C   UNL     1     -12.468  -0.438 -22.652  1.00  0.00     0.000 C 
ENDROOT
BRANCH   1   2
ATOM      2  C   UNL     1     -12.019  -1.856 -22.257  1.00  0.00     0.000 C 
BRANCH   2   3
ATOM      3  C   UNL     1     -12.258  -2.884 -23.375  1.00  0.00     0.000 C 
BRANCH   3   4
ATOM      4  C   UNL     1     -12.909  -2.262 -24.623  1.00  0.00     0.000 C 
BRANCH   4   5
ATOM      5  C   UNL     1     -12.271  -2.758 -25.931  1.00  0.00     0.001 C 
BRANCH   5   6
ATOM      6  C   UNL     1     -11.786  -1.607 -26.831  1.00  0.00     0.009 C 
BRANCH   6   7
ATOM      7  C   UNL     1     -10.647  -0.787 -26.185  1.00  0.00     0.032 C 
ATOM      8  C   UNL     1      -9.360  -0.820 -27.022  1.00  0.00     0.014 C 
BRANCH   7   9
ATOM      9  C   UNL     1     -11.089   0.636 -25.984  1.00  0.00     0.044 C 
ATOM     10  O   UNL     1     -10.243   1.541 -25.751  1.00  0.00    -0.550 OA
ATOM     11  O   UNL     1     -12.437   0.962 -26.057  1.00  0.00    -0.550 OA
ENDBRANCH   7   9
ENDBRANCH   6   7
ENDBRANCH   5   6
ENDBRANCH   4   5
ENDBRANCH   3   4
ENDBRANCH   2   3
ENDBRANCH   1   2
BRANCH   1  12
ATOM     12  C   UNL     1     -12.391   0.553 -21.478  1.00  0.00     0.000 C 
BRANCH  12  13
ATOM     13  C   UNL     1     -12.009  -0.132 -20.154  1.00  0.00    -0.000 C 
BRANCH  13  14
ATOM     14  C   UNL     1     -10.687   0.395 -19.564  1.00  0.00    -0.000 C 
BRANCH  14  15
ATOM     15  C   UNL     1      -9.416   0.006 -20.344  1.00  0.00    -0.000 C 
BRANCH  15  16
ATOM     16  C   UNL     1      -8.830   1.172 -21.156  1.00  0.00    -0.000 C 
BRANCH  16  17
ATOM     17  C   UNL     1      -8.737   0.859 -22.659  1.00  0.00    -0.000 C 
BRANCH  17  18
ATOM     18  C   UNL     1      -8.752  -0.650 -22.981  1.00  0.00    -0.003 C 
ATOM     19  C   UNL     1      -7.522  -1.085 -23.780  1.00  0.00     0.004 C 
ENDBRANCH  17  18
ENDBRANCH  16  17
ENDBRANCH  15  16
ENDBRANCH  14  15
ENDBRANCH  13  14
ENDBRANCH  12  13
ENDBRANCH   1  12
TORSDOF 14
ENDMDL
MODEL 6
REMARK VINA RESULT:    -3.909     10.204     12.591
REMARK INTER + INTRA:          -9.962
REMARK INTER:                  -9.412
REMARK INTRA:                  -0.551
REMARK UNBOUND:                -2.854
REMARK SMILES CCCCCCCCCCCCCC[C@@H](C)C(=O)[O-]
REMARK SMILES IDX 9 1 10 2 11 3 12 4 13 5 14 6 15 7 16 8 17 9 18 10 19 11 8 12
REMARK SMILES IDX 7 13 6 14 5 15 4 16 3 17 2 18 1 19
REMARK H PARENT
REMARK Flexibility Score: inf
ROOT
ATOM      1  C   UNL     1     -11.403  -0.217 -19.654  1.00  0.00     0.000 C 
ENDROOT
BRANCH   1   2
ATOM      2  C   UNL     1     -12.646   0.293 -20.404  1.00  0.00     0.000 C 
BRANCH   2   3
ATOM      3  C   UNL     1     -13.091  -0.660 -21.526  1.00  0.00     0.000 C 
BRANCH   3   4
ATOM      4  C   UNL     1     -12.003  -1.680 -21.903  1.00  0.00     0.000 C 
BRANCH   4   5
ATOM      5  C   UNL     1     -12.442  -2.617 -23.040  1.00  0.00     0.001 C 
BRANCH   5   6
ATOM      6  C   UNL     1     -12.762  -1.862 -24.344  1.00  0.00     0.009 C 
BRANCH   6   7
ATOM      7  C   UNL     1     -12.014  -2.441 -25.565  1.00  0.00     0.032 C 
ATOM      8  C   UNL     1     -12.812  -3.551 -26.263  1.00  0.00     0.014 C 
BRANCH   7   9
ATOM      9  C   UNL     1     -11.702  -1.343 -26.544  1.00  0.00     0.044 C 
ATOM     10  O   UNL     1     -11.957  -1.488 -27.770  1.00  0.00    -0.550 OA
ATOM     11  O   UNL     1     -11.132  -0.157 -26.100  1.00  0.00    -0.550 OA
ENDBRANCH   7   9
ENDBRANCH   6   7
ENDBRANCH   5   6
ENDBRANCH   4   5
ENDBRANCH   3   4
ENDBRANCH   2   3
ENDBRANCH   1   2
BRANCH   1  12
ATOM     12  C   UNL     1     -11.257   0.413 -18.259  1.00  0.00     0.000 C 
BRANCH  12  13
ATOM     13  C   UNL     1      -9.865   1.029 -18.033  1.00  0.00    -0.000 C 
BRANCH  13  14
ATOM     14  C   UNL     1      -9.078   0.338 -16.903  1.00  0.00    -0.000 C 
BRANCH  14  15
ATOM     15  C   UNL     1      -9.776   0.317 -15.530  1.00  0.00    -0.000 C 
BRANCH  15  16
ATOM     16  C   UNL     1      -9.054   1.173 -14.476  1.00  0.00    -0.000 C 
BRANCH  16  17
ATOM     17  C   UNL     1     -10.013   2.091 -13.699  1.00  0.00    -0.000 C 
BRANCH  17  18
ATOM     18  C   UNL     1      -9.427   2.616 -12.371  1.00  0.00    -0.003 C 
ATOM     19  C   UNL     1     -10.500   3.221 -11.464  1.00  0.00     0.004 C 
ENDBRANCH  17  18
ENDBRANCH  16  17
ENDBRANCH  15  16
ENDBRANCH  14  15
ENDBRANCH  13  14
ENDBRANCH  12  13
ENDBRANCH   1  12
TORSDOF 14
ENDMDL
MODEL 7
REMARK VINA RESULT:    -3.887     16.116     19.157
REMARK INTER + INTRA:          -9.923
REMARK INTER:                  -8.479
REMARK INTRA:                  -1.443
REMARK UNBOUND:                -2.854
REMARK SMILES CCCCCCCCCCCCCC[C@@H](C)C(=O)[O-]
REMARK SMILES IDX 9 1 10 2 11 3 12 4 13 5 14 6 15 7 16 8 17 9 18 10 19 11 8 12
REMARK SMILES IDX 7 13 6 14 5 15 4 16 3 17 2 18 1 19
REMARK H PARENT
REMARK Flexibility Score: inf
ROOT
ATOM      1  C   UNL     1       5.727   5.124 -20.756  1.00  0.00     0.000 C 
ENDROOT
BRANCH   1   2
ATOM      2  C   UNL     1       5.248   5.627 -19.382  1.00  0.00     0.000 C 
BRANCH   2   3
ATOM      3  C   UNL     1       4.215   4.687 -18.736  1.00  0.00     0.000 C 
BRANCH   3   4
ATOM      4  C   UNL     1       3.213   5.436 -17.840  1.00  0.00     0.000 C 
BRANCH   4   5
ATOM      5  C   UNL     1       2.047   6.043 -18.638  1.00  0.00     0.001 C 
BRANCH   5   6
ATOM      6  C   UNL     1       1.810   5.329 -19.982  1.00  0.00     0.009 C 
BRANCH   6   7
ATOM      7  C   UNL     1       1.848   6.298 -21.184  1.00  0.00     0.032 C 
ATOM      8  C   UNL     1       2.401   5.630 -22.451  1.00  0.00     0.014 C 
BRANCH   7   9
ATOM      9  C   UNL     1       0.470   6.838 -21.452  1.00  0.00     0.044 C 
ATOM     10  O   UNL     1       0.314   8.030 -21.831  1.00  0.00    -0.550 OA
ATOM     11  O   UNL     1      -0.641   6.022 -21.285  1.00  0.00    -0.550 OA
ENDBRANCH   7   9
ENDBRANCH   6   7
ENDBRANCH   5   6
ENDBRANCH   4   5
ENDBRANCH   3   4
ENDBRANCH   2   3
ENDBRANCH   1   2
BRANCH   1  12
ATOM     12  C   UNL     1       5.995   6.272 -21.743  1.00  0.00     0.000 C 
BRANCH  12  13
ATOM     13  C   UNL     1       6.990   5.878 -22.849  1.00  0.00    -0.000 C 
BRANCH  13  14
ATOM     14  C   UNL     1       6.429   6.095 -24.267  1.00  0.00    -0.000 C 
BRANCH  14  15
ATOM     15  C   UNL     1       6.399   7.558 -24.747  1.00  0.00    -0.000 C 
BRANCH  15  16
ATOM     16  C   UNL     1       6.191   7.688 -26.264  1.00  0.00    -0.000 C 
BRANCH  16  17
ATOM     17  C   UNL     1       6.352   6.348 -27.002  1.00  0.00    -0.000 C 
BRANCH  17  18
ATOM     18  C   UNL     1       5.134   5.967 -27.871  1.00  0.00    -0.003 C 
ATOM     19  C   UNL     1       3.902   5.639 -27.027  1.00  0.00     0.004 C 
ENDBRANCH  17  18
ENDBRANCH  16  17
ENDBRANCH  15  16
ENDBRANCH  14  15
ENDBRANCH  13  14
ENDBRANCH  12  13
ENDBRANCH   1  12
TORSDOF 14
ENDMDL
MODEL 8
REMARK VINA RESULT:    -3.880     11.148     13.312
REMARK INTER + INTRA:          -9.910
REMARK INTER:                  -7.599
REMARK INTRA:                  -2.311
REMARK UNBOUND:                -2.854
REMARK SMILES CCCCCCCCCCCCCC[C@@H](C)C(=O)[O-]
REMARK SMILES IDX 9 1 10 2 11 3 12 4 13 5 14 6 15 7 16 8 17 9 18 10 19 11 8 12
REMARK SMILES IDX 7 13 6 14 5 15 4 16 3 17 2 18 1 19
REMARK H PARENT
REMARK Flexibility Score: inf
ROOT
ATOM      1  C   UNL     1     -11.981  -3.011 -24.546  1.00  0.00     0.000 C 
ENDROOT
BRANCH   1   2
ATOM      2  C   UNL     1     -12.890  -2.579 -23.382  1.00  0.00     0.000 C 
BRANCH   2   3
ATOM      3  C   UNL     1     -12.107  -1.923 -22.232  1.00  0.00     0.000 C 
BRANCH   3   4
ATOM      4  C   UNL     1     -12.760  -0.619 -21.739  1.00  0.00     0.000 C 
BRANCH   4   5
ATOM      5  C   UNL     1     -12.270  -0.207 -20.341  1.00  0.00     0.001 C 
BRANCH   5   6
ATOM      6  C   UNL     1     -10.737  -0.086 -20.259  1.00  0.00     0.009 C 
BRANCH   6   7
ATOM      7  C   UNL     1     -10.272   0.765 -19.057  1.00  0.00     0.032 C 
ATOM      8  C   UNL     1     -10.817   0.233 -17.723  1.00  0.00     0.014 C 
BRANCH   7   9
ATOM      9  C   UNL     1      -8.770   0.812 -19.012  1.00  0.00     0.044 C 
ATOM     10  O   UNL     1      -8.174   1.842 -18.595  1.00  0.00    -0.550 OA
ATOM     11  O   UNL     1      -8.027  -0.285 -19.429  1.00  0.00    -0.550 OA
ENDBRANCH   7   9
ENDBRANCH   6   7
ENDBRANCH   5   6
ENDBRANCH   4   5
ENDBRANCH   3   4
ENDBRANCH   2   3
ENDBRANCH   1   2
BRANCH   1  12
ATOM     12  C   UNL     1     -12.559  -2.628 -25.918  1.00  0.00     0.000 C 
BRANCH  12  13
ATOM     13  C   UNL     1     -11.950  -1.329 -26.473  1.00  0.00    -0.000 C 
BRANCH  13  14
ATOM     14  C   UNL     1     -12.786  -0.080 -26.133  1.00  0.00    -0.000 C 
BRANCH  14  15
ATOM     15  C   UNL     1     -12.195   0.832 -25.042  1.00  0.00    -0.000 C 
BRANCH  15  16
ATOM     16  C   UNL     1     -10.674   1.015 -25.170  1.00  0.00    -0.000 C 
BRANCH  16  17
ATOM     17  C   UNL     1      -9.919   0.618 -23.890  1.00  0.00    -0.000 C 
BRANCH  17  18
ATOM     18  C   UNL     1      -9.157  -0.719 -24.010  1.00  0.00    -0.003 C 
ATOM     19  C   UNL     1      -8.170  -0.928 -22.860  1.00  0.00     0.004 C 
ENDBRANCH  17  18
ENDBRANCH  16  17
ENDBRANCH  15  16
ENDBRANCH  14  15
ENDBRANCH  13  14
ENDBRANCH  12  13
ENDBRANCH   1  12
TORSDOF 14
ENDMDL
MODEL 9
REMARK VINA RESULT:    -3.868      1.589      3.235
REMARK INTER + INTRA:          -9.888
REMARK INTER:                  -7.358
REMARK INTRA:                  -2.530
REMARK UNBOUND:                -2.854
REMARK SMILES CCCCCCCCCCCCCC[C@@H](C)C(=O)[O-]
REMARK SMILES IDX 9 1 10 2 11 3 12 4 13 5 14 6 15 7 16 8 17 9 18 10 19 11 8 12
REMARK SMILES IDX 7 13 6 14 5 15 4 16 3 17 2 18 1 19
REMARK H PARENT
REMARK Flexibility Score: inf
ROOT
ATOM      1  C   UNL     1     -12.299   6.215 -11.083  1.00  0.00     0.000 C 
ENDROOT
BRANCH   1   2
ATOM      2  C   UNL     1     -11.064   7.114 -10.889  1.00  0.00     0.000 C 
BRANCH   2   3
ATOM      3  C   UNL     1     -10.181   7.185 -12.146  1.00  0.00     0.000 C 
BRANCH   3   4
ATOM      4  C   UNL     1      -9.067   8.240 -12.029  1.00  0.00     0.000 C 
BRANCH   4   5
ATOM      5  C   UNL     1      -8.773   8.627 -10.570  1.00  0.00     0.001 C 
BRANCH   5   6
ATOM      6  C   UNL     1      -7.268   8.609 -10.241  1.00  0.00     0.009 C 
BRANCH   6   7
ATOM      7  C   UNL     1      -6.950   7.805  -8.962  1.00  0.00     0.032 C 
ATOM      8  C   UNL     1      -8.208   7.188  -8.335  1.00  0.00     0.014 C 
BRANCH   7   9
ATOM      9  C   UNL     1      -5.950   6.725  -9.269  1.00  0.00     0.044 C 
ATOM     10  O   UNL     1      -6.032   5.600  -8.708  1.00  0.00    -0.550 OA
ATOM     11  O   UNL     1      -4.928   6.963 -10.178  1.00  0.00    -0.550 OA
ENDBRANCH   7   9
ENDBRANCH   6   7
ENDBRANCH   5   6
ENDBRANCH   4   5
ENDBRANCH   3   4
ENDBRANCH   2   3
ENDBRANCH   1   2
BRANCH   1  12
ATOM     12  C   UNL     1     -12.771   5.571  -9.769  1.00  0.00     0.000 C 
BRANCH  12  13
ATOM     13  C   UNL     1     -12.820   4.034  -9.851  1.00  0.00    -0.000 C 
BRANCH  13  14
ATOM     14  C   UNL     1     -11.928   3.347  -8.800  1.00  0.00    -0.000 C 
BRANCH  14  15
ATOM     15  C   UNL     1     -10.728   4.179  -8.309  1.00  0.00    -0.000 C 
BRANCH  15  16
ATOM     16  C   UNL     1      -9.379   3.642  -8.814  1.00  0.00    -0.000 C 
BRANCH  16  17
ATOM     17  C   UNL     1      -9.040   4.130 -10.233  1.00  0.00    -0.000 C 
BRANCH  17  18
ATOM     18  C   UNL     1      -9.161   3.032 -11.311  1.00  0.00    -0.003 C 
ATOM     19  C   UNL     1     -10.227   3.363 -12.357  1.00  0.00     0.004 C 
ENDBRANCH  17  18
ENDBRANCH  16  17
ENDBRANCH  15  16
ENDBRANCH  14  15
ENDBRANCH  13  14
ENDBRANCH  12  13
ENDBRANCH   1  12
TORSDOF 14
ENDMDL
