MODEL 1
REMARK VINA RESULT:    -4.288      0.000      0.000
REMARK INTER + INTRA:         -14.217
REMARK INTER:                 -10.806
REMARK INTRA:                  -3.411
REMARK UNBOUND:                -3.411
REMARK SMILES CCCCCCCCCCCCCCCCCCCCCCCCCCCC(=O)[O-]
REMARK SMILES IDX 15 1 16 2 17 3 18 4 19 5 20 6 21 7 22 8 23 9 24 10 25 11
REMARK SMILES IDX 26 12 27 13 28 14 29 15 30 16 14 17 13 18 12 19 11 20 10 21
REMARK SMILES IDX 9 22 8 23 7 24 6 25 5 26 4 27 3 28 2 29 1 30
REMARK H PARENT
REMARK Flexibility Score: inf
ROOT
ATOM      1  C   UNL     1     129.071 131.990 135.040  1.00  0.00     0.000 C 
ENDROOT
BRANCH   1   2
ATOM      2  C   UNL     1     130.281 132.821 134.580  1.00  0.00     0.000 C 
BRANCH   2   3
ATOM      3  C   UNL     1     131.062 133.428 135.757  1.00  0.00     0.000 C 
BRANCH   3   4
ATOM      4  C   UNL     1     132.522 133.744 135.399  1.00  0.00     0.000 C 
BRANCH   4   5
ATOM      5  C   UNL     1     133.103 132.775 134.355  1.00  0.00     0.000 C 
BRANCH   5   6
ATOM      6  C   UNL     1     134.031 133.481 133.351  1.00  0.00     0.000 C 
BRANCH   6   7
ATOM      7  C   UNL     1     133.684 134.977 133.178  1.00  0.00     0.000 C 
BRANCH   7   8
ATOM      8  C   UNL     1     133.123 135.329 131.788  1.00  0.00     0.000 C 
BRANCH   8   9
ATOM      9  C   UNL     1     131.608 135.129 131.634  1.00  0.00     0.000 C 
BRANCH   9  10
ATOM     10  C   UNL     1     131.231 134.400 130.329  1.00  0.00     0.000 C 
BRANCH  10  11
ATOM     11  C   UNL     1     131.495 132.887 130.414  1.00  0.00     0.000 C 
BRANCH  11  12
ATOM     12  C   UNL     1     131.072 132.153 129.132  1.00  0.00     0.006 C 
BRANCH  12  13
ATOM     13  C   UNL     1     130.047 132.968 128.340  1.00  0.00     0.053 C 
BRANCH  13  14
ATOM     14  C   UNL     1     128.933 132.091 127.857  1.00  0.00     0.041 C 
ATOM     15  O   UNL     1     127.781 132.568 127.683  1.00  0.00    -0.550 OA
ATOM     16  O   UNL     1     129.170 130.747 127.589  1.00  0.00    -0.550 OA
ENDBRANCH  13  14
ENDBRANCH  12  13
ENDBRANCH  11  12
ENDBRANCH  10  11
ENDBRANCH   9  10
ENDBRANCH   8   9
ENDBRANCH   7   8
ENDBRANCH   6   7
ENDBRANCH   5   6
ENDBRANCH   4   5
ENDBRANCH   3   4
ENDBRANCH   2   3
ENDBRANCH   1   2
BRANCH   1  17
ATOM     17  C   UNL     1     129.425 131.026 136.192  1.00  0.00     0.000 C 
BRANCH  17  18
ATOM     18  C   UNL     1     128.205 130.603 137.026  1.00  0.00     0.000 C 
BRANCH  18  19
ATOM     19  C   UNL     1     127.670 129.215 136.632  1.00  0.00     0.000 C 
BRANCH  19  20
ATOM     20  C   UNL     1     128.702 128.380 135.846  1.00  0.00     0.000 C 
BRANCH  20  21
ATOM     21  C   UNL     1     128.670 126.870 136.160  1.00  0.00     0.000 C 
BRANCH  21  22
ATOM     22  C   UNL     1     128.108 126.491 137.541  1.00  0.00    -0.000 C 
BRANCH  22  23
ATOM     23  C   UNL     1     127.586 125.044 137.667  1.00  0.00    -0.000 C 
BRANCH  23  24
ATOM     24  C   UNL     1     127.262 124.369 136.316  1.00  0.00    -0.000 C 
BRANCH  24  25
ATOM     25  C   UNL     1     125.784 123.964 136.130  1.00  0.00    -0.000 C 
BRANCH  25  26
ATOM     26  C   UNL     1     124.990 124.793 135.097  1.00  0.00    -0.000 C 
BRANCH  26  27
ATOM     27  C   UNL     1     124.826 126.289 135.432  1.00  0.00    -0.000 C 
BRANCH  27  28
ATOM     28  C   UNL     1     125.415 127.251 134.386  1.00  0.00    -0.000 C 
BRANCH  28  29
ATOM     29  C   UNL     1     126.350 126.548 133.393  1.00  0.00    -0.003 C 
ATOM     30  C   UNL     1     127.103 127.563 132.538  1.00  0.00     0.004 C 
ENDBRANCH  28  29
ENDBRANCH  27  28
ENDBRANCH  26  27
ENDBRANCH  25  26
ENDBRANCH  24  25
ENDBRANCH  23  24
ENDBRANCH  22  23
ENDBRANCH  21  22
ENDBRANCH  20  21
ENDBRANCH  19  20
ENDBRANCH  18  19
ENDBRANCH  17  18
ENDBRANCH   1  17
TORSDOF 26
ENDMDL
MODEL 2
REMARK VINA RESULT:    -4.287      1.202      2.823
REMARK INTER + INTRA:         -14.214
REMARK INTER:                 -10.868
REMARK INTRA:                  -3.347
REMARK UNBOUND:                -3.411
REMARK SMILES CCCCCCCCCCCCCCCCCCCCCCCCCCCC(=O)[O-]
REMARK SMILES IDX 15 1 16 2 17 3 18 4 19 5 20 6 21 7 22 8 23 9 24 10 25 11
REMARK SMILES IDX 26 12 27 13 28 14 29 15 30 16 14 17 13 18 12 19 11 20 10 21
REMARK SMILES IDX 9 22 8 23 7 24 6 25 5 26 4 27 3 28 2 29 1 30
REMARK H PARENT
REMARK Flexibility Score: inf
ROOT
ATOM      1  C   UNL     1     130.651 131.338 134.263  1.00  0.00     0.000 C 
ENDROOT
BRANCH   1   2
ATOM      2  C   UNL     1     130.810 132.859 134.086  1.00  0.00     0.000 C 
BRANCH   2   3
ATOM      3  C   UNL     1     132.281 133.303 134.099  1.00  0.00     0.000 C 
BRANCH   3   4
ATOM      4  C   UNL     1     132.458 134.777 133.700  1.00  0.00     0.000 C 
BRANCH   4   5
ATOM      5  C   UNL     1     133.637 134.996 132.738  1.00  0.00     0.000 C 
BRANCH   5   6
ATOM      6  C   UNL     1     133.460 136.253 131.869  1.00  0.00     0.000 C 
BRANCH   6   7
ATOM      7  C   UNL     1     132.111 136.962 132.125  1.00  0.00     0.000 C 
BRANCH   7   8
ATOM      8  C   UNL     1     131.149 136.921 130.924  1.00  0.00     0.000 C 
BRANCH   8   9
ATOM      9  C   UNL     1     130.356 135.612 130.776  1.00  0.00     0.000 C 
BRANCH   9  10
ATOM     10  C   UNL     1     130.965 134.661 129.728  1.00  0.00     0.000 C 
BRANCH  10  11
ATOM     11  C   UNL     1     131.311 133.286 130.326  1.00  0.00     0.000 C 
BRANCH  11  12
ATOM     12  C   UNL     1     131.213 132.161 129.284  1.00  0.00     0.006 C 
BRANCH  12  13
ATOM     13  C   UNL     1     130.333 132.575 128.102  1.00  0.00     0.053 C 
BRANCH  13  14
ATOM     14  C   UNL     1     129.250 131.568 127.871  1.00  0.00     0.041 C 
ATOM     15  O   UNL     1     129.294 130.447 128.442  1.00  0.00    -0.550 OA
ATOM     16  O   UNL     1     128.183 131.872 127.031  1.00  0.00    -0.550 OA
ENDBRANCH  13  14
ENDBRANCH  12  13
ENDBRANCH  11  12
ENDBRANCH  10  11
ENDBRANCH   9  10
ENDBRANCH   8   9
ENDBRANCH   7   8
ENDBRANCH   6   7
ENDBRANCH   5   6
ENDBRANCH   4   5
ENDBRANCH   3   4
ENDBRANCH   2   3
ENDBRANCH   1   2
BRANCH   1  17
ATOM     17  C   UNL     1     130.329 130.947 135.720  1.00  0.00     0.000 C 
BRANCH  17  18
ATOM     18  C   UNL     1     130.754 129.512 136.073  1.00  0.00     0.000 C 
BRANCH  18  19
ATOM     19  C   UNL     1     129.562 128.620 136.462  1.00  0.00     0.000 C 
BRANCH  19  20
ATOM     20  C   UNL     1     128.605 128.357 135.281  1.00  0.00     0.000 C 
BRANCH  20  21
ATOM     21  C   UNL     1     127.179 128.913 135.482  1.00  0.00     0.000 C 
BRANCH  21  22
ATOM     22  C   UNL     1     126.048 128.080 134.853  1.00  0.00    -0.000 C 
BRANCH  22  23
ATOM     23  C   UNL     1     126.404 127.380 133.523  1.00  0.00    -0.000 C 
BRANCH  23  24
ATOM     24  C   UNL     1     126.064 125.874 133.491  1.00  0.00    -0.000 C 
BRANCH  24  25
ATOM     25  C   UNL     1     125.923 125.210 134.878  1.00  0.00    -0.000 C 
BRANCH  25  26
ATOM     26  C   UNL     1     127.196 124.529 135.425  1.00  0.00    -0.000 C 
BRANCH  26  27
ATOM     27  C   UNL     1     127.279 124.413 136.960  1.00  0.00    -0.000 C 
BRANCH  27  28
ATOM     28  C   UNL     1     127.733 125.696 137.678  1.00  0.00    -0.000 C 
BRANCH  28  29
ATOM     29  C   UNL     1     126.557 126.510 138.236  1.00  0.00    -0.003 C 
ATOM     30  C   UNL     1     125.568 125.610 138.971  1.00  0.00     0.004 C 
ENDBRANCH  28  29
ENDBRANCH  27  28
ENDBRANCH  26  27
ENDBRANCH  25  26
ENDBRANCH  24  25
ENDBRANCH  23  24
ENDBRANCH  22  23
ENDBRANCH  21  22
ENDBRANCH  20  21
ENDBRANCH  19  20
ENDBRANCH  18  19
ENDBRANCH  17  18
ENDBRANCH   1  17
TORSDOF 26
ENDMDL
MODEL 3
REMARK VINA RESULT:    -4.224      1.524      8.680
REMARK INTER + INTRA:         -14.057
REMARK INTER:                 -11.095
REMARK INTRA:                  -2.961
REMARK UNBOUND:                -3.411
REMARK SMILES CCCCCCCCCCCCCCCCCCCCCCCCCCCC(=O)[O-]
REMARK SMILES IDX 15 1 16 2 17 3 18 4 19 5 20 6 21 7 22 8 23 9 24 10 25 11
REMARK SMILES IDX 26 12 27 13 28 14 29 15 30 16 14 17 13 18 12 19 11 20 10 21
REMARK SMILES IDX 9 22 8 23 7 24 6 25 5 26 4 27 3 28 2 29 1 30
REMARK H PARENT
REMARK Flexibility Score: inf
ROOT
ATOM      1  C   UNL     1     130.372 132.800 135.923  1.00  0.00     0.000 C 
ENDROOT
BRANCH   1   2
ATOM      2  C   UNL     1     129.443 131.806 136.642  1.00  0.00     0.000 C 
BRANCH   2   3
ATOM      3  C   UNL     1     128.412 131.173 135.695  1.00  0.00     0.000 C 
BRANCH   3   4
ATOM      4  C   UNL     1     127.608 130.046 136.363  1.00  0.00     0.000 C 
BRANCH   4   5
ATOM      5  C   UNL     1     128.230 129.575 137.687  1.00  0.00     0.000 C 
BRANCH   5   6
ATOM      6  C   UNL     1     128.903 128.196 137.561  1.00  0.00     0.000 C 
BRANCH   6   7
ATOM      7  C   UNL     1     128.524 127.472 136.250  1.00  0.00     0.000 C 
BRANCH   7   8
ATOM      8  C   UNL     1     127.429 126.403 136.423  1.00  0.00     0.000 C 
BRANCH   8   9
ATOM      9  C   UNL     1     126.006 126.878 136.090  1.00  0.00     0.000 C 
BRANCH   9  10
ATOM     10  C   UNL     1     125.393 126.132 134.889  1.00  0.00     0.000 C 
BRANCH  10  11
ATOM     11  C   UNL     1     126.335 126.123 133.672  1.00  0.00     0.000 C 
BRANCH  11  12
ATOM     12  C   UNL     1     126.492 127.521 133.053  1.00  0.00     0.006 C 
BRANCH  12  13
ATOM     13  C   UNL     1     127.901 127.721 132.487  1.00  0.00     0.053 C 
BRANCH  13  14
ATOM     14  C   UNL     1     127.859 127.854 130.997  1.00  0.00     0.041 C 
ATOM     15  O   UNL     1     128.157 128.949 130.450  1.00  0.00    -0.550 OA
ATOM     16  O   UNL     1     127.501 126.766 130.209  1.00  0.00    -0.550 OA
ENDBRANCH  13  14
ENDBRANCH  12  13
ENDBRANCH  11  12
ENDBRANCH  10  11
ENDBRANCH   9  10
ENDBRANCH   8   9
ENDBRANCH   7   8
ENDBRANCH   6   7
ENDBRANCH   5   6
ENDBRANCH   4   5
ENDBRANCH   3   4
ENDBRANCH   2   3
ENDBRANCH   1   2
BRANCH   1  17
ATOM     17  C   UNL     1     131.182 132.134 134.792  1.00  0.00     0.000 C 
BRANCH  17  18
ATOM     18  C   UNL     1     132.113 133.110 134.055  1.00  0.00     0.000 C 
BRANCH  18  19
ATOM     19  C   UNL     1     132.332 134.421 134.831  1.00  0.00     0.000 C 
BRANCH  19  20
ATOM     20  C   UNL     1     133.102 135.477 134.012  1.00  0.00     0.000 C 
BRANCH  20  21
ATOM     21  C   UNL     1     133.705 134.944 132.696  1.00  0.00     0.000 C 
BRANCH  21  22
ATOM     22  C   UNL     1     133.135 135.562 131.406  1.00  0.00    -0.000 C 
BRANCH  22  23
ATOM     23  C   UNL     1     131.606 135.773 131.396  1.00  0.00    -0.000 C 
BRANCH  23  24
ATOM     24  C   UNL     1     130.852 134.885 130.381  1.00  0.00    -0.000 C 
BRANCH  24  25
ATOM     25  C   UNL     1     130.996 133.366 130.615  1.00  0.00    -0.000 C 
BRANCH  25  26
ATOM     26  C   UNL     1     131.352 132.529 129.367  1.00  0.00    -0.000 C 
BRANCH  26  27
ATOM     27  C   UNL     1     130.623 132.930 128.070  1.00  0.00    -0.000 C 
BRANCH  27  28
ATOM     28  C   UNL     1     129.651 131.870 127.523  1.00  0.00    -0.000 C 
BRANCH  28  29
ATOM     29  C   UNL     1     128.277 131.917 128.204  1.00  0.00    -0.003 C 
ATOM     30  C   UNL     1     127.610 133.275 127.998  1.00  0.00     0.004 C 
ENDBRANCH  28  29
ENDBRANCH  27  28
ENDBRANCH  26  27
ENDBRANCH  25  26
ENDBRANCH  24  25
ENDBRANCH  23  24
ENDBRANCH  22  23
ENDBRANCH  21  22
ENDBRANCH  20  21
ENDBRANCH  19  20
ENDBRANCH  18  19
ENDBRANCH  17  18
ENDBRANCH   1  17
TORSDOF 26
ENDMDL
MODEL 4
REMARK VINA RESULT:    -4.219      3.186      9.597
REMARK INTER + INTRA:         -14.043
REMARK INTER:                 -10.310
REMARK INTRA:                  -3.734
REMARK UNBOUND:                -3.411
REMARK SMILES CCCCCCCCCCCCCCCCCCCCCCCCCCCC(=O)[O-]
REMARK SMILES IDX 15 1 16 2 17 3 18 4 19 5 20 6 21 7 22 8 23 9 24 10 25 11
REMARK SMILES IDX 26 12 27 13 28 14 29 15 30 16 14 17 13 18 12 19 11 20 10 21
REMARK SMILES IDX 9 22 8 23 7 24 6 25 5 26 4 27 3 28 2 29 1 30
REMARK H PARENT
REMARK Flexibility Score: inf
ROOT
ATOM      1  C   UNL     1     128.201 132.123 126.998  1.00  0.00     0.000 C 
ENDROOT
BRANCH   1   2
ATOM      2  C   UNL     1     129.516 131.366 127.251  1.00  0.00     0.000 C 
BRANCH   2   3
ATOM      3  C   UNL     1     129.920 131.366 128.734  1.00  0.00     0.000 C 
BRANCH   3   4
ATOM      4  C   UNL     1     131.108 132.297 129.024  1.00  0.00     0.000 C 
BRANCH   4   5
ATOM      5  C   UNL     1     131.042 132.927 130.425  1.00  0.00     0.000 C 
BRANCH   5   6
ATOM      6  C   UNL     1     132.385 133.540 130.857  1.00  0.00     0.000 C 
BRANCH   6   7
ATOM      7  C   UNL     1     132.632 133.411 132.377  1.00  0.00     0.000 C 
BRANCH   7   8
ATOM      8  C   UNL     1     131.342 133.274 133.207  1.00  0.00     0.000 C 
BRANCH   8   9
ATOM      9  C   UNL     1     131.508 132.527 134.539  1.00  0.00     0.000 C 
BRANCH   9  10
ATOM     10  C   UNL     1     130.261 132.625 135.439  1.00  0.00     0.000 C 
BRANCH  10  11
ATOM     11  C   UNL     1     129.120 131.719 134.946  1.00  0.00     0.000 C 
BRANCH  11  12
ATOM     12  C   UNL     1     129.631 130.344 134.486  1.00  0.00     0.006 C 
BRANCH  12  13
ATOM     13  C   UNL     1     129.360 129.270 135.543  1.00  0.00     0.053 C 
BRANCH  13  14
ATOM     14  C   UNL     1     128.014 128.650 135.335  1.00  0.00     0.041 C 
ATOM     15  O   UNL     1     127.749 128.056 134.257  1.00  0.00    -0.550 OA
ATOM     16  O   UNL     1     127.051 128.718 136.337  1.00  0.00    -0.550 OA
ENDBRANCH  13  14
ENDBRANCH  12  13
ENDBRANCH  11  12
ENDBRANCH  10  11
ENDBRANCH   9  10
ENDBRANCH   8   9
ENDBRANCH   7   8
ENDBRANCH   6   7
ENDBRANCH   5   6
ENDBRANCH   4   5
ENDBRANCH   3   4
ENDBRANCH   2   3
ENDBRANCH   1   2
BRANCH   1  17
ATOM     17  C   UNL     1     127.627 132.749 128.286  1.00  0.00     0.000 C 
BRANCH  17  18
ATOM     18  C   UNL     1     127.552 134.284 128.235  1.00  0.00     0.000 C 
BRANCH  18  19
ATOM     19  C   UNL     1     128.400 134.956 129.329  1.00  0.00     0.000 C 
BRANCH  19  20
ATOM     20  C   UNL     1     128.267 136.493 129.325  1.00  0.00     0.000 C 
BRANCH  20  21
ATOM     21  C   UNL     1     129.128 137.208 130.387  1.00  0.00     0.000 C 
BRANCH  21  22
ATOM     22  C   UNL     1     130.624 136.845 130.383  1.00  0.00    -0.000 C 
BRANCH  22  23
ATOM     23  C   UNL     1     131.531 137.776 131.215  1.00  0.00    -0.000 C 
BRANCH  23  24
ATOM     24  C   UNL     1     132.250 137.075 132.389  1.00  0.00    -0.000 C 
BRANCH  24  25
ATOM     25  C   UNL     1     133.784 136.985 132.251  1.00  0.00    -0.000 C 
BRANCH  25  26
ATOM     26  C   UNL     1     134.532 136.408 133.473  1.00  0.00    -0.000 C 
BRANCH  26  27
ATOM     27  C   UNL     1     133.667 136.165 134.725  1.00  0.00    -0.000 C 
BRANCH  27  28
ATOM     28  C   UNL     1     134.048 134.915 135.539  1.00  0.00    -0.000 C 
BRANCH  28  29
ATOM     29  C   UNL     1     135.308 134.221 135.005  1.00  0.00    -0.003 C 
ATOM     30  C   UNL     1     135.161 132.703 135.056  1.00  0.00     0.004 C 
ENDBRANCH  28  29
ENDBRANCH  27  28
ENDBRANCH  26  27
ENDBRANCH  25  26
ENDBRANCH  24  25
ENDBRANCH  23  24
ENDBRANCH  22  23
ENDBRANCH  21  22
ENDBRANCH  20  21
ENDBRANCH  19  20
ENDBRANCH  18  19
ENDBRANCH  17  18
ENDBRANCH   1  17
TORSDOF 26
ENDMDL
MODEL 5
REMARK VINA RESULT:    -4.193      4.064      9.396
REMARK INTER + INTRA:         -13.979
REMARK INTER:                  -9.952
REMARK INTRA:                  -4.027
REMARK UNBOUND:                -3.411
REMARK SMILES CCCCCCCCCCCCCCCCCCCCCCCCCCCC(=O)[O-]
REMARK SMILES IDX 15 1 16 2 17 3 18 4 19 5 20 6 21 7 22 8 23 9 24 10 25 11
REMARK SMILES IDX 26 12 27 13 28 14 29 15 30 16 14 17 13 18 12 19 11 20 10 21
REMARK SMILES IDX 9 22 8 23 7 24 6 25 5 26 4 27 3 28 2 29 1 30
REMARK H PARENT
REMARK Flexibility Score: inf
ROOT
ATOM      1  C   UNL     1     125.348 126.911 134.737  1.00  0.00     0.000 C 
ENDROOT
BRANCH   1   2
ATOM      2  C   UNL     1     123.995 126.443 135.301  1.00  0.00     0.000 C 
BRANCH   2   3
ATOM      3  C   UNL     1     124.091 125.994 136.767  1.00  0.00     0.000 C 
BRANCH   3   4
ATOM      4  C   UNL     1     123.651 124.535 136.969  1.00  0.00     0.000 C 
BRANCH   4   5
ATOM      5  C   UNL     1     122.993 123.933 135.717  1.00  0.00     0.000 C 
BRANCH   5   6
ATOM      6  C   UNL     1     123.496 122.510 135.417  1.00  0.00     0.000 C 
BRANCH   6   7
ATOM      7  C   UNL     1     124.627 122.494 134.364  1.00  0.00     0.000 C 
BRANCH   7   8
ATOM      8  C   UNL     1     124.142 122.756 132.926  1.00  0.00     0.000 C 
BRANCH   8   9
ATOM      9  C   UNL     1     124.723 121.806 131.867  1.00  0.00     0.000 C 
BRANCH   9  10
ATOM     10  C   UNL     1     124.081 121.996 130.479  1.00  0.00     0.000 C 
BRANCH  10  11
ATOM     11  C   UNL     1     124.669 123.205 129.730  1.00  0.00     0.000 C 
BRANCH  11  12
ATOM     12  C   UNL     1     125.106 122.844 128.302  1.00  0.00     0.006 C 
BRANCH  12  13
ATOM     13  C   UNL     1     126.600 123.104 128.097  1.00  0.00     0.053 C 
BRANCH  13  14
ATOM     14  C   UNL     1     126.827 124.472 127.532  1.00  0.00     0.041 C 
ATOM     15  O   UNL     1     127.162 124.613 126.327  1.00  0.00    -0.550 OA
ATOM     16  O   UNL     1     126.656 125.595 128.335  1.00  0.00    -0.550 OA
ENDBRANCH  13  14
ENDBRANCH  12  13
ENDBRANCH  11  12
ENDBRANCH  10  11
ENDBRANCH   9  10
ENDBRANCH   8   9
ENDBRANCH   7   8
ENDBRANCH   6   7
ENDBRANCH   5   6
ENDBRANCH   4   5
ENDBRANCH   3   4
ENDBRANCH   2   3
ENDBRANCH   1   2
BRANCH   1  17
ATOM     17  C   UNL     1     126.236 125.731 134.289  1.00  0.00     0.000 C 
BRANCH  17  18
ATOM     18  C   UNL     1     127.456 125.509 135.198  1.00  0.00     0.000 C 
BRANCH  18  19
ATOM     19  C   UNL     1     127.250 124.355 136.195  1.00  0.00     0.000 C 
BRANCH  19  20
ATOM     20  C   UNL     1     127.415 124.799 137.662  1.00  0.00     0.000 C 
BRANCH  20  21
ATOM     21  C   UNL     1     128.206 126.111 137.844  1.00  0.00     0.000 C 
BRANCH  21  22
ATOM     22  C   UNL     1     127.442 127.257 138.530  1.00  0.00    -0.000 C 
BRANCH  22  23
ATOM     23  C   UNL     1     126.840 128.312 137.577  1.00  0.00    -0.000 C 
BRANCH  23  24
ATOM     24  C   UNL     1     127.652 129.623 137.491  1.00  0.00    -0.000 C 
BRANCH  24  25
ATOM     25  C   UNL     1     127.915 130.132 136.058  1.00  0.00    -0.000 C 
BRANCH  25  26
ATOM     26  C   UNL     1     128.346 129.057 135.037  1.00  0.00    -0.000 C 
BRANCH  26  27
ATOM     27  C   UNL     1     129.734 128.430 135.280  1.00  0.00    -0.000 C 
BRANCH  27  28
ATOM     28  C   UNL     1     130.922 129.371 135.012  1.00  0.00    -0.000 C 
BRANCH  28  29
ATOM     29  C   UNL     1     131.516 129.957 136.300  1.00  0.00    -0.003 C 
ATOM     30  C   UNL     1     132.452 131.123 135.990  1.00  0.00     0.004 C 
ENDBRANCH  28  29
ENDBRANCH  27  28
ENDBRANCH  26  27
ENDBRANCH  25  26
ENDBRANCH  24  25
ENDBRANCH  23  24
ENDBRANCH  22  23
ENDBRANCH  21  22
ENDBRANCH  20  21
ENDBRANCH  19  20
ENDBRANCH  18  19
ENDBRANCH  17  18
ENDBRANCH   1  17
TORSDOF 26
ENDMDL
MODEL 6
REMARK VINA RESULT:    -4.168      5.741     10.184
REMARK INTER + INTRA:         -13.914
REMARK INTER:                 -10.270
REMARK INTRA:                  -3.644
REMARK UNBOUND:                -3.411
REMARK SMILES CCCCCCCCCCCCCCCCCCCCCCCCCCCC(=O)[O-]
REMARK SMILES IDX 15 1 16 2 17 3 18 4 19 5 20 6 21 7 22 8 23 9 24 10 25 11
REMARK SMILES IDX 26 12 27 13 28 14 29 15 30 16 14 17 13 18 12 19 11 20 10 21
REMARK SMILES IDX 9 22 8 23 7 24 6 25 5 26 4 27 3 28 2 29 1 30
REMARK H PARENT
REMARK Flexibility Score: inf
ROOT
ATOM      1  C   UNL     1     126.298 123.757 134.872  1.00  0.00     0.000 C 
ENDROOT
BRANCH   1   2
ATOM      2  C   UNL     1     124.774 123.682 134.672  1.00  0.00     0.000 C 
BRANCH   2   3
ATOM      3  C   UNL     1     124.321 122.333 134.092  1.00  0.00     0.000 C 
BRANCH   3   4
ATOM      4  C   UNL     1     122.798 122.250 133.905  1.00  0.00     0.000 C 
BRANCH   4   5
ATOM      5  C   UNL     1     122.381 121.188 132.875  1.00  0.00     0.000 C 
BRANCH   5   6
ATOM      6  C   UNL     1     123.167 119.874 133.036  1.00  0.00     0.000 C 
BRANCH   6   7
ATOM      7  C   UNL     1     123.269 119.082 131.713  1.00  0.00     0.000 C 
BRANCH   7   8
ATOM      8  C   UNL     1     124.709 118.927 131.190  1.00  0.00     0.000 C 
BRANCH   8   9
ATOM      9  C   UNL     1     125.418 120.248 130.850  1.00  0.00     0.000 C 
BRANCH   9  10
ATOM     10  C   UNL     1     124.610 121.126 129.876  1.00  0.00     0.000 C 
BRANCH  10  11
ATOM     11  C   UNL     1     124.619 122.609 130.290  1.00  0.00     0.000 C 
BRANCH  11  12
ATOM     12  C   UNL     1     124.636 123.548 129.074  1.00  0.00     0.006 C 
BRANCH  12  13
ATOM     13  C   UNL     1     125.840 123.266 128.171  1.00  0.00     0.053 C 
BRANCH  13  14
ATOM     14  C   UNL     1     126.508 124.543 127.766  1.00  0.00     0.041 C 
ATOM     15  O   UNL     1     126.648 125.477 128.598  1.00  0.00    -0.550 OA
ATOM     16  O   UNL     1     126.987 124.699 126.469  1.00  0.00    -0.550 OA
ENDBRANCH  13  14
ENDBRANCH  12  13
ENDBRANCH  11  12
ENDBRANCH  10  11
ENDBRANCH   9  10
ENDBRANCH   8   9
ENDBRANCH   7   8
ENDBRANCH   6   7
ENDBRANCH   5   6
ENDBRANCH   4   5
ENDBRANCH   3   4
ENDBRANCH   2   3
ENDBRANCH   1   2
BRANCH   1  17
ATOM     17  C   UNL     1     126.814 125.210 134.915  1.00  0.00     0.000 C 
BRANCH  17  18
ATOM     18  C   UNL     1     126.114 126.134 133.905  1.00  0.00     0.000 C 
BRANCH  18  19
ATOM     19  C   UNL     1     126.097 127.604 134.360  1.00  0.00     0.000 C 
BRANCH  19  20
ATOM     20  C   UNL     1     127.409 128.030 135.049  1.00  0.00     0.000 C 
BRANCH  20  21
ATOM     21  C   UNL     1     127.215 128.934 136.284  1.00  0.00     0.000 C 
BRANCH  21  22
ATOM     22  C   UNL     1     127.959 128.490 137.556  1.00  0.00    -0.000 C 
BRANCH  22  23
ATOM     23  C   UNL     1     128.657 127.115 137.466  1.00  0.00    -0.000 C 
BRANCH  23  24
ATOM     24  C   UNL     1     128.743 126.361 138.811  1.00  0.00    -0.000 C 
BRANCH  24  25
ATOM     25  C   UNL     1     127.970 125.025 138.858  1.00  0.00    -0.000 C 
BRANCH  25  26
ATOM     26  C   UNL     1     126.488 125.096 138.428  1.00  0.00    -0.000 C 
BRANCH  26  27
ATOM     27  C   UNL     1     125.601 126.042 139.262  1.00  0.00    -0.000 C 
BRANCH  27  28
ATOM     28  C   UNL     1     124.150 126.169 138.764  1.00  0.00    -0.000 C 
BRANCH  28  29
ATOM     29  C   UNL     1     124.005 125.845 137.271  1.00  0.00    -0.003 C 
ATOM     30  C   UNL     1     122.535 125.793 136.863  1.00  0.00     0.004 C 
ENDBRANCH  28  29
ENDBRANCH  27  28
ENDBRANCH  26  27
ENDBRANCH  25  26
ENDBRANCH  24  25
ENDBRANCH  23  24
ENDBRANCH  22  23
ENDBRANCH  21  22
ENDBRANCH  20  21
ENDBRANCH  19  20
ENDBRANCH  18  19
ENDBRANCH  17  18
ENDBRANCH   1  17
TORSDOF 26
ENDMDL
MODEL 7
REMARK VINA RESULT:    -4.106      4.427     10.153
REMARK INTER + INTRA:         -13.759
REMARK INTER:                 -10.312
REMARK INTRA:                  -3.447
REMARK UNBOUND:                -3.411
REMARK SMILES CCCCCCCCCCCCCCCCCCCCCCCCCCCC(=O)[O-]
REMARK SMILES IDX 15 1 16 2 17 3 18 4 19 5 20 6 21 7 22 8 23 9 24 10 25 11
REMARK SMILES IDX 26 12 27 13 28 14 29 15 30 16 14 17 13 18 12 19 11 20 10 21
REMARK SMILES IDX 9 22 8 23 7 24 6 25 5 26 4 27 3 28 2 29 1 30
REMARK H PARENT
REMARK Flexibility Score: inf
ROOT
ATOM      1  C   UNL     1     126.289 124.505 134.646  1.00  0.00     0.000 C 
ENDROOT
BRANCH   1   2
ATOM      2  C   UNL     1     125.866 123.845 135.970  1.00  0.00     0.000 C 
BRANCH   2   3
ATOM      3  C   UNL     1     124.972 122.613 135.754  1.00  0.00     0.000 C 
BRANCH   3   4
ATOM      4  C   UNL     1     123.484 122.975 135.626  1.00  0.00     0.000 C 
BRANCH   4   5
ATOM      5  C   UNL     1     122.927 122.718 134.217  1.00  0.00     0.000 C 
BRANCH   5   6
ATOM      6  C   UNL     1     123.892 121.893 133.346  1.00  0.00     0.000 C 
BRANCH   6   7
ATOM      7  C   UNL     1     123.235 120.609 132.793  1.00  0.00     0.000 C 
BRANCH   7   8
ATOM      8  C   UNL     1     123.429 120.414 131.278  1.00  0.00     0.000 C 
BRANCH   8   9
ATOM      9  C   UNL     1     124.841 119.972 130.859  1.00  0.00     0.000 C 
BRANCH   9  10
ATOM     10  C   UNL     1     125.579 121.039 130.029  1.00  0.00     0.000 C 
BRANCH  10  11
ATOM     11  C   UNL     1     124.671 122.232 129.681  1.00  0.00     0.000 C 
BRANCH  11  12
ATOM     12  C   UNL     1     124.998 122.825 128.302  1.00  0.00     0.006 C 
BRANCH  12  13
ATOM     13  C   UNL     1     126.047 123.935 128.410  1.00  0.00     0.053 C 
BRANCH  13  14
ATOM     14  C   UNL     1     127.249 123.610 127.579  1.00  0.00     0.041 C 
ATOM     15  O   UNL     1     128.001 122.652 127.899  1.00  0.00    -0.550 OA
ATOM     16  O   UNL     1     127.536 124.358 126.442  1.00  0.00    -0.550 OA
ENDBRANCH  13  14
ENDBRANCH  12  13
ENDBRANCH  11  12
ENDBRANCH  10  11
ENDBRANCH   9  10
ENDBRANCH   8   9
ENDBRANCH   7   8
ENDBRANCH   6   7
ENDBRANCH   5   6
ENDBRANCH   4   5
ENDBRANCH   3   4
ENDBRANCH   2   3
ENDBRANCH   1   2
BRANCH   1  17
ATOM     17  C   UNL     1     125.469 125.774 134.334  1.00  0.00     0.000 C 
BRANCH  17  18
ATOM     18  C   UNL     1     125.653 126.889 135.377  1.00  0.00     0.000 C 
BRANCH  18  19
ATOM     19  C   UNL     1     126.502 128.059 134.850  1.00  0.00     0.000 C 
BRANCH  19  20
ATOM     20  C   UNL     1     127.960 127.651 134.554  1.00  0.00     0.000 C 
BRANCH  20  21
ATOM     21  C   UNL     1     128.820 128.772 133.934  1.00  0.00     0.000 C 
BRANCH  21  22
ATOM     22  C   UNL     1     130.214 128.961 134.559  1.00  0.00    -0.000 C 
BRANCH  22  23
ATOM     23  C   UNL     1     130.229 129.170 136.088  1.00  0.00    -0.000 C 
BRANCH  23  24
ATOM     24  C   UNL     1     130.215 130.653 136.524  1.00  0.00    -0.000 C 
BRANCH  24  25
ATOM     25  C   UNL     1     128.811 131.240 136.781  1.00  0.00    -0.000 C 
BRANCH  25  26
ATOM     26  C   UNL     1     127.753 130.241 137.299  1.00  0.00    -0.000 C 
BRANCH  26  27
ATOM     27  C   UNL     1     127.820 129.926 138.806  1.00  0.00    -0.000 C 
BRANCH  27  28
ATOM     28  C   UNL     1     128.363 128.528 139.149  1.00  0.00    -0.000 C 
BRANCH  28  29
ATOM     29  C   UNL     1     127.583 127.403 138.456  1.00  0.00    -0.003 C 
ATOM     30  C   UNL     1     128.525 126.312 137.954  1.00  0.00     0.004 C 
ENDBRANCH  28  29
ENDBRANCH  27  28
ENDBRANCH  26  27
ENDBRANCH  25  26
ENDBRANCH  24  25
ENDBRANCH  23  24
ENDBRANCH  22  23
ENDBRANCH  21  22
ENDBRANCH  20  21
ENDBRANCH  19  20
ENDBRANCH  18  19
ENDBRANCH  17  18
ENDBRANCH   1  17
TORSDOF 26
ENDMDL
MODEL 8
REMARK VINA RESULT:    -4.106      4.494     11.090
REMARK INTER + INTRA:         -13.758
REMARK INTER:                 -10.892
REMARK INTRA:                  -2.866
REMARK UNBOUND:                -3.411
REMARK SMILES CCCCCCCCCCCCCCCCCCCCCCCCCCCC(=O)[O-]
REMARK SMILES IDX 15 1 16 2 17 3 18 4 19 5 20 6 21 7 22 8 23 9 24 10 25 11
REMARK SMILES IDX 26 12 27 13 28 14 29 15 30 16 14 17 13 18 12 19 11 20 10 21
REMARK SMILES IDX 9 22 8 23 7 24 6 25 5 26 4 27 3 28 2 29 1 30
REMARK H PARENT
REMARK Flexibility Score: inf
ROOT
ATOM      1  C   UNL     1     126.135 124.956 134.695  1.00  0.00     0.000 C 
ENDROOT
BRANCH   1   2
ATOM      2  C   UNL     1     124.747 124.794 135.338  1.00  0.00     0.000 C 
BRANCH   2   3
ATOM      3  C   UNL     1     124.172 123.381 135.152  1.00  0.00     0.000 C 
BRANCH   3   4
ATOM      4  C   UNL     1     124.595 122.740 133.821  1.00  0.00     0.000 C 
BRANCH   4   5
ATOM      5  C   UNL     1     123.506 121.834 133.223  1.00  0.00     0.000 C 
BRANCH   5   6
ATOM      6  C   UNL     1     122.989 120.794 134.232  1.00  0.00     0.000 C 
BRANCH   6   7
ATOM      7  C   UNL     1     122.522 119.490 133.548  1.00  0.00     0.000 C 
BRANCH   7   8
ATOM      8  C   UNL     1     123.027 119.330 132.102  1.00  0.00     0.000 C 
BRANCH   8   9
ATOM      9  C   UNL     1     123.778 118.018 131.822  1.00  0.00     0.000 C 
BRANCH   9  10
ATOM     10  C   UNL     1     125.241 118.245 131.397  1.00  0.00     0.000 C 
BRANCH  10  11
ATOM     11  C   UNL     1     125.343 118.993 130.056  1.00  0.00     0.000 C 
BRANCH  11  12
ATOM     12  C   UNL     1     126.019 120.365 130.209  1.00  0.00     0.006 C 
BRANCH  12  13
ATOM     13  C   UNL     1     125.042 121.502 129.898  1.00  0.00     0.053 C 
BRANCH  13  14
ATOM     14  C   UNL     1     125.509 122.292 128.716  1.00  0.00     0.041 C 
ATOM     15  O   UNL     1     126.741 122.452 128.506  1.00  0.00    -0.550 OA
ATOM     16  O   UNL     1     124.585 122.846 127.836  1.00  0.00    -0.550 OA
ENDBRANCH  13  14
ENDBRANCH  12  13
ENDBRANCH  11  12
ENDBRANCH  10  11
ENDBRANCH   9  10
ENDBRANCH   8   9
ENDBRANCH   7   8
ENDBRANCH   6   7
ENDBRANCH   5   6
ENDBRANCH   4   5
ENDBRANCH   3   4
ENDBRANCH   2   3
ENDBRANCH   1   2
BRANCH   1  17
ATOM     17  C   UNL     1     127.280 124.681 135.692  1.00  0.00     0.000 C 
BRANCH  17  18
ATOM     18  C   UNL     1     126.861 124.856 137.161  1.00  0.00     0.000 C 
BRANCH  18  19
ATOM     19  C   UNL     1     128.026 125.308 138.059  1.00  0.00     0.000 C 
BRANCH  19  20
ATOM     20  C   UNL     1     128.475 126.755 137.768  1.00  0.00     0.000 C 
BRANCH  20  21
ATOM     21  C   UNL     1     127.318 127.769 137.655  1.00  0.00     0.000 C 
BRANCH  21  22
ATOM     22  C   UNL     1     127.547 128.930 136.671  1.00  0.00    -0.000 C 
BRANCH  22  23
ATOM     23  C   UNL     1     127.044 128.684 135.232  1.00  0.00    -0.000 C 
BRANCH  23  24
ATOM     24  C   UNL     1     128.066 127.973 134.318  1.00  0.00    -0.000 C 
BRANCH  24  25
ATOM     25  C   UNL     1     129.513 128.498 134.429  1.00  0.00    -0.000 C 
BRANCH  25  26
ATOM     26  C   UNL     1     129.754 129.917 133.870  1.00  0.00    -0.000 C 
BRANCH  26  27
ATOM     27  C   UNL     1     130.176 130.976 134.908  1.00  0.00    -0.000 C 
BRANCH  27  28
ATOM     28  C   UNL     1     130.367 132.393 134.341  1.00  0.00    -0.000 C 
BRANCH  28  29
ATOM     29  C   UNL     1     131.842 132.810 134.268  1.00  0.00    -0.003 C 
ATOM     30  C   UNL     1     132.057 133.881 133.203  1.00  0.00     0.004 C 
ENDBRANCH  28  29
ENDBRANCH  27  28
ENDBRANCH  26  27
ENDBRANCH  25  26
ENDBRANCH  24  25
ENDBRANCH  23  24
ENDBRANCH  22  23
ENDBRANCH  21  22
ENDBRANCH  20  21
ENDBRANCH  19  20
ENDBRANCH  18  19
ENDBRANCH  17  18
ENDBRANCH   1  17
TORSDOF 26
ENDMDL
MODEL 9
REMARK VINA RESULT:    -4.092      1.661      3.577
REMARK INTER + INTRA:         -13.722
REMARK INTER:                 -10.531
REMARK INTRA:                  -3.191
REMARK UNBOUND:                -3.411
REMARK SMILES CCCCCCCCCCCCCCCCCCCCCCCCCCCC(=O)[O-]
REMARK SMILES IDX 15 1 16 2 17 3 18 4 19 5 20 6 21 7 22 8 23 9 24 10 25 11
REMARK SMILES IDX 26 12 27 13 28 14 29 15 30 16 14 17 13 18 12 19 11 20 10 21
REMARK SMILES IDX 9 22 8 23 7 24 6 25 5 26 4 27 3 28 2 29 1 30
REMARK H PARENT
REMARK Flexibility Score: inf
ROOT
ATOM      1  C   UNL     1     131.795 132.977 134.781  1.00  0.00     0.000 C 
ENDROOT
BRANCH   1   2
ATOM      2  C   UNL     1     131.806 133.234 133.264  1.00  0.00     0.000 C 
BRANCH   2   3
ATOM      3  C   UNL     1     133.082 133.951 132.797  1.00  0.00     0.000 C 
BRANCH   3   4
ATOM      4  C   UNL     1     133.335 135.264 133.555  1.00  0.00     0.000 C 
BRANCH   4   5
ATOM      5  C   UNL     1     133.560 136.460 132.615  1.00  0.00     0.000 C 
BRANCH   5   6
ATOM      6  C   UNL     1     132.523 137.576 132.826  1.00  0.00     0.000 C 
BRANCH   6   7
ATOM      7  C   UNL     1     131.903 138.065 131.498  1.00  0.00     0.000 C 
BRANCH   7   8
ATOM      8  C   UNL     1     130.449 137.608 131.284  1.00  0.00     0.000 C 
BRANCH   8   9
ATOM      9  C   UNL     1     130.242 136.645 130.105  1.00  0.00     0.000 C 
BRANCH   9  10
ATOM     10  C   UNL     1     130.248 135.165 130.533  1.00  0.00     0.000 C 
BRANCH  10  11
ATOM     11  C   UNL     1     131.253 134.331 129.719  1.00  0.00     0.000 C 
BRANCH  11  12
ATOM     12  C   UNL     1     130.704 132.937 129.379  1.00  0.00     0.006 C 
BRANCH  12  13
ATOM     13  C   UNL     1     129.966 132.943 128.037  1.00  0.00     0.053 C 
BRANCH  13  14
ATOM     14  C   UNL     1     129.283 131.631 127.803  1.00  0.00     0.041 C 
ATOM     15  O   UNL     1     128.598 131.451 126.762  1.00  0.00    -0.550 OA
ATOM     16  O   UNL     1     129.411 130.602 128.730  1.00  0.00    -0.550 OA
ENDBRANCH  13  14
ENDBRANCH  12  13
ENDBRANCH  11  12
ENDBRANCH  10  11
ENDBRANCH   9  10
ENDBRANCH   8   9
ENDBRANCH   7   8
ENDBRANCH   6   7
ENDBRANCH   5   6
ENDBRANCH   4   5
ENDBRANCH   3   4
ENDBRANCH   2   3
ENDBRANCH   1   2
BRANCH   1  17
ATOM     17  C   UNL     1     130.364 132.898 135.353  1.00  0.00     0.000 C 
BRANCH  17  18
ATOM     18  C   UNL     1     130.290 133.227 136.853  1.00  0.00     0.000 C 
BRANCH  18  19
ATOM     19  C   UNL     1     129.871 132.016 137.706  1.00  0.00     0.000 C 
BRANCH  19  20
ATOM     20  C   UNL     1     129.415 130.816 136.852  1.00  0.00     0.000 C 
BRANCH  20  21
ATOM     21  C   UNL     1     130.358 129.596 136.915  1.00  0.00     0.000 C 
BRANCH  21  22
ATOM     22  C   UNL     1     130.568 128.851 135.585  1.00  0.00    -0.000 C 
BRANCH  22  23
ATOM     23  C   UNL     1     129.934 129.519 134.346  1.00  0.00    -0.000 C 
BRANCH  23  24
ATOM     24  C   UNL     1     128.478 129.082 134.069  1.00  0.00    -0.000 C 
BRANCH  24  25
ATOM     25  C   UNL     1     128.151 127.625 134.458  1.00  0.00    -0.000 C 
BRANCH  25  26
ATOM     26  C   UNL     1     126.911 127.436 135.359  1.00  0.00    -0.000 C 
BRANCH  26  27
ATOM     27  C   UNL     1     127.199 127.320 136.868  1.00  0.00    -0.000 C 
BRANCH  27  28
ATOM     28  C   UNL     1     128.409 126.438 137.227  1.00  0.00    -0.000 C 
BRANCH  28  29
ATOM     29  C   UNL     1     128.473 126.099 138.722  1.00  0.00    -0.003 C 
ATOM     30  C   UNL     1     127.643 124.858 139.039  1.00  0.00     0.004 C 
ENDBRANCH  28  29
ENDBRANCH  27  28
ENDBRANCH  26  27
ENDBRANCH  25  26
ENDBRANCH  24  25
ENDBRANCH  23  24
ENDBRANCH  22  23
ENDBRANCH  21  22
ENDBRANCH  20  21
ENDBRANCH  19  20
ENDBRANCH  18  19
ENDBRANCH  17  18
ENDBRANCH   1  17
TORSDOF 26
ENDMDL
