MODEL 1
REMARK VINA RESULT:    -6.642      0.000      0.000
REMARK INTER + INTRA:          -8.931
REMARK INTER:                  -8.389
REMARK INTRA:                  -0.542
REMARK UNBOUND:                -0.542
REMARK SMILES Oc1cc(O)cc(CCc2ccccc2O)c1
REMARK SMILES IDX 9 1 10 2 12 3 13 4 11 5 14 6 15 7 16 8 8 10 7 11 6 12 17 13
REMARK SMILES IDX 4 14 2 15 3 16 5 17 1 19
REMARK H PARENT 16 9 5 18 1 20
REMARK Flexibility Score: inf
ROOT
ATOM      1  C   UNL     1       0.691  -4.220  24.620  1.00  0.00     0.044 C 
ENDROOT
BRANCH   1   2
ATOM      2  C   UNL     1       1.689  -5.323  24.879  1.00  0.00    -0.006 A 
ATOM      3  C   UNL     1       3.671  -6.538  24.155  1.00  0.00     0.001 A 
ATOM      4  C   UNL     1       3.611  -7.332  25.300  1.00  0.00     0.004 A 
ATOM      5  C   UNL     1       2.720  -5.538  23.946  1.00  0.00     0.007 A 
ATOM      6  C   UNL     1       2.605  -7.122  26.244  1.00  0.00     0.046 A 
ATOM      7  C   UNL     1       1.646  -6.119  26.052  1.00  0.00     0.118 A 
BRANCH   7   8
ATOM      8  O   UNL     1       0.676  -5.942  27.042  1.00  0.00    -0.508 OA
ATOM      9  H   UNL     1       0.828  -5.401  27.883  1.00  0.00     0.293 HD
ENDBRANCH   7   8
ENDBRANCH   1   2
BRANCH   1  10
ATOM     10  C   UNL     1       0.037  -4.390  23.244  1.00  0.00     0.040 C 
BRANCH  10  11
ATOM     11  C   UNL     1       0.553  -3.354  22.283  1.00  0.00    -0.040 A 
ATOM     12  C   UNL     1       0.453  -3.563  20.897  1.00  0.00     0.050 A 
ATOM     13  C   UNL     1       1.187  -2.196  22.761  1.00  0.00     0.050 A 
ATOM     14  C   UNL     1       0.963  -2.614  20.000  1.00  0.00     0.119 A 
ATOM     15  C   UNL     1       1.697  -1.247  21.865  1.00  0.00     0.119 A 
ATOM     16  C   UNL     1       1.581  -1.458  20.488  1.00  0.00     0.092 A 
BRANCH  14  17
ATOM     17  O   UNL     1       0.862  -2.812  18.625  1.00  0.00    -0.508 OA
ATOM     18  H   UNL     1       1.134  -2.093  17.965  1.00  0.00     0.293 HD
ENDBRANCH  14  17
BRANCH  15  19
ATOM     19  O   UNL     1       2.323  -0.093  22.333  1.00  0.00    -0.508 OA
ATOM     20  H   UNL     1       3.076   0.346  21.817  1.00  0.00     0.293 HD
ENDBRANCH  15  19
ENDBRANCH  10  11
ENDBRANCH   1  10
TORSDOF 6
ENDMDL
MODEL 2
REMARK VINA RESULT:    -6.608      0.137      2.032
REMARK INTER + INTRA:          -8.888
REMARK INTER:                  -8.361
REMARK INTRA:                  -0.527
REMARK UNBOUND:                -0.542
REMARK SMILES Oc1cc(O)cc(CCc2ccccc2O)c1
REMARK SMILES IDX 9 1 10 2 12 3 13 4 11 5 14 6 15 7 16 8 8 10 7 11 6 12 17 13
REMARK SMILES IDX 4 14 2 15 3 16 5 17 1 19
REMARK H PARENT 16 9 5 18 1 20
REMARK Flexibility Score: inf
ROOT
ATOM      1  C   UNL     1       0.749  -4.194  24.584  1.00  0.00     0.044 C 
ENDROOT
BRANCH   1   2
ATOM      2  C   UNL     1       1.723  -5.310  24.876  1.00  0.00    -0.006 A 
ATOM      3  C   UNL     1       3.693  -6.572  24.201  1.00  0.00     0.001 A 
ATOM      4  C   UNL     1       3.602  -7.346  25.358  1.00  0.00     0.004 A 
ATOM      5  C   UNL     1       2.763  -5.559  23.962  1.00  0.00     0.007 A 
ATOM      6  C   UNL     1       2.586  -7.102  26.284  1.00  0.00     0.046 A 
ATOM      7  C   UNL     1       1.648  -6.086  26.061  1.00  0.00     0.118 A 
BRANCH   7   8
ATOM      8  O   UNL     1       0.669  -5.874  27.034  1.00  0.00    -0.508 OA
ATOM      9  H   UNL     1       0.183  -6.622  27.511  1.00  0.00     0.293 HD
ENDBRANCH   7   8
ENDBRANCH   1   2
BRANCH   1  10
ATOM     10  C   UNL     1       0.143  -4.352  23.185  1.00  0.00     0.040 C 
BRANCH  10  11
ATOM     11  C   UNL     1       0.697  -3.313  22.249  1.00  0.00    -0.040 A 
ATOM     12  C   UNL     1       1.371  -2.190  22.758  1.00  0.00     0.050 A 
ATOM     13  C   UNL     1       0.497  -3.428  20.864  1.00  0.00     0.050 A 
ATOM     14  C   UNL     1       1.858  -1.205  21.889  1.00  0.00     0.119 A 
ATOM     15  C   UNL     1       0.984  -2.442  19.995  1.00  0.00     0.119 A 
ATOM     16  C   UNL     1       1.666  -1.335  20.510  1.00  0.00     0.092 A 
BRANCH  14  17
ATOM     17  O   UNL     1       2.533  -0.091  22.386  1.00  0.00    -0.508 OA
ATOM     18  H   UNL     1       3.290   0.343  21.872  1.00  0.00     0.293 HD
ENDBRANCH  14  17
BRANCH  15  19
ATOM     19  O   UNL     1       0.795  -2.553  18.618  1.00  0.00    -0.508 OA
ATOM     20  H   UNL     1      -0.107  -2.795  18.226  1.00  0.00     0.293 HD
ENDBRANCH  15  19
ENDBRANCH  10  11
ENDBRANCH   1  10
TORSDOF 6
ENDMDL
MODEL 3
REMARK VINA RESULT:    -6.489      3.343      5.543
REMARK INTER + INTRA:          -8.738
REMARK INTER:                  -8.245
REMARK INTRA:                  -0.492
REMARK UNBOUND:                -0.542
REMARK SMILES Oc1cc(O)cc(CCc2ccccc2O)c1
REMARK SMILES IDX 9 1 10 2 12 3 13 4 11 5 14 6 15 7 16 8 8 10 7 11 6 12 17 13
REMARK SMILES IDX 4 14 2 15 3 16 5 17 1 19
REMARK H PARENT 16 9 5 18 1 20
REMARK Flexibility Score: inf
ROOT
ATOM      1  C   UNL     1       2.796  -1.260  20.771  1.00  0.00     0.044 C 
ENDROOT
BRANCH   1   2
ATOM      2  C   UNL     1       1.848  -2.264  21.381  1.00  0.00    -0.006 A 
ATOM      3  C   UNL     1       1.141  -3.521  23.343  1.00  0.00     0.001 A 
ATOM      4  C   UNL     1       0.106  -4.098  22.608  1.00  0.00     0.004 A 
ATOM      5  C   UNL     1       2.005  -2.607  22.737  1.00  0.00     0.007 A 
ATOM      6  C   UNL     1      -0.074  -3.757  21.267  1.00  0.00     0.046 A 
ATOM      7  C   UNL     1       0.781  -2.838  20.645  1.00  0.00     0.118 A 
BRANCH   7   8
ATOM      8  O   UNL     1       0.537  -2.518  19.307  1.00  0.00    -0.508 OA
ATOM      9  H   UNL     1       0.503  -1.570  18.956  1.00  0.00     0.293 HD
ENDBRANCH   7   8
ENDBRANCH   1   2
BRANCH   1  10
ATOM     10  C   UNL     1       2.253   0.165  20.925  1.00  0.00     0.040 C 
BRANCH  10  11
ATOM     11  C   UNL     1       2.529   0.972  19.685  1.00  0.00    -0.040 A 
ATOM     12  C   UNL     1       2.756   0.327  18.458  1.00  0.00     0.050 A 
ATOM     13  C   UNL     1       2.617   2.372  19.755  1.00  0.00     0.050 A 
ATOM     14  C   UNL     1       3.045   1.076  17.309  1.00  0.00     0.119 A 
ATOM     15  C   UNL     1       2.907   3.121  18.607  1.00  0.00     0.119 A 
ATOM     16  C   UNL     1       3.118   2.470  17.387  1.00  0.00     0.092 A 
BRANCH  14  17
ATOM     17  O   UNL     1       3.266   0.443  16.087  1.00  0.00    -0.508 OA
ATOM     18  H   UNL     1       3.569  -0.522  16.037  1.00  0.00     0.293 HD
ENDBRANCH  14  17
BRANCH  15  19
ATOM     19  O   UNL     1       2.990   4.511  18.667  1.00  0.00    -0.508 OA
ATOM     20  H   UNL     1       2.353   5.054  19.237  1.00  0.00     0.293 HD
ENDBRANCH  15  19
ENDBRANCH  10  11
ENDBRANCH   1  10
TORSDOF 6
ENDMDL
MODEL 4
REMARK VINA RESULT:    -6.477      3.402      5.853
REMARK INTER + INTRA:          -8.722
REMARK INTER:                  -8.227
REMARK INTRA:                  -0.496
REMARK UNBOUND:                -0.542
REMARK SMILES Oc1cc(O)cc(CCc2ccccc2O)c1
REMARK SMILES IDX 9 1 10 2 12 3 13 4 11 5 14 6 15 7 16 8 8 10 7 11 6 12 17 13
REMARK SMILES IDX 4 14 2 15 3 16 5 17 1 19
REMARK H PARENT 16 9 5 18 1 20
REMARK Flexibility Score: inf
ROOT
ATOM      1  C   UNL     1       2.743  -1.196  20.931  1.00  0.00     0.044 C 
ENDROOT
BRANCH   1   2
ATOM      2  C   UNL     1       1.767  -2.207  21.484  1.00  0.00    -0.006 A 
ATOM      3  C   UNL     1       0.885  -3.394  23.418  1.00  0.00     0.001 A 
ATOM      4  C   UNL     1      -0.038  -4.050  22.603  1.00  0.00     0.004 A 
ATOM      5  C   UNL     1       1.780  -2.476  22.865  1.00  0.00     0.007 A 
ATOM      6  C   UNL     1      -0.075  -3.782  21.234  1.00  0.00     0.046 A 
ATOM      7  C   UNL     1       0.812  -2.860  20.664  1.00  0.00     0.118 A 
BRANCH   7   8
ATOM      8  O   UNL     1       0.713  -2.618  19.292  1.00  0.00    -0.508 OA
ATOM      9  H   UNL     1      -0.066  -2.926  18.724  1.00  0.00     0.293 HD
ENDBRANCH   7   8
ENDBRANCH   1   2
BRANCH   1  10
ATOM     10  C   UNL     1       2.152   0.217  20.987  1.00  0.00     0.040 C 
BRANCH  10  11
ATOM     11  C   UNL     1       2.522   0.994  19.753  1.00  0.00    -0.040 A 
ATOM     12  C   UNL     1       2.615   2.395  19.800  1.00  0.00     0.050 A 
ATOM     13  C   UNL     1       2.720   0.330  18.531  1.00  0.00     0.050 A 
ATOM     14  C   UNL     1       2.926   3.121  18.642  1.00  0.00     0.119 A 
ATOM     15  C   UNL     1       3.031   1.057  17.374  1.00  0.00     0.119 A 
ATOM     16  C   UNL     1       3.136   2.450  17.434  1.00  0.00     0.092 A 
BRANCH  14  17
ATOM     17  O   UNL     1       3.027   4.511  18.683  1.00  0.00    -0.508 OA
ATOM     18  H   UNL     1       2.323   5.079  19.138  1.00  0.00     0.293 HD
ENDBRANCH  14  17
BRANCH  15  19
ATOM     19  O   UNL     1       3.235   0.404  16.159  1.00  0.00    -0.508 OA
ATOM     20  H   UNL     1       2.881   0.783  15.289  1.00  0.00     0.293 HD
ENDBRANCH  15  19
ENDBRANCH  10  11
ENDBRANCH   1  10
TORSDOF 6
ENDMDL
MODEL 5
REMARK VINA RESULT:    -6.373      2.139      3.346
REMARK INTER + INTRA:          -8.591
REMARK INTER:                  -8.049
REMARK INTRA:                  -0.543
REMARK UNBOUND:                -0.542
REMARK SMILES Oc1cc(O)cc(CCc2ccccc2O)c1
REMARK SMILES IDX 9 1 10 2 12 3 13 4 11 5 14 6 15 7 16 8 8 10 7 11 6 12 17 13
REMARK SMILES IDX 4 14 2 15 3 16 5 17 1 19
REMARK H PARENT 16 9 5 18 1 20
REMARK Flexibility Score: inf
ROOT
ATOM      1  C   UNL     1       4.395  -5.190  23.830  1.00  0.00     0.044 C 
ENDROOT
BRANCH   1   2
ATOM      2  C   UNL     1       4.054  -6.235  24.865  1.00  0.00    -0.006 A 
ATOM      3  C   UNL     1       2.342  -7.482  26.065  1.00  0.00     0.001 A 
ATOM      4  C   UNL     1       3.329  -8.189  26.752  1.00  0.00     0.004 A 
ATOM      5  C   UNL     1       2.700  -6.515  25.125  1.00  0.00     0.007 A 
ATOM      6  C   UNL     1       4.677  -7.936  26.494  1.00  0.00     0.046 A 
ATOM      7  C   UNL     1       5.054  -6.972  25.551  1.00  0.00     0.118 A 
BRANCH   7   8
ATOM      8  O   UNL     1       6.418  -6.778  25.320  1.00  0.00    -0.508 OA
ATOM      9  H   UNL     1       6.886  -5.891  25.447  1.00  0.00     0.293 HD
ENDBRANCH   7   8
ENDBRANCH   1   2
BRANCH   1  10
ATOM     10  C   UNL     1       3.856  -5.592  22.453  1.00  0.00     0.040 C 
BRANCH  10  11
ATOM     11  C   UNL     1       2.943  -4.526  21.911  1.00  0.00    -0.040 A 
ATOM     12  C   UNL     1       2.195  -3.724  22.789  1.00  0.00     0.050 A 
ATOM     13  C   UNL     1       2.788  -4.363  20.525  1.00  0.00     0.050 A 
ATOM     14  C   UNL     1       1.318  -2.753  22.285  1.00  0.00     0.119 A 
ATOM     15  C   UNL     1       1.912  -3.392  20.021  1.00  0.00     0.119 A 
ATOM     16  C   UNL     1       1.182  -2.588  20.903  1.00  0.00     0.092 A 
BRANCH  14  17
ATOM     17  O   UNL     1       0.578  -1.949  23.149  1.00  0.00    -0.508 OA
ATOM     18  H   UNL     1       0.723  -0.948  23.195  1.00  0.00     0.293 HD
ENDBRANCH  14  17
BRANCH  15  19
ATOM     19  O   UNL     1       1.757  -3.219  18.647  1.00  0.00    -0.508 OA
ATOM     20  H   UNL     1       1.954  -3.969  17.994  1.00  0.00     0.293 HD
ENDBRANCH  15  19
ENDBRANCH  10  11
ENDBRANCH   1  10
TORSDOF 6
ENDMDL
MODEL 6
REMARK VINA RESULT:    -6.369      1.216      1.654
REMARK INTER + INTRA:          -8.587
REMARK INTER:                  -8.076
REMARK INTRA:                  -0.511
REMARK UNBOUND:                -0.542
REMARK SMILES Oc1cc(O)cc(CCc2ccccc2O)c1
REMARK SMILES IDX 9 1 10 2 12 3 13 4 11 5 14 6 15 7 16 8 8 10 7 11 6 12 17 13
REMARK SMILES IDX 4 14 2 15 3 16 5 17 1 19
REMARK H PARENT 16 9 5 18 1 20
REMARK Flexibility Score: inf
ROOT
ATOM      1  C   UNL     1       0.907  -4.194  24.653  1.00  0.00     0.044 C 
ENDROOT
BRANCH   1   2
ATOM      2  C   UNL     1       1.859  -5.330  24.939  1.00  0.00    -0.006 A 
ATOM      3  C   UNL     1       2.274  -7.458  26.048  1.00  0.00     0.001 A 
ATOM      4  C   UNL     1       3.556  -7.502  25.498  1.00  0.00     0.004 A 
ATOM      5  C   UNL     1       1.430  -6.383  25.769  1.00  0.00     0.007 A 
ATOM      6  C   UNL     1       3.992  -6.475  24.660  1.00  0.00     0.046 A 
ATOM      7  C   UNL     1       3.155  -5.391  24.366  1.00  0.00     0.118 A 
BRANCH   7   8
ATOM      8  O   UNL     1       3.639  -4.405  23.503  1.00  0.00    -0.508 OA
ATOM      9  H   UNL     1       3.733  -4.532  22.504  1.00  0.00     0.293 HD
ENDBRANCH   7   8
ENDBRANCH   1   2
BRANCH   1  10
ATOM     10  C   UNL     1       0.193  -4.407  23.313  1.00  0.00     0.040 C 
BRANCH  10  11
ATOM     11  C   UNL     1       0.628  -3.371  22.312  1.00  0.00    -0.040 A 
ATOM     12  C   UNL     1       0.519  -3.628  20.936  1.00  0.00     0.050 A 
ATOM     13  C   UNL     1       1.199  -2.163  22.745  1.00  0.00     0.050 A 
ATOM     14  C   UNL     1       0.955  -2.678  20.002  1.00  0.00     0.119 A 
ATOM     15  C   UNL     1       1.635  -1.213  21.812  1.00  0.00     0.119 A 
ATOM     16  C   UNL     1       1.509  -1.472  20.444  1.00  0.00     0.092 A 
BRANCH  14  17
ATOM     17  O   UNL     1       0.844  -2.923  18.635  1.00  0.00    -0.508 OA
ATOM     18  H   UNL     1      -0.029  -3.227  18.221  1.00  0.00     0.293 HD
ENDBRANCH  14  17
BRANCH  15  19
ATOM     19  O   UNL     1       2.197  -0.009  22.235  1.00  0.00    -0.508 OA
ATOM     20  H   UNL     1       2.207   0.808  21.636  1.00  0.00     0.293 HD
ENDBRANCH  15  19
ENDBRANCH  10  11
ENDBRANCH   1  10
TORSDOF 6
ENDMDL
MODEL 7
REMARK VINA RESULT:    -6.351      2.088      2.714
REMARK INTER + INTRA:          -8.564
REMARK INTER:                  -8.047
REMARK INTRA:                  -0.516
REMARK UNBOUND:                -0.542
REMARK SMILES Oc1cc(O)cc(CCc2ccccc2O)c1
REMARK SMILES IDX 9 1 10 2 12 3 13 4 11 5 14 6 15 7 16 8 8 10 7 11 6 12 17 13
REMARK SMILES IDX 4 14 2 15 3 16 5 17 1 19
REMARK H PARENT 16 9 5 18 1 20
REMARK Flexibility Score: inf
ROOT
ATOM      1  C   UNL     1       4.392  -4.912  23.804  1.00  0.00     0.044 C 
ENDROOT
BRANCH   1   2
ATOM      2  C   UNL     1       3.984  -5.991  24.779  1.00  0.00    -0.006 A 
ATOM      3  C   UNL     1       2.193  -7.198  25.905  1.00  0.00     0.001 A 
ATOM      4  C   UNL     1       3.133  -8.001  26.551  1.00  0.00     0.004 A 
ATOM      5  C   UNL     1       2.614  -6.202  25.021  1.00  0.00     0.007 A 
ATOM      6  C   UNL     1       4.495  -7.816  26.309  1.00  0.00     0.046 A 
ATOM      7  C   UNL     1       4.933  -6.825  25.422  1.00  0.00     0.118 A 
BRANCH   7   8
ATOM      8  O   UNL     1       6.307  -6.702  25.203  1.00  0.00    -0.508 OA
ATOM      9  H   UNL     1       6.763  -6.973  24.342  1.00  0.00     0.293 HD
ENDBRANCH   7   8
ENDBRANCH   1   2
BRANCH   1  10
ATOM     10  C   UNL     1       3.991  -5.289  22.374  1.00  0.00     0.040 C 
BRANCH  10  11
ATOM     11  C   UNL     1       2.952  -4.336  21.848  1.00  0.00    -0.040 A 
ATOM     12  C   UNL     1       2.684  -4.273  20.470  1.00  0.00     0.050 A 
ATOM     13  C   UNL     1       2.283  -3.464  22.722  1.00  0.00     0.050 A 
ATOM     14  C   UNL     1       1.740  -3.362  19.975  1.00  0.00     0.119 A 
ATOM     15  C   UNL     1       1.340  -2.553  22.227  1.00  0.00     0.119 A 
ATOM     16  C   UNL     1       1.070  -2.507  20.856  1.00  0.00     0.092 A 
BRANCH  14  17
ATOM     17  O   UNL     1       1.465  -3.298  18.611  1.00  0.00    -0.508 OA
ATOM     18  H   UNL     1       0.807  -2.626  18.235  1.00  0.00     0.293 HD
ENDBRANCH  14  17
BRANCH  15  19
ATOM     19  O   UNL     1       0.667  -1.688  23.089  1.00  0.00    -0.508 OA
ATOM     20  H   UNL     1      -0.005  -1.014  22.743  1.00  0.00     0.293 HD
ENDBRANCH  15  19
ENDBRANCH  10  11
ENDBRANCH   1  10
TORSDOF 6
ENDMDL
MODEL 8
REMARK VINA RESULT:    -6.336      1.223      2.621
REMARK INTER + INTRA:          -8.545
REMARK INTER:                  -8.047
REMARK INTRA:                  -0.497
REMARK UNBOUND:                -0.542
REMARK SMILES Oc1cc(O)cc(CCc2ccccc2O)c1
REMARK SMILES IDX 9 1 10 2 12 3 13 4 11 5 14 6 15 7 16 8 8 10 7 11 6 12 17 13
REMARK SMILES IDX 4 14 2 15 3 16 5 17 1 19
REMARK H PARENT 16 9 5 18 1 20
REMARK Flexibility Score: inf
ROOT
ATOM      1  C   UNL     1       0.924  -4.154  24.614  1.00  0.00     0.044 C 
ENDROOT
BRANCH   1   2
ATOM      2  C   UNL     1       1.855  -5.304  24.918  1.00  0.00    -0.006 A 
ATOM      3  C   UNL     1       2.226  -7.429  26.047  1.00  0.00     0.001 A 
ATOM      4  C   UNL     1       3.510  -7.499  25.507  1.00  0.00     0.004 A 
ATOM      5  C   UNL     1       1.401  -6.342  25.753  1.00  0.00     0.007 A 
ATOM      6  C   UNL     1       3.970  -6.486  24.664  1.00  0.00     0.046 A 
ATOM      7  C   UNL     1       3.154  -5.391  24.354  1.00  0.00     0.118 A 
BRANCH   7   8
ATOM      8  O   UNL     1       3.661  -4.421  23.487  1.00  0.00    -0.508 OA
ATOM      9  H   UNL     1       3.760  -4.558  22.490  1.00  0.00     0.293 HD
ENDBRANCH   7   8
ENDBRANCH   1   2
BRANCH   1  10
ATOM     10  C   UNL     1       0.223  -4.363  23.267  1.00  0.00     0.040 C 
BRANCH  10  11
ATOM     11  C   UNL     1       0.713  -3.362  22.257  1.00  0.00    -0.040 A 
ATOM     12  C   UNL     1       1.252  -2.135  22.680  1.00  0.00     0.050 A 
ATOM     13  C   UNL     1       0.584  -3.621  20.882  1.00  0.00     0.050 A 
ATOM     14  C   UNL     1       1.678  -1.188  21.739  1.00  0.00     0.119 A 
ATOM     15  C   UNL     1       1.010  -2.674  19.941  1.00  0.00     0.119 A 
ATOM     16  C   UNL     1       1.558  -1.462  20.372  1.00  0.00     0.092 A 
BRANCH  14  17
ATOM     17  O   UNL     1       2.220   0.027  22.151  1.00  0.00    -0.508 OA
ATOM     18  H   UNL     1       3.203   0.236  22.032  1.00  0.00     0.293 HD
ENDBRANCH  14  17
BRANCH  15  19
ATOM     19  O   UNL     1       0.891  -2.927  18.576  1.00  0.00    -0.508 OA
ATOM     20  H   UNL     1       1.470  -2.447  17.897  1.00  0.00     0.293 HD
ENDBRANCH  15  19
ENDBRANCH  10  11
ENDBRANCH   1  10
TORSDOF 6
ENDMDL
MODEL 9
REMARK VINA RESULT:    -6.294     15.552     16.596
REMARK INTER + INTRA:          -8.491
REMARK INTER:                  -8.045
REMARK INTRA:                  -0.446
REMARK UNBOUND:                -0.542
REMARK SMILES Oc1cc(O)cc(CCc2ccccc2O)c1
REMARK SMILES IDX 9 1 10 2 12 3 13 4 11 5 14 6 15 7 16 8 8 10 7 11 6 12 17 13
REMARK SMILES IDX 4 14 2 15 3 16 5 17 1 19
REMARK H PARENT 16 9 5 18 1 20
REMARK Flexibility Score: inf
ROOT
ATOM      1  C   UNL     1      15.628  -4.014  28.911  1.00  0.00     0.044 C 
ENDROOT
BRANCH   1   2
ATOM      2  C   UNL     1      15.963  -3.321  30.210  1.00  0.00    -0.006 A 
ATOM      3  C   UNL     1      16.524  -3.504  32.572  1.00  0.00     0.001 A 
ATOM      4  C   UNL     1      16.628  -2.116  32.662  1.00  0.00     0.004 A 
ATOM      5  C   UNL     1      16.198  -4.105  31.355  1.00  0.00     0.007 A 
ATOM      6  C   UNL     1      16.415  -1.325  31.532  1.00  0.00     0.046 A 
ATOM      7  C   UNL     1      16.092  -1.912  30.302  1.00  0.00     0.118 A 
BRANCH   7   8
ATOM      8  O   UNL     1      15.912  -1.070  29.202  1.00  0.00    -0.508 OA
ATOM      9  H   UNL     1      16.038  -0.067  29.238  1.00  0.00     0.293 HD
ENDBRANCH   7   8
ENDBRANCH   1   2
BRANCH   1  10
ATOM     10  C   UNL     1      16.403  -5.330  28.779  1.00  0.00     0.040 C 
BRANCH  10  11
ATOM     11  C   UNL     1      16.871  -5.527  27.364  1.00  0.00    -0.040 A 
ATOM     12  C   UNL     1      17.113  -6.821  26.873  1.00  0.00     0.050 A 
ATOM     13  C   UNL     1      17.126  -4.419  26.540  1.00  0.00     0.050 A 
ATOM     14  C   UNL     1      17.581  -7.005  25.565  1.00  0.00     0.119 A 
ATOM     15  C   UNL     1      17.594  -4.603  25.232  1.00  0.00     0.119 A 
ATOM     16  C   UNL     1      17.818  -5.895  24.748  1.00  0.00     0.092 A 
BRANCH  14  17
ATOM     17  O   UNL     1      17.817  -8.286  25.069  1.00  0.00    -0.508 OA
ATOM     18  H   UNL     1      17.056  -8.915  24.845  1.00  0.00     0.293 HD
ENDBRANCH  14  17
BRANCH  15  19
ATOM     19  O   UNL     1      17.843  -3.507  24.406  1.00  0.00    -0.508 OA
ATOM     20  H   UNL     1      18.144  -2.617  24.784  1.00  0.00     0.293 HD
ENDBRANCH  15  19
ENDBRANCH  10  11
ENDBRANCH   1  10
TORSDOF 6
ENDMDL
