MODEL 1
REMARK VINA RESULT:    -6.508      0.000      0.000
REMARK INTER + INTRA:          -7.932
REMARK INTER:                  -7.649
REMARK INTRA:                  -0.283
REMARK UNBOUND:                -0.283
REMARK SMILES O=c1cc(-c2ccc(O)c(O)c2)oc2cc(O)cc(O)c12
REMARK SMILES IDX 4 1 3 2 2 3 1 4 21 5 19 6 18 7 16 8 15 9 14 10 13 11 5 12
REMARK SMILES IDX 6 13 7 14 8 15 12 16 10 17 9 18 11 20 20 22 17 24
REMARK H PARENT 9 19 11 21 20 23 17 25
REMARK Flexibility Score: inf
ROOT
ATOM      1  C   UNL     1       7.805   8.257 -15.275  1.00  0.00     0.138 A 
ATOM      2  C   UNL     1       7.380   8.514 -13.964  1.00  0.00     0.100 A 
ATOM      3  C   UNL     1       7.591   9.776 -13.405  1.00  0.00     0.197 A 
ATOM      4  O   UNL     1       7.144   9.996 -12.250  1.00  0.00    -0.289 OA
ATOM      5  C   UNL     1       8.259  10.774 -14.154  1.00  0.00     0.107 A 
ATOM      6  C   UNL     1       8.564  12.082 -13.672  1.00  0.00     0.134 A 
ATOM      7  C   UNL     1       9.124  13.025 -14.543  1.00  0.00     0.093 A 
ATOM      8  C   UNL     1       9.445  12.691 -15.858  1.00  0.00     0.123 A 
ATOM      9  C   UNL     1       9.200  11.398 -16.324  1.00  0.00     0.094 A 
ATOM     10  C   UNL     1       8.610  10.445 -15.490  1.00  0.00     0.146 A 
ATOM     11  O   UNL     1       8.380   9.230 -15.975  1.00  0.00    -0.456 OA
ENDROOT
BRANCH   1  12
ATOM     12  C   UNL     1       7.607   6.934 -15.918  1.00  0.00     0.021 A 
ATOM     13  C   UNL     1       7.319   6.813 -17.290  1.00  0.00     0.016 A 
ATOM     14  C   UNL     1       7.129   5.555 -17.866  1.00  0.00     0.051 A 
ATOM     15  C   UNL     1       7.213   4.398 -17.083  1.00  0.00     0.157 A 
ATOM     16  C   UNL     1       7.676   5.767 -15.135  1.00  0.00     0.062 A 
ATOM     17  C   UNL     1       7.485   4.506 -15.711  1.00  0.00     0.158 A 
BRANCH  15  18
ATOM     18  O   UNL     1       7.022   3.143 -17.663  1.00  0.00    -0.504 OA
ATOM     19  H   UNL     1       7.686   2.758 -18.325  1.00  0.00     0.293 HD
ENDBRANCH  15  18
BRANCH  17  20
ATOM     20  O   UNL     1       7.572   3.373 -14.902  1.00  0.00    -0.504 OA
ATOM     21  H   UNL     1       7.763   2.454 -15.282  1.00  0.00     0.293 HD
ENDBRANCH  17  20
ENDBRANCH   1  12
BRANCH   6  22
ATOM     22  O   UNL     1       8.362  12.496 -12.352  1.00  0.00    -0.507 OA
ATOM     23  H   UNL     1       9.098  12.681 -11.688  1.00  0.00     0.293 HD
ENDBRANCH   6  22
BRANCH   8  24
ATOM     24  O   UNL     1      10.015  13.650 -16.692  1.00  0.00    -0.508 OA
ATOM     25  H   UNL     1      10.476  14.472 -16.318  1.00  0.00     0.293 HD
ENDBRANCH   8  24
TORSDOF 5
ENDMDL
MODEL 2
REMARK VINA RESULT:    -6.453      3.060      5.530
REMARK INTER + INTRA:          -7.868
REMARK INTER:                  -7.606
REMARK INTRA:                  -0.262
REMARK UNBOUND:                -0.283
REMARK SMILES O=c1cc(-c2ccc(O)c(O)c2)oc2cc(O)cc(O)c12
REMARK SMILES IDX 4 1 3 2 2 3 1 4 21 5 19 6 18 7 16 8 15 9 14 10 13 11 5 12
REMARK SMILES IDX 6 13 7 14 8 15 12 16 10 17 9 18 11 20 20 22 17 24
REMARK H PARENT 9 19 11 21 20 23 17 25
REMARK Flexibility Score: inf
ROOT
ATOM      1  C   UNL     1       9.860  11.854 -16.820  1.00  0.00     0.138 A 
ATOM      2  C   UNL     1      10.684  12.885 -16.345  1.00  0.00     0.100 A 
ATOM      3  C   UNL     1      10.778  14.078 -17.063  1.00  0.00     0.197 A 
ATOM      4  O   UNL     1      11.476  15.007 -16.580  1.00  0.00    -0.289 OA
ATOM      5  C   UNL     1      10.067  14.227 -18.277  1.00  0.00     0.107 A 
ATOM      6  C   UNL     1      10.119  15.384 -19.111  1.00  0.00     0.134 A 
ATOM      7  C   UNL     1       9.281  15.464 -20.231  1.00  0.00     0.093 A 
ATOM      8  C   UNL     1       8.439  14.410 -20.579  1.00  0.00     0.123 A 
ATOM      9  C   UNL     1       8.419  13.251 -19.800  1.00  0.00     0.094 A 
ATOM     10  C   UNL     1       9.218  13.154 -18.658  1.00  0.00     0.146 A 
ATOM     11  O   UNL     1       9.160  12.042 -17.934  1.00  0.00    -0.456 OA
ENDROOT
BRANCH   1  12
ATOM     12  C   UNL     1       9.724  10.564 -16.097  1.00  0.00     0.021 A 
ATOM     13  C   UNL     1      10.460   9.425 -16.474  1.00  0.00     0.016 A 
ATOM     14  C   UNL     1      10.305   8.221 -15.782  1.00  0.00     0.051 A 
ATOM     15  C   UNL     1       9.408   8.131 -14.711  1.00  0.00     0.157 A 
ATOM     16  C   UNL     1       8.815  10.461 -15.029  1.00  0.00     0.062 A 
ATOM     17  C   UNL     1       8.658   9.256 -14.335  1.00  0.00     0.158 A 
BRANCH  15  18
ATOM     18  O   UNL     1       9.256   6.927 -14.023  1.00  0.00    -0.504 OA
ATOM     19  H   UNL     1       8.449   6.332 -14.167  1.00  0.00     0.293 HD
ENDBRANCH  15  18
BRANCH  17  20
ATOM     20  O   UNL     1       7.753   9.198 -13.275  1.00  0.00    -0.504 OA
ATOM     21  H   UNL     1       7.555   8.336 -12.784  1.00  0.00     0.293 HD
ENDBRANCH  17  20
ENDBRANCH   1  12
BRANCH   6  22
ATOM     22  O   UNL     1      10.985  16.460 -18.903  1.00  0.00    -0.507 OA
ATOM     23  H   UNL     1      10.699  17.424 -18.824  1.00  0.00     0.293 HD
ENDBRANCH   6  22
BRANCH   8  24
ATOM     24  O   UNL     1       7.630  14.518 -21.708  1.00  0.00    -0.508 OA
ATOM     25  H   UNL     1       6.810  13.935 -21.831  1.00  0.00     0.293 HD
ENDBRANCH   8  24
TORSDOF 5
ENDMDL
MODEL 3
REMARK VINA RESULT:    -6.420      4.566      7.128
REMARK INTER + INTRA:          -7.829
REMARK INTER:                  -7.535
REMARK INTRA:                  -0.294
REMARK UNBOUND:                -0.283
REMARK SMILES O=c1cc(-c2ccc(O)c(O)c2)oc2cc(O)cc(O)c12
REMARK SMILES IDX 4 1 3 2 2 3 1 4 21 5 19 6 18 7 16 8 15 9 14 10 13 11 5 12
REMARK SMILES IDX 6 13 7 14 8 15 12 16 10 17 9 18 11 20 20 22 17 24
REMARK H PARENT 9 19 11 21 20 23 17 25
REMARK Flexibility Score: inf
ROOT
ATOM      1  C   UNL     1       9.446  13.299 -18.601  1.00  0.00     0.138 A 
ATOM      2  C   UNL     1       9.012  14.378 -17.818  1.00  0.00     0.100 A 
ATOM      3  C   UNL     1       8.622  15.567 -18.437  1.00  0.00     0.197 A 
ATOM      4  O   UNL     1       8.179  16.495 -17.713  1.00  0.00    -0.289 OA
ATOM      5  C   UNL     1       8.695  15.684 -19.845  1.00  0.00     0.107 A 
ATOM      6  C   UNL     1       8.361  16.860 -20.580  1.00  0.00     0.134 A 
ATOM      7  C   UNL     1       8.361  16.822 -21.981  1.00  0.00     0.093 A 
ATOM      8  C   UNL     1       8.739  15.671 -22.670  1.00  0.00     0.123 A 
ATOM      9  C   UNL     1       9.120  14.530 -21.961  1.00  0.00     0.094 A 
ATOM     10  C   UNL     1       9.097  14.527 -20.564  1.00  0.00     0.146 A 
ATOM     11  O   UNL     1       9.452  13.417 -19.925  1.00  0.00    -0.456 OA
ENDROOT
BRANCH   1  12
ATOM     12  C   UNL     1       9.874  12.013 -17.995  1.00  0.00     0.021 A 
ATOM     13  C   UNL     1      10.741  11.970 -16.888  1.00  0.00     0.016 A 
ATOM     14  C   UNL     1      11.135  10.745 -16.344  1.00  0.00     0.051 A 
ATOM     15  C   UNL     1      10.679   9.544 -16.900  1.00  0.00     0.157 A 
ATOM     16  C   UNL     1       9.431  10.801 -18.557  1.00  0.00     0.062 A 
ATOM     17  C   UNL     1       9.825   9.574 -18.014  1.00  0.00     0.158 A 
BRANCH  15  18
ATOM     18  O   UNL     1      11.075   8.322 -16.354  1.00  0.00    -0.504 OA
ATOM     19  H   UNL     1      10.442   7.533 -16.307  1.00  0.00     0.293 HD
ENDBRANCH  15  18
BRANCH  17  20
ATOM     20  O   UNL     1       9.356   8.395 -18.595  1.00  0.00    -0.504 OA
ATOM     21  H   UNL     1       9.922   7.557 -18.642  1.00  0.00     0.293 HD
ENDBRANCH  17  20
ENDBRANCH   1  12
BRANCH   6  22
ATOM     22  O   UNL     1       8.049  18.089 -19.991  1.00  0.00    -0.507 OA
ATOM     23  H   UNL     1       8.672  18.620 -19.403  1.00  0.00     0.293 HD
ENDBRANCH   6  22
BRANCH   8  24
ATOM     24  O   UNL     1       8.743  15.673 -24.064  1.00  0.00    -0.508 OA
ATOM     25  H   UNL     1       8.567  16.520 -24.593  1.00  0.00     0.293 HD
ENDBRANCH   8  24
TORSDOF 5
ENDMDL
MODEL 4
REMARK VINA RESULT:    -6.406      4.092      8.352
REMARK INTER + INTRA:          -7.812
REMARK INTER:                  -7.496
REMARK INTRA:                  -0.316
REMARK UNBOUND:                -0.283
REMARK SMILES O=c1cc(-c2ccc(O)c(O)c2)oc2cc(O)cc(O)c12
REMARK SMILES IDX 4 1 3 2 2 3 1 4 21 5 19 6 18 7 16 8 15 9 14 10 13 11 5 12
REMARK SMILES IDX 6 13 7 14 8 15 12 16 10 17 9 18 11 20 20 22 17 24
REMARK H PARENT 9 19 11 21 20 23 17 25
REMARK Flexibility Score: inf
ROOT
ATOM      1  C   UNL     1       9.017  13.334 -18.966  1.00  0.00     0.138 A 
ATOM      2  C   UNL     1       9.524  12.069 -19.295  1.00  0.00     0.100 A 
ATOM      3  C   UNL     1       9.697  11.113 -18.292  1.00  0.00     0.197 A 
ATOM      4  O   UNL     1      10.094   9.967 -18.627  1.00  0.00    -0.289 OA
ATOM      5  C   UNL     1       9.389  11.438 -16.950  1.00  0.00     0.107 A 
ATOM      6  C   UNL     1       9.562  10.557 -15.841  1.00  0.00     0.134 A 
ATOM      7  C   UNL     1       9.113  10.948 -14.573  1.00  0.00     0.093 A 
ATOM      8  C   UNL     1       8.553  12.206 -14.363  1.00  0.00     0.123 A 
ATOM      9  C   UNL     1       8.427  13.097 -15.430  1.00  0.00     0.094 A 
ATOM     10  C   UNL     1       8.834  12.724 -16.713  1.00  0.00     0.146 A 
ATOM     11  O   UNL     1       8.684  13.594 -17.706  1.00  0.00    -0.456 OA
ENDROOT
BRANCH   1  12
ATOM     12  C   UNL     1       8.815  14.388 -19.992  1.00  0.00     0.021 A 
ATOM     13  C   UNL     1       8.922  14.111 -21.368  1.00  0.00     0.016 A 
ATOM     14  C   UNL     1       8.736  15.125 -22.311  1.00  0.00     0.051 A 
ATOM     15  C   UNL     1       8.451  16.432 -21.899  1.00  0.00     0.157 A 
ATOM     16  C   UNL     1       8.542  15.707 -19.585  1.00  0.00     0.062 A 
ATOM     17  C   UNL     1       8.356  16.724 -20.529  1.00  0.00     0.158 A 
BRANCH  15  18
ATOM     18  O   UNL     1       8.266  17.441 -22.844  1.00  0.00    -0.504 OA
ATOM     19  H   UNL     1       7.728  17.285 -23.688  1.00  0.00     0.293 HD
ENDBRANCH  15  18
BRANCH  17  20
ATOM     20  O   UNL     1       8.077  18.016 -20.084  1.00  0.00    -0.504 OA
ATOM     21  H   UNL     1       7.985  18.238 -19.101  1.00  0.00     0.293 HD
ENDBRANCH  17  20
ENDBRANCH   1  12
BRANCH   6  22
ATOM     22  O   UNL     1      10.187   9.310 -15.924  1.00  0.00    -0.507 OA
ATOM     23  H   UNL     1      10.143   8.695 -16.722  1.00  0.00     0.293 HD
ENDBRANCH   6  22
BRANCH   8  24
ATOM     24  O   UNL     1       8.131  12.567 -13.084  1.00  0.00    -0.508 OA
ATOM     25  H   UNL     1       7.513  11.973 -12.543  1.00  0.00     0.293 HD
ENDBRANCH   8  24
TORSDOF 5
ENDMDL
MODEL 5
REMARK VINA RESULT:    -6.338      3.693      6.251
REMARK INTER + INTRA:          -7.733
REMARK INTER:                  -7.463
REMARK INTRA:                  -0.270
REMARK UNBOUND:                -0.283
REMARK SMILES O=c1cc(-c2ccc(O)c(O)c2)oc2cc(O)cc(O)c12
REMARK SMILES IDX 4 1 3 2 2 3 1 4 21 5 19 6 18 7 16 8 15 9 14 10 13 11 5 12
REMARK SMILES IDX 6 13 7 14 8 15 12 16 10 17 9 18 11 20 20 22 17 24
REMARK H PARENT 9 19 11 21 20 23 17 25
REMARK Flexibility Score: inf
ROOT
ATOM      1  C   UNL     1       9.433  11.774 -18.163  1.00  0.00     0.138 A 
ATOM      2  C   UNL     1       8.862  11.441 -19.400  1.00  0.00     0.100 A 
ATOM      3  C   UNL     1       8.646  12.439 -20.351  1.00  0.00     0.197 A 
ATOM      4  O   UNL     1       8.191  12.100 -21.474  1.00  0.00    -0.289 OA
ATOM      5  C   UNL     1       8.975  13.782 -20.049  1.00  0.00     0.107 A 
ATOM      6  C   UNL     1       8.761  14.886 -20.926  1.00  0.00     0.134 A 
ATOM      7  C   UNL     1       9.233  16.155 -20.565  1.00  0.00     0.093 A 
ATOM      8  C   UNL     1       9.857  16.369 -19.337  1.00  0.00     0.123 A 
ATOM      9  C   UNL     1      10.023  15.306 -18.448  1.00  0.00     0.094 A 
ATOM     10  C   UNL     1       9.594  14.023 -18.794  1.00  0.00     0.146 A 
ATOM     11  O   UNL     1       9.783  13.034 -17.927  1.00  0.00    -0.456 OA
ENDROOT
BRANCH   1  12
ATOM     12  C   UNL     1       9.683  10.752 -17.115  1.00  0.00     0.021 A 
ATOM     13  C   UNL     1      10.711   9.799 -17.242  1.00  0.00     0.016 A 
ATOM     14  C   UNL     1      10.918   8.844 -16.244  1.00  0.00     0.051 A 
ATOM     15  C   UNL     1      10.098   8.816 -15.109  1.00  0.00     0.157 A 
ATOM     16  C   UNL     1       8.855  10.709 -15.978  1.00  0.00     0.062 A 
ATOM     17  C   UNL     1       9.061   9.753 -14.978  1.00  0.00     0.158 A 
BRANCH  15  18
ATOM     18  O   UNL     1      10.309   7.861 -14.115  1.00  0.00    -0.504 OA
ATOM     19  H   UNL     1      10.717   6.957 -14.325  1.00  0.00     0.293 HD
ENDBRANCH  15  18
BRANCH  17  20
ATOM     20  O   UNL     1       8.224   9.751 -13.862  1.00  0.00    -0.504 OA
ATOM     21  H   UNL     1       7.222   9.632 -13.942  1.00  0.00     0.293 HD
ENDBRANCH  17  20
ENDBRANCH   1  12
BRANCH   6  22
ATOM     22  O   UNL     1       8.075  14.800 -22.141  1.00  0.00    -0.507 OA
ATOM     23  H   UNL     1       8.400  14.298 -22.952  1.00  0.00     0.293 HD
ENDBRANCH   6  22
BRANCH   8  24
ATOM     24  O   UNL     1      10.301  17.648 -19.005  1.00  0.00    -0.508 OA
ATOM     25  H   UNL     1      11.176  17.794 -18.515  1.00  0.00     0.293 HD
ENDBRANCH   8  24
TORSDOF 5
ENDMDL
MODEL 6
REMARK VINA RESULT:    -6.187      4.007      6.085
REMARK INTER + INTRA:          -7.555
REMARK INTER:                  -7.282
REMARK INTRA:                  -0.272
REMARK UNBOUND:                -0.283
REMARK SMILES O=c1cc(-c2ccc(O)c(O)c2)oc2cc(O)cc(O)c12
REMARK SMILES IDX 4 1 3 2 2 3 1 4 21 5 19 6 18 7 16 8 15 9 14 10 13 11 5 12
REMARK SMILES IDX 6 13 7 14 8 15 12 16 10 17 9 18 11 20 20 22 17 24
REMARK H PARENT 9 19 11 21 20 23 17 25
REMARK Flexibility Score: inf
ROOT
ATOM      1  C   UNL     1       9.242  12.232 -18.505  1.00  0.00     0.138 A 
ATOM      2  C   UNL     1       9.759  13.187 -17.618  1.00  0.00     0.100 A 
ATOM      3  C   UNL     1       9.908  14.510 -18.037  1.00  0.00     0.197 A 
ATOM      4  O   UNL     1      10.314  15.356 -17.200  1.00  0.00    -0.289 OA
ATOM      5  C   UNL     1       9.566  14.870 -19.363  1.00  0.00     0.107 A 
ATOM      6  C   UNL     1       9.714  16.179 -19.911  1.00  0.00     0.134 A 
ATOM      7  C   UNL     1       9.233  16.445 -21.200  1.00  0.00     0.093 A 
ATOM      8  C   UNL     1       8.666  15.438 -21.980  1.00  0.00     0.123 A 
ATOM      9  C   UNL     1       8.566  14.141 -21.473  1.00  0.00     0.094 A 
ATOM     10  C   UNL     1       9.004  13.853 -20.178  1.00  0.00     0.146 A 
ATOM     11  O   UNL     1       8.878  12.610 -19.727  1.00  0.00    -0.456 OA
ENDROOT
BRANCH   1  12
ATOM     12  C   UNL     1       9.065  10.812 -18.112  1.00  0.00     0.021 A 
ATOM     13  C   UNL     1       7.841  10.141 -18.295  1.00  0.00     0.016 A 
ATOM     14  C   UNL     1       7.700   8.807 -17.907  1.00  0.00     0.051 A 
ATOM     15  C   UNL     1       8.772   8.122 -17.321  1.00  0.00     0.157 A 
ATOM     16  C   UNL     1      10.133  10.121 -17.510  1.00  0.00     0.062 A 
ATOM     17  C   UNL     1       9.993   8.785 -17.121  1.00  0.00     0.158 A 
BRANCH  15  18
ATOM     18  O   UNL     1       8.626   6.790 -16.935  1.00  0.00    -0.504 OA
ATOM     19  H   UNL     1       9.318   6.326 -16.357  1.00  0.00     0.293 HD
ENDBRANCH  15  18
BRANCH  17  20
ATOM     20  O   UNL     1      11.079   8.133 -16.537  1.00  0.00    -0.504 OA
ATOM     21  H   UNL     1      11.056   7.146 -16.311  1.00  0.00     0.293 HD
ENDBRANCH  17  20
ENDBRANCH   1  12
BRANCH   6  22
ATOM     22  O   UNL     1      10.342  17.238 -19.250  1.00  0.00    -0.507 OA
ATOM     23  H   UNL     1      10.480  17.294 -18.253  1.00  0.00     0.293 HD
ENDBRANCH   6  22
BRANCH   8  24
ATOM     24  O   UNL     1       8.213  15.735 -23.264  1.00  0.00    -0.508 OA
ATOM     25  H   UNL     1       8.835  15.716 -24.063  1.00  0.00     0.293 HD
ENDBRANCH   8  24
TORSDOF 5
ENDMDL
MODEL 7
REMARK VINA RESULT:    -6.103      3.765      6.618
REMARK INTER + INTRA:          -7.456
REMARK INTER:                  -7.138
REMARK INTRA:                  -0.318
REMARK UNBOUND:                -0.283
REMARK SMILES O=c1cc(-c2ccc(O)c(O)c2)oc2cc(O)cc(O)c12
REMARK SMILES IDX 4 1 3 2 2 3 1 4 21 5 19 6 18 7 16 8 15 9 14 10 13 11 5 12
REMARK SMILES IDX 6 13 7 14 8 15 12 16 10 17 9 18 11 20 20 22 17 24
REMARK H PARENT 9 19 11 21 20 23 17 25
REMARK Flexibility Score: inf
ROOT
ATOM      1  C   UNL     1       7.979  12.561 -17.147  1.00  0.00     0.138 A 
ATOM      2  C   UNL     1       7.587  11.997 -18.369  1.00  0.00     0.100 A 
ATOM      3  C   UNL     1       7.747  12.725 -19.549  1.00  0.00     0.197 A 
ATOM      4  O   UNL     1       7.445  12.169 -20.636  1.00  0.00    -0.289 OA
ATOM      5  C   UNL     1       8.275  14.037 -19.499  1.00  0.00     0.107 A 
ATOM      6  C   UNL     1       8.446  14.887 -20.633  1.00  0.00     0.134 A 
ATOM      7  C   UNL     1       9.087  16.123 -20.478  1.00  0.00     0.093 A 
ATOM      8  C   UNL     1       9.508  16.564 -19.225  1.00  0.00     0.123 A 
ATOM      9  C   UNL     1       9.298  15.764 -18.101  1.00  0.00     0.094 A 
ATOM     10  C   UNL     1       8.693  14.512 -18.228  1.00  0.00     0.146 A 
ATOM     11  O   UNL     1       8.523  13.774 -17.136  1.00  0.00    -0.456 OA
ENDROOT
BRANCH   1  12
ATOM     12  C   UNL     1       7.829  11.832 -15.863  1.00  0.00     0.021 A 
ATOM     13  C   UNL     1       7.324  10.519 -15.813  1.00  0.00     0.016 A 
ATOM     14  C   UNL     1       7.185   9.861 -14.589  1.00  0.00     0.051 A 
ATOM     15  C   UNL     1       7.538  10.502 -13.395  1.00  0.00     0.157 A 
ATOM     16  C   UNL     1       8.168  12.474 -14.658  1.00  0.00     0.062 A 
ATOM     17  C   UNL     1       8.030  11.816 -13.431  1.00  0.00     0.158 A 
BRANCH  15  18
ATOM     18  O   UNL     1       7.397   9.840 -12.175  1.00  0.00    -0.504 OA
ATOM     19  H   UNL     1       8.040  10.000 -11.408  1.00  0.00     0.293 HD
ENDBRANCH  15  18
BRANCH  17  20
ATOM     20  O   UNL     1       8.387  12.484 -12.261  1.00  0.00    -0.504 OA
ATOM     21  H   UNL     1       8.252  13.482 -12.148  1.00  0.00     0.293 HD
ENDBRANCH  17  20
ENDBRANCH   1  12
BRANCH   6  22
ATOM     22  O   UNL     1       7.987  14.579 -21.917  1.00  0.00    -0.507 OA
ATOM     23  H   UNL     1       7.037  14.332 -22.145  1.00  0.00     0.293 HD
ENDBRANCH   6  22
BRANCH   8  24
ATOM     24  O   UNL     1      10.129  17.806 -19.106  1.00  0.00    -0.508 OA
ATOM     25  H   UNL     1      11.133  17.909 -19.201  1.00  0.00     0.293 HD
ENDBRANCH   8  24
TORSDOF 5
ENDMDL
MODEL 8
REMARK VINA RESULT:    -6.044      3.783      7.863
REMARK INTER + INTRA:          -7.387
REMARK INTER:                  -7.123
REMARK INTRA:                  -0.265
REMARK UNBOUND:                -0.283
REMARK SMILES O=c1cc(-c2ccc(O)c(O)c2)oc2cc(O)cc(O)c12
REMARK SMILES IDX 4 1 3 2 2 3 1 4 21 5 19 6 18 7 16 8 15 9 14 10 13 11 5 12
REMARK SMILES IDX 6 13 7 14 8 15 12 16 10 17 9 18 11 20 20 22 17 24
REMARK H PARENT 9 19 11 21 20 23 17 25
REMARK Flexibility Score: inf
ROOT
ATOM      1  C   UNL     1       9.034  12.885 -18.244  1.00  0.00     0.138 A 
ATOM      2  C   UNL     1       8.285  12.980 -17.063  1.00  0.00     0.100 A 
ATOM      3  C   UNL     1       8.402  11.986 -16.090  1.00  0.00     0.197 A 
ATOM      4  O   UNL     1       7.765  12.131 -15.015  1.00  0.00    -0.289 OA
ATOM      5  C   UNL     1       9.250  10.876 -16.317  1.00  0.00     0.107 A 
ATOM      6  C   UNL     1       9.417   9.785 -15.413  1.00  0.00     0.134 A 
ATOM      7  C   UNL     1      10.373   8.799 -15.691  1.00  0.00     0.093 A 
ATOM      8  C   UNL     1      11.123   8.834 -16.865  1.00  0.00     0.123 A 
ATOM      9  C   UNL     1      10.930   9.869 -17.782  1.00  0.00     0.094 A 
ATOM     10  C   UNL     1      10.009  10.885 -17.517  1.00  0.00     0.146 A 
ATOM     11  O   UNL     1       9.865  11.860 -18.407  1.00  0.00    -0.456 OA
ENDROOT
BRANCH   1  12
ATOM     12  C   UNL     1       8.947  13.913 -19.313  1.00  0.00     0.021 A 
ATOM     13  C   UNL     1       8.550  13.586 -20.623  1.00  0.00     0.016 A 
ATOM     14  C   UNL     1       8.486  14.572 -21.610  1.00  0.00     0.051 A 
ATOM     15  C   UNL     1       8.825  15.897 -21.311  1.00  0.00     0.157 A 
ATOM     16  C   UNL     1       9.300  15.243 -19.023  1.00  0.00     0.062 A 
ATOM     17  C   UNL     1       9.236  16.232 -20.011  1.00  0.00     0.158 A 
BRANCH  15  18
ATOM     18  O   UNL     1       8.760  16.878 -22.300  1.00  0.00    -0.504 OA
ATOM     19  H   UNL     1       8.367  17.794 -22.113  1.00  0.00     0.293 HD
ENDBRANCH  15  18
BRANCH  17  20
ATOM     20  O   UNL     1       9.585  17.542 -19.681  1.00  0.00    -0.504 OA
ATOM     21  H   UNL     1       9.100  18.062 -18.961  1.00  0.00     0.293 HD
ENDBRANCH  17  20
ENDBRANCH   1  12
BRANCH   6  22
ATOM     22  O   UNL     1       8.659   9.608 -14.252  1.00  0.00    -0.507 OA
ATOM     23  H   UNL     1       8.709  10.197 -13.436  1.00  0.00     0.293 HD
ENDBRANCH   6  22
BRANCH   8  24
ATOM     24  O   UNL     1      12.055   7.828 -17.116  1.00  0.00    -0.508 OA
ATOM     25  H   UNL     1      11.770   6.908 -17.432  1.00  0.00     0.293 HD
ENDBRANCH   8  24
TORSDOF 5
ENDMDL
