MODEL 1
REMARK VINA RESULT:    -5.063      0.000      0.000
REMARK INTER + INTRA:          -5.535
REMARK INTER:                  -5.507
REMARK INTRA:                  -0.028
REMARK UNBOUND:                -0.028
REMARK SMILES O=C([O-])c1ccc(O)cc1
REMARK SMILES IDX 4 1 5 2 10 3 6 4 9 5 7 6 2 7 1 8 3 9 8 10
REMARK H PARENT 8 11
REMARK Flexibility Score: inf
ROOT
ATOM      1  C   UNL     1     -41.489  -8.939   3.987  1.00  0.00    -0.003 A 
ATOM      2  C   UNL     1     -42.811  -9.252   4.353  1.00  0.00     0.014 A 
ATOM      3  C   UNL     1     -40.969  -9.468   2.793  1.00  0.00     0.014 A 
ATOM      4  C   UNL     1     -43.595 -10.075   3.539  1.00  0.00     0.047 A 
ATOM      5  C   UNL     1     -41.755 -10.291   1.981  1.00  0.00     0.047 A 
ATOM      6  C   UNL     1     -43.071 -10.596   2.352  1.00  0.00     0.115 A 
ENDROOT
BRANCH   1   7
ATOM      7  C   UNL     1     -40.654  -8.069   4.846  1.00  0.00     0.071 C 
ATOM      8  O   UNL     1     -40.891  -6.835   4.930  1.00  0.00    -0.545 OA
ATOM      9  O   UNL     1     -39.594  -8.603   5.571  1.00  0.00    -0.545 OA
ENDBRANCH   1   7
BRANCH   6  10
ATOM     10  O   UNL     1     -43.863 -11.415   1.551  1.00  0.00    -0.508 OA
ATOM     11  H   UNL     1     -44.862 -11.266   1.464  1.00  0.00     0.293 HD
ENDBRANCH   6  10
TORSDOF 2
ENDMDL
MODEL 2
REMARK VINA RESULT:    -4.893     10.979     12.041
REMARK INTER + INTRA:          -5.350
REMARK INTER:                  -5.320
REMARK INTRA:                  -0.030
REMARK UNBOUND:                -0.028
REMARK SMILES O=C([O-])c1ccc(O)cc1
REMARK SMILES IDX 4 1 5 2 10 3 6 4 9 5 7 6 2 7 1 8 3 9 8 10
REMARK H PARENT 8 11
REMARK Flexibility Score: inf
ROOT
ATOM      1  C   UNL     1     -49.511 -13.504  11.910  1.00  0.00    -0.003 A 
ATOM      2  C   UNL     1     -48.883 -14.708  12.280  1.00  0.00     0.014 A 
ATOM      3  C   UNL     1     -48.803 -12.580  11.123  1.00  0.00     0.014 A 
ATOM      4  C   UNL     1     -47.575 -14.979  11.869  1.00  0.00     0.047 A 
ATOM      5  C   UNL     1     -47.494 -12.854  10.714  1.00  0.00     0.047 A 
ATOM      6  C   UNL     1     -46.877 -14.055  11.086  1.00  0.00     0.115 A 
ENDROOT
BRANCH   1   7
ATOM      7  C   UNL     1     -50.896 -13.211  12.344  1.00  0.00     0.071 C 
ATOM      8  O   UNL     1     -51.779 -12.900  11.500  1.00  0.00    -0.545 OA
ATOM      9  O   UNL     1     -51.241 -13.273  13.689  1.00  0.00    -0.545 OA
ENDBRANCH   1   7
BRANCH   6  10
ATOM     10  O   UNL     1     -45.574 -14.339  10.683  1.00  0.00    -0.508 OA
ATOM     11  H   UNL     1     -45.178 -15.267  10.783  1.00  0.00     0.293 HD
ENDBRANCH   6  10
TORSDOF 2
ENDMDL
MODEL 3
REMARK VINA RESULT:    -4.645      1.333      4.330
REMARK INTER + INTRA:          -5.080
REMARK INTER:                  -5.047
REMARK INTRA:                  -0.033
REMARK UNBOUND:                -0.028
REMARK SMILES O=C([O-])c1ccc(O)cc1
REMARK SMILES IDX 4 1 5 2 10 3 6 4 9 5 7 6 2 7 1 8 3 9 8 10
REMARK H PARENT 8 11
REMARK Flexibility Score: inf
ROOT
ATOM      1  C   UNL     1     -42.561 -10.003   3.370  1.00  0.00    -0.003 A 
ATOM      2  C   UNL     1     -41.307 -10.072   2.735  1.00  0.00     0.014 A 
ATOM      3  C   UNL     1     -42.618  -9.658   4.732  1.00  0.00     0.014 A 
ATOM      4  C   UNL     1     -40.136  -9.799   3.449  1.00  0.00     0.047 A 
ATOM      5  C   UNL     1     -41.446  -9.386   5.443  1.00  0.00     0.047 A 
ATOM      6  C   UNL     1     -40.201  -9.456   4.803  1.00  0.00     0.115 A 
ENDROOT
BRANCH   1   7
ATOM      7  C   UNL     1     -43.803 -10.292   2.619  1.00  0.00     0.071 C 
ATOM      8  O   UNL     1     -44.866  -9.664   2.874  1.00  0.00    -0.545 OA
ATOM      9  O   UNL     1     -43.815 -11.260   1.622  1.00  0.00    -0.545 OA
ENDBRANCH   1   7
BRANCH   6  10
ATOM     10  O   UNL     1     -39.026  -9.187   5.502  1.00  0.00    -0.508 OA
ATOM     11  H   UNL     1     -38.881  -9.529   6.445  1.00  0.00     0.293 HD
ENDBRANCH   6  10
TORSDOF 2
ENDMDL
MODEL 4
REMARK VINA RESULT:    -4.631      9.493     10.234
REMARK INTER + INTRA:          -5.065
REMARK INTER:                  -5.030
REMARK INTRA:                  -0.035
REMARK UNBOUND:                -0.028
REMARK SMILES O=C([O-])c1ccc(O)cc1
REMARK SMILES IDX 4 1 5 2 10 3 6 4 9 5 7 6 2 7 1 8 3 9 8 10
REMARK H PARENT 8 11
REMARK Flexibility Score: inf
ROOT
ATOM      1  C   UNL     1     -45.853 -13.048  11.881  1.00  0.00    -0.003 A 
ATOM      2  C   UNL     1     -46.491 -14.076  12.598  1.00  0.00     0.014 A 
ATOM      3  C   UNL     1     -46.520 -12.462  10.791  1.00  0.00     0.014 A 
ATOM      4  C   UNL     1     -47.770 -14.506  12.232  1.00  0.00     0.047 A 
ATOM      5  C   UNL     1     -47.798 -12.894  10.427  1.00  0.00     0.047 A 
ATOM      6  C   UNL     1     -48.427 -13.918  11.147  1.00  0.00     0.115 A 
ENDROOT
BRANCH   1   7
ATOM      7  C   UNL     1     -44.499 -12.589  12.263  1.00  0.00     0.071 C 
ATOM      8  O   UNL     1     -43.778 -11.963  11.441  1.00  0.00    -0.545 OA
ATOM      9  O   UNL     1     -44.003 -12.843  13.537  1.00  0.00    -0.545 OA
ENDBRANCH   1   7
BRANCH   6  10
ATOM     10  O   UNL     1     -49.701 -14.357  10.794  1.00  0.00    -0.508 OA
ATOM     11  H   UNL     1     -50.063 -15.249  11.113  1.00  0.00     0.293 HD
ENDBRANCH   6  10
TORSDOF 2
ENDMDL
MODEL 5
REMARK VINA RESULT:    -4.513      9.468     10.771
REMARK INTER + INTRA:          -4.937
REMARK INTER:                  -4.909
REMARK INTRA:                  -0.028
REMARK UNBOUND:                -0.028
REMARK SMILES O=C([O-])c1ccc(O)cc1
REMARK SMILES IDX 4 1 5 2 10 3 6 4 9 5 7 6 2 7 1 8 3 9 8 10
REMARK H PARENT 8 11
REMARK Flexibility Score: inf
ROOT
ATOM      1  C   UNL     1     -47.169 -13.156  11.548  1.00  0.00    -0.003 A 
ATOM      2  C   UNL     1     -46.541 -13.494  12.762  1.00  0.00     0.014 A 
ATOM      3  C   UNL     1     -46.416 -12.521  10.545  1.00  0.00     0.014 A 
ATOM      4  C   UNL     1     -45.189 -13.203  12.964  1.00  0.00     0.047 A 
ATOM      5  C   UNL     1     -45.064 -12.231  10.751  1.00  0.00     0.047 A 
ATOM      6  C   UNL     1     -44.447 -12.571  11.962  1.00  0.00     0.115 A 
ENDROOT
BRANCH   1   7
ATOM      7  C   UNL     1     -48.600 -13.461  11.328  1.00  0.00     0.071 C 
ATOM      8  O   UNL     1     -49.002 -14.655  11.285  1.00  0.00    -0.545 OA
ATOM      9  O   UNL     1     -49.523 -12.434  11.166  1.00  0.00    -0.545 OA
ENDBRANCH   1   7
BRANCH   6  10
ATOM     10  O   UNL     1     -43.100 -12.287  12.177  1.00  0.00    -0.508 OA
ATOM     11  H   UNL     1     -42.384 -12.996  12.067  1.00  0.00     0.293 HD
ENDBRANCH   6  10
TORSDOF 2
ENDMDL
MODEL 6
REMARK VINA RESULT:    -4.480     12.348     13.324
REMARK INTER + INTRA:          -4.901
REMARK INTER:                  -4.874
REMARK INTRA:                  -0.027
REMARK UNBOUND:                -0.028
REMARK SMILES O=C([O-])c1ccc(O)cc1
REMARK SMILES IDX 4 1 5 2 10 3 6 4 9 5 7 6 2 7 1 8 3 9 8 10
REMARK H PARENT 8 11
REMARK Flexibility Score: inf
ROOT
ATOM      1  C   UNL     1     -50.405 -13.798  13.249  1.00  0.00    -0.003 A 
ATOM      2  C   UNL     1     -50.757 -12.913  12.212  1.00  0.00     0.014 A 
ATOM      3  C   UNL     1     -49.174 -14.473  13.179  1.00  0.00     0.014 A 
ATOM      4  C   UNL     1     -49.893 -12.708  11.132  1.00  0.00     0.047 A 
ATOM      5  C   UNL     1     -48.313 -14.267  12.098  1.00  0.00     0.047 A 
ATOM      6  C   UNL     1     -48.670 -13.383  11.071  1.00  0.00     0.115 A 
ENDROOT
BRANCH   1   7
ATOM      7  C   UNL     1     -51.316 -14.019  14.394  1.00  0.00     0.071 C 
ATOM      8  O   UNL     1     -52.260 -14.849  14.311  1.00  0.00    -0.545 OA
ATOM      9  O   UNL     1     -51.142 -13.312  15.579  1.00  0.00    -0.545 OA
ENDBRANCH   1   7
BRANCH   6  10
ATOM     10  O   UNL     1     -47.819 -13.170   9.989  1.00  0.00    -0.508 OA
ATOM     11  H   UNL     1     -46.811 -13.197  10.094  1.00  0.00     0.293 HD
ENDBRANCH   6  10
TORSDOF 2
ENDMDL
MODEL 7
REMARK VINA RESULT:    -4.411     10.790     11.633
REMARK INTER + INTRA:          -4.826
REMARK INTER:                  -4.790
REMARK INTRA:                  -0.035
REMARK UNBOUND:                -0.028
REMARK SMILES O=C([O-])c1ccc(O)cc1
REMARK SMILES IDX 4 1 5 2 10 3 6 4 9 5 7 6 2 7 1 8 3 9 8 10
REMARK H PARENT 8 11
REMARK Flexibility Score: inf
ROOT
ATOM      1  C   UNL     1     -47.698 -13.229  12.078  1.00  0.00    -0.003 A 
ATOM      2  C   UNL     1     -48.337 -14.017  13.053  1.00  0.00     0.014 A 
ATOM      3  C   UNL     1     -48.485 -12.497  11.171  1.00  0.00     0.014 A 
ATOM      4  C   UNL     1     -49.733 -14.069  13.119  1.00  0.00     0.047 A 
ATOM      5  C   UNL     1     -49.880 -12.551  11.239  1.00  0.00     0.047 A 
ATOM      6  C   UNL     1     -50.508 -13.337  12.214  1.00  0.00     0.115 A 
ENDROOT
BRANCH   1   7
ATOM      7  C   UNL     1     -46.221 -13.170  12.003  1.00  0.00     0.071 C 
ATOM      8  O   UNL     1     -45.515 -13.540  12.979  1.00  0.00    -0.545 OA
ATOM      9  O   UNL     1     -45.592 -12.706  10.853  1.00  0.00    -0.545 OA
ENDBRANCH   1   7
BRANCH   6  10
ATOM     10  O   UNL     1     -51.897 -13.398  12.291  1.00  0.00    -0.508 OA
ATOM     11  H   UNL     1     -52.411 -14.213  11.973  1.00  0.00     0.293 HD
ENDBRANCH   6  10
TORSDOF 2
ENDMDL
MODEL 8
REMARK VINA RESULT:    -4.283      7.090      9.265
REMARK INTER + INTRA:          -4.686
REMARK INTER:                  -4.651
REMARK INTRA:                  -0.035
REMARK UNBOUND:                -0.028
REMARK SMILES O=C([O-])c1ccc(O)cc1
REMARK SMILES IDX 4 1 5 2 10 3 6 4 9 5 7 6 2 7 1 8 3 9 8 10
REMARK H PARENT 8 11
REMARK Flexibility Score: inf
ROOT
ATOM      1  C   UNL     1     -36.277  -3.959   4.500  1.00  0.00    -0.003 A 
ATOM      2  C   UNL     1     -35.886  -3.179   3.396  1.00  0.00     0.014 A 
ATOM      3  C   UNL     1     -36.655  -3.313   5.690  1.00  0.00     0.014 A 
ATOM      4  C   UNL     1     -35.875  -1.784   3.483  1.00  0.00     0.047 A 
ATOM      5  C   UNL     1     -36.642  -1.918   5.775  1.00  0.00     0.047 A 
ATOM      6  C   UNL     1     -36.252  -1.149   4.670  1.00  0.00     0.115 A 
ENDROOT
BRANCH   1   7
ATOM      7  C   UNL     1     -36.290  -5.436   4.414  1.00  0.00     0.071 C 
ATOM      8  O   UNL     1     -36.251  -6.139   5.459  1.00  0.00    -0.545 OA
ATOM      9  O   UNL     1     -36.345  -6.069   3.177  1.00  0.00    -0.545 OA
ENDBRANCH   1   7
BRANCH   6  10
ATOM     10  O   UNL     1     -36.236   0.242   4.743  1.00  0.00    -0.508 OA
ATOM     11  H   UNL     1     -35.599   0.795   4.181  1.00  0.00     0.293 HD
ENDBRANCH   6  10
TORSDOF 2
ENDMDL
MODEL 9
REMARK VINA RESULT:    -4.253      8.541      9.329
REMARK INTER + INTRA:          -4.653
REMARK INTER:                  -4.624
REMARK INTRA:                  -0.030
REMARK UNBOUND:                -0.028
REMARK SMILES O=C([O-])c1ccc(O)cc1
REMARK SMILES IDX 4 1 5 2 10 3 6 4 9 5 7 6 2 7 1 8 3 9 8 10
REMARK H PARENT 8 11
REMARK Flexibility Score: inf
ROOT
ATOM      1  C   UNL     1     -44.175 -11.670  11.491  1.00  0.00    -0.003 A 
ATOM      2  C   UNL     1     -45.131 -12.227  10.622  1.00  0.00     0.014 A 
ATOM      3  C   UNL     1     -44.089 -12.152  12.809  1.00  0.00     0.014 A 
ATOM      4  C   UNL     1     -45.981 -13.246  11.064  1.00  0.00     0.047 A 
ATOM      5  C   UNL     1     -44.940 -13.170  13.248  1.00  0.00     0.047 A 
ATOM      6  C   UNL     1     -45.889 -13.720  12.376  1.00  0.00     0.115 A 
ENDROOT
BRANCH   1   7
ATOM      7  C   UNL     1     -43.273 -10.591  11.028  1.00  0.00     0.071 C 
ATOM      8  O   UNL     1     -42.550 -10.753  10.009  1.00  0.00    -0.545 OA
ATOM      9  O   UNL     1     -43.210  -9.384  11.715  1.00  0.00    -0.545 OA
ENDBRANCH   1   7
BRANCH   6  10
ATOM     10  O   UNL     1     -46.742 -14.735  12.803  1.00  0.00    -0.508 OA
ATOM     11  H   UNL     1     -46.578 -15.235  13.669  1.00  0.00     0.293 HD
ENDBRANCH   6  10
TORSDOF 2
ENDMDL
