MODEL 1
REMARK VINA RESULT:    -3.881      0.000      0.000
REMARK INTER + INTRA:          -3.994
REMARK INTER:                  -3.994
REMARK INTRA:                   0.000
REMARK UNBOUND:                 0.000
REMARK SMILES C[C@H]1CC[C@]2(OC1)O[C@H]1C[C@@H]3[C@H]4CC=C5C[C@@H](O)CC[C@]5(C)[C@@H]4CC[C@]3(C)[C@H]1[C@@H]2C
REMARK SMILES IDX 1 1 2 2 3 3 4 4 5 5 29 6 28 7 9 8 8 9 10 10 11 11 26 12
REMARK SMILES IDX 25 13 24 14 23 15 12 16 13 17 14 18 15 19 21 20 20 21 19 22
REMARK SMILES IDX 17 23 16 24 22 25 27 26 30 27 6 28 7 29 18 30
REMARK H PARENT 18 31
REMARK Flexibility Score: inf
ROOT
ATOM      1  C   UNL     1      15.320  -3.336  88.616  1.00  0.00     0.010 C 
ATOM      2  C   UNL     1      14.882  -1.973  88.062  1.00  0.00     0.012 C 
ATOM      3  C   UNL     1      15.265  -1.843  86.580  1.00  0.00     0.011 C 
ATOM      4  C   UNL     1      14.695  -0.548  86.006  1.00  0.00     0.066 C 
ATOM      5  C   UNL     1      13.165  -0.473  86.279  1.00  0.00     0.171 C 
ATOM      6  C   UNL     1      12.494   0.820  85.742  1.00  0.00     0.052 C 
ATOM      7  C   UNL     1      11.850   0.373  84.429  1.00  0.00     0.033 C 
ATOM      8  C   UNL     1      12.163  -1.106  84.346  1.00  0.00     0.126 C 
ATOM      9  O   UNL     1      12.524  -1.557  85.629  1.00  0.00    -0.346 OA
ATOM     10  C   UNL     1      10.899  -1.808  83.843  1.00  0.00     0.037 C 
ATOM     11  C   UNL     1       9.979  -0.694  83.313  1.00  0.00     0.002 C 
ATOM     12  C   UNL     1      10.301   0.491  84.264  1.00  0.00    -0.024 C 
ATOM     13  C   UNL     1       9.849   1.858  83.695  1.00  0.00     0.008 C 
ATOM     14  C   UNL     1      10.247   2.088  82.243  1.00  0.00     0.005 C 
ATOM     15  C   UNL     1       9.736   0.957  81.322  1.00  0.00     0.003 C 
ATOM     16  C   UNL     1      10.279  -0.410  81.800  1.00  0.00     0.000 C 
ATOM     17  C   UNL     1       9.624  -1.499  80.933  1.00  0.00     0.031 C 
ATOM     18  C   UNL     1       9.921  -1.288  79.484  1.00  0.00    -0.027 C 
ATOM     19  C   UNL     1      10.066  -0.062  78.943  1.00  0.00    -0.065 C 
ATOM     20  C   UNL     1      10.026   1.230  79.777  1.00  0.00    -0.008 C 
ATOM     21  C   UNL     1      11.400   1.947  79.569  1.00  0.00     0.014 C 
ATOM     22  C   UNL     1      11.830   2.081  78.095  1.00  0.00     0.033 C 
ATOM     23  C   UNL     1      11.844   0.725  77.381  1.00  0.00     0.118 C 
ATOM     24  C   UNL     1      10.473   0.040  77.486  1.00  0.00     0.063 C 
ATOM     25  C   UNL     1       8.880   2.125  79.236  1.00  0.00     0.016 C 
ATOM     26  C   UNL     1       9.526   0.276  85.601  1.00  0.00     0.012 C 
ATOM     27  C   UNL     1      13.416   2.036  85.544  1.00  0.00     0.014 C 
ATOM     28  O   UNL     1      12.930  -0.541  87.682  1.00  0.00    -0.349 OA
ATOM     29  C   UNL     1      13.365  -1.774  88.234  1.00  0.00     0.167 C 
ENDROOT
BRANCH  23  30
ATOM     30  O   UNL     1      12.171   0.923  76.028  1.00  0.00    -0.393 OA
ATOM     31  H   UNL     1      12.329   0.024  75.641  1.00  0.00     0.210 HD
ENDBRANCH  23  30
TORSDOF 1
ENDMDL
MODEL 2
REMARK VINA RESULT:    -3.702      2.291      3.510
REMARK INTER + INTRA:          -3.810
REMARK INTER:                  -3.810
REMARK INTRA:                   0.000
REMARK UNBOUND:                 0.000
REMARK SMILES C[C@H]1CC[C@]2(OC1)O[C@H]1C[C@@H]3[C@H]4CC=C5C[C@@H](O)CC[C@]5(C)[C@@H]4CC[C@]3(C)[C@H]1[C@@H]2C
REMARK SMILES IDX 1 1 2 2 3 3 4 4 5 5 29 6 28 7 9 8 8 9 10 10 11 11 26 12
REMARK SMILES IDX 25 13 24 14 23 15 12 16 13 17 14 18 15 19 21 20 20 21 19 22
REMARK SMILES IDX 17 23 16 24 22 25 27 26 30 27 6 28 7 29 18 30
REMARK H PARENT 18 31
REMARK Flexibility Score: inf
ROOT
ATOM      1  C   UNL     1       8.875  -1.631  90.624  1.00  0.00     0.010 C 
ATOM      2  C   UNL     1      10.044  -1.866  89.657  1.00  0.00     0.012 C 
ATOM      3  C   UNL     1       9.557  -2.572  88.383  1.00  0.00     0.011 C 
ATOM      4  C   UNL     1      10.697  -2.666  87.371  1.00  0.00     0.066 C 
ATOM      5  C   UNL     1      11.310  -1.256  87.126  1.00  0.00     0.171 C 
ATOM      6  C   UNL     1      12.490  -1.251  86.118  1.00  0.00     0.052 C 
ATOM      7  C   UNL     1      11.848  -0.778  84.814  1.00  0.00     0.033 C 
ATOM      8  C   UNL     1      10.402  -0.520  85.183  1.00  0.00     0.126 C 
ATOM      9  O   UNL     1      10.314  -0.406  86.583  1.00  0.00    -0.346 OA
ATOM     10  C   UNL     1       9.982   0.778  84.490  1.00  0.00     0.037 C 
ATOM     11  C   UNL     1      11.079   1.078  83.453  1.00  0.00     0.002 C 
ATOM     12  C   UNL     1      12.359   0.541  84.150  1.00  0.00    -0.024 C 
ATOM     13  C   UNL     1      13.530   0.315  83.163  1.00  0.00     0.008 C 
ATOM     14  C   UNL     1      13.139  -0.436  81.898  1.00  0.00     0.005 C 
ATOM     15  C   UNL     1      11.974   0.257  81.156  1.00  0.00     0.003 C 
ATOM     16  C   UNL     1      10.745   0.382  82.087  1.00  0.00     0.000 C 
ATOM     17  C   UNL     1       9.678   1.201  81.341  1.00  0.00     0.031 C 
ATOM     18  C   UNL     1       9.300   0.548  80.050  1.00  0.00    -0.027 C 
ATOM     19  C   UNL     1      10.177  -0.158  79.309  1.00  0.00    -0.065 C 
ATOM     20  C   UNL     1      11.622  -0.432  79.761  1.00  0.00    -0.008 C 
ATOM     21  C   UNL     1      11.788  -1.986  79.830  1.00  0.00     0.014 C 
ATOM     22  C   UNL     1      11.294  -2.735  78.576  1.00  0.00     0.033 C 
ATOM     23  C   UNL     1       9.839  -2.387  78.243  1.00  0.00     0.118 C 
ATOM     24  C   UNL     1       9.667  -0.870  78.072  1.00  0.00     0.063 C 
ATOM     25  C   UNL     1      12.586   0.151  78.694  1.00  0.00     0.016 C 
ATOM     26  C   UNL     1      12.838   1.602  85.188  1.00  0.00     0.012 C 
ATOM     27  C   UNL     1      13.240  -2.582  85.938  1.00  0.00     0.014 C 
ATOM     28  O   UNL     1      11.781  -0.724  88.360  1.00  0.00    -0.349 OA
ATOM     29  C   UNL     1      10.729  -0.536  89.294  1.00  0.00     0.167 C 
ENDROOT
BRANCH  23  30
ATOM     30  O   UNL     1       9.473  -3.041  77.053  1.00  0.00    -0.393 OA
ATOM     31  H   UNL     1      10.253  -2.977  76.443  1.00  0.00     0.210 HD
ENDBRANCH  23  30
TORSDOF 1
ENDMDL
MODEL 3
REMARK VINA RESULT:    -3.638      2.960      8.280
REMARK INTER + INTRA:          -3.744
REMARK INTER:                  -3.744
REMARK INTRA:                   0.000
REMARK UNBOUND:                 0.000
REMARK SMILES C[C@H]1CC[C@]2(OC1)O[C@H]1C[C@@H]3[C@H]4CC=C5C[C@@H](O)CC[C@]5(C)[C@@H]4CC[C@]3(C)[C@H]1[C@@H]2C
REMARK SMILES IDX 1 1 2 2 3 3 4 4 5 5 29 6 28 7 9 8 8 9 10 10 11 11 26 12
REMARK SMILES IDX 25 13 24 14 23 15 12 16 13 17 14 18 15 19 21 20 20 21 19 22
REMARK SMILES IDX 17 23 16 24 22 25 27 26 30 27 6 28 7 29 18 30
REMARK H PARENT 18 31
REMARK Flexibility Score: inf
ROOT
ATOM      1  C   UNL     1      15.752  -1.000  73.010  1.00  0.00     0.010 C 
ATOM      2  C   UNL     1      15.393  -1.885  74.211  1.00  0.00     0.012 C 
ATOM      3  C   UNL     1      15.618  -1.128  75.528  1.00  0.00     0.011 C 
ATOM      4  C   UNL     1      15.120  -1.966  76.703  1.00  0.00     0.066 C 
ATOM      5  C   UNL     1      13.644  -2.400  76.460  1.00  0.00     0.171 C 
ATOM      6  C   UNL     1      13.050  -3.271  77.598  1.00  0.00     0.052 C 
ATOM      7  C   UNL     1      12.222  -2.279  78.416  1.00  0.00     0.033 C 
ATOM      8  C   UNL     1      12.374  -0.967  77.675  1.00  0.00     0.126 C 
ATOM      9  O   UNL     1      12.830  -1.243  76.372  1.00  0.00    -0.346 OA
ATOM     10  C   UNL     1      10.999  -0.296  77.655  1.00  0.00     0.037 C 
ATOM     11  C   UNL     1      10.141  -1.060  78.679  1.00  0.00     0.002 C 
ATOM     12  C   UNL     1      10.683  -2.510  78.560  1.00  0.00    -0.024 C 
ATOM     13  C   UNL     1      10.309  -3.393  79.775  1.00  0.00     0.008 C 
ATOM     14  C   UNL     1      10.563  -2.734  81.123  1.00  0.00     0.005 C 
ATOM     15  C   UNL     1       9.842  -1.371  81.241  1.00  0.00     0.003 C 
ATOM     16  C   UNL     1      10.297  -0.425  80.105  1.00  0.00     0.000 C 
ATOM     17  C   UNL     1       9.443   0.852  80.195  1.00  0.00     0.031 C 
ATOM     18  C   UNL     1       9.596   1.512  81.527  1.00  0.00    -0.027 C 
ATOM     19  C   UNL     1       9.801   0.816  82.663  1.00  0.00    -0.065 C 
ATOM     20  C   UNL     1       9.983  -0.712  82.687  1.00  0.00    -0.008 C 
ATOM     21  C   UNL     1      11.390  -0.991  83.310  1.00  0.00     0.014 C 
ATOM     22  C   UNL     1      11.663  -0.235  84.625  1.00  0.00     0.033 C 
ATOM     23  C   UNL     1      11.462   1.276  84.465  1.00  0.00     0.118 C 
ATOM     24  C   UNL     1      10.050   1.586  83.945  1.00  0.00     0.063 C 
ATOM     25  C   UNL     1       8.879  -1.321  83.589  1.00  0.00     0.016 C 
ATOM     26  C   UNL     1      10.045  -3.175  77.301  1.00  0.00     0.012 C 
ATOM     27  C   UNL     1      14.060  -4.033  78.474  1.00  0.00     0.014 C 
ATOM     28  O   UNL     1      13.562  -3.143  75.248  1.00  0.00    -0.349 OA
ATOM     29  C   UNL     1      13.931  -2.364  74.121  1.00  0.00     0.167 C 
ENDROOT
BRANCH  23  30
ATOM     30  O   UNL     1      11.654   1.898  85.711  1.00  0.00    -0.393 OA
ATOM     31  H   UNL     1      10.784   2.304  85.962  1.00  0.00     0.210 HD
ENDBRANCH  23  30
TORSDOF 1
ENDMDL
MODEL 4
REMARK VINA RESULT:    -3.571      3.095      8.244
REMARK INTER + INTRA:          -3.675
REMARK INTER:                  -3.675
REMARK INTRA:                   0.000
REMARK UNBOUND:                 0.000
REMARK SMILES C[C@H]1CC[C@]2(OC1)O[C@H]1C[C@@H]3[C@H]4CC=C5C[C@@H](O)CC[C@]5(C)[C@@H]4CC[C@]3(C)[C@H]1[C@@H]2C
REMARK SMILES IDX 1 1 2 2 3 3 4 4 5 5 29 6 28 7 9 8 8 9 10 10 11 11 26 12
REMARK SMILES IDX 25 13 24 14 23 15 12 16 13 17 14 18 15 19 21 20 20 21 19 22
REMARK SMILES IDX 17 23 16 24 22 25 27 26 30 27 6 28 7 29 18 30
REMARK H PARENT 18 31
REMARK Flexibility Score: inf
ROOT
ATOM      1  C   UNL     1      14.969  -2.555  72.917  1.00  0.00     0.010 C 
ATOM      2  C   UNL     1      14.561  -3.255  74.220  1.00  0.00     0.012 C 
ATOM      3  C   UNL     1      15.009  -2.434  75.438  1.00  0.00     0.011 C 
ATOM      4  C   UNL     1      14.469  -3.066  76.720  1.00  0.00     0.066 C 
ATOM      5  C   UNL     1      12.928  -3.259  76.610  1.00  0.00     0.171 C 
ATOM      6  C   UNL     1      12.286  -3.910  77.865  1.00  0.00     0.052 C 
ATOM      7  C   UNL     1      11.698  -2.721  78.627  1.00  0.00     0.033 C 
ATOM      8  C   UNL     1      12.009  -1.527  77.749  1.00  0.00     0.126 C 
ATOM      9  O   UNL     1      12.312  -1.992  76.456  1.00  0.00    -0.346 OA
ATOM     10  C   UNL     1      10.766  -0.634  77.744  1.00  0.00     0.037 C 
ATOM     11  C   UNL     1       9.874  -1.144  78.890  1.00  0.00     0.002 C 
ATOM     12  C   UNL     1      10.158  -2.671  78.885  1.00  0.00    -0.024 C 
ATOM     13  C   UNL     1       9.736  -3.364  80.203  1.00  0.00     0.008 C 
ATOM     14  C   UNL     1      10.198  -2.641  81.460  1.00  0.00     0.005 C 
ATOM     15  C   UNL     1       9.723  -1.170  81.483  1.00  0.00     0.003 C 
ATOM     16  C   UNL     1      10.241  -0.421  80.233  1.00  0.00     0.000 C 
ATOM     17  C   UNL     1       9.620   0.986  80.244  1.00  0.00     0.031 C 
ATOM     18  C   UNL     1       9.981   1.727  81.492  1.00  0.00    -0.027 C 
ATOM     19  C   UNL     1      10.154   1.110  82.677  1.00  0.00    -0.065 C 
ATOM     20  C   UNL     1      10.081  -0.418  82.844  1.00  0.00    -0.008 C 
ATOM     21  C   UNL     1      11.466  -0.879  83.407  1.00  0.00     0.014 C 
ATOM     22  C   UNL     1      11.960  -0.067  84.621  1.00  0.00     0.033 C 
ATOM     23  C   UNL     1      12.001   1.435  84.322  1.00  0.00     0.118 C 
ATOM     24  C   UNL     1      10.624   1.936  83.859  1.00  0.00     0.063 C 
ATOM     25  C   UNL     1       8.964  -0.746  83.868  1.00  0.00     0.016 C 
ATOM     26  C   UNL     1       9.325  -3.325  77.740  1.00  0.00     0.012 C 
ATOM     27  C   UNL     1      13.220  -4.753  78.750  1.00  0.00     0.014 C 
ATOM     28  O   UNL     1      12.632  -4.082  75.486  1.00  0.00    -0.349 OA
ATOM     29  C   UNL     1      13.038  -3.481  74.267  1.00  0.00     0.167 C 
ENDROOT
BRANCH  23  30
ATOM     30  O   UNL     1      12.387   2.124  85.485  1.00  0.00    -0.393 OA
ATOM     31  H   UNL     1      12.886   2.927  85.186  1.00  0.00     0.210 HD
ENDBRANCH  23  30
TORSDOF 1
ENDMDL
MODEL 5
REMARK VINA RESULT:    -3.477      2.552      3.211
REMARK INTER + INTRA:          -3.579
REMARK INTER:                  -3.579
REMARK INTRA:                   0.000
REMARK UNBOUND:                 0.000
REMARK SMILES C[C@H]1CC[C@]2(OC1)O[C@H]1C[C@@H]3[C@H]4CC=C5C[C@@H](O)CC[C@]5(C)[C@@H]4CC[C@]3(C)[C@H]1[C@@H]2C
REMARK SMILES IDX 1 1 2 2 3 3 4 4 5 5 29 6 28 7 9 8 8 9 10 10 11 11 26 12
REMARK SMILES IDX 25 13 24 14 23 15 12 16 13 17 14 18 15 19 21 20 20 21 19 22
REMARK SMILES IDX 17 23 16 24 22 25 27 26 30 27 6 28 7 29 18 30
REMARK H PARENT 18 31
REMARK Flexibility Score: inf
ROOT
ATOM      1  C   UNL     1      14.326  -8.125  85.444  1.00  0.00     0.010 C 
ATOM      2  C   UNL     1      13.958  -6.645  85.621  1.00  0.00     0.012 C 
ATOM      3  C   UNL     1      14.504  -5.809  84.453  1.00  0.00     0.011 C 
ATOM      4  C   UNL     1      14.007  -4.370  84.566  1.00  0.00     0.066 C 
ATOM      5  C   UNL     1      12.456  -4.351  84.695  1.00  0.00     0.171 C 
ATOM      6  C   UNL     1      11.854  -2.926  84.830  1.00  0.00     0.052 C 
ATOM      7  C   UNL     1      11.358  -2.610  83.418  1.00  0.00     0.033 C 
ATOM      8  C   UNL     1      11.671  -3.862  82.625  1.00  0.00     0.126 C 
ATOM      9  O   UNL     1      11.886  -4.918  83.528  1.00  0.00    -0.346 OA
ATOM     10  C   UNL     1      10.468  -4.136  81.719  1.00  0.00     0.037 C 
ATOM     11  C   UNL     1       9.618  -2.854  81.746  1.00  0.00     0.002 C 
ATOM     12  C   UNL     1       9.837  -2.332  83.192  1.00  0.00    -0.024 C 
ATOM     13  C   UNL     1       9.457  -0.841  83.356  1.00  0.00     0.008 C 
ATOM     14  C   UNL     1      10.015   0.066  82.267  1.00  0.00     0.005 C 
ATOM     15  C   UNL     1       9.604  -0.413  80.856  1.00  0.00     0.003 C 
ATOM     16  C   UNL     1      10.085  -1.864  80.622  1.00  0.00     0.000 C 
ATOM     17  C   UNL     1       9.525  -2.326  79.265  1.00  0.00     0.031 C 
ATOM     18  C   UNL     1       9.982  -1.432  78.159  1.00  0.00    -0.027 C 
ATOM     19  C   UNL     1      10.192  -0.111  78.332  1.00  0.00    -0.065 C 
ATOM     20  C   UNL     1      10.065   0.584  79.699  1.00  0.00    -0.008 C 
ATOM     21  C   UNL     1      11.457   1.224  80.013  1.00  0.00     0.014 C 
ATOM     22  C   UNL     1      12.048   2.057  78.859  1.00  0.00     0.033 C 
ATOM     23  C   UNL     1      12.135   1.248  77.560  1.00  0.00     0.118 C 
ATOM     24  C   UNL     1      10.758   0.687  77.174  1.00  0.00     0.063 C 
ATOM     25  C   UNL     1       8.990   1.696  79.583  1.00  0.00     0.016 C 
ATOM     26  C   UNL     1       8.918  -3.145  84.155  1.00  0.00     0.012 C 
ATOM     27  C   UNL     1      12.798  -1.834  85.363  1.00  0.00     0.014 C 
ATOM     28  O   UNL     1      12.066  -5.103  85.840  1.00  0.00    -0.349 OA
ATOM     29  C   UNL     1      12.432  -6.469  85.727  1.00  0.00     0.167 C 
ENDROOT
BRANCH  23  30
ATOM     30  O   UNL     1      12.611   2.081  76.533  1.00  0.00    -0.393 OA
ATOM     31  H   UNL     1      11.827   2.314  75.971  1.00  0.00     0.210 HD
ENDBRANCH  23  30
TORSDOF 1
ENDMDL
MODEL 6
REMARK VINA RESULT:    -3.446      1.721      2.214
REMARK INTER + INTRA:          -3.546
REMARK INTER:                  -3.546
REMARK INTRA:                   0.000
REMARK UNBOUND:                 0.000
REMARK SMILES C[C@H]1CC[C@]2(OC1)O[C@H]1C[C@@H]3[C@H]4CC=C5C[C@@H](O)CC[C@]5(C)[C@@H]4CC[C@]3(C)[C@H]1[C@@H]2C
REMARK SMILES IDX 1 1 2 2 3 3 4 4 5 5 29 6 28 7 9 8 8 9 10 10 11 11 26 12
REMARK SMILES IDX 25 13 24 14 23 15 12 16 13 17 14 18 15 19 21 20 20 21 19 22
REMARK SMILES IDX 17 23 16 24 22 25 27 26 30 27 6 28 7 29 18 30
REMARK H PARENT 18 31
REMARK Flexibility Score: inf
ROOT
ATOM      1  C   UNL     1      13.505  -2.320  89.534  1.00  0.00     0.010 C 
ATOM      2  C   UNL     1      13.516  -1.294  88.392  1.00  0.00     0.012 C 
ATOM      3  C   UNL     1      14.050  -1.930  87.100  1.00  0.00     0.011 C 
ATOM      4  C   UNL     1      13.918  -0.944  85.940  1.00  0.00     0.066 C 
ATOM      5  C   UNL     1      12.452  -0.432  85.842  1.00  0.00     0.171 C 
ATOM      6  C   UNL     1      12.219   0.590  84.697  1.00  0.00     0.052 C 
ATOM      7  C   UNL     1      11.596  -0.253  83.583  1.00  0.00     0.033 C 
ATOM      8  C   UNL     1      11.489  -1.640  84.182  1.00  0.00     0.126 C 
ATOM      9  O   UNL     1      11.594  -1.529  85.581  1.00  0.00    -0.346 OA
ATOM     10  C   UNL     1      10.129  -2.208  83.767  1.00  0.00     0.037 C 
ATOM     11  C   UNL     1       9.608  -1.285  82.651  1.00  0.00     0.002 C 
ATOM     12  C   UNL     1      10.162   0.103  83.074  1.00  0.00    -0.024 C 
ATOM     13  C   UNL     1      10.162   1.128  81.914  1.00  0.00     0.008 C 
ATOM     14  C   UNL     1      10.737   0.590  80.610  1.00  0.00     0.005 C 
ATOM     15  C   UNL     1      10.014  -0.698  80.153  1.00  0.00     0.003 C 
ATOM     16  C   UNL     1      10.109  -1.783  81.251  1.00  0.00     0.000 C 
ATOM     17  C   UNL     1       9.255  -2.980  80.795  1.00  0.00     0.031 C 
ATOM     18  C   UNL     1       9.728  -3.512  79.481  1.00  0.00    -0.027 C 
ATOM     19  C   UNL     1      10.257  -2.723  78.526  1.00  0.00    -0.065 C 
ATOM     20  C   UNL     1      10.505  -1.217  78.727  1.00  0.00    -0.008 C 
ATOM     21  C   UNL     1      12.038  -0.980  78.525  1.00  0.00     0.014 C 
ATOM     22  C   UNL     1      12.618  -1.618  77.248  1.00  0.00     0.033 C 
ATOM     23  C   UNL     1      12.316  -3.118  77.175  1.00  0.00     0.118 C 
ATOM     24  C   UNL     1      10.804  -3.376  77.272  1.00  0.00     0.063 C 
ATOM     25  C   UNL     1       9.708  -0.442  77.646  1.00  0.00     0.016 C 
ATOM     26  C   UNL     1       9.243   0.682  84.192  1.00  0.00     0.012 C 
ATOM     27  C   UNL     1      13.458   1.360  84.208  1.00  0.00     0.014 C 
ATOM     28  O   UNL     1      12.083   0.190  87.069  1.00  0.00    -0.349 OA
ATOM     29  C   UNL     1      12.105  -0.723  88.155  1.00  0.00     0.167 C 
ENDROOT
BRANCH  23  30
ATOM     30  O   UNL     1      12.804  -3.625  75.958  1.00  0.00    -0.393 OA
ATOM     31  H   UNL     1      13.432  -4.358  76.187  1.00  0.00     0.210 HD
ENDBRANCH  23  30
TORSDOF 1
ENDMDL
MODEL 7
REMARK VINA RESULT:    -3.295      3.061      7.980
REMARK INTER + INTRA:          -3.391
REMARK INTER:                  -3.391
REMARK INTRA:                   0.000
REMARK UNBOUND:                 0.000
REMARK SMILES C[C@H]1CC[C@]2(OC1)O[C@H]1C[C@@H]3[C@H]4CC=C5C[C@@H](O)CC[C@]5(C)[C@@H]4CC[C@]3(C)[C@H]1[C@@H]2C
REMARK SMILES IDX 1 1 2 2 3 3 4 4 5 5 29 6 28 7 9 8 8 9 10 10 11 11 26 12
REMARK SMILES IDX 25 13 24 14 23 15 12 16 13 17 14 18 15 19 21 20 20 21 19 22
REMARK SMILES IDX 17 23 16 24 22 25 27 26 30 27 6 28 7 29 18 30
REMARK H PARENT 18 31
REMARK Flexibility Score: inf
ROOT
ATOM      1  C   UNL     1      13.551  -6.429  75.333  1.00  0.00     0.010 C 
ATOM      2  C   UNL     1      12.324  -5.829  76.034  1.00  0.00     0.012 C 
ATOM      3  C   UNL     1      12.498  -5.870  77.559  1.00  0.00     0.011 C 
ATOM      4  C   UNL     1      11.340  -5.139  78.236  1.00  0.00     0.066 C 
ATOM      5  C   UNL     1      11.200  -3.705  77.647  1.00  0.00     0.171 C 
ATOM      6  C   UNL     1      10.036  -2.884  78.264  1.00  0.00     0.052 C 
ATOM      7  C   UNL     1      10.732  -1.983  79.286  1.00  0.00     0.033 C 
ATOM      8  C   UNL     1      12.201  -2.325  79.142  1.00  0.00     0.126 C 
ATOM      9  O   UNL     1      12.387  -2.977  77.910  1.00  0.00    -0.346 OA
ATOM     10  C   UNL     1      12.980  -1.009  79.202  1.00  0.00     0.037 C 
ATOM     11  C   UNL     1      11.988   0.046  79.721  1.00  0.00     0.002 C 
ATOM     12  C   UNL     1      10.638  -0.432  79.119  1.00  0.00    -0.024 C 
ATOM     13  C   UNL     1       9.411   0.185  79.831  1.00  0.00     0.008 C 
ATOM     14  C   UNL     1       9.480   0.126  81.351  1.00  0.00     0.005 C 
ATOM     15  C   UNL     1      10.769   0.785  81.893  1.00  0.00     0.003 C 
ATOM     16  C   UNL     1      12.015   0.099  81.289  1.00  0.00     0.000 C 
ATOM     17  C   UNL     1      13.252   0.888  81.754  1.00  0.00     0.031 C 
ATOM     18  C   UNL     1      13.339   0.926  83.246  1.00  0.00    -0.027 C 
ATOM     19  C   UNL     1      12.248   0.950  84.036  1.00  0.00    -0.065 C 
ATOM     20  C   UNL     1      10.814   0.854  83.486  1.00  0.00    -0.008 C 
ATOM     21  C   UNL     1      10.163  -0.412  84.134  1.00  0.00     0.014 C 
ATOM     22  C   UNL     1      10.331  -0.501  85.664  1.00  0.00     0.033 C 
ATOM     23  C   UNL     1      11.803  -0.408  86.080  1.00  0.00     0.118 C 
ATOM     24  C   UNL     1      12.443   0.879  85.538  1.00  0.00     0.063 C 
ATOM     25  C   UNL     1      10.037   2.124  83.923  1.00  0.00     0.016 C 
ATOM     26  C   UNL     1      10.574   0.020  77.628  1.00  0.00     0.012 C 
ATOM     27  C   UNL     1       8.892  -3.693  78.900  1.00  0.00     0.014 C 
ATOM     28  O   UNL     1      10.983  -3.788  76.242  1.00  0.00    -0.349 OA
ATOM     29  C   UNL     1      12.083  -4.380  75.569  1.00  0.00     0.167 C 
ENDROOT
BRANCH  23  30
ATOM     30  O   UNL     1      11.884  -0.421  87.484  1.00  0.00    -0.393 OA
ATOM     31  H   UNL     1      11.592   0.476  87.792  1.00  0.00     0.210 HD
ENDBRANCH  23  30
TORSDOF 1
ENDMDL
MODEL 8
REMARK VINA RESULT:    -3.292      2.463      3.544
REMARK INTER + INTRA:          -3.388
REMARK INTER:                  -3.388
REMARK INTRA:                   0.000
REMARK UNBOUND:                 0.000
REMARK SMILES C[C@H]1CC[C@]2(OC1)O[C@H]1C[C@@H]3[C@H]4CC=C5C[C@@H](O)CC[C@]5(C)[C@@H]4CC[C@]3(C)[C@H]1[C@@H]2C
REMARK SMILES IDX 1 1 2 2 3 3 4 4 5 5 29 6 28 7 9 8 8 9 10 10 11 11 26 12
REMARK SMILES IDX 25 13 24 14 23 15 12 16 13 17 14 18 15 19 21 20 20 21 19 22
REMARK SMILES IDX 17 23 16 24 22 25 27 26 30 27 6 28 7 29 18 30
REMARK H PARENT 18 31
REMARK Flexibility Score: inf
ROOT
ATOM      1  C   UNL     1       9.402  -1.505  88.916  1.00  0.00     0.010 C 
ATOM      2  C   UNL     1      10.364  -0.754  87.984  1.00  0.00     0.012 C 
ATOM      3  C   UNL     1      11.097  -1.737  87.059  1.00  0.00     0.011 C 
ATOM      4  C   UNL     1      11.937  -0.967  86.042  1.00  0.00     0.066 C 
ATOM      5  C   UNL     1      11.050   0.072  85.296  1.00  0.00     0.171 C 
ATOM      6  C   UNL     1      11.820   0.917  84.246  1.00  0.00     0.052 C 
ATOM      7  C   UNL     1      11.477   0.241  82.918  1.00  0.00     0.033 C 
ATOM      8  C   UNL     1      10.533  -0.879  83.303  1.00  0.00     0.126 C 
ATOM      9  O   UNL     1      10.029  -0.612  84.589  1.00  0.00    -0.346 OA
ATOM     10  C   UNL     1       9.414  -0.906  82.259  1.00  0.00     0.037 C 
ATOM     11  C   UNL     1       9.902  -0.030  81.093  1.00  0.00     0.002 C 
ATOM     12  C   UNL     1      10.735   1.064  81.816  1.00  0.00    -0.024 C 
ATOM     13  C   UNL     1      11.695   1.816  80.863  1.00  0.00     0.008 C 
ATOM     14  C   UNL     1      12.507   0.904  79.953  1.00  0.00     0.005 C 
ATOM     15  C   UNL     1      11.600  -0.036  79.126  1.00  0.00     0.003 C 
ATOM     16  C   UNL     1      10.717  -0.891  80.066  1.00  0.00     0.000 C 
ATOM     17  C   UNL     1       9.745  -1.695  79.184  1.00  0.00     0.031 C 
ATOM     18  C   UNL     1      10.484  -2.563  78.217  1.00  0.00    -0.027 C 
ATOM     19  C   UNL     1      11.667  -2.206  77.679  1.00  0.00    -0.065 C 
ATOM     20  C   UNL     1      12.410  -0.917  78.071  1.00  0.00    -0.008 C 
ATOM     21  C   UNL     1      13.804  -1.350  78.633  1.00  0.00     0.014 C 
ATOM     22  C   UNL     1      14.565  -2.350  77.742  1.00  0.00     0.033 C 
ATOM     23  C   UNL     1      13.725  -3.595  77.437  1.00  0.00     0.118 C 
ATOM     24  C   UNL     1      12.386  -3.204  76.792  1.00  0.00     0.063 C 
ATOM     25  C   UNL     1      12.603  -0.057  76.794  1.00  0.00     0.016 C 
ATOM     26  C   UNL     1       9.753   2.124  82.403  1.00  0.00     0.012 C 
ATOM     27  C   UNL     1      13.340   1.041  84.451  1.00  0.00     0.014 C 
ATOM     28  O   UNL     1      10.469   0.965  86.241  1.00  0.00    -0.349 OA
ATOM     29  C   UNL     1       9.607   0.294  87.147  1.00  0.00     0.167 C 
ENDROOT
BRANCH  23  30
ATOM     30  O   UNL     1      14.443  -4.431  76.565  1.00  0.00    -0.393 OA
ATOM     31  H   UNL     1      14.374  -4.025  75.662  1.00  0.00     0.210 HD
ENDBRANCH  23  30
TORSDOF 1
ENDMDL
MODEL 9
REMARK VINA RESULT:    -3.272      3.434      5.209
REMARK INTER + INTRA:          -3.368
REMARK INTER:                  -3.368
REMARK INTRA:                   0.000
REMARK UNBOUND:                 0.000
REMARK SMILES C[C@H]1CC[C@]2(OC1)O[C@H]1C[C@@H]3[C@H]4CC=C5C[C@@H](O)CC[C@]5(C)[C@@H]4CC[C@]3(C)[C@H]1[C@@H]2C
REMARK SMILES IDX 1 1 2 2 3 3 4 4 5 5 29 6 28 7 9 8 8 9 10 10 11 11 26 12
REMARK SMILES IDX 25 13 24 14 23 15 12 16 13 17 14 18 15 19 21 20 20 21 19 22
REMARK SMILES IDX 17 23 16 24 22 25 27 26 30 27 6 28 7 29 18 30
REMARK H PARENT 18 31
REMARK Flexibility Score: inf
ROOT
ATOM      1  C   UNL     1      13.886   1.360  86.493  1.00  0.00     0.010 C 
ATOM      2  C   UNL     1      13.823   1.459  84.963  1.00  0.00     0.012 C 
ATOM      3  C   UNL     1      14.227   0.126  84.317  1.00  0.00     0.011 C 
ATOM      4  C   UNL     1      14.018   0.194  82.806  1.00  0.00     0.066 C 
ATOM      5  C   UNL     1      12.562   0.643  82.489  1.00  0.00     0.171 C 
ATOM      6  C   UNL     1      12.256   0.755  80.971  1.00  0.00     0.052 C 
ATOM      7  C   UNL     1      11.517  -0.546  80.655  1.00  0.00     0.033 C 
ATOM      8  C   UNL     1      11.428  -1.256  81.989  1.00  0.00     0.126 C 
ATOM      9  O   UNL     1      11.658  -0.316  83.010  1.00  0.00    -0.346 OA
ATOM     10  C   UNL     1      10.024  -1.858  82.089  1.00  0.00     0.037 C 
ATOM     11  C   UNL     1       9.431  -1.783  80.671  1.00  0.00     0.002 C 
ATOM     12  C   UNL     1      10.054  -0.475  80.112  1.00  0.00    -0.024 C 
ATOM     13  C   UNL     1       9.978  -0.386  78.569  1.00  0.00     0.008 C 
ATOM     14  C   UNL     1      10.422  -1.653  77.851  1.00  0.00     0.005 C 
ATOM     15  C   UNL     1       9.631  -2.892  78.330  1.00  0.00     0.003 C 
ATOM     16  C   UNL     1       9.795  -3.074  79.857  1.00  0.00     0.000 C 
ATOM     17  C   UNL     1       8.875  -4.229  80.288  1.00  0.00     0.031 C 
ATOM     18  C   UNL     1       9.217  -5.492  79.565  1.00  0.00    -0.027 C 
ATOM     19  C   UNL     1       9.681  -5.500  78.299  1.00  0.00    -0.065 C 
ATOM     20  C   UNL     1       9.983  -4.214  77.510  1.00  0.00    -0.008 C 
ATOM     21  C   UNL     1      11.497  -4.265  77.124  1.00  0.00     0.014 C 
ATOM     22  C   UNL     1      11.947  -5.595  76.489  1.00  0.00     0.033 C 
ATOM     23  C   UNL     1      11.603  -6.795  77.378  1.00  0.00     0.118 C 
ATOM     24  C   UNL     1      10.100  -6.825  77.693  1.00  0.00     0.063 C 
ATOM     25  C   UNL     1       9.114  -4.214  76.225  1.00  0.00     0.016 C 
ATOM     26  C   UNL     1       9.250   0.736  80.677  1.00  0.00     0.012 C 
ATOM     27  C   UNL     1      13.466   0.967  80.045  1.00  0.00     0.014 C 
ATOM     28  O   UNL     1      12.318   1.913  83.083  1.00  0.00    -0.349 OA
ATOM     29  C   UNL     1      12.412   1.865  84.498  1.00  0.00     0.167 C 
ENDROOT
BRANCH  23  30
ATOM     30  O   UNL     1      11.970  -7.978  76.713  1.00  0.00    -0.393 OA
ATOM     31  H   UNL     1      12.932  -7.888  76.484  1.00  0.00     0.210 HD
ENDBRANCH  23  30
TORSDOF 1
ENDMDL
