MODEL 1
REMARK VINA RESULT:    -4.490      0.000      0.000
REMARK INTER + INTRA:          -7.253
REMARK INTER:                  -6.853
REMARK INTRA:                  -0.400
REMARK UNBOUND:                -0.400
REMARK SMILES CCCCCCCCCCC(=O)[O-]
REMARK SMILES IDX 7 1 8 2 9 3 10 4 11 5 12 6 13 7 6 8 5 9 4 10 3 11 2 12 1 13
REMARK H PARENT
REMARK Flexibility Score: inf
ROOT
ATOM      1  C   UNL     1      -3.394   0.721  -0.239  1.00  0.00     0.000 C 
ENDROOT
BRANCH   1   2
ATOM      2  C   UNL     1      -4.282   1.631   0.625  1.00  0.00     0.000 C 
BRANCH   2   3
ATOM      3  C   UNL     1      -3.834   3.105   0.605  1.00  0.00     0.006 C 
BRANCH   3   4
ATOM      4  C   UNL     1      -2.756   3.417  -0.449  1.00  0.00     0.053 C 
BRANCH   4   5
ATOM      5  C   UNL     1      -2.922   4.776  -1.056  1.00  0.00     0.041 C 
ATOM      6  O   UNL     1      -3.115   5.779  -0.320  1.00  0.00    -0.550 OA
ATOM      7  O   UNL     1      -2.900   4.933  -2.437  1.00  0.00    -0.550 OA
ENDBRANCH   4   5
ENDBRANCH   3   4
ENDBRANCH   2   3
ENDBRANCH   1   2
BRANCH   1   8
ATOM      8  C   UNL     1      -4.212  -0.279  -1.073  1.00  0.00     0.000 C 
BRANCH   8   9
ATOM      9  C   UNL     1      -3.324  -1.305  -1.799  1.00  0.00    -0.000 C 
BRANCH   9  10
ATOM     10  C   UNL     1      -4.141  -2.352  -2.574  1.00  0.00    -0.000 C 
BRANCH  10  11
ATOM     11  C   UNL     1      -3.964  -3.775  -2.013  1.00  0.00    -0.000 C 
BRANCH  11  12
ATOM     12  C   UNL     1      -3.538  -3.776  -0.537  1.00  0.00    -0.003 C 
ATOM     13  C   UNL     1      -4.511  -4.538   0.362  1.00  0.00     0.004 C 
ENDBRANCH  11  12
ENDBRANCH  10  11
ENDBRANCH   9  10
ENDBRANCH   8   9
ENDBRANCH   1   8
TORSDOF 9
ENDMDL
MODEL 2
REMARK VINA RESULT:    -4.134      3.806      7.299
REMARK INTER + INTRA:          -6.710
REMARK INTER:                  -6.494
REMARK INTRA:                  -0.216
REMARK UNBOUND:                -0.400
REMARK SMILES CCCCCCCCCCC(=O)[O-]
REMARK SMILES IDX 7 1 8 2 9 3 10 4 11 5 12 6 13 7 6 8 5 9 4 10 3 11 2 12 1 13
REMARK H PARENT
REMARK Flexibility Score: inf
ROOT
ATOM      1  C   UNL     1      -4.363   1.078   0.418  1.00  0.00     0.000 C 
ENDROOT
BRANCH   1   2
ATOM      2  C   UNL     1      -3.624   0.461  -0.781  1.00  0.00     0.000 C 
BRANCH   2   3
ATOM      3  C   UNL     1      -3.750  -1.073  -0.841  1.00  0.00     0.006 C 
BRANCH   3   4
ATOM      4  C   UNL     1      -3.902  -1.633  -2.266  1.00  0.00     0.053 C 
BRANCH   4   5
ATOM      5  C   UNL     1      -3.746  -3.123  -2.318  1.00  0.00     0.041 C 
ATOM      6  O   UNL     1      -3.650  -3.710  -3.428  1.00  0.00    -0.550 OA
ATOM      7  O   UNL     1      -3.744  -3.867  -1.145  1.00  0.00    -0.550 OA
ENDBRANCH   4   5
ENDBRANCH   3   4
ENDBRANCH   2   3
ENDBRANCH   1   2
BRANCH   1   8
ATOM      8  C   UNL     1      -3.993   2.554   0.641  1.00  0.00     0.000 C 
BRANCH   8   9
ATOM      9  C   UNL     1      -2.738   2.971  -0.145  1.00  0.00    -0.000 C 
BRANCH   9  10
ATOM     10  C   UNL     1      -2.989   4.180  -1.063  1.00  0.00    -0.000 C 
BRANCH  10  11
ATOM     11  C   UNL     1      -3.035   5.511  -0.290  1.00  0.00    -0.000 C 
BRANCH  11  12
ATOM     12  C   UNL     1      -2.359   5.415   1.086  1.00  0.00    -0.003 C 
ATOM     13  C   UNL     1      -1.653   6.709   1.491  1.00  0.00     0.004 C 
ENDBRANCH  11  12
ENDBRANCH  10  11
ENDBRANCH   9  10
ENDBRANCH   8   9
ENDBRANCH   1   8
TORSDOF 9
ENDMDL
MODEL 3
REMARK VINA RESULT:    -4.043      3.858      7.097
REMARK INTER + INTRA:          -6.571
REMARK INTER:                  -6.102
REMARK INTRA:                  -0.469
REMARK UNBOUND:                -0.400
REMARK SMILES CCCCCCCCCCC(=O)[O-]
REMARK SMILES IDX 7 1 8 2 9 3 10 4 11 5 12 6 13 7 6 8 5 9 4 10 3 11 2 12 1 13
REMARK H PARENT
REMARK Flexibility Score: inf
ROOT
ATOM      1  C   UNL     1      -3.543   1.116  -0.079  1.00  0.00     0.000 C 
ENDROOT
BRANCH   1   2
ATOM      2  C   UNL     1      -4.289  -0.128  -0.590  1.00  0.00     0.000 C 
BRANCH   2   3
ATOM      3  C   UNL     1      -3.440  -0.991  -1.542  1.00  0.00     0.006 C 
BRANCH   3   4
ATOM      4  C   UNL     1      -4.267  -1.865  -2.501  1.00  0.00     0.053 C 
BRANCH   4   5
ATOM      5  C   UNL     1      -3.819  -3.295  -2.509  1.00  0.00     0.041 C 
ATOM      6  O   UNL     1      -3.466  -3.841  -3.587  1.00  0.00    -0.550 OA
ATOM      7  O   UNL     1      -3.824  -4.035  -1.333  1.00  0.00    -0.550 OA
ENDBRANCH   4   5
ENDBRANCH   3   4
ENDBRANCH   2   3
ENDBRANCH   1   2
BRANCH   1   8
ATOM      8  C   UNL     1      -4.368   1.920   0.939  1.00  0.00     0.000 C 
BRANCH   8   9
ATOM      9  C   UNL     1      -4.034   3.422   0.912  1.00  0.00    -0.000 C 
BRANCH   9  10
ATOM     10  C   UNL     1      -2.877   3.755  -0.045  1.00  0.00    -0.000 C 
BRANCH  10  11
ATOM     11  C   UNL     1      -2.954   5.193  -0.589  1.00  0.00    -0.000 C 
BRANCH  11  12
ATOM     12  C   UNL     1      -3.398   5.242  -2.059  1.00  0.00    -0.003 C 
ATOM     13  C   UNL     1      -2.781   4.126  -2.903  1.00  0.00     0.004 C 
ENDBRANCH  11  12
ENDBRANCH  10  11
ENDBRANCH   9  10
ENDBRANCH   8   9
ENDBRANCH   1   8
TORSDOF 9
ENDMDL
MODEL 4
REMARK VINA RESULT:    -4.021      4.103      7.392
REMARK INTER + INTRA:          -6.536
REMARK INTER:                  -6.175
REMARK INTRA:                  -0.361
REMARK UNBOUND:                -0.400
REMARK SMILES CCCCCCCCCCC(=O)[O-]
REMARK SMILES IDX 7 1 8 2 9 3 10 4 11 5 12 6 13 7 6 8 5 9 4 10 3 11 2 12 1 13
REMARK H PARENT
REMARK Flexibility Score: inf
ROOT
ATOM      1  C   UNL     1      -4.101  -0.847  -0.964  1.00  0.00     0.000 C 
ENDROOT
BRANCH   1   2
ATOM      2  C   UNL     1      -3.935  -1.606  -2.292  1.00  0.00     0.000 C 
BRANCH   2   3
ATOM      3  C   UNL     1      -3.952  -3.136  -2.116  1.00  0.00     0.006 C 
BRANCH   3   4
ATOM      4  C   UNL     1      -3.432  -3.615  -0.749  1.00  0.00     0.053 C 
BRANCH   4   5
ATOM      5  C   UNL     1      -4.476  -4.342   0.042  1.00  0.00     0.041 C 
ATOM      6  O   UNL     1      -4.960  -3.821   1.081  1.00  0.00    -0.550 OA
ATOM      7  O   UNL     1      -4.891  -5.611  -0.346  1.00  0.00    -0.550 OA
ENDBRANCH   4   5
ENDBRANCH   3   4
ENDBRANCH   2   3
ENDBRANCH   1   2
BRANCH   1   8
ATOM      8  C   UNL     1      -2.982   0.182  -0.731  1.00  0.00     0.000 C 
BRANCH   8   9
ATOM      9  C   UNL     1      -3.492   1.460  -0.042  1.00  0.00    -0.000 C 
BRANCH   9  10
ATOM     10  C   UNL     1      -2.634   2.693  -0.371  1.00  0.00    -0.000 C 
BRANCH  10  11
ATOM     11  C   UNL     1      -3.202   3.989   0.236  1.00  0.00    -0.000 C 
BRANCH  11  12
ATOM     12  C   UNL     1      -3.049   5.195  -0.704  1.00  0.00    -0.003 C 
ATOM     13  C   UNL     1      -2.974   4.792  -2.177  1.00  0.00     0.004 C 
ENDBRANCH  11  12
ENDBRANCH  10  11
ENDBRANCH   9  10
ENDBRANCH   8   9
ENDBRANCH   1   8
TORSDOF 9
ENDMDL
MODEL 5
REMARK VINA RESULT:    -3.715      1.059      1.840
REMARK INTER + INTRA:          -6.070
REMARK INTER:                  -5.697
REMARK INTRA:                  -0.373
REMARK UNBOUND:                -0.400
REMARK SMILES CCCCCCCCCCC(=O)[O-]
REMARK SMILES IDX 7 1 8 2 9 3 10 4 11 5 12 6 13 7 6 8 5 9 4 10 3 11 2 12 1 13
REMARK H PARENT
REMARK Flexibility Score: inf
ROOT
ATOM      1  C   UNL     1      -4.300   1.909   0.561  1.00  0.00     0.000 C 
ENDROOT
BRANCH   1   2
ATOM      2  C   UNL     1      -3.695   3.322   0.633  1.00  0.00     0.000 C 
BRANCH   2   3
ATOM      3  C   UNL     1      -2.721   3.618  -0.522  1.00  0.00     0.006 C 
BRANCH   3   4
ATOM      4  C   UNL     1      -2.985   4.956  -1.237  1.00  0.00     0.053 C 
BRANCH   4   5
ATOM      5  C   UNL     1      -3.163   4.793  -2.716  1.00  0.00     0.041 C 
ATOM      6  O   UNL     1      -2.314   4.151  -3.388  1.00  0.00    -0.550 OA
ATOM      7  O   UNL     1      -4.246   5.380  -3.359  1.00  0.00    -0.550 OA
ENDBRANCH   4   5
ENDBRANCH   3   4
ENDBRANCH   2   3
ENDBRANCH   1   2
BRANCH   1   8
ATOM      8  C   UNL     1      -3.384   0.914  -0.170  1.00  0.00     0.000 C 
BRANCH   8   9
ATOM      9  C   UNL     1      -4.165  -0.025  -1.106  1.00  0.00    -0.000 C 
BRANCH   9  10
ATOM     10  C   UNL     1      -3.333  -1.238  -1.557  1.00  0.00    -0.000 C 
BRANCH  10  11
ATOM     11  C   UNL     1      -4.190  -2.328  -2.226  1.00  0.00    -0.000 C 
BRANCH  11  12
ATOM     12  C   UNL     1      -3.758  -3.746  -1.821  1.00  0.00    -0.003 C 
ATOM     13  C   UNL     1      -3.854  -3.987  -0.315  1.00  0.00     0.004 C 
ENDBRANCH  11  12
ENDBRANCH  10  11
ENDBRANCH   9  10
ENDBRANCH   8   9
ENDBRANCH   1   8
TORSDOF 9
ENDMDL
MODEL 6
REMARK VINA RESULT:    -3.660      1.428      2.464
REMARK INTER + INTRA:          -5.986
REMARK INTER:                  -5.537
REMARK INTRA:                  -0.449
REMARK UNBOUND:                -0.400
REMARK SMILES CCCCCCCCCCC(=O)[O-]
REMARK SMILES IDX 7 1 8 2 9 3 10 4 11 5 12 6 13 7 6 8 5 9 4 10 3 11 2 12 1 13
REMARK H PARENT
REMARK Flexibility Score: inf
ROOT
ATOM      1  C   UNL     1      -3.845   2.611   0.694  1.00  0.00     0.000 C 
ENDROOT
BRANCH   1   2
ATOM      2  C   UNL     1      -2.591   2.999  -0.108  1.00  0.00     0.000 C 
BRANCH   2   3
ATOM      3  C   UNL     1      -2.804   4.240  -0.993  1.00  0.00     0.006 C 
BRANCH   3   4
ATOM      4  C   UNL     1      -3.298   5.480  -0.226  1.00  0.00     0.053 C 
BRANCH   4   5
ATOM      5  C   UNL     1      -2.336   5.919   0.836  1.00  0.00     0.041 C 
ATOM      6  O   UNL     1      -1.252   6.475   0.518  1.00  0.00    -0.550 OA
ATOM      7  O   UNL     1      -2.619   5.684   2.176  1.00  0.00    -0.550 OA
ENDBRANCH   4   5
ENDBRANCH   3   4
ENDBRANCH   2   3
ENDBRANCH   1   2
BRANCH   1   8
ATOM      8  C   UNL     1      -4.296   1.166   0.419  1.00  0.00     0.000 C 
BRANCH   8   9
ATOM      9  C   UNL     1      -3.651   0.580  -0.849  1.00  0.00    -0.000 C 
BRANCH   9  10
ATOM     10  C   UNL     1      -3.856  -0.939  -0.970  1.00  0.00    -0.000 C 
BRANCH  10  11
ATOM     11  C   UNL     1      -3.660  -1.451  -2.408  1.00  0.00    -0.000 C 
BRANCH  11  12
ATOM     12  C   UNL     1      -3.916  -2.961  -2.535  1.00  0.00    -0.003 C 
ATOM     13  C   UNL     1      -3.757  -3.703  -1.208  1.00  0.00     0.004 C 
ENDBRANCH  11  12
ENDBRANCH  10  11
ENDBRANCH   9  10
ENDBRANCH   8   9
ENDBRANCH   1   8
TORSDOF 9
ENDMDL
MODEL 7
REMARK VINA RESULT:    -2.717      4.488      6.554
REMARK INTER + INTRA:          -4.546
REMARK INTER:                  -4.101
REMARK INTRA:                  -0.446
REMARK UNBOUND:                -0.400
REMARK SMILES CCCCCCCCCCC(=O)[O-]
REMARK SMILES IDX 7 1 8 2 9 3 10 4 11 5 12 6 13 7 6 8 5 9 4 10 3 11 2 12 1 13
REMARK H PARENT
REMARK Flexibility Score: inf
ROOT
ATOM      1  C   UNL     1      -3.754   5.120  -3.759  1.00  0.00     0.000 C 
ENDROOT
BRANCH   1   2
ATOM      2  C   UNL     1      -5.171   5.657  -3.497  1.00  0.00     0.000 C 
BRANCH   2   3
ATOM      3  C   UNL     1      -5.714   6.513  -4.656  1.00  0.00     0.006 C 
BRANCH   3   4
ATOM      4  C   UNL     1      -6.739   5.785  -5.545  1.00  0.00     0.053 C 
BRANCH   4   5
ATOM      5  C   UNL     1      -6.976   6.489  -6.846  1.00  0.00     0.041 C 
ATOM      6  O   UNL     1      -7.372   7.684  -6.855  1.00  0.00    -0.550 OA
ATOM      7  O   UNL     1      -6.794   5.817  -8.048  1.00  0.00    -0.550 OA
ENDBRANCH   4   5
ENDBRANCH   3   4
ENDBRANCH   2   3
ENDBRANCH   1   2
BRANCH   1   8
ATOM      8  C   UNL     1      -3.212   4.291  -2.583  1.00  0.00     0.000 C 
BRANCH   8   9
ATOM      9  C   UNL     1      -3.253   5.062  -1.251  1.00  0.00    -0.000 C 
BRANCH   9  10
ATOM     10  C   UNL     1      -3.065   4.146  -0.031  1.00  0.00    -0.000 C 
BRANCH  10  11
ATOM     11  C   UNL     1      -2.622   2.724  -0.419  1.00  0.00    -0.000 C 
BRANCH  11  12
ATOM     12  C   UNL     1      -3.509   1.639   0.211  1.00  0.00    -0.003 C 
ATOM     13  C   UNL     1      -4.611   2.217   1.100  1.00  0.00     0.004 C 
ENDBRANCH  11  12
ENDBRANCH  10  11
ENDBRANCH   9  10
ENDBRANCH   8   9
ENDBRANCH   1   8
TORSDOF 9
ENDMDL
MODEL 8
REMARK VINA RESULT:    -2.679     12.997     15.269
REMARK INTER + INTRA:          -4.488
REMARK INTER:                  -3.798
REMARK INTRA:                  -0.691
REMARK UNBOUND:                -0.400
REMARK SMILES CCCCCCCCCCC(=O)[O-]
REMARK SMILES IDX 7 1 8 2 9 3 10 4 11 5 12 6 13 7 6 8 5 9 4 10 3 11 2 12 1 13
REMARK H PARENT
REMARK Flexibility Score: inf
ROOT
ATOM      1  C   UNL     1       1.593  -9.434   9.430  1.00  0.00     0.000 C 
ENDROOT
BRANCH   1   2
ATOM      2  C   UNL     1       2.664  -9.873   8.417  1.00  0.00     0.000 C 
BRANCH   2   3
ATOM      3  C   UNL     1       4.038 -10.125   9.065  1.00  0.00     0.006 C 
BRANCH   3   4
ATOM      4  C   UNL     1       5.229  -9.665   8.206  1.00  0.00     0.053 C 
BRANCH   4   5
ATOM      5  C   UNL     1       5.274  -8.177   8.032  1.00  0.00     0.041 C 
ATOM      6  O   UNL     1       5.534  -7.433   9.014  1.00  0.00    -0.550 OA
ATOM      7  O   UNL     1       4.992  -7.609   6.796  1.00  0.00    -0.550 OA
ENDBRANCH   4   5
ENDBRANCH   3   4
ENDBRANCH   2   3
ENDBRANCH   1   2
BRANCH   1   8
ATOM      8  C   UNL     1       1.888  -8.052  10.037  1.00  0.00     0.000 C 
BRANCH   8   9
ATOM      9  C   UNL     1       1.787  -6.920   9.000  1.00  0.00    -0.000 C 
BRANCH   9  10
ATOM     10  C   UNL     1       0.502  -6.090   9.153  1.00  0.00    -0.000 C 
BRANCH  10  11
ATOM     11  C   UNL     1       0.750  -4.579   8.997  1.00  0.00    -0.000 C 
BRANCH  11  12
ATOM     12  C   UNL     1       1.624  -4.008  10.125  1.00  0.00    -0.003 C 
ATOM     13  C   UNL     1       2.274  -2.675   9.754  1.00  0.00     0.004 C 
ENDBRANCH  11  12
ENDBRANCH  10  11
ENDBRANCH   9  10
ENDBRANCH   8   9
ENDBRANCH   1   8
TORSDOF 9
ENDMDL
