MODEL 1
REMARK VINA RESULT:    -4.962      0.000      0.000
REMARK INTER + INTRA:         -11.453
REMARK INTER:                  -8.153
REMARK INTRA:                  -3.301
REMARK UNBOUND:                -3.301
REMARK SMILES C[C@@H]1O[C@@H](OC[C@H]2O[C@@H](Oc3c(-c4ccc(O)c(O)c4)oc4cc(O)cc(O)c4c3=O)[C@@H](O)[C@@H](O)[C@H]2O)[C@H](O)[C@@H](O)[C@H]1O
REMARK SMILES IDX 7 1 36 2 34 3 32 4 9 5 8 6 6 7 5 8 4 9 1 10 2 11 42 12 3 13
REMARK SMILES IDX 40 14 38 15 43 16 41 18 39 20 37 22 35 24 10 26 11 27 12 28
REMARK SMILES IDX 30 29 21 30 29 31 31 32 22 33 27 34 23 35 26 36 24 37 13 38
REMARK SMILES IDX 20 39 14 40 18 41 15 42 16 43 19 44 17 46 28 48 25 50 33 52
REMARK H PARENT 43 17 41 19 39 21 37 23 35 25 19 45 17 47 28 49 25 51 33 53
REMARK Flexibility Score: inf
ROOT
ATOM      1  C   UNL     1      30.519 172.095 173.023  1.00  0.00     0.180 C 
ATOM      2  C   UNL     1      29.130 171.921 172.348  1.00  0.00     0.177 C 
ATOM      3  C   UNL     1      28.608 173.317 171.926  1.00  0.00     0.180 C 
ATOM      4  C   UNL     1      29.677 174.107 171.138  1.00  0.00     0.214 C 
ATOM      5  C   UNL     1      31.006 174.080 171.918  1.00  0.00     0.339 C 
ATOM      6  O   UNL     1      31.422 172.739 172.141  1.00  0.00    -0.332 OA
ENDROOT
BRANCH   1   7
ATOM      7  C   UNL     1      31.134 170.774 173.509  1.00  0.00     0.198 C 
BRANCH   7   8
ATOM      8  O   UNL     1      31.028 169.770 172.511  1.00  0.00    -0.347 OA
BRANCH   8   9
ATOM      9  C   UNL     1      32.281 169.450 171.917  1.00  0.00     0.281 C 
ATOM     10  C   UNL     1      35.050 168.237 172.634  1.00  0.00     0.041 C 
ATOM     11  C   UNL     1      34.638 169.649 172.193  1.00  0.00     0.150 C 
ATOM     12  C   UNL     1      34.815 169.874 170.665  1.00  0.00     0.174 C 
ATOM     13  O   UNL     1      33.351 169.990 172.690  1.00  0.00    -0.344 OA
ATOM     14  C   UNL     1      33.613 170.627 170.081  1.00  0.00     0.179 C 
ATOM     15  C   UNL     1      32.326 169.851 170.409  1.00  0.00     0.202 C 
BRANCH  12  16
ATOM     16  O   UNL     1      36.003 170.586 170.423  1.00  0.00    -0.388 OA
ATOM     17  H   UNL     1      36.758 169.988 170.669  1.00  0.00     0.211 HD
ENDBRANCH  12  16
BRANCH  14  18
ATOM     18  O   UNL     1      33.553 171.931 170.605  1.00  0.00    -0.387 OA
ATOM     19  H   UNL     1      34.485 172.266 170.638  1.00  0.00     0.211 HD
ENDBRANCH  14  18
BRANCH  15  20
ATOM     20  O   UNL     1      32.250 168.693 169.614  1.00  0.00    -0.385 OA
ATOM     21  H   UNL     1      31.325 168.644 169.255  1.00  0.00     0.211 HD
ENDBRANCH  15  20
ENDBRANCH   8   9
ENDBRANCH   7   8
ENDBRANCH   1   7
BRANCH   2  22
ATOM     22  O   UNL     1      29.143 171.034 171.252  1.00  0.00    -0.387 OA
ATOM     23  H   UNL     1      28.699 170.182 171.514  1.00  0.00     0.211 HD
ENDBRANCH   2  22
BRANCH   3  24
ATOM     24  O   UNL     1      27.382 173.238 171.234  1.00  0.00    -0.387 OA
ATOM     25  H   UNL     1      26.858 174.053 171.441  1.00  0.00     0.211 HD
ENDBRANCH   3  24
BRANCH   5  26
ATOM     26  O   UNL     1      31.997 174.761 171.158  1.00  0.00    -0.454 OA
BRANCH  26  27
ATOM     27  C   UNL     1      32.443 176.087 171.332  1.00  0.00     0.214 A 
ATOM     28  C   UNL     1      33.703 176.283 171.938  1.00  0.00     0.180 A 
ATOM     29  C   UNL     1      31.692 177.229 170.969  1.00  0.00     0.239 A 
ATOM     30  O   UNL     1      34.116 177.509 172.247  1.00  0.00    -0.452 OA
ATOM     31  C   UNL     1      32.172 178.510 171.303  1.00  0.00     0.111 A 
ATOM     32  O   UNL     1      30.602 177.106 170.349  1.00  0.00    -0.285 OA
ATOM     33  C   UNL     1      33.414 178.601 171.973  1.00  0.00     0.146 A 
ATOM     34  C   UNL     1      31.460 179.698 171.002  1.00  0.00     0.134 A 
ATOM     35  C   UNL     1      33.921 179.847 172.348  1.00  0.00     0.094 A 
ATOM     36  C   UNL     1      31.991 180.939 171.384  1.00  0.00     0.093 A 
ATOM     37  C   UNL     1      33.212 181.017 172.061  1.00  0.00     0.123 A 
BRANCH  28  38
ATOM     38  C   UNL     1      34.594 175.145 172.262  1.00  0.00     0.025 A 
ATOM     39  C   UNL     1      35.553 174.722 171.328  1.00  0.00     0.062 A 
ATOM     40  C   UNL     1      34.460 174.440 173.473  1.00  0.00     0.016 A 
ATOM     41  C   UNL     1      36.394 173.635 171.609  1.00  0.00     0.158 A 
ATOM     42  C   UNL     1      35.292 173.352 173.749  1.00  0.00     0.051 A 
ATOM     43  C   UNL     1      36.257 172.943 172.823  1.00  0.00     0.157 A 
BRANCH  41  44
ATOM     44  O   UNL     1      37.361 173.262 170.676  1.00  0.00    -0.504 OA
ATOM     45  H   UNL     1      37.508 173.776 169.812  1.00  0.00     0.293 HD
ENDBRANCH  41  44
BRANCH  43  46
ATOM     46  O   UNL     1      37.087 171.861 173.107  1.00  0.00    -0.504 OA
ATOM     47  H   UNL     1      36.946 170.955 172.671  1.00  0.00     0.293 HD
ENDBRANCH  43  46
ENDBRANCH  28  38
BRANCH  34  48
ATOM     48  O   UNL     1      30.237 179.659 170.334  1.00  0.00    -0.507 OA
ATOM     49  H   UNL     1      29.618 180.460 170.314  1.00  0.00     0.293 HD
ENDBRANCH  34  48
BRANCH  37  50
ATOM     50  O   UNL     1      33.714 182.260 172.437  1.00  0.00    -0.508 OA
ATOM     51  H   UNL     1      34.093 182.914 171.759  1.00  0.00     0.293 HD
ENDBRANCH  37  50
ENDBRANCH  26  27
ENDBRANCH   5  26
BRANCH   4  52
ATOM     52  O   UNL     1      29.878 173.565 169.855  1.00  0.00    -0.384 OA
ATOM     53  H   UNL     1      30.799 173.200 169.835  1.00  0.00     0.211 HD
ENDBRANCH   4  52
TORSDOF 16
ENDMDL
MODEL 2
REMARK VINA RESULT:    -4.818      3.524      8.071
REMARK INTER + INTRA:         -11.217
REMARK INTER:                  -8.989
REMARK INTRA:                  -2.228
REMARK UNBOUND:                -3.301
REMARK SMILES C[C@@H]1O[C@@H](OC[C@H]2O[C@@H](Oc3c(-c4ccc(O)c(O)c4)oc4cc(O)cc(O)c4c3=O)[C@@H](O)[C@@H](O)[C@H]2O)[C@H](O)[C@@H](O)[C@H]1O
REMARK SMILES IDX 7 1 36 2 34 3 32 4 9 5 8 6 6 7 5 8 4 9 1 10 2 11 42 12 3 13
REMARK SMILES IDX 40 14 38 15 43 16 41 18 39 20 37 22 35 24 10 26 11 27 12 28
REMARK SMILES IDX 30 29 21 30 29 31 31 32 22 33 27 34 23 35 26 36 24 37 13 38
REMARK SMILES IDX 20 39 14 40 18 41 15 42 16 43 19 44 17 46 28 48 25 50 33 52
REMARK H PARENT 43 17 41 19 39 21 37 23 35 25 19 45 17 47 28 49 25 51 33 53
REMARK Flexibility Score: inf
ROOT
ATOM      1  C   UNL     1      31.435 172.985 171.269  1.00  0.00     0.180 C 
ATOM      2  C   UNL     1      31.206 172.148 172.558  1.00  0.00     0.177 C 
ATOM      3  C   UNL     1      29.716 171.729 172.618  1.00  0.00     0.180 C 
ATOM      4  C   UNL     1      29.249 171.104 171.283  1.00  0.00     0.214 C 
ATOM      5  C   UNL     1      29.654 172.030 170.120  1.00  0.00     0.339 C 
ATOM      6  O   UNL     1      31.060 172.241 170.122  1.00  0.00    -0.332 OA
ENDROOT
BRANCH   1   7
ATOM      7  C   UNL     1      32.879 173.481 171.108  1.00  0.00     0.198 C 
BRANCH   7   8
ATOM      8  O   UNL     1      33.746 172.410 170.766  1.00  0.00    -0.347 OA
BRANCH   8   9
ATOM      9  C   UNL     1      34.966 172.433 171.498  1.00  0.00     0.281 C 
ATOM     10  C   UNL     1      36.536 174.203 173.512  1.00  0.00     0.041 C 
ATOM     11  C   UNL     1      36.835 173.797 172.063  1.00  0.00     0.150 C 
ATOM     12  C   UNL     1      37.782 172.567 171.968  1.00  0.00     0.174 C 
ATOM     13  O   UNL     1      35.640 173.675 171.303  1.00  0.00    -0.344 OA
ATOM     14  C   UNL     1      37.301 171.588 170.891  1.00  0.00     0.179 C 
ATOM     15  C   UNL     1      35.848 171.181 171.194  1.00  0.00     0.202 C 
BRANCH  12  16
ATOM     16  O   UNL     1      39.092 172.996 171.689  1.00  0.00    -0.388 OA
ATOM     17  H   UNL     1      39.146 173.150 170.708  1.00  0.00     0.211 HD
ENDBRANCH  12  16
BRANCH  14  18
ATOM     18  O   UNL     1      37.393 172.179 169.618  1.00  0.00    -0.387 OA
ATOM     19  H   UNL     1      36.494 172.109 169.207  1.00  0.00     0.211 HD
ENDBRANCH  14  18
BRANCH  15  20
ATOM     20  O   UNL     1      35.817 170.307 172.297  1.00  0.00    -0.385 OA
ATOM     21  H   UNL     1      36.577 169.677 172.192  1.00  0.00     0.211 HD
ENDBRANCH  15  20
ENDBRANCH   8   9
ENDBRANCH   7   8
ENDBRANCH   1   7
BRANCH   2  22
ATOM     22  O   UNL     1      32.051 171.023 172.657  1.00  0.00    -0.387 OA
ATOM     23  H   UNL     1      32.487 171.019 173.552  1.00  0.00     0.211 HD
ENDBRANCH   2  22
BRANCH   3  24
ATOM     24  O   UNL     1      29.442 170.898 173.723  1.00  0.00    -0.387 OA
ATOM     25  H   UNL     1      28.581 171.188 174.120  1.00  0.00     0.211 HD
ENDBRANCH   3  24
BRANCH   5  26
ATOM     26  O   UNL     1      29.271 171.419 168.894  1.00  0.00    -0.454 OA
BRANCH  26  27
ATOM     27  C   UNL     1      30.099 171.127 167.791  1.00  0.00     0.214 A 
ATOM     28  C   UNL     1      29.965 171.930 166.637  1.00  0.00     0.180 A 
ATOM     29  C   UNL     1      31.027 170.061 167.758  1.00  0.00     0.239 A 
ATOM     30  O   UNL     1      30.625 171.621 165.524  1.00  0.00    -0.452 OA
ATOM     31  C   UNL     1      31.714 169.775 166.563  1.00  0.00     0.111 A 
ATOM     32  O   UNL     1      31.244 169.371 168.790  1.00  0.00    -0.285 OA
ATOM     33  C   UNL     1      31.461 170.595 165.439  1.00  0.00     0.146 A 
ATOM     34  C   UNL     1      32.635 168.704 166.444  1.00  0.00     0.134 A 
ATOM     35  C   UNL     1      32.099 170.337 164.223  1.00  0.00     0.094 A 
ATOM     36  C   UNL     1      33.266 168.466 165.215  1.00  0.00     0.093 A 
ATOM     37  C   UNL     1      32.996 169.272 164.105  1.00  0.00     0.123 A 
BRANCH  28  38
ATOM     38  C   UNL     1      29.088 173.122 166.619  1.00  0.00     0.025 A 
ATOM     39  C   UNL     1      29.488 174.294 167.282  1.00  0.00     0.062 A 
ATOM     40  C   UNL     1      27.828 173.087 165.993  1.00  0.00     0.016 A 
ATOM     41  C   UNL     1      28.662 175.428 167.290  1.00  0.00     0.158 A 
ATOM     42  C   UNL     1      27.001 174.213 166.010  1.00  0.00     0.051 A 
ATOM     43  C   UNL     1      27.410 175.384 166.657  1.00  0.00     0.157 A 
BRANCH  41  44
ATOM     44  O   UNL     1      29.104 176.588 167.926  1.00  0.00    -0.504 OA
ATOM     45  H   UNL     1      30.001 177.015 167.714  1.00  0.00     0.293 HD
ENDBRANCH  41  44
BRANCH  43  46
ATOM     46  O   UNL     1      26.584 176.506 166.665  1.00  0.00    -0.504 OA
ATOM     47  H   UNL     1      26.324 176.968 167.531  1.00  0.00     0.293 HD
ENDBRANCH  43  46
ENDBRANCH  28  38
BRANCH  34  48
ATOM     48  O   UNL     1      32.923 167.875 167.528  1.00  0.00    -0.507 OA
ATOM     49  H   UNL     1      32.716 166.884 167.507  1.00  0.00     0.293 HD
ENDBRANCH  34  48
BRANCH  37  50
ATOM     50  O   UNL     1      33.631 169.011 162.892  1.00  0.00    -0.508 OA
ATOM     51  H   UNL     1      33.276 169.370 162.012  1.00  0.00     0.293 HD
ENDBRANCH  37  50
ENDBRANCH  26  27
ENDBRANCH   5  26
BRANCH   4  52
ATOM     52  O   UNL     1      29.814 169.831 171.084  1.00  0.00    -0.384 OA
ATOM     53  H   UNL     1      30.613 169.773 171.667  1.00  0.00     0.211 HD
ENDBRANCH   4  52
TORSDOF 16
ENDMDL
MODEL 3
REMARK VINA RESULT:    -4.803      1.866      4.742
REMARK INTER + INTRA:         -11.192
REMARK INTER:                  -8.060
REMARK INTRA:                  -3.132
REMARK UNBOUND:                -3.301
REMARK SMILES C[C@@H]1O[C@@H](OC[C@H]2O[C@@H](Oc3c(-c4ccc(O)c(O)c4)oc4cc(O)cc(O)c4c3=O)[C@@H](O)[C@@H](O)[C@H]2O)[C@H](O)[C@@H](O)[C@H]1O
REMARK SMILES IDX 7 1 36 2 34 3 32 4 9 5 8 6 6 7 5 8 4 9 1 10 2 11 42 12 3 13
REMARK SMILES IDX 40 14 38 15 43 16 41 18 39 20 37 22 35 24 10 26 11 27 12 28
REMARK SMILES IDX 30 29 21 30 29 31 31 32 22 33 27 34 23 35 26 36 24 37 13 38
REMARK SMILES IDX 20 39 14 40 18 41 15 42 16 43 19 44 17 46 28 48 25 50 33 52
REMARK H PARENT 43 17 41 19 39 21 37 23 35 25 19 45 17 47 28 49 25 51 33 53
REMARK Flexibility Score: inf
ROOT
ATOM      1  C   UNL     1      30.934 171.941 169.242  1.00  0.00     0.180 C 
ATOM      2  C   UNL     1      31.793 170.655 169.393  1.00  0.00     0.177 C 
ATOM      3  C   UNL     1      33.246 171.069 169.735  1.00  0.00     0.180 C 
ATOM      4  C   UNL     1      33.287 172.080 170.903  1.00  0.00     0.214 C 
ATOM      5  C   UNL     1      32.298 173.227 170.616  1.00  0.00     0.339 C 
ATOM      6  O   UNL     1      30.985 172.714 170.429  1.00  0.00    -0.332 OA
ENDROOT
BRANCH   1   7
ATOM      7  C   UNL     1      29.469 171.661 168.877  1.00  0.00     0.198 C 
BRANCH   7   8
ATOM      8  O   UNL     1      29.060 172.458 167.776  1.00  0.00    -0.347 OA
BRANCH   8   9
ATOM      9  C   UNL     1      28.268 173.573 168.166  1.00  0.00     0.281 C 
ATOM     10  C   UNL     1      27.773 176.553 167.437  1.00  0.00     0.041 C 
ATOM     11  C   UNL     1      28.356 175.894 168.695  1.00  0.00     0.150 C 
ATOM     12  C   UNL     1      27.294 175.696 169.814  1.00  0.00     0.174 C 
ATOM     13  O   UNL     1      29.090 174.720 168.371  1.00  0.00    -0.344 OA
ATOM     14  C   UNL     1      27.440 174.316 170.467  1.00  0.00     0.179 C 
ATOM     15  C   UNL     1      27.346 173.232 169.379  1.00  0.00     0.202 C 
BRANCH  12  16
ATOM     16  O   UNL     1      27.426 176.710 170.779  1.00  0.00    -0.388 OA
ATOM     17  H   UNL     1      27.667 176.268 171.636  1.00  0.00     0.211 HD
ENDBRANCH  12  16
BRANCH  14  18
ATOM     18  O   UNL     1      28.666 174.226 171.151  1.00  0.00    -0.387 OA
ATOM     19  H   UNL     1      29.198 173.530 170.688  1.00  0.00     0.211 HD
ENDBRANCH  14  18
BRANCH  15  20
ATOM     20  O   UNL     1      26.015 173.113 168.937  1.00  0.00    -0.385 OA
ATOM     21  H   UNL     1      25.909 172.194 168.574  1.00  0.00     0.211 HD
ENDBRANCH  15  20
ENDBRANCH   8   9
ENDBRANCH   7   8
ENDBRANCH   1   7
BRANCH   2  22
ATOM     22  O   UNL     1      31.289 169.748 170.347  1.00  0.00    -0.387 OA
ATOM     23  H   UNL     1      30.580 169.190 169.925  1.00  0.00     0.211 HD
ENDBRANCH   2  22
BRANCH   3  24
ATOM     24  O   UNL     1      34.076 169.953 169.964  1.00  0.00    -0.387 OA
ATOM     25  H   UNL     1      33.527 169.239 170.377  1.00  0.00     0.211 HD
ENDBRANCH   3  24
BRANCH   5  26
ATOM     26  O   UNL     1      32.302 174.122 171.722  1.00  0.00    -0.454 OA
BRANCH  26  27
ATOM     27  C   UNL     1      32.604 175.499 171.703  1.00  0.00     0.214 A 
ATOM     28  C   UNL     1      33.914 175.890 172.055  1.00  0.00     0.180 A 
ATOM     29  C   UNL     1      31.667 176.510 171.389  1.00  0.00     0.239 A 
ATOM     30  O   UNL     1      34.218 177.179 172.182  1.00  0.00    -0.452 OA
ATOM     31  C   UNL     1      32.034 177.863 171.524  1.00  0.00     0.111 A 
ATOM     32  O   UNL     1      30.512 176.208 170.986  1.00  0.00    -0.285 OA
ATOM     33  C   UNL     1      33.350 178.154 171.950  1.00  0.00     0.146 A 
ATOM     34  C   UNL     1      31.141 178.931 171.258  1.00  0.00     0.134 A 
ATOM     35  C   UNL     1      33.756 179.480 172.123  1.00  0.00     0.094 A 
ATOM     36  C   UNL     1      31.571 180.254 171.435  1.00  0.00     0.093 A 
ATOM     37  C   UNL     1      32.869 180.531 171.874  1.00  0.00     0.123 A 
BRANCH  28  38
ATOM     38  C   UNL     1      34.980 174.894 172.306  1.00  0.00     0.025 A 
ATOM     39  C   UNL     1      35.783 174.447 171.244  1.00  0.00     0.062 A 
ATOM     40  C   UNL     1      35.170 174.341 173.587  1.00  0.00     0.016 A 
ATOM     41  C   UNL     1      36.787 173.491 171.459  1.00  0.00     0.158 A 
ATOM     42  C   UNL     1      36.163 173.381 173.798  1.00  0.00     0.051 A 
ATOM     43  C   UNL     1      36.972 172.951 172.742  1.00  0.00     0.157 A 
BRANCH  41  44
ATOM     44  O   UNL     1      37.591 173.095 170.391  1.00  0.00    -0.504 OA
ATOM     45  H   UNL     1      37.985 172.161 170.325  1.00  0.00     0.293 HD
ENDBRANCH  41  44
BRANCH  43  46
ATOM     46  O   UNL     1      37.964 171.999 172.960  1.00  0.00    -0.504 OA
ATOM     47  H   UNL     1      38.780 172.203 173.531  1.00  0.00     0.293 HD
ENDBRANCH  43  46
ENDBRANCH  28  38
BRANCH  34  48
ATOM     48  O   UNL     1      29.836 178.692 170.827  1.00  0.00    -0.507 OA
ATOM     49  H   UNL     1      29.471 179.115 169.982  1.00  0.00     0.293 HD
ENDBRANCH  34  48
BRANCH  37  50
ATOM     50  O   UNL     1      33.270 181.854 172.049  1.00  0.00    -0.508 OA
ATOM     51  H   UNL     1      34.248 182.112 172.128  1.00  0.00     0.293 HD
ENDBRANCH  37  50
ENDBRANCH  26  27
ENDBRANCH   5  26
BRANCH   4  52
ATOM     52  O   UNL     1      32.952 171.471 172.126  1.00  0.00    -0.384 OA
ATOM     53  H   UNL     1      32.682 172.194 172.746  1.00  0.00     0.211 HD
ENDBRANCH   4  52
TORSDOF 16
ENDMDL
MODEL 4
REMARK VINA RESULT:    -4.792      2.773      7.884
REMARK INTER + INTRA:         -11.174
REMARK INTER:                  -7.887
REMARK INTRA:                  -3.287
REMARK UNBOUND:                -3.301
REMARK SMILES C[C@@H]1O[C@@H](OC[C@H]2O[C@@H](Oc3c(-c4ccc(O)c(O)c4)oc4cc(O)cc(O)c4c3=O)[C@@H](O)[C@@H](O)[C@H]2O)[C@H](O)[C@@H](O)[C@H]1O
REMARK SMILES IDX 7 1 36 2 34 3 32 4 9 5 8 6 6 7 5 8 4 9 1 10 2 11 42 12 3 13
REMARK SMILES IDX 40 14 38 15 43 16 41 18 39 20 37 22 35 24 10 26 11 27 12 28
REMARK SMILES IDX 30 29 21 30 29 31 31 32 22 33 27 34 23 35 26 36 24 37 13 38
REMARK SMILES IDX 20 39 14 40 18 41 15 42 16 43 19 44 17 46 28 48 25 50 33 52
REMARK H PARENT 43 17 41 19 39 21 37 23 35 25 19 45 17 47 28 49 25 51 33 53
REMARK Flexibility Score: inf
ROOT
ATOM      1  C   UNL     1      29.212 174.061 168.240  1.00  0.00     0.180 C 
ATOM      2  C   UNL     1      27.968 173.157 168.463  1.00  0.00     0.177 C 
ATOM      3  C   UNL     1      28.426 171.847 169.152  1.00  0.00     0.180 C 
ATOM      4  C   UNL     1      29.313 172.135 170.384  1.00  0.00     0.214 C 
ATOM      5  C   UNL     1      30.426 173.125 169.988  1.00  0.00     0.339 C 
ATOM      6  O   UNL     1      29.861 174.324 169.473  1.00  0.00    -0.332 OA
ENDROOT
BRANCH   1   7
ATOM      7  C   UNL     1      28.888 175.388 167.539  1.00  0.00     0.198 C 
BRANCH   7   8
ATOM      8  O   UNL     1      29.136 176.489 168.401  1.00  0.00    -0.347 OA
BRANCH   8   9
ATOM      9  C   UNL     1      28.056 177.414 168.437  1.00  0.00     0.281 C 
ATOM     10  C   UNL     1      26.817 179.740 166.790  1.00  0.00     0.041 C 
ATOM     11  C   UNL     1      27.495 179.713 168.167  1.00  0.00     0.150 C 
ATOM     12  C   UNL     1      26.473 179.618 169.336  1.00  0.00     0.174 C 
ATOM     13  O   UNL     1      28.530 178.741 168.216  1.00  0.00    -0.344 OA
ATOM     14  C   UNL     1      26.951 178.623 170.400  1.00  0.00     0.179 C 
ATOM     15  C   UNL     1      27.203 177.258 169.735  1.00  0.00     0.202 C 
BRANCH  12  16
ATOM     16  O   UNL     1      26.283 180.890 169.906  1.00  0.00    -0.388 OA
ATOM     17  H   UNL     1      25.445 180.847 170.441  1.00  0.00     0.211 HD
ENDBRANCH  12  16
BRANCH  14  18
ATOM     18  O   UNL     1      28.123 179.095 171.019  1.00  0.00    -0.387 OA
ATOM     19  H   UNL     1      27.838 179.559 171.848  1.00  0.00     0.211 HD
ENDBRANCH  14  18
BRANCH  15  20
ATOM     20  O   UNL     1      25.975 176.648 169.418  1.00  0.00    -0.385 OA
ATOM     21  H   UNL     1      26.068 176.260 168.507  1.00  0.00     0.211 HD
ENDBRANCH  15  20
ENDBRANCH   8   9
ENDBRANCH   7   8
ENDBRANCH   1   7
BRANCH   2  22
ATOM     22  O   UNL     1      26.941 173.782 169.200  1.00  0.00    -0.387 OA
ATOM     23  H   UNL     1      27.247 174.686 169.486  1.00  0.00     0.211 HD
ENDBRANCH   2  22
BRANCH   3  24
ATOM     24  O   UNL     1      27.341 171.001 169.460  1.00  0.00    -0.387 OA
ATOM     25  H   UNL     1      27.668 170.066 169.453  1.00  0.00     0.211 HD
ENDBRANCH   3  24
BRANCH   5  26
ATOM     26  O   UNL     1      31.202 173.428 171.142  1.00  0.00    -0.454 OA
BRANCH  26  27
ATOM     27  C   UNL     1      32.605 173.371 171.264  1.00  0.00     0.214 A 
ATOM     28  C   UNL     1      33.289 174.571 171.553  1.00  0.00     0.180 A 
ATOM     29  C   UNL     1      33.367 172.194 171.080  1.00  0.00     0.239 A 
ATOM     30  O   UNL     1      34.620 174.602 171.550  1.00  0.00    -0.452 OA
ATOM     31  C   UNL     1      34.774 172.269 171.098  1.00  0.00     0.111 A 
ATOM     32  O   UNL     1      32.798 171.084 170.906  1.00  0.00    -0.285 OA
ATOM     33  C   UNL     1      35.369 173.531 171.326  1.00  0.00     0.146 A 
ATOM     34  C   UNL     1      35.605 171.139 170.889  1.00  0.00     0.134 A 
ATOM     35  C   UNL     1      36.760 173.662 171.328  1.00  0.00     0.094 A 
ATOM     36  C   UNL     1      36.999 171.294 170.899  1.00  0.00     0.093 A 
ATOM     37  C   UNL     1      37.577 172.549 171.109  1.00  0.00     0.123 A 
BRANCH  28  38
ATOM     38  C   UNL     1      32.564 175.826 171.852  1.00  0.00     0.025 A 
ATOM     39  C   UNL     1      32.069 176.614 170.800  1.00  0.00     0.062 A 
ATOM     40  C   UNL     1      32.407 176.276 173.176  1.00  0.00     0.016 A 
ATOM     41  C   UNL     1      31.395 177.816 171.064  1.00  0.00     0.158 A 
ATOM     42  C   UNL     1      31.744 177.477 173.438  1.00  0.00     0.051 A 
ATOM     43  C   UNL     1      31.239 178.252 172.389  1.00  0.00     0.157 A 
BRANCH  41  44
ATOM     44  O   UNL     1      30.884 178.558 169.999  1.00  0.00    -0.504 OA
ATOM     45  H   UNL     1      30.044 178.282 169.499  1.00  0.00     0.293 HD
ENDBRANCH  41  44
BRANCH  43  46
ATOM     46  O   UNL     1      30.573 179.446 172.656  1.00  0.00    -0.504 OA
ATOM     47  H   UNL     1      29.672 179.458 173.127  1.00  0.00     0.293 HD
ENDBRANCH  43  46
ENDBRANCH  28  38
BRANCH  34  48
ATOM     48  O   UNL     1      35.062 169.873 170.670  1.00  0.00    -0.507 OA
ATOM     49  H   UNL     1      34.101 169.753 170.375  1.00  0.00     0.293 HD
ENDBRANCH  34  48
BRANCH  37  50
ATOM     50  O   UNL     1      38.964 172.678 171.108  1.00  0.00    -0.508 OA
ATOM     51  H   UNL     1      39.455 173.193 170.384  1.00  0.00     0.293 HD
ENDBRANCH  37  50
ENDBRANCH  26  27
ENDBRANCH   5  26
BRANCH   4  52
ATOM     52  O   UNL     1      28.564 172.675 171.445  1.00  0.00    -0.384 OA
ATOM     53  H   UNL     1      29.025 173.503 171.734  1.00  0.00     0.211 HD
ENDBRANCH   4  52
TORSDOF 16
ENDMDL
MODEL 5
REMARK VINA RESULT:    -4.789      2.435      8.160
REMARK INTER + INTRA:         -11.169
REMARK INTER:                  -7.909
REMARK INTRA:                  -3.260
REMARK UNBOUND:                -3.301
REMARK SMILES C[C@@H]1O[C@@H](OC[C@H]2O[C@@H](Oc3c(-c4ccc(O)c(O)c4)oc4cc(O)cc(O)c4c3=O)[C@@H](O)[C@@H](O)[C@H]2O)[C@H](O)[C@@H](O)[C@H]1O
REMARK SMILES IDX 7 1 36 2 34 3 32 4 9 5 8 6 6 7 5 8 4 9 1 10 2 11 42 12 3 13
REMARK SMILES IDX 40 14 38 15 43 16 41 18 39 20 37 22 35 24 10 26 11 27 12 28
REMARK SMILES IDX 30 29 21 30 29 31 31 32 22 33 27 34 23 35 26 36 24 37 13 38
REMARK SMILES IDX 20 39 14 40 18 41 15 42 16 43 19 44 17 46 28 48 25 50 33 52
REMARK H PARENT 43 17 41 19 39 21 37 23 35 25 19 45 17 47 28 49 25 51 33 53
REMARK Flexibility Score: inf
ROOT
ATOM      1  C   UNL     1      29.041 175.593 169.158  1.00  0.00     0.180 C 
ATOM      2  C   UNL     1      27.694 174.952 169.596  1.00  0.00     0.177 C 
ATOM      3  C   UNL     1      27.994 173.602 170.295  1.00  0.00     0.180 C 
ATOM      4  C   UNL     1      29.084 173.756 171.380  1.00  0.00     0.214 C 
ATOM      5  C   UNL     1      30.294 174.501 170.783  1.00  0.00     0.339 C 
ATOM      6  O   UNL     1      29.894 175.768 170.276  1.00  0.00    -0.332 OA
ENDROOT
BRANCH   1   7
ATOM      7  C   UNL     1      28.872 176.933 168.428  1.00  0.00     0.198 C 
BRANCH   7   8
ATOM      8  O   UNL     1      29.413 177.998 169.195  1.00  0.00    -0.347 OA
BRANCH   8   9
ATOM      9  C   UNL     1      28.500 179.077 169.362  1.00  0.00     0.281 C 
ATOM     10  C   UNL     1      27.208 181.410 167.768  1.00  0.00     0.041 C 
ATOM     11  C   UNL     1      28.187 181.402 168.950  1.00  0.00     0.150 C 
ATOM     12  C   UNL     1      27.472 181.565 170.321  1.00  0.00     0.174 C 
ATOM     13  O   UNL     1      29.072 180.291 168.880  1.00  0.00    -0.344 OA
ATOM     14  C   UNL     1      28.062 180.606 171.363  1.00  0.00     0.179 C 
ATOM     15  C   UNL     1      27.971 179.166 170.828  1.00  0.00     0.202 C 
BRANCH  12  16
ATOM     16  O   UNL     1      27.588 182.896 170.761  1.00  0.00    -0.388 OA
ATOM     17  H   UNL     1      26.769 183.375 170.461  1.00  0.00     0.211 HD
ENDBRANCH  12  16
BRANCH  14  18
ATOM     18  O   UNL     1      29.398 180.948 171.640  1.00  0.00    -0.387 OA
ATOM     19  H   UNL     1      29.380 181.848 172.056  1.00  0.00     0.211 HD
ENDBRANCH  14  18
BRANCH  15  20
ATOM     20  O   UNL     1      26.635 178.724 170.871  1.00  0.00    -0.385 OA
ATOM     21  H   UNL     1      26.119 179.292 170.241  1.00  0.00     0.211 HD
ENDBRANCH  15  20
ENDBRANCH   8   9
ENDBRANCH   7   8
ENDBRANCH   1   7
BRANCH   2  22
ATOM     22  O   UNL     1      26.915 175.786 170.424  1.00  0.00    -0.387 OA
ATOM     23  H   UNL     1      26.906 175.415 171.348  1.00  0.00     0.211 HD
ENDBRANCH   2  22
BRANCH   3  24
ATOM     24  O   UNL     1      26.826 172.990 170.793  1.00  0.00    -0.387 OA
ATOM     25  H   UNL     1      26.448 172.419 170.077  1.00  0.00     0.211 HD
ENDBRANCH   3  24
BRANCH   5  26
ATOM     26  O   UNL     1      31.267 174.687 171.804  1.00  0.00    -0.454 OA
BRANCH  26  27
ATOM     27  C   UNL     1      32.635 174.356 171.748  1.00  0.00     0.214 A 
ATOM     28  C   UNL     1      33.572 175.403 171.878  1.00  0.00     0.180 A 
ATOM     29  C   UNL     1      33.123 173.046 171.535  1.00  0.00     0.239 A 
ATOM     30  O   UNL     1      34.870 175.168 171.702  1.00  0.00    -0.452 OA
ATOM     31  C   UNL     1      34.506 172.839 171.367  1.00  0.00     0.111 A 
ATOM     32  O   UNL     1      32.331 172.067 171.498  1.00  0.00    -0.285 OA
ATOM     33  C   UNL     1      35.360 173.963 171.445  1.00  0.00     0.146 A 
ATOM     34  C   UNL     1      35.066 171.561 171.117  1.00  0.00     0.134 A 
ATOM     35  C   UNL     1      36.737 173.814 171.261  1.00  0.00     0.094 A 
ATOM     36  C   UNL     1      36.452 171.435 170.939  1.00  0.00     0.093 A 
ATOM     37  C   UNL     1      37.286 172.555 171.002  1.00  0.00     0.123 A 
BRANCH  28  38
ATOM     38  C   UNL     1      33.152 176.786 172.197  1.00  0.00     0.025 A 
ATOM     39  C   UNL     1      32.640 177.612 171.183  1.00  0.00     0.062 A 
ATOM     40  C   UNL     1      33.307 177.311 173.494  1.00  0.00     0.016 A 
ATOM     41  C   UNL     1      32.253 178.931 171.462  1.00  0.00     0.158 A 
ATOM     42  C   UNL     1      32.930 178.629 173.769  1.00  0.00     0.051 A 
ATOM     43  C   UNL     1      32.406 179.443 172.760  1.00  0.00     0.157 A 
BRANCH  41  44
ATOM     44  O   UNL     1      31.715 179.714 170.441  1.00  0.00    -0.504 OA
ATOM     45  H   UNL     1      31.577 179.358 169.499  1.00  0.00     0.293 HD
ENDBRANCH  41  44
BRANCH  43  46
ATOM     46  O   UNL     1      32.026 180.753 173.043  1.00  0.00    -0.504 OA
ATOM     47  H   UNL     1      32.620 181.373 173.585  1.00  0.00     0.293 HD
ENDBRANCH  43  46
ENDBRANCH  28  38
BRANCH  34  48
ATOM     48  O   UNL     1      34.264 170.422 171.041  1.00  0.00    -0.507 OA
ATOM     49  H   UNL     1      33.342 170.396 171.457  1.00  0.00     0.293 HD
ENDBRANCH  34  48
BRANCH  37  50
ATOM     50  O   UNL     1      38.658 172.405 170.815  1.00  0.00    -0.508 OA
ATOM     51  H   UNL     1      39.334 172.971 171.317  1.00  0.00     0.293 HD
ENDBRANCH  37  50
ENDBRANCH  26  27
ENDBRANCH   5  26
BRANCH   4  52
ATOM     52  O   UNL     1      28.605 174.465 172.497  1.00  0.00    -0.384 OA
ATOM     53  H   UNL     1      29.395 174.830 172.971  1.00  0.00     0.211 HD
ENDBRANCH   4  52
TORSDOF 16
ENDMDL
MODEL 6
REMARK VINA RESULT:    -4.669      3.358      4.763
REMARK INTER + INTRA:         -10.972
REMARK INTER:                  -8.947
REMARK INTRA:                  -2.025
REMARK UNBOUND:                -3.301
REMARK SMILES C[C@@H]1O[C@@H](OC[C@H]2O[C@@H](Oc3c(-c4ccc(O)c(O)c4)oc4cc(O)cc(O)c4c3=O)[C@@H](O)[C@@H](O)[C@H]2O)[C@H](O)[C@@H](O)[C@H]1O
REMARK SMILES IDX 7 1 36 2 34 3 32 4 9 5 8 6 6 7 5 8 4 9 1 10 2 11 42 12 3 13
REMARK SMILES IDX 40 14 38 15 43 16 41 18 39 20 37 22 35 24 10 26 11 27 12 28
REMARK SMILES IDX 30 29 21 30 29 31 31 32 22 33 27 34 23 35 26 36 24 37 13 38
REMARK SMILES IDX 20 39 14 40 18 41 15 42 16 43 19 44 17 46 28 48 25 50 33 52
REMARK H PARENT 43 17 41 19 39 21 37 23 35 25 19 45 17 47 28 49 25 51 33 53
REMARK Flexibility Score: inf
ROOT
ATOM      1  C   UNL     1      31.188 172.178 168.733  1.00  0.00     0.180 C 
ATOM      2  C   UNL     1      31.756 170.760 169.018  1.00  0.00     0.177 C 
ATOM      3  C   UNL     1      33.146 170.908 169.684  1.00  0.00     0.180 C 
ATOM      4  C   UNL     1      33.103 171.897 170.871  1.00  0.00     0.214 C 
ATOM      5  C   UNL     1      32.417 173.202 170.419  1.00  0.00     0.339 C 
ATOM      6  O   UNL     1      31.110 172.931 169.931  1.00  0.00    -0.332 OA
ENDROOT
BRANCH   1   7
ATOM      7  C   UNL     1      29.814 172.163 168.047  1.00  0.00     0.198 C 
BRANCH   7   8
ATOM      8  O   UNL     1      29.650 170.985 167.271  1.00  0.00    -0.347 OA
BRANCH   8   9
ATOM      9  C   UNL     1      29.367 171.260 165.905  1.00  0.00     0.281 C 
ATOM     10  C   UNL     1      29.859 170.108 163.061  1.00  0.00     0.041 C 
ATOM     11  C   UNL     1      30.344 171.398 163.737  1.00  0.00     0.150 C 
ATOM     12  C   UNL     1      29.453 172.625 163.394  1.00  0.00     0.174 C 
ATOM     13  O   UNL     1      30.562 171.203 165.128  1.00  0.00    -0.344 OA
ATOM     14  C   UNL     1      29.193 173.477 164.643  1.00  0.00     0.179 C 
ATOM     15  C   UNL     1      28.568 172.591 165.735  1.00  0.00     0.202 C 
BRANCH  12  16
ATOM     16  O   UNL     1      30.071 173.398 162.395  1.00  0.00    -0.388 OA
ATOM     17  H   UNL     1      31.024 173.506 162.658  1.00  0.00     0.211 HD
ENDBRANCH  12  16
BRANCH  14  18
ATOM     18  O   UNL     1      30.392 174.053 165.100  1.00  0.00    -0.387 OA
ATOM     19  H   UNL     1      30.197 174.445 165.989  1.00  0.00     0.211 HD
ENDBRANCH  14  18
BRANCH  15  20
ATOM     20  O   UNL     1      27.232 172.295 165.404  1.00  0.00    -0.385 OA
ATOM     21  H   UNL     1      26.684 173.081 165.667  1.00  0.00     0.211 HD
ENDBRANCH  15  20
ENDBRANCH   8   9
ENDBRANCH   7   8
ENDBRANCH   1   7
BRANCH   2  22
ATOM     22  O   UNL     1      30.902 169.959 169.804  1.00  0.00    -0.387 OA
ATOM     23  H   UNL     1      31.379 169.120 170.054  1.00  0.00     0.211 HD
ENDBRANCH   2  22
BRANCH   3  24
ATOM     24  O   UNL     1      33.698 169.662 170.046  1.00  0.00    -0.387 OA
ATOM     25  H   UNL     1      34.124 169.269 169.243  1.00  0.00     0.211 HD
ENDBRANCH   3  24
BRANCH   5  26
ATOM     26  O   UNL     1      32.332 174.083 171.532  1.00  0.00    -0.454 OA
BRANCH  26  27
ATOM     27  C   UNL     1      32.624 175.462 171.552  1.00  0.00     0.214 A 
ATOM     28  C   UNL     1      33.910 175.856 171.980  1.00  0.00     0.180 A 
ATOM     29  C   UNL     1      31.697 176.472 171.205  1.00  0.00     0.239 A 
ATOM     30  O   UNL     1      34.197 177.145 172.143  1.00  0.00    -0.452 OA
ATOM     31  C   UNL     1      32.046 177.825 171.381  1.00  0.00     0.111 A 
ATOM     32  O   UNL     1      30.568 176.168 170.737  1.00  0.00    -0.285 OA
ATOM     33  C   UNL     1      33.335 178.119 171.882  1.00  0.00     0.146 A 
ATOM     34  C   UNL     1      31.160 178.891 171.086  1.00  0.00     0.134 A 
ATOM     35  C   UNL     1      33.721 179.444 172.097  1.00  0.00     0.094 A 
ATOM     36  C   UNL     1      31.569 180.214 171.307  1.00  0.00     0.093 A 
ATOM     37  C   UNL     1      32.840 180.493 171.818  1.00  0.00     0.123 A 
BRANCH  28  38
ATOM     38  C   UNL     1      34.970 174.864 172.271  1.00  0.00     0.025 A 
ATOM     39  C   UNL     1      35.777 174.378 171.230  1.00  0.00     0.062 A 
ATOM     40  C   UNL     1      35.148 174.353 173.571  1.00  0.00     0.016 A 
ATOM     41  C   UNL     1      36.774 173.424 171.483  1.00  0.00     0.158 A 
ATOM     42  C   UNL     1      36.135 173.396 173.821  1.00  0.00     0.051 A 
ATOM     43  C   UNL     1      36.948 172.927 172.784  1.00  0.00     0.157 A 
BRANCH  41  44
ATOM     44  O   UNL     1      37.583 172.989 170.434  1.00  0.00    -0.504 OA
ATOM     45  H   UNL     1      37.954 172.044 170.391  1.00  0.00     0.293 HD
ENDBRANCH  41  44
BRANCH  43  46
ATOM     46  O   UNL     1      37.934 171.977 173.042  1.00  0.00    -0.504 OA
ATOM     47  H   UNL     1      37.918 171.062 172.602  1.00  0.00     0.293 HD
ENDBRANCH  43  46
ENDBRANCH  28  38
BRANCH  34  48
ATOM     48  O   UNL     1      29.882 178.650 170.581  1.00  0.00    -0.507 OA
ATOM     49  H   UNL     1      29.054 178.794 171.146  1.00  0.00     0.293 HD
ENDBRANCH  34  48
BRANCH  37  50
ATOM     50  O   UNL     1      33.221 181.815 172.036  1.00  0.00    -0.508 OA
ATOM     51  H   UNL     1      32.556 182.580 171.987  1.00  0.00     0.293 HD
ENDBRANCH  37  50
ENDBRANCH  26  27
ENDBRANCH   5  26
BRANCH   4  52
ATOM     52  O   UNL     1      32.405 171.359 171.967  1.00  0.00    -0.384 OA
ATOM     53  H   UNL     1      32.044 170.483 171.679  1.00  0.00     0.211 HD
ENDBRANCH   4  52
TORSDOF 16
ENDMDL
MODEL 7
REMARK VINA RESULT:    -4.660      8.145     11.384
REMARK INTER + INTRA:         -10.958
REMARK INTER:                  -8.349
REMARK INTRA:                  -2.608
REMARK UNBOUND:                -3.301
REMARK SMILES C[C@@H]1O[C@@H](OC[C@H]2O[C@@H](Oc3c(-c4ccc(O)c(O)c4)oc4cc(O)cc(O)c4c3=O)[C@@H](O)[C@@H](O)[C@H]2O)[C@H](O)[C@@H](O)[C@H]1O
REMARK SMILES IDX 7 1 36 2 34 3 32 4 9 5 8 6 6 7 5 8 4 9 1 10 2 11 42 12 3 13
REMARK SMILES IDX 40 14 38 15 43 16 41 18 39 20 37 22 35 24 10 26 11 27 12 28
REMARK SMILES IDX 30 29 21 30 29 31 31 32 22 33 27 34 23 35 26 36 24 37 13 38
REMARK SMILES IDX 20 39 14 40 18 41 15 42 16 43 19 44 17 46 28 48 25 50 33 52
REMARK H PARENT 43 17 41 19 39 21 37 23 35 25 19 45 17 47 28 49 25 51 33 53
REMARK Flexibility Score: inf
ROOT
ATOM      1  C   UNL     1      29.580 172.742 164.155  1.00  0.00     0.180 C 
ATOM      2  C   UNL     1      28.578 173.830 163.679  1.00  0.00     0.177 C 
ATOM      3  C   UNL     1      28.778 174.056 162.160  1.00  0.00     0.180 C 
ATOM      4  C   UNL     1      28.783 172.719 161.384  1.00  0.00     0.214 C 
ATOM      5  C   UNL     1      29.758 171.740 162.065  1.00  0.00     0.339 C 
ATOM      6  O   UNL     1      29.393 171.542 163.425  1.00  0.00    -0.332 OA
ENDROOT
BRANCH   1   7
ATOM      7  C   UNL     1      29.494 172.444 165.660  1.00  0.00     0.198 C 
BRANCH   7   8
ATOM      8  O   UNL     1      30.782 172.188 166.199  1.00  0.00    -0.347 OA
BRANCH   8   9
ATOM      9  C   UNL     1      30.764 172.016 167.610  1.00  0.00     0.281 C 
ATOM     10  C   UNL     1      32.694 171.753 170.032  1.00  0.00     0.041 C 
ATOM     11  C   UNL     1      31.712 170.759 169.398  1.00  0.00     0.150 C 
ATOM     12  C   UNL     1      30.338 170.727 170.126  1.00  0.00     0.174 C 
ATOM     13  O   UNL     1      31.624 170.943 167.991  1.00  0.00    -0.344 OA
ATOM     14  C   UNL     1      29.185 170.684 169.116  1.00  0.00     0.179 C 
ATOM     15  C   UNL     1      29.309 171.883 168.160  1.00  0.00     0.202 C 
BRANCH  12  16
ATOM     16  O   UNL     1      30.279 169.614 170.983  1.00  0.00    -0.388 OA
ATOM     17  H   UNL     1      29.332 169.312 171.006  1.00  0.00     0.211 HD
ENDBRANCH  12  16
BRANCH  14  18
ATOM     18  O   UNL     1      29.210 169.474 168.398  1.00  0.00    -0.387 OA
ATOM     19  H   UNL     1      28.343 169.410 167.922  1.00  0.00     0.211 HD
ENDBRANCH  14  18
BRANCH  15  20
ATOM     20  O   UNL     1      28.952 173.068 168.831  1.00  0.00    -0.385 OA
ATOM     21  H   UNL     1      27.989 172.994 169.063  1.00  0.00     0.211 HD
ENDBRANCH  15  20
ENDBRANCH   8   9
ENDBRANCH   7   8
ENDBRANCH   1   7
BRANCH   2  22
ATOM     22  O   UNL     1      27.233 173.524 163.971  1.00  0.00    -0.387 OA
ATOM     23  H   UNL     1      26.948 172.743 163.421  1.00  0.00     0.211 HD
ENDBRANCH   2  22
BRANCH   3  24
ATOM     24  O   UNL     1      27.850 174.977 161.633  1.00  0.00    -0.387 OA
ATOM     25  H   UNL     1      28.150 175.231 160.724  1.00  0.00     0.211 HD
ENDBRANCH   3  24
BRANCH   5  26
ATOM     26  O   UNL     1      29.713 170.495 161.378  1.00  0.00    -0.454 OA
BRANCH  26  27
ATOM     27  C   UNL     1      30.750 169.891 160.640  1.00  0.00     0.214 A 
ATOM     28  C   UNL     1      31.742 169.186 161.354  1.00  0.00     0.180 A 
ATOM     29  C   UNL     1      30.875 169.978 159.234  1.00  0.00     0.239 A 
ATOM     30  O   UNL     1      32.812 168.708 160.723  1.00  0.00    -0.452 OA
ATOM     31  C   UNL     1      32.017 169.448 158.604  1.00  0.00     0.111 A 
ATOM     32  O   UNL     1      29.971 170.523 158.545  1.00  0.00    -0.285 OA
ATOM     33  C   UNL     1      32.991 168.820 159.414  1.00  0.00     0.146 A 
ATOM     34  C   UNL     1      32.228 169.526 157.204  1.00  0.00     0.134 A 
ATOM     35  C   UNL     1      34.154 168.300 158.840  1.00  0.00     0.094 A 
ATOM     36  C   UNL     1      33.401 168.994 156.650  1.00  0.00     0.093 A 
ATOM     37  C   UNL     1      34.366 168.390 157.462  1.00  0.00     0.123 A 
BRANCH  28  38
ATOM     38  C   UNL     1      31.639 168.966 162.815  1.00  0.00     0.025 A 
ATOM     39  C   UNL     1      32.647 169.445 163.666  1.00  0.00     0.062 A 
ATOM     40  C   UNL     1      30.570 168.233 163.364  1.00  0.00     0.016 A 
ATOM     41  C   UNL     1      32.576 169.230 165.051  1.00  0.00     0.158 A 
ATOM     42  C   UNL     1      30.504 168.011 164.742  1.00  0.00     0.051 A 
ATOM     43  C   UNL     1      31.502 168.504 165.589  1.00  0.00     0.157 A 
BRANCH  41  44
ATOM     44  O   UNL     1      33.575 169.750 165.874  1.00  0.00    -0.504 OA
ATOM     45  H   UNL     1      34.249 170.434 165.542  1.00  0.00     0.293 HD
ENDBRANCH  41  44
BRANCH  43  46
ATOM     46  O   UNL     1      31.427 168.285 166.963  1.00  0.00    -0.504 OA
ATOM     47  H   UNL     1      30.556 168.397 167.472  1.00  0.00     0.293 HD
ENDBRANCH  43  46
ENDBRANCH  28  38
BRANCH  34  48
ATOM     48  O   UNL     1      31.291 170.128 156.365  1.00  0.00    -0.507 OA
ATOM     49  H   UNL     1      30.672 170.856 156.698  1.00  0.00     0.293 HD
ENDBRANCH  34  48
BRANCH  37  50
ATOM     50  O   UNL     1      35.526 167.875 156.888  1.00  0.00    -0.508 OA
ATOM     51  H   UNL     1      36.404 168.384 156.902  1.00  0.00     0.293 HD
ENDBRANCH  37  50
ENDBRANCH  26  27
ENDBRANCH   5  26
BRANCH   4  52
ATOM     52  O   UNL     1      27.500 172.143 161.340  1.00  0.00    -0.384 OA
ATOM     53  H   UNL     1      27.003 172.480 162.128  1.00  0.00     0.211 HD
ENDBRANCH   4  52
TORSDOF 16
ENDMDL
MODEL 8
REMARK VINA RESULT:    -4.593      3.003      7.168
REMARK INTER + INTRA:         -10.846
REMARK INTER:                  -8.307
REMARK INTRA:                  -2.540
REMARK UNBOUND:                -3.301
REMARK SMILES C[C@@H]1O[C@@H](OC[C@H]2O[C@@H](Oc3c(-c4ccc(O)c(O)c4)oc4cc(O)cc(O)c4c3=O)[C@@H](O)[C@@H](O)[C@H]2O)[C@H](O)[C@@H](O)[C@H]1O
REMARK SMILES IDX 7 1 36 2 34 3 32 4 9 5 8 6 6 7 5 8 4 9 1 10 2 11 42 12 3 13
REMARK SMILES IDX 40 14 38 15 43 16 41 18 39 20 37 22 35 24 10 26 11 27 12 28
REMARK SMILES IDX 30 29 21 30 29 31 31 32 22 33 27 34 23 35 26 36 24 37 13 38
REMARK SMILES IDX 20 39 14 40 18 41 15 42 16 43 19 44 17 46 28 48 25 50 33 52
REMARK H PARENT 43 17 41 19 39 21 37 23 35 25 19 45 17 47 28 49 25 51 33 53
REMARK Flexibility Score: inf
ROOT
ATOM      1  C   UNL     1      31.662 174.618 171.091  1.00  0.00     0.180 C 
ATOM      2  C   UNL     1      30.631 175.634 171.657  1.00  0.00     0.177 C 
ATOM      3  C   UNL     1      29.516 175.846 170.602  1.00  0.00     0.180 C 
ATOM      4  C   UNL     1      28.962 174.500 170.084  1.00  0.00     0.214 C 
ATOM      5  C   UNL     1      30.137 173.595 169.666  1.00  0.00     0.339 C 
ATOM      6  O   UNL     1      31.024 173.397 170.760  1.00  0.00    -0.332 OA
ENDROOT
BRANCH   1   7
ATOM      7  C   UNL     1      32.835 174.341 172.042  1.00  0.00     0.198 C 
BRANCH   7   8
ATOM      8  O   UNL     1      33.046 172.945 172.192  1.00  0.00    -0.347 OA
BRANCH   8   9
ATOM      9  C   UNL     1      34.424 172.593 172.202  1.00  0.00     0.281 C 
ATOM     10  C   UNL     1      37.234 173.864 172.586  1.00  0.00     0.041 C 
ATOM     11  C   UNL     1      36.566 173.216 171.366  1.00  0.00     0.150 C 
ATOM     12  C   UNL     1      36.953 171.719 171.196  1.00  0.00     0.174 C 
ATOM     13  O   UNL     1      35.166 173.463 171.350  1.00  0.00    -0.344 OA
ATOM     14  C   UNL     1      35.726 170.876 170.828  1.00  0.00     0.179 C 
ATOM     15  C   UNL     1      34.638 171.077 171.897  1.00  0.00     0.202 C 
BRANCH  12  16
ATOM     16  O   UNL     1      37.947 171.593 170.209  1.00  0.00    -0.388 OA
ATOM     17  H   UNL     1      38.825 171.688 170.665  1.00  0.00     0.211 HD
ENDBRANCH  12  16
BRANCH  14  18
ATOM     18  O   UNL     1      35.246 171.242 169.558  1.00  0.00    -0.387 OA
ATOM     19  H   UNL     1      34.940 172.182 169.631  1.00  0.00     0.211 HD
ENDBRANCH  14  18
BRANCH  15  20
ATOM     20  O   UNL     1      35.002 170.408 173.081  1.00  0.00    -0.385 OA
ATOM     21  H   UNL     1      34.542 170.871 173.831  1.00  0.00     0.211 HD
ENDBRANCH  15  20
ENDBRANCH   8   9
ENDBRANCH   7   8
ENDBRANCH   1   7
BRANCH   2  22
ATOM     22  O   UNL     1      30.084 175.250 172.898  1.00  0.00    -0.387 OA
ATOM     23  H   UNL     1      30.798 174.837 173.457  1.00  0.00     0.211 HD
ENDBRANCH   2  22
BRANCH   3  24
ATOM     24  O   UNL     1      28.497 176.700 171.071  1.00  0.00    -0.387 OA
ATOM     25  H   UNL     1      28.031 177.084 170.286  1.00  0.00     0.211 HD
ENDBRANCH   3  24
BRANCH   5  26
ATOM     26  O   UNL     1      29.620 172.338 169.244  1.00  0.00    -0.454 OA
BRANCH  26  27
ATOM     27  C   UNL     1      30.203 171.441 168.327  1.00  0.00     0.214 A 
ATOM     28  C   UNL     1      30.603 170.175 168.809  1.00  0.00     0.180 A 
ATOM     29  C   UNL     1      30.443 171.744 166.967  1.00  0.00     0.239 A 
ATOM     30  O   UNL     1      31.276 169.340 168.022  1.00  0.00    -0.452 OA
ATOM     31  C   UNL     1      31.148 170.826 166.165  1.00  0.00     0.111 A 
ATOM     32  O   UNL     1      30.027 172.825 166.471  1.00  0.00    -0.285 OA
ATOM     33  C   UNL     1      31.569 169.613 166.757  1.00  0.00     0.146 A 
ATOM     34  C   UNL     1      31.453 171.073 164.803  1.00  0.00     0.134 A 
ATOM     35  C   UNL     1      32.293 168.680 166.010  1.00  0.00     0.094 A 
ATOM     36  C   UNL     1      32.178 170.121 164.072  1.00  0.00     0.093 A 
ATOM     37  C   UNL     1      32.604 168.932 164.671  1.00  0.00     0.123 A 
BRANCH  28  38
ATOM     38  C   UNL     1      30.306 169.741 170.193  1.00  0.00     0.025 A 
ATOM     39  C   UNL     1      31.227 170.003 171.220  1.00  0.00     0.062 A 
ATOM     40  C   UNL     1      29.136 169.018 170.491  1.00  0.00     0.016 A 
ATOM     41  C   UNL     1      30.971 169.584 172.534  1.00  0.00     0.158 A 
ATOM     42  C   UNL     1      28.885 168.592 171.798  1.00  0.00     0.051 A 
ATOM     43  C   UNL     1      29.797 168.869 172.821  1.00  0.00     0.157 A 
BRANCH  41  44
ATOM     44  O   UNL     1      31.889 169.891 173.538  1.00  0.00    -0.504 OA
ATOM     45  H   UNL     1      32.176 170.845 173.737  1.00  0.00     0.293 HD
ENDBRANCH  41  44
BRANCH  43  46
ATOM     46  O   UNL     1      29.539 168.448 174.124  1.00  0.00    -0.504 OA
ATOM     47  H   UNL     1      30.193 168.628 174.880  1.00  0.00     0.293 HD
ENDBRANCH  43  46
ENDBRANCH  28  38
BRANCH  34  48
ATOM     48  O   UNL     1      31.050 172.251 164.174  1.00  0.00    -0.507 OA
ATOM     49  H   UNL     1      31.721 172.950 163.879  1.00  0.00     0.293 HD
ENDBRANCH  34  48
BRANCH  37  50
ATOM     50  O   UNL     1      33.329 168.005 163.926  1.00  0.00    -0.508 OA
ATOM     51  H   UNL     1      34.321 167.854 164.074  1.00  0.00     0.293 HD
ENDBRANCH  37  50
ENDBRANCH  26  27
ENDBRANCH   5  26
BRANCH   4  52
ATOM     52  O   UNL     1      28.196 173.845 171.065  1.00  0.00    -0.384 OA
ATOM     53  H   UNL     1      28.037 172.922 170.742  1.00  0.00     0.211 HD
ENDBRANCH   4  52
TORSDOF 16
ENDMDL
MODEL 9
REMARK VINA RESULT:    -4.562      2.035      4.435
REMARK INTER + INTRA:         -10.796
REMARK INTER:                  -7.509
REMARK INTRA:                  -3.287
REMARK UNBOUND:                -3.301
REMARK SMILES C[C@@H]1O[C@@H](OC[C@H]2O[C@@H](Oc3c(-c4ccc(O)c(O)c4)oc4cc(O)cc(O)c4c3=O)[C@@H](O)[C@@H](O)[C@H]2O)[C@H](O)[C@@H](O)[C@H]1O
REMARK SMILES IDX 7 1 36 2 34 3 32 4 9 5 8 6 6 7 5 8 4 9 1 10 2 11 42 12 3 13
REMARK SMILES IDX 40 14 38 15 43 16 41 18 39 20 37 22 35 24 10 26 11 27 12 28
REMARK SMILES IDX 30 29 21 30 29 31 31 32 22 33 27 34 23 35 26 36 24 37 13 38
REMARK SMILES IDX 20 39 14 40 18 41 15 42 16 43 19 44 17 46 28 48 25 50 33 52
REMARK H PARENT 43 17 41 19 39 21 37 23 35 25 19 45 17 47 28 49 25 51 33 53
REMARK Flexibility Score: inf
ROOT
ATOM      1  C   UNL     1      32.239 170.240 170.684  1.00  0.00     0.180 C 
ATOM      2  C   UNL     1      31.365 169.223 171.471  1.00  0.00     0.177 C 
ATOM      3  C   UNL     1      31.927 169.098 172.909  1.00  0.00     0.180 C 
ATOM      4  C   UNL     1      32.143 170.484 173.556  1.00  0.00     0.214 C 
ATOM      5  C   UNL     1      32.939 171.379 172.586  1.00  0.00     0.339 C 
ATOM      6  O   UNL     1      32.255 171.494 171.345  1.00  0.00    -0.332 OA
ENDROOT
BRANCH   1   7
ATOM      7  C   UNL     1      31.792 170.434 169.228  1.00  0.00     0.198 C 
BRANCH   7   8
ATOM      8  O   UNL     1      31.895 171.798 168.846  1.00  0.00    -0.347 OA
BRANCH   8   9
ATOM      9  C   UNL     1      30.649 172.351 168.440  1.00  0.00     0.281 C 
ATOM     10  C   UNL     1      29.129 175.060 168.351  1.00  0.00     0.041 C 
ATOM     11  C   UNL     1      28.865 173.768 169.136  1.00  0.00     0.150 C 
ATOM     12  C   UNL     1      27.833 172.841 168.434  1.00  0.00     0.174 C 
ATOM     13  O   UNL     1      30.080 173.124 169.495  1.00  0.00    -0.344 OA
ATOM     14  C   UNL     1      28.286 171.377 168.491  1.00  0.00     0.179 C 
ATOM     15  C   UNL     1      29.689 171.261 167.868  1.00  0.00     0.202 C 
BRANCH  12  16
ATOM     16  O   UNL     1      26.573 172.986 169.042  1.00  0.00    -0.388 OA
ATOM     17  H   UNL     1      26.327 172.099 169.420  1.00  0.00     0.211 HD
ENDBRANCH  12  16
BRANCH  14  18
ATOM     18  O   UNL     1      28.295 170.919 169.821  1.00  0.00    -0.387 OA
ATOM     19  H   UNL     1      27.950 171.663 170.378  1.00  0.00     0.211 HD
ENDBRANCH  14  18
BRANCH  15  20
ATOM     20  O   UNL     1      29.604 171.398 166.470  1.00  0.00    -0.385 OA
ATOM     21  H   UNL     1      29.430 172.358 166.280  1.00  0.00     0.211 HD
ENDBRANCH  15  20
ENDBRANCH   8   9
ENDBRANCH   7   8
ENDBRANCH   1   7
BRANCH   2  22
ATOM     22  O   UNL     1      29.995 169.555 171.492  1.00  0.00    -0.387 OA
ATOM     23  H   UNL     1      29.853 170.394 170.974  1.00  0.00     0.211 HD
ENDBRANCH   2  22
BRANCH   3  24
ATOM     24  O   UNL     1      31.141 168.248 173.714  1.00  0.00    -0.387 OA
ATOM     25  H   UNL     1      30.190 168.385 173.470  1.00  0.00     0.211 HD
ENDBRANCH   3  24
BRANCH   5  26
ATOM     26  O   UNL     1      33.084 172.669 173.166  1.00  0.00    -0.454 OA
BRANCH  26  27
ATOM     27  C   UNL     1      32.823 173.913 172.556  1.00  0.00     0.214 A 
ATOM     28  C   UNL     1      33.925 174.666 172.098  1.00  0.00     0.180 A 
ATOM     29  C   UNL     1      31.529 174.465 172.408  1.00  0.00     0.239 A 
ATOM     30  O   UNL     1      33.749 175.900 171.635  1.00  0.00    -0.452 OA
ATOM     31  C   UNL     1      31.385 175.771 171.901  1.00  0.00     0.111 A 
ATOM     32  O   UNL     1      30.509 173.795 172.723  1.00  0.00    -0.285 OA
ATOM     33  C   UNL     1      32.557 176.473 171.534  1.00  0.00     0.146 A 
ATOM     34  C   UNL     1      30.125 176.403 171.754  1.00  0.00     0.134 A 
ATOM     35  C   UNL     1      32.469 177.780 171.048  1.00  0.00     0.094 A 
ATOM     36  C   UNL     1      30.062 177.714 171.261  1.00  0.00     0.093 A 
ATOM     37  C   UNL     1      31.226 178.406 170.917  1.00  0.00     0.123 A 
BRANCH  28  38
ATOM     38  C   UNL     1      35.302 174.123 172.128  1.00  0.00     0.025 A 
ATOM     39  C   UNL     1      35.772 173.351 171.053  1.00  0.00     0.062 A 
ATOM     40  C   UNL     1      36.136 174.320 173.245  1.00  0.00     0.016 A 
ATOM     41  C   UNL     1      37.068 172.813 171.072  1.00  0.00     0.158 A 
ATOM     42  C   UNL     1      37.423 173.777 173.267  1.00  0.00     0.051 A 
ATOM     43  C   UNL     1      37.893 173.022 172.188  1.00  0.00     0.157 A 
BRANCH  41  44
ATOM     44  O   UNL     1      37.518 172.082 169.973  1.00  0.00    -0.504 OA
ATOM     45  H   UNL     1      36.922 171.425 169.478  1.00  0.00     0.293 HD
ENDBRANCH  41  44
BRANCH  43  46
ATOM     46  O   UNL     1      39.180 172.488 172.213  1.00  0.00    -0.504 OA
ATOM     47  H   UNL     1      39.931 172.884 171.656  1.00  0.00     0.293 HD
ENDBRANCH  43  46
ENDBRANCH  28  38
BRANCH  34  48
ATOM     48  O   UNL     1      28.943 175.746 172.094  1.00  0.00    -0.507 OA
ATOM     49  H   UNL     1      28.136 176.251 172.439  1.00  0.00     0.293 HD
ENDBRANCH  34  48
BRANCH  37  50
ATOM     50  O   UNL     1      31.137 179.711 170.436  1.00  0.00    -0.508 OA
ATOM     51  H   UNL     1      31.962 180.257 170.210  1.00  0.00     0.293 HD
ENDBRANCH  37  50
ENDBRANCH  26  27
ENDBRANCH   5  26
BRANCH   4  52
ATOM     52  O   UNL     1      30.920 171.106 173.866  1.00  0.00    -0.384 OA
ATOM     53  H   UNL     1      31.108 172.071 173.991  1.00  0.00     0.211 HD
ENDBRANCH   4  52
TORSDOF 16
ENDMDL
