MODEL 1
REMARK VINA RESULT:    -3.487      0.000      0.000
REMARK INTER + INTRA:          -4.045
REMARK INTER:                  -3.793
REMARK INTRA:                  -0.253
REMARK UNBOUND:                -0.253
REMARK SMILES O=C([O-])c1ccccc1O
REMARK SMILES IDX 4 1 9 2 5 3 8 4 6 5 7 6 2 7 1 8 3 9 10 10
REMARK H PARENT 10 11
REMARK Flexibility Score: inf
ROOT
ATOM      1  C   UNL     1     107.551  94.802  24.674  1.00  0.00     0.039 A 
ATOM      2  C   UNL     1     106.649  93.960  25.374  1.00  0.00     0.124 A 
ATOM      3  C   UNL     1     107.031  95.823  23.857  1.00  0.00     0.014 A 
ATOM      4  C   UNL     1     105.269  94.117  25.191  1.00  0.00     0.047 A 
ATOM      5  C   UNL     1     105.652  95.980  23.701  1.00  0.00     0.001 A 
ATOM      6  C   UNL     1     104.772  95.122  24.360  1.00  0.00     0.004 A 
ENDROOT
BRANCH   1   7
ATOM      7  C   UNL     1     109.019  94.636  24.739  1.00  0.00     0.075 C 
ATOM      8  O   UNL     1     109.779  95.632  24.857  1.00  0.00    -0.545 OA
ATOM      9  O   UNL     1     109.575  93.361  24.740  1.00  0.00    -0.545 OA
ENDBRANCH   1   7
BRANCH   2  10
ATOM     10  O   UNL     1     107.075  92.985  26.280  1.00  0.00    -0.507 OA
ATOM     11  H   UNL     1     107.547  93.198  27.148  1.00  0.00     0.293 HD
ENDBRANCH   2  10
TORSDOF 2
ENDMDL
MODEL 2
REMARK VINA RESULT:    -3.424      1.852      3.591
REMARK INTER + INTRA:          -3.977
REMARK INTER:                  -3.733
REMARK INTRA:                  -0.244
REMARK UNBOUND:                -0.253
REMARK SMILES O=C([O-])c1ccccc1O
REMARK SMILES IDX 4 1 9 2 5 3 8 4 6 5 7 6 2 7 1 8 3 9 10 10
REMARK H PARENT 10 11
REMARK Flexibility Score: inf
ROOT
ATOM      1  C   UNL     1     107.850  95.793  25.121  1.00  0.00     0.039 A 
ATOM      2  C   UNL     1     109.263  95.681  25.059  1.00  0.00     0.124 A 
ATOM      3  C   UNL     1     107.234  96.928  24.561  1.00  0.00     0.014 A 
ATOM      4  C   UNL     1     110.018  96.722  24.504  1.00  0.00     0.047 A 
ATOM      5  C   UNL     1     107.999  97.948  23.992  1.00  0.00     0.001 A 
ATOM      6  C   UNL     1     109.390  97.850  23.972  1.00  0.00     0.004 A 
ENDROOT
BRANCH   1   7
ATOM      7  C   UNL     1     106.993  94.782  25.779  1.00  0.00     0.075 C 
ATOM      8  O   UNL     1     107.097  93.561  25.493  1.00  0.00    -0.545 OA
ATOM      9  O   UNL     1     106.105  95.168  26.777  1.00  0.00    -0.545 OA
ENDBRANCH   1   7
BRANCH   2  10
ATOM     10  O   UNL     1     109.951  94.549  25.502  1.00  0.00    -0.507 OA
ATOM     11  H   UNL     1     110.533  93.980  24.904  1.00  0.00     0.293 HD
ENDBRANCH   2  10
TORSDOF 2
ENDMDL
MODEL 3
REMARK VINA RESULT:    -3.344     12.702     13.357
REMARK INTER + INTRA:          -3.890
REMARK INTER:                  -3.644
REMARK INTRA:                  -0.246
REMARK UNBOUND:                -0.253
REMARK SMILES O=C([O-])c1ccccc1O
REMARK SMILES IDX 4 1 9 2 5 3 8 4 6 5 7 6 2 7 1 8 3 9 10 10
REMARK H PARENT 10 11
REMARK Flexibility Score: inf
ROOT
ATOM      1  C   UNL     1     103.472  82.108  25.952  1.00  0.00     0.039 A 
ATOM      2  C   UNL     1     102.399  82.550  26.769  1.00  0.00     0.124 A 
ATOM      3  C   UNL     1     104.781  82.514  26.271  1.00  0.00     0.014 A 
ATOM      4  C   UNL     1     102.653  83.426  27.832  1.00  0.00     0.047 A 
ATOM      5  C   UNL     1     105.020  83.372  27.347  1.00  0.00     0.001 A 
ATOM      6  C   UNL     1     103.956  83.835  28.121  1.00  0.00     0.004 A 
ENDROOT
BRANCH   1   7
ATOM      7  C   UNL     1     103.272  81.262  24.755  1.00  0.00     0.075 C 
ATOM      8  O   UNL     1     102.351  81.509  23.934  1.00  0.00    -0.545 OA
ATOM      9  O   UNL     1     104.152  80.219  24.487  1.00  0.00    -0.545 OA
ENDBRANCH   1   7
BRANCH   2  10
ATOM     10  O   UNL     1     101.083  82.120  26.585  1.00  0.00    -0.507 OA
ATOM     11  H   UNL     1     100.312  82.418  27.166  1.00  0.00     0.293 HD
ENDBRANCH   2  10
TORSDOF 2
ENDMDL
MODEL 4
REMARK VINA RESULT:    -3.246      1.909      3.556
REMARK INTER + INTRA:          -3.784
REMARK INTER:                  -3.706
REMARK INTRA:                  -0.078
REMARK UNBOUND:                -0.253
REMARK SMILES O=C([O-])c1ccccc1O
REMARK SMILES IDX 4 1 9 2 5 3 8 4 6 5 7 6 2 7 1 8 3 9 10 10
REMARK H PARENT 10 11
REMARK Flexibility Score: inf
ROOT
ATOM      1  C   UNL     1     108.426  94.752  24.148  1.00  0.00     0.039 A 
ATOM      2  C   UNL     1     109.768  94.306  24.263  1.00  0.00     0.124 A 
ATOM      3  C   UNL     1     107.906  95.021  22.869  1.00  0.00     0.014 A 
ATOM      4  C   UNL     1     110.564  94.204  23.115  1.00  0.00     0.047 A 
ATOM      5  C   UNL     1     108.707  94.894  21.732  1.00  0.00     0.001 A 
ATOM      6  C   UNL     1     110.037  94.495  21.856  1.00  0.00     0.004 A 
ENDROOT
BRANCH   1   7
ATOM      7  C   UNL     1     107.553  94.978  25.322  1.00  0.00     0.075 C 
ATOM      8  O   UNL     1     107.518  96.097  25.896  1.00  0.00    -0.545 OA
ATOM      9  O   UNL     1     106.705  93.968  25.762  1.00  0.00    -0.545 OA
ENDBRANCH   1   7
BRANCH   2  10
ATOM     10  O   UNL     1     110.336  93.925  25.480  1.00  0.00    -0.507 OA
ATOM     11  H   UNL     1     111.134  93.309  25.555  1.00  0.00     0.293 HD
ENDBRANCH   2  10
TORSDOF 2
ENDMDL
MODEL 5
REMARK VINA RESULT:    -3.222     12.657     13.451
REMARK INTER + INTRA:          -3.757
REMARK INTER:                  -3.526
REMARK INTRA:                  -0.230
REMARK UNBOUND:                -0.253
REMARK SMILES O=C([O-])c1ccccc1O
REMARK SMILES IDX 4 1 9 2 5 3 8 4 6 5 7 6 2 7 1 8 3 9 10 10
REMARK H PARENT 10 11
REMARK Flexibility Score: inf
ROOT
ATOM      1  C   UNL     1     102.254  82.929  27.065  1.00  0.00     0.039 A 
ATOM      2  C   UNL     1     103.005  82.293  26.043  1.00  0.00     0.124 A 
ATOM      3  C   UNL     1     102.939  83.609  28.089  1.00  0.00     0.014 A 
ATOM      4  C   UNL     1     104.405  82.301  26.104  1.00  0.00     0.047 A 
ATOM      5  C   UNL     1     104.335  83.625  28.125  1.00  0.00     0.001 A 
ATOM      6  C   UNL     1     105.067  82.963  27.139  1.00  0.00     0.004 A 
ENDROOT
BRANCH   1   7
ATOM      7  C   UNL     1     100.776  82.881  27.122  1.00  0.00     0.075 C 
ATOM      8  O   UNL     1     100.124  83.755  27.750  1.00  0.00    -0.545 OA
ATOM      9  O   UNL     1     100.085  81.901  26.419  1.00  0.00    -0.545 OA
ENDBRANCH   1   7
BRANCH   2  10
ATOM     10  O   UNL     1     102.409  81.679  24.940  1.00  0.00    -0.507 OA
ATOM     11  H   UNL     1     102.670  80.762  24.602  1.00  0.00     0.293 HD
ENDBRANCH   2  10
TORSDOF 2
ENDMDL
MODEL 6
REMARK VINA RESULT:    -3.205      1.876      2.996
REMARK INTER + INTRA:          -3.739
REMARK INTER:                  -3.487
REMARK INTRA:                  -0.251
REMARK UNBOUND:                -0.253
REMARK SMILES O=C([O-])c1ccccc1O
REMARK SMILES IDX 4 1 9 2 5 3 8 4 6 5 7 6 2 7 1 8 3 9 10 10
REMARK H PARENT 10 11
REMARK Flexibility Score: inf
ROOT
ATOM      1  C   UNL     1     108.949  94.222  24.692  1.00  0.00     0.039 A 
ATOM      2  C   UNL     1     109.216  95.579  25.009  1.00  0.00     0.124 A 
ATOM      3  C   UNL     1     107.663  93.707  24.940  1.00  0.00     0.014 A 
ATOM      4  C   UNL     1     108.222  96.358  25.616  1.00  0.00     0.047 A 
ATOM      5  C   UNL     1     106.676  94.503  25.527  1.00  0.00     0.001 A 
ATOM      6  C   UNL     1     106.959  95.824  25.874  1.00  0.00     0.004 A 
ENDROOT
BRANCH   1   7
ATOM      7  C   UNL     1     109.975  93.311  24.140  1.00  0.00     0.075 C 
ATOM      8  O   UNL     1     110.016  92.100  24.481  1.00  0.00    -0.545 OA
ATOM      9  O   UNL     1     110.868  93.770  23.178  1.00  0.00    -0.545 OA
ENDBRANCH   1   7
BRANCH   2  10
ATOM     10  O   UNL     1     110.431  96.199  24.710  1.00  0.00    -0.507 OA
ATOM     11  H   UNL     1     110.798  96.986  25.226  1.00  0.00     0.293 HD
ENDBRANCH   2  10
TORSDOF 2
ENDMDL
MODEL 7
REMARK VINA RESULT:    -3.186      1.960      2.656
REMARK INTER + INTRA:          -3.718
REMARK INTER:                  -3.488
REMARK INTRA:                  -0.230
REMARK UNBOUND:                -0.253
REMARK SMILES O=C([O-])c1ccccc1O
REMARK SMILES IDX 4 1 9 2 5 3 8 4 6 5 7 6 2 7 1 8 3 9 10 10
REMARK H PARENT 10 11
REMARK Flexibility Score: inf
ROOT
ATOM      1  C   UNL     1     108.963  94.862  23.324  1.00  0.00     0.039 A 
ATOM      2  C   UNL     1     109.079  94.986  24.732  1.00  0.00     0.124 A 
ATOM      3  C   UNL     1     107.855  95.444  22.679  1.00  0.00     0.014 A 
ATOM      4  C   UNL     1     108.064  95.625  25.458  1.00  0.00     0.047 A 
ATOM      5  C   UNL     1     106.863  96.095  23.415  1.00  0.00     0.001 A 
ATOM      6  C   UNL     1     106.962  96.177  24.804  1.00  0.00     0.004 A 
ENDROOT
BRANCH   1   7
ATOM      7  C   UNL     1     109.942  94.119  22.501  1.00  0.00     0.075 C 
ATOM      8  O   UNL     1     111.120  93.936  22.903  1.00  0.00    -0.545 OA
ATOM      9  O   UNL     1     109.546  93.550  21.295  1.00  0.00    -0.545 OA
ENDBRANCH   1   7
BRANCH   2  10
ATOM     10  O   UNL     1     110.189  94.525  25.442  1.00  0.00    -0.507 OA
ATOM     11  H   UNL     1     110.693  95.084  26.116  1.00  0.00     0.293 HD
ENDBRANCH   2  10
TORSDOF 2
ENDMDL
MODEL 8
REMARK VINA RESULT:    -3.174     12.204     12.997
REMARK INTER + INTRA:          -3.706
REMARK INTER:                  -3.457
REMARK INTRA:                  -0.248
REMARK UNBOUND:                -0.253
REMARK SMILES O=C([O-])c1ccccc1O
REMARK SMILES IDX 4 1 9 2 5 3 8 4 6 5 7 6 2 7 1 8 3 9 10 10
REMARK H PARENT 10 11
REMARK Flexibility Score: inf
ROOT
ATOM      1  C   UNL     1     103.777  82.228  26.161  1.00  0.00     0.039 A 
ATOM      2  C   UNL     1     104.262  82.951  27.281  1.00  0.00     0.124 A 
ATOM      3  C   UNL     1     102.397  82.245  25.888  1.00  0.00     0.014 A 
ATOM      4  C   UNL     1     103.359  83.611  28.125  1.00  0.00     0.047 A 
ATOM      5  C   UNL     1     101.511  82.925  26.727  1.00  0.00     0.001 A 
ATOM      6  C   UNL     1     101.991  83.599  27.850  1.00  0.00     0.004 A 
ENDROOT
BRANCH   1   7
ATOM      7  C   UNL     1     104.656  81.428  25.281  1.00  0.00     0.075 C 
ATOM      8  O   UNL     1     104.586  81.530  24.028  1.00  0.00    -0.545 OA
ATOM      9  O   UNL     1     105.625  80.598  25.835  1.00  0.00    -0.545 OA
ENDBRANCH   1   7
BRANCH   2  10
ATOM     10  O   UNL     1     105.623  83.069  27.572  1.00  0.00    -0.507 OA
ATOM     11  H   UNL     1     106.299  83.463  26.931  1.00  0.00     0.293 HD
ENDBRANCH   2  10
TORSDOF 2
ENDMDL
MODEL 9
REMARK VINA RESULT:    -1.481     12.425     13.331
REMARK INTER + INTRA:          -1.864
REMARK INTER:                  -1.636
REMARK INTRA:                  -0.227
REMARK UNBOUND:                -0.253
REMARK SMILES O=C([O-])c1ccccc1O
REMARK SMILES IDX 4 1 9 2 5 3 8 4 6 5 7 6 2 7 1 8 3 9 10 10
REMARK H PARENT 10 11
REMARK Flexibility Score: inf
ROOT
ATOM      1  C   UNL     1     102.733  82.493  25.965  1.00  0.00     0.039 A 
ATOM      2  C   UNL     1     104.151  82.453  25.927  1.00  0.00     0.124 A 
ATOM      3  C   UNL     1     102.099  83.099  27.065  1.00  0.00     0.014 A 
ATOM      4  C   UNL     1     104.887  82.957  27.007  1.00  0.00     0.047 A 
ATOM      5  C   UNL     1     102.848  83.615  28.125  1.00  0.00     0.001 A 
ATOM      6  C   UNL     1     104.240  83.535  28.100  1.00  0.00     0.004 A 
ENDROOT
BRANCH   1   7
ATOM      7  C   UNL     1     101.886  81.895  24.910  1.00  0.00     0.075 C 
ATOM      8  O   UNL     1     100.694  82.265  24.749  1.00  0.00    -0.545 OA
ATOM      9  O   UNL     1     102.424  80.959  24.033  1.00  0.00    -0.545 OA
ENDBRANCH   1   7
BRANCH   2  10
ATOM     10  O   UNL     1     104.863  81.959  24.832  1.00  0.00    -0.507 OA
ATOM     11  H   UNL     1     104.434  81.458  24.067  1.00  0.00     0.293 HD
ENDBRANCH   2  10
TORSDOF 2
ENDMDL
