MODEL 1
REMARK VINA RESULT:    -3.635      0.000      0.000
REMARK INTER + INTRA:          -3.870
REMARK INTER:                  -3.848
REMARK INTRA:                  -0.023
REMARK UNBOUND:                -0.023
REMARK SMILES O=C([O-])c1cccnc1
REMARK SMILES IDX 4 1 5 2 9 3 6 4 8 5 7 6 2 7 1 8 3 9
REMARK H PARENT
REMARK Flexibility Score: inf
ROOT
ATOM      1  C   UNL     1     -12.379  65.702  31.119  1.00  0.00     0.016 A 
ATOM      2  C   UNL     1     -12.490  65.574  29.725  1.00  0.00     0.013 A 
ATOM      3  C   UNL     1     -11.405  66.575  31.634  1.00  0.00     0.120 A 
ATOM      4  C   UNL     1     -11.646  66.304  28.885  1.00  0.00     0.021 A 
ATOM      5  N   UNL     1     -10.595  67.273  30.794  1.00  0.00    -0.264 NA
ATOM      6  C   UNL     1     -10.694  67.157  29.444  1.00  0.00     0.111 A 
ENDROOT
BRANCH   1   7
ATOM      7  C   UNL     1     -13.267  64.935  32.018  1.00  0.00     0.073 C 
ATOM      8  O   UNL     1     -14.386  64.520  31.613  1.00  0.00    -0.545 OA
ATOM      9  O   UNL     1     -12.881  64.662  33.326  1.00  0.00    -0.545 OA
ENDBRANCH   1   7
TORSDOF 1
ENDMDL
MODEL 2
REMARK VINA RESULT:    -3.583      2.770      3.604
REMARK INTER + INTRA:          -3.815
REMARK INTER:                  -3.799
REMARK INTRA:                  -0.016
REMARK UNBOUND:                -0.023
REMARK SMILES O=C([O-])c1cccnc1
REMARK SMILES IDX 4 1 5 2 9 3 6 4 8 5 7 6 2 7 1 8 3 9
REMARK H PARENT
REMARK Flexibility Score: inf
ROOT
ATOM      1  C   UNL     1     -11.555  66.331  31.011  1.00  0.00     0.016 A 
ATOM      2  C   UNL     1     -12.438  65.886  32.009  1.00  0.00     0.013 A 
ATOM      3  C   UNL     1     -11.611  65.715  29.748  1.00  0.00     0.120 A 
ATOM      4  C   UNL     1     -13.341  64.857  31.738  1.00  0.00     0.021 A 
ATOM      5  N   UNL     1     -12.501  64.714  29.511  1.00  0.00    -0.264 NA
ATOM      6  C   UNL     1     -13.359  64.277  30.470  1.00  0.00     0.111 A 
ENDROOT
BRANCH   1   7
ATOM      7  C   UNL     1     -10.594  67.420  31.286  1.00  0.00     0.073 C 
ATOM      8  O   UNL     1     -10.967  68.623  31.268  1.00  0.00    -0.545 OA
ATOM      9  O   UNL     1      -9.263  67.131  31.567  1.00  0.00    -0.545 OA
ENDBRANCH   1   7
TORSDOF 1
ENDMDL
MODEL 3
REMARK VINA RESULT:    -3.561      0.924      1.601
REMARK INTER + INTRA:          -3.792
REMARK INTER:                  -3.770
REMARK INTRA:                  -0.022
REMARK UNBOUND:                -0.023
REMARK SMILES O=C([O-])c1cccnc1
REMARK SMILES IDX 4 1 5 2 9 3 6 4 8 5 7 6 2 7 1 8 3 9
REMARK H PARENT
REMARK Flexibility Score: inf
ROOT
ATOM      1  C   UNL     1     -12.346  65.676  31.092  1.00  0.00     0.016 A 
ATOM      2  C   UNL     1     -11.339  66.521  31.588  1.00  0.00     0.013 A 
ATOM      3  C   UNL     1     -12.482  65.547  29.699  1.00  0.00     0.120 A 
ATOM      4  C   UNL     1     -10.504  67.209  30.706  1.00  0.00     0.021 A 
ATOM      5  N   UNL     1     -11.655  66.229  28.861  1.00  0.00    -0.264 NA
ATOM      6  C   UNL     1     -10.679  67.048  29.331  1.00  0.00     0.111 A 
ENDROOT
BRANCH   1   7
ATOM      7  C   UNL     1     -13.236  64.942  32.016  1.00  0.00     0.073 C 
ATOM      8  O   UNL     1     -14.381  64.570  31.642  1.00  0.00    -0.545 OA
ATOM      9  O   UNL     1     -12.823  64.654  33.312  1.00  0.00    -0.545 OA
ENDBRANCH   1   7
TORSDOF 1
ENDMDL
MODEL 4
REMARK VINA RESULT:    -3.542     13.327     14.114
REMARK INTER + INTRA:          -3.772
REMARK INTER:                  -3.748
REMARK INTRA:                  -0.024
REMARK UNBOUND:                -0.023
REMARK SMILES O=C([O-])c1cccnc1
REMARK SMILES IDX 4 1 5 2 9 3 6 4 8 5 7 6 2 7 1 8 3 9
REMARK H PARENT
REMARK Flexibility Score: inf
ROOT
ATOM      1  C   UNL     1       0.541  62.250  26.795  1.00  0.00     0.016 A 
ATOM      2  C   UNL     1      -0.467  62.910  27.517  1.00  0.00     0.013 A 
ATOM      3  C   UNL     1       1.880  62.465  27.168  1.00  0.00     0.120 A 
ATOM      4  C   UNL     1      -0.131  63.756  28.575  1.00  0.00     0.021 A 
ATOM      5  N   UNL     1       2.179  63.295  28.204  1.00  0.00    -0.264 NA
ATOM      6  C   UNL     1       1.211  63.939  28.908  1.00  0.00     0.111 A 
ENDROOT
BRANCH   1   7
ATOM      7  C   UNL     1       0.199  61.351  25.673  1.00  0.00     0.073 C 
ATOM      8  O   UNL     1      -1.005  61.097  25.400  1.00  0.00    -0.545 OA
ATOM      9  O   UNL     1       1.201  60.772  24.902  1.00  0.00    -0.545 OA
ENDBRANCH   1   7
TORSDOF 1
ENDMDL
MODEL 5
REMARK VINA RESULT:    -3.492      3.156      4.057
REMARK INTER + INTRA:          -3.719
REMARK INTER:                  -3.703
REMARK INTRA:                  -0.016
REMARK UNBOUND:                -0.023
REMARK SMILES O=C([O-])c1cccnc1
REMARK SMILES IDX 4 1 5 2 9 3 6 4 8 5 7 6 2 7 1 8 3 9
REMARK H PARENT
REMARK Flexibility Score: inf
ROOT
ATOM      1  C   UNL     1     -11.657  65.706  29.685  1.00  0.00     0.016 A 
ATOM      2  C   UNL     1     -11.721  66.266  30.971  1.00  0.00     0.013 A 
ATOM      3  C   UNL     1     -12.514  64.634  29.379  1.00  0.00     0.120 A 
ATOM      4  C   UNL     1     -12.619  65.759  31.912  1.00  0.00     0.021 A 
ATOM      5  N   UNL     1     -13.379  64.158  30.315  1.00  0.00    -0.264 NA
ATOM      6  C   UNL     1     -13.448  64.693  31.563  1.00  0.00     0.111 A 
ENDROOT
BRANCH   1   7
ATOM      7  C   UNL     1     -10.711  66.236  28.679  1.00  0.00     0.073 C 
ATOM      8  O   UNL     1     -11.073  67.129  27.868  1.00  0.00    -0.545 OA
ATOM      9  O   UNL     1      -9.409  65.753  28.615  1.00  0.00    -0.545 OA
ENDBRANCH   1   7
TORSDOF 1
ENDMDL
MODEL 6
REMARK VINA RESULT:    -3.476      5.385      6.288
REMARK INTER + INTRA:          -3.702
REMARK INTER:                  -3.679
REMARK INTRA:                  -0.023
REMARK UNBOUND:                -0.023
REMARK SMILES O=C([O-])c1cccnc1
REMARK SMILES IDX 4 1 5 2 9 3 6 4 8 5 7 6 2 7 1 8 3 9
REMARK H PARENT
REMARK Flexibility Score: inf
ROOT
ATOM      1  C   UNL     1      -6.956  66.554  32.185  1.00  0.00     0.016 A 
ATOM      2  C   UNL     1      -7.265  66.893  33.512  1.00  0.00     0.013 A 
ATOM      3  C   UNL     1      -5.630  66.714  31.746  1.00  0.00     0.120 A 
ATOM      4  C   UNL     1      -6.268  67.377  34.362  1.00  0.00     0.021 A 
ATOM      5  N   UNL     1      -4.677  67.187  32.594  1.00  0.00    -0.264 NA
ATOM      6  C   UNL     1      -4.966  67.518  33.880  1.00  0.00     0.111 A 
ENDROOT
BRANCH   1   7
ATOM      7  C   UNL     1      -8.003  66.041  31.276  1.00  0.00     0.073 C 
ATOM      8  O   UNL     1      -9.215  66.325  31.470  1.00  0.00    -0.545 OA
ATOM      9  O   UNL     1      -7.664  65.236  30.194  1.00  0.00    -0.545 OA
ENDBRANCH   1   7
TORSDOF 1
ENDMDL
MODEL 7
REMARK VINA RESULT:    -3.462      5.799      6.744
REMARK INTER + INTRA:          -3.687
REMARK INTER:                  -3.666
REMARK INTRA:                  -0.021
REMARK UNBOUND:                -0.023
REMARK SMILES O=C([O-])c1cccnc1
REMARK SMILES IDX 4 1 5 2 9 3 6 4 8 5 7 6 2 7 1 8 3 9
REMARK H PARENT
REMARK Flexibility Score: inf
ROOT
ATOM      1  C   UNL     1      -6.223  66.893  32.990  1.00  0.00     0.016 A 
ATOM      2  C   UNL     1      -7.615  66.705  32.972  1.00  0.00     0.013 A 
ATOM      3  C   UNL     1      -5.513  66.741  31.787  1.00  0.00     0.120 A 
ATOM      4  C   UNL     1      -8.262  66.376  31.779  1.00  0.00     0.021 A 
ATOM      5  N   UNL     1      -6.168  66.420  30.638  1.00  0.00    -0.264 NA
ATOM      6  C   UNL     1      -7.514  66.236  30.610  1.00  0.00     0.111 A 
ENDROOT
BRANCH   1   7
ATOM      7  C   UNL     1      -5.527  67.242  34.247  1.00  0.00     0.073 C 
ATOM      8  O   UNL     1      -6.083  67.980  35.103  1.00  0.00    -0.545 OA
ATOM      9  O   UNL     1      -4.247  66.760  34.501  1.00  0.00    -0.545 OA
ENDBRANCH   1   7
TORSDOF 1
ENDMDL
MODEL 8
REMARK VINA RESULT:    -3.420     14.294     15.147
REMARK INTER + INTRA:          -3.642
REMARK INTER:                  -3.623
REMARK INTRA:                  -0.019
REMARK UNBOUND:                -0.023
REMARK SMILES O=C([O-])c1cccnc1
REMARK SMILES IDX 4 1 5 2 9 3 6 4 8 5 7 6 2 7 1 8 3 9
REMARK H PARENT
REMARK Flexibility Score: inf
ROOT
ATOM      1  C   UNL     1       1.859  62.220  27.154  1.00  0.00     0.016 A 
ATOM      2  C   UNL     1       2.036  61.440  25.999  1.00  0.00     0.013 A 
ATOM      3  C   UNL     1       0.562  62.661  27.468  1.00  0.00     0.120 A 
ATOM      4  C   UNL     1       0.941  61.120  25.194  1.00  0.00     0.021 A 
ATOM      5  N   UNL     1      -0.488  62.336  26.667  1.00  0.00    -0.264 NA
ATOM      6  C   UNL     1      -0.327  61.582  25.547  1.00  0.00     0.111 A 
ENDROOT
BRANCH   1   7
ATOM      7  C   UNL     1       3.011  62.564  28.014  1.00  0.00     0.073 C 
ATOM      8  O   UNL     1       3.829  61.676  28.374  1.00  0.00    -0.545 OA
ATOM      9  O   UNL     1       3.206  63.873  28.440  1.00  0.00    -0.545 OA
ENDBRANCH   1   7
TORSDOF 1
ENDMDL
MODEL 9
REMARK VINA RESULT:    -3.356      4.819      5.719
REMARK INTER + INTRA:          -3.575
REMARK INTER:                  -3.551
REMARK INTRA:                  -0.023
REMARK UNBOUND:                -0.023
REMARK SMILES O=C([O-])c1cccnc1
REMARK SMILES IDX 4 1 5 2 9 3 6 4 8 5 7 6 2 7 1 8 3 9
REMARK H PARENT
REMARK Flexibility Score: inf
ROOT
ATOM      1  C   UNL     1      -7.135  66.366  32.204  1.00  0.00     0.016 A 
ATOM      2  C   UNL     1      -6.451  65.595  31.249  1.00  0.00     0.013 A 
ATOM      3  C   UNL     1      -8.452  66.768  31.919  1.00  0.00     0.120 A 
ATOM      4  C   UNL     1      -7.078  65.247  30.051  1.00  0.00     0.021 A 
ATOM      5  N   UNL     1      -9.039  66.415  30.744  1.00  0.00    -0.264 NA
ATOM      6  C   UNL     1      -8.386  65.670  29.813  1.00  0.00     0.111 A 
ENDROOT
BRANCH   1   7
ATOM      7  C   UNL     1      -6.482  66.741  33.476  1.00  0.00     0.073 C 
ATOM      8  O   UNL     1      -5.230  66.669  33.599  1.00  0.00    -0.545 OA
ATOM      9  O   UNL     1      -7.242  67.177  34.556  1.00  0.00    -0.545 OA
ENDBRANCH   1   7
TORSDOF 1
ENDMDL
