MODEL 1
REMARK VINA RESULT:    -4.519      0.000      0.000
REMARK INTER + INTRA:          -4.651
REMARK INTER:                  -4.651
REMARK INTRA:                   0.000
REMARK UNBOUND:                 0.000
REMARK SMILES Nc1ncnc2nc[nH]c12
REMARK SMILES IDX 8 1 7 2 6 3 5 4 4 5 3 6 2 7 10 8 9 9 1 11
REMARK H PARENT 9 10 1 12 1 13
REMARK Flexibility Score: inf
ROOT
ATOM      1  C   UNL     1       6.316   0.727  10.758  1.00  0.00     0.199 A 
ATOM      2  N   UNL     1       7.528   0.240  10.373  1.00  0.00    -0.217 NA
ATOM      3  C   UNL     1       8.218   0.249  11.525  1.00  0.00     0.182 A 
ATOM      4  N   UNL     1       9.501  -0.146  11.701  1.00  0.00    -0.215 NA
ATOM      5  C   UNL     1      10.036  -0.064  12.957  1.00  0.00     0.226 A 
ATOM      6  N   UNL     1       9.283   0.406  14.005  1.00  0.00    -0.217 NA
ATOM      7  C   UNL     1       7.988   0.804  13.829  1.00  0.00     0.152 A 
ATOM      8  C   UNL     1       7.460   0.715  12.544  1.00  0.00     0.127 A 
ATOM      9  N   UNL     1       6.243   1.026  12.080  1.00  0.00    -0.340 N 
ATOM     10  H   UNL     1       5.423   1.410  12.601  1.00  0.00     0.168 HD
ENDROOT
BRANCH   7  11
ATOM     11  N   UNL     1       7.225   1.290  14.934  1.00  0.00    -0.382 N 
ATOM     12  H   UNL     1       7.708   1.718  15.754  1.00  0.00     0.158 HD
ATOM     13  H   UNL     1       6.183   1.227  14.945  1.00  0.00     0.158 HD
ENDBRANCH   7  11
TORSDOF 1
ENDMDL
MODEL 2
REMARK VINA RESULT:    -4.391      3.720      5.417
REMARK INTER + INTRA:          -4.520
REMARK INTER:                  -4.520
REMARK INTRA:                   0.000
REMARK UNBOUND:                 0.000
REMARK SMILES Nc1ncnc2nc[nH]c12
REMARK SMILES IDX 8 1 7 2 6 3 5 4 4 5 3 6 2 7 10 8 9 9 1 11
REMARK H PARENT 9 10 1 12 1 13
REMARK Flexibility Score: inf
ROOT
ATOM      1  C   UNL     1      10.455  -0.779  12.316  1.00  0.00     0.199 A 
ATOM      2  N   UNL     1      10.908  -1.946  11.781  1.00  0.00    -0.217 NA
ATOM      3  C   UNL     1      12.132  -1.604  11.346  1.00  0.00     0.182 A 
ATOM      4  N   UNL     1      13.023  -2.412  10.724  1.00  0.00    -0.215 NA
ATOM      5  C   UNL     1      14.227  -1.881  10.353  1.00  0.00     0.226 A 
ATOM      6  N   UNL     1      14.515  -0.564  10.609  1.00  0.00    -0.217 NA
ATOM      7  C   UNL     1      13.618   0.253  11.236  1.00  0.00     0.152 A 
ATOM      8  C   UNL     1      12.396  -0.304  11.607  1.00  0.00     0.127 A 
ATOM      9  N   UNL     1      11.342   0.243  12.226  1.00  0.00    -0.340 N 
ATOM     10  H   UNL     1      11.219   1.224  12.562  1.00  0.00     0.168 HD
ENDROOT
BRANCH   7  11
ATOM     11  N   UNL     1      13.939   1.621  11.491  1.00  0.00    -0.382 N 
ATOM     12  H   UNL     1      14.843   2.016  11.151  1.00  0.00     0.158 HD
ATOM     13  H   UNL     1      13.287   2.244  12.017  1.00  0.00     0.158 HD
ENDBRANCH   7  11
TORSDOF 1
ENDMDL
MODEL 3
REMARK VINA RESULT:    -4.347      2.622      4.222
REMARK INTER + INTRA:          -4.474
REMARK INTER:                  -4.474
REMARK INTRA:                   0.000
REMARK UNBOUND:                 0.000
REMARK SMILES Nc1ncnc2nc[nH]c12
REMARK SMILES IDX 8 1 7 2 6 3 5 4 4 5 3 6 2 7 10 8 9 9 1 11
REMARK H PARENT 9 10 1 12 1 13
REMARK Flexibility Score: inf
ROOT
ATOM      1  C   UNL     1       8.264  -1.009   8.661  1.00  0.00     0.199 A 
ATOM      2  N   UNL     1       7.982  -0.579   9.922  1.00  0.00    -0.217 NA
ATOM      3  C   UNL     1       9.188  -0.616  10.512  1.00  0.00     0.182 A 
ATOM      4  N   UNL     1       9.471  -0.280  11.793  1.00  0.00    -0.215 NA
ATOM      5  C   UNL     1      10.767  -0.383  12.216  1.00  0.00     0.226 A 
ATOM      6  N   UNL     1      11.748  -0.814  11.358  1.00  0.00    -0.217 NA
ATOM      7  C   UNL     1      11.464  -1.152  10.065  1.00  0.00     0.152 A 
ATOM      8  C   UNL     1      10.140  -1.043   9.651  1.00  0.00     0.127 A 
ATOM      9  N   UNL     1       9.575  -1.299   8.464  1.00  0.00    -0.340 N 
ATOM     10  H   UNL     1      10.025  -1.643   7.587  1.00  0.00     0.168 HD
ENDROOT
BRANCH   7  11
ATOM     11  N   UNL     1      12.501  -1.599   9.191  1.00  0.00    -0.382 N 
ATOM     12  H   UNL     1      13.466  -1.746   9.558  1.00  0.00     0.158 HD
ATOM     13  H   UNL     1      12.317  -1.785   8.179  1.00  0.00     0.158 HD
ENDBRANCH   7  11
TORSDOF 1
ENDMDL
MODEL 4
REMARK VINA RESULT:    -4.321      2.559      4.813
REMARK INTER + INTRA:          -4.447
REMARK INTER:                  -4.447
REMARK INTRA:                   0.000
REMARK UNBOUND:                 0.000
REMARK SMILES Nc1ncnc2nc[nH]c12
REMARK SMILES IDX 8 1 7 2 6 3 5 4 4 5 3 6 2 7 10 8 9 9 1 11
REMARK H PARENT 9 10 1 12 1 13
REMARK Flexibility Score: inf
ROOT
ATOM      1  C   UNL     1      12.169  -1.191   9.807  1.00  0.00     0.199 A 
ATOM      2  N   UNL     1      11.719  -0.843  11.044  1.00  0.00    -0.217 NA
ATOM      3  C   UNL     1      10.398  -0.718  10.842  1.00  0.00     0.182 A 
ATOM      4  N   UNL     1       9.467  -0.381  11.766  1.00  0.00    -0.215 NA
ATOM      5  C   UNL     1       8.161  -0.304  11.370  1.00  0.00     0.226 A 
ATOM      6  N   UNL     1       7.812  -0.565  10.068  1.00  0.00    -0.217 NA
ATOM      7  C   UNL     1       8.749  -0.905   9.134  1.00  0.00     0.152 A 
ATOM      8  C   UNL     1      10.074  -0.978   9.554  1.00  0.00     0.127 A 
ATOM      9  N   UNL     1      11.187  -1.283   8.875  1.00  0.00    -0.340 N 
ATOM     10  H   UNL     1      11.289  -1.532   7.866  1.00  0.00     0.168 HD
ENDROOT
BRANCH   7  11
ATOM     11  N   UNL     1       8.362  -1.171   7.786  1.00  0.00    -0.382 N 
ATOM     12  H   UNL     1       7.353  -1.282   7.544  1.00  0.00     0.158 HD
ATOM     13  H   UNL     1       9.071  -1.259   7.024  1.00  0.00     0.158 HD
ENDBRANCH   7  11
TORSDOF 1
ENDMDL
MODEL 5
REMARK VINA RESULT:    -4.315      2.540      3.714
REMARK INTER + INTRA:          -4.441
REMARK INTER:                  -4.441
REMARK INTRA:                   0.000
REMARK UNBOUND:                 0.000
REMARK SMILES Nc1ncnc2nc[nH]c12
REMARK SMILES IDX 8 1 7 2 6 3 5 4 4 5 3 6 2 7 10 8 9 9 1 11
REMARK H PARENT 9 10 1 12 1 13
REMARK Flexibility Score: inf
ROOT
ATOM      1  C   UNL     1       9.968   0.331  12.655  1.00  0.00     0.199 A 
ATOM      2  N   UNL     1       9.545   1.553  13.084  1.00  0.00    -0.217 NA
ATOM      3  C   UNL     1       9.228   1.311  14.366  1.00  0.00     0.182 A 
ATOM      4  N   UNL     1       8.748   2.206  15.262  1.00  0.00    -0.215 NA
ATOM      5  C   UNL     1       8.481   1.771  16.530  1.00  0.00     0.226 A 
ATOM      6  N   UNL     1       8.699   0.461  16.876  1.00  0.00    -0.217 NA
ATOM      7  C   UNL     1       9.183  -0.443  15.975  1.00  0.00     0.152 A 
ATOM      8  C   UNL     1       9.448   0.016  14.687  1.00  0.00     0.127 A 
ATOM      9  N   UNL     1       9.921  -0.629  13.613  1.00  0.00    -0.340 N 
ATOM     10  H   UNL     1      10.191  -1.633  13.520  1.00  0.00     0.168 HD
ENDROOT
BRANCH   7  11
ATOM     11  N   UNL     1       9.400  -1.802  16.357  1.00  0.00    -0.382 N 
ATOM     12  H   UNL     1      10.364  -2.134  16.580  1.00  0.00     0.158 HD
ATOM     13  H   UNL     1       8.611  -2.483  16.421  1.00  0.00     0.158 HD
ENDBRANCH   7  11
TORSDOF 1
ENDMDL
MODEL 6
REMARK VINA RESULT:    -4.270      7.715      8.393
REMARK INTER + INTRA:          -4.395
REMARK INTER:                  -4.395
REMARK INTRA:                   0.000
REMARK UNBOUND:                 0.000
REMARK SMILES Nc1ncnc2nc[nH]c12
REMARK SMILES IDX 8 1 7 2 6 3 5 4 4 5 3 6 2 7 10 8 9 9 1 11
REMARK H PARENT 9 10 1 12 1 13
REMARK Flexibility Score: inf
ROOT
ATOM      1  C   UNL     1       9.883   9.252   9.754  1.00  0.00     0.199 A 
ATOM      2  N   UNL     1       8.970  10.005  10.428  1.00  0.00    -0.217 NA
ATOM      3  C   UNL     1       8.083   9.082  10.834  1.00  0.00     0.182 A 
ATOM      4  N   UNL     1       6.960   9.304  11.557  1.00  0.00    -0.215 NA
ATOM      5  C   UNL     1       6.175   8.231  11.878  1.00  0.00     0.226 A 
ATOM      6  N   UNL     1       6.525   6.967  11.472  1.00  0.00    -0.217 NA
ATOM      7  C   UNL     1       7.657   6.741  10.743  1.00  0.00     0.152 A 
ATOM      8  C   UNL     1       8.445   7.844  10.425  1.00  0.00     0.127 A 
ATOM      9  N   UNL     1       9.589   7.927   9.735  1.00  0.00    -0.340 N 
ATOM     10  H   UNL     1      10.137   7.162   9.282  1.00  0.00     0.168 HD
ENDROOT
BRANCH   7  11
ATOM     11  N   UNL     1       8.001   5.417  10.331  1.00  0.00    -0.382 N 
ATOM     12  H   UNL     1       8.377   5.250   9.372  1.00  0.00     0.158 HD
ATOM     13  H   UNL     1       7.884   4.601  10.971  1.00  0.00     0.158 HD
ENDBRANCH   7  11
TORSDOF 1
ENDMDL
MODEL 7
REMARK VINA RESULT:    -4.229      1.809      3.512
REMARK INTER + INTRA:          -4.353
REMARK INTER:                  -4.353
REMARK INTRA:                   0.000
REMARK UNBOUND:                 0.000
REMARK SMILES Nc1ncnc2nc[nH]c12
REMARK SMILES IDX 8 1 7 2 6 3 5 4 4 5 3 6 2 7 10 8 9 9 1 11
REMARK H PARENT 9 10 1 12 1 13
REMARK Flexibility Score: inf
ROOT
ATOM      1  C   UNL     1       6.824   0.863  11.516  1.00  0.00     0.199 A 
ATOM      2  N   UNL     1       7.894   0.672  12.335  1.00  0.00    -0.217 NA
ATOM      3  C   UNL     1       8.745   0.001  11.541  1.00  0.00     0.182 A 
ATOM      4  N   UNL     1       9.982  -0.440  11.873  1.00  0.00    -0.215 NA
ATOM      5  C   UNL     1      10.705  -1.108  10.924  1.00  0.00     0.226 A 
ATOM      6  N   UNL     1      10.183  -1.320   9.672  1.00  0.00    -0.217 NA
ATOM      7  C   UNL     1       8.936  -0.875   9.336  1.00  0.00     0.152 A 
ATOM      8  C   UNL     1       8.213  -0.198  10.314  1.00  0.00     0.127 A 
ATOM      9  N   UNL     1       6.989   0.344  10.273  1.00  0.00    -0.340 N 
ATOM     10  H   UNL     1       6.310   0.366   9.479  1.00  0.00     0.168 HD
ENDROOT
BRANCH   7  11
ATOM     11  N   UNL     1       8.414  -1.108   8.028  1.00  0.00    -0.382 N 
ATOM     12  H   UNL     1       8.139  -2.073   7.739  1.00  0.00     0.158 HD
ATOM     13  H   UNL     1       8.298  -0.330   7.341  1.00  0.00     0.158 HD
ENDBRANCH   7  11
TORSDOF 1
ENDMDL
MODEL 8
REMARK VINA RESULT:    -4.210      3.614      5.668
REMARK INTER + INTRA:          -4.333
REMARK INTER:                  -4.333
REMARK INTRA:                   0.000
REMARK UNBOUND:                 0.000
REMARK SMILES Nc1ncnc2nc[nH]c12
REMARK SMILES IDX 8 1 7 2 6 3 5 4 4 5 3 6 2 7 10 8 9 9 1 11
REMARK H PARENT 9 10 1 12 1 13
REMARK Flexibility Score: inf
ROOT
ATOM      1  C   UNL     1       9.795   3.199  18.602  1.00  0.00     0.199 A 
ATOM      2  N   UNL     1       9.587   3.691  17.349  1.00  0.00    -0.217 NA
ATOM      3  C   UNL     1       9.111   2.617  16.697  1.00  0.00     0.182 A 
ATOM      4  N   UNL     1       8.738   2.562  15.397  1.00  0.00    -0.215 NA
ATOM      5  C   UNL     1       8.274   1.372  14.908  1.00  0.00     0.226 A 
ATOM      6  N   UNL     1       8.191   0.270  15.722  1.00  0.00    -0.217 NA
ATOM      7  C   UNL     1       8.566   0.324  17.034  1.00  0.00     0.152 A 
ATOM      8  C   UNL     1       9.037   1.542  17.516  1.00  0.00     0.127 A 
ATOM      9  N   UNL     1       9.467   1.889  18.736  1.00  0.00    -0.340 N 
ATOM     10  H   UNL     1       9.540   1.300  19.595  1.00  0.00     0.168 HD
ENDROOT
BRANCH   7  11
ATOM     11  N   UNL     1       8.472  -0.836  17.862  1.00  0.00    -0.382 N 
ATOM     12  H   UNL     1       9.289  -1.478  17.956  1.00  0.00     0.158 HD
ATOM     13  H   UNL     1       7.595  -1.064  18.382  1.00  0.00     0.158 HD
ENDBRANCH   7  11
TORSDOF 1
ENDMDL
MODEL 9
REMARK VINA RESULT:    -4.193      5.902      7.652
REMARK INTER + INTRA:          -4.315
REMARK INTER:                  -4.315
REMARK INTRA:                   0.000
REMARK UNBOUND:                 0.000
REMARK SMILES Nc1ncnc2nc[nH]c12
REMARK SMILES IDX 8 1 7 2 6 3 5 4 4 5 3 6 2 7 10 8 9 9 1 11
REMARK H PARENT 9 10 1 12 1 13
REMARK Flexibility Score: inf
ROOT
ATOM      1  C   UNL     1      15.453   0.331  10.360  1.00  0.00     0.199 A 
ATOM      2  N   UNL     1      14.092   0.334  10.301  1.00  0.00    -0.217 NA
ATOM      3  C   UNL     1      13.794  -0.952  10.544  1.00  0.00     0.182 A 
ATOM      4  N   UNL     1      12.555  -1.498  10.600  1.00  0.00    -0.215 NA
ATOM      5  C   UNL     1      12.450  -2.835  10.862  1.00  0.00     0.226 A 
ATOM      6  N   UNL     1      13.574  -3.596  11.063  1.00  0.00    -0.217 NA
ATOM      7  C   UNL     1      14.824  -3.048  11.007  1.00  0.00     0.152 A 
ATOM      8  C   UNL     1      14.914  -1.685  10.738  1.00  0.00     0.127 A 
ATOM      9  N   UNL     1      15.985  -0.889  10.626  1.00  0.00    -0.340 N 
ATOM     10  H   UNL     1      16.995  -1.135  10.718  1.00  0.00     0.168 HD
ENDROOT
BRANCH   7  11
ATOM     11  N   UNL     1      15.980  -3.860  11.218  1.00  0.00    -0.382 N 
ATOM     12  H   UNL     1      16.930  -3.429  11.205  1.00  0.00     0.158 HD
ATOM     13  H   UNL     1      15.900  -4.888  11.386  1.00  0.00     0.158 HD
ENDBRANCH   7  11
TORSDOF 1
ENDMDL
