MODEL 1
REMARK VINA RESULT:    12.166      0.000      0.000
REMARK INTER + INTRA:          16.072
REMARK INTER:                  16.078
REMARK INTRA:                  -0.006
REMARK UNBOUND:                -0.006
REMARK SMILES CC[C@@H](C=C[C@H](C)[C@@H]1CC[C@H]2[C@@H]3CC=C4C[C@H](O)CC[C@@]4(C)[C@@H]3CC[C@]21C)C(C)C
REMARK SMILES IDX 6 1 7 2 5 3 4 4 3 5 2 6 1 7 28 8 29 9 30 10 8 11 9 12 26 13
REMARK SMILES IDX 10 14 11 15 25 16 27 17 12 18 24 19 23 20 13 21 21 22 14 23
REMARK SMILES IDX 15 24 20 25 22 26 16 27 19 28 17 29 18 30
REMARK H PARENT 18 31
REMARK Flexibility Score: inf
ROOT
ATOM      1  C   UNL     1      78.376  35.404  52.123  1.00  0.00     0.012 C 
ATOM      2  C   UNL     1      79.313  36.125  53.121  1.00  0.00     0.012 C 
ENDROOT
BRANCH   1   3
ATOM      3  C   UNL     1      79.116  34.353  51.323  1.00  0.00    -0.028 C 
ATOM      4  C   UNL     1      80.452  34.379  51.161  1.00  0.00    -0.027 C 
BRANCH   4   5
ATOM      5  C   UNL     1      81.179  33.277  50.410  1.00  0.00     0.014 C 
BRANCH   5   6
ATOM      6  C   UNL     1      80.811  33.350  48.905  1.00  0.00     0.004 C 
ATOM      7  C   UNL     1      80.252  34.716  48.491  1.00  0.00     0.004 C 
ENDBRANCH   5   6
BRANCH   5   8
ATOM      8  C   UNL     1      80.841  31.890  51.032  1.00  0.00    -0.011 C 
ATOM      9  C   UNL     1      80.219  32.017  52.432  1.00  0.00     0.008 C 
ATOM     10  C   UNL     1      79.875  31.090  50.137  1.00  0.00     0.008 C 
ENDBRANCH   5   8
ENDBRANCH   4   5
ENDBRANCH   1   3
BRANCH   1  11
ATOM     11  C   UNL     1      77.031  34.858  52.731  1.00  0.00     0.002 C 
ATOM     12  C   UNL     1      77.179  33.397  53.194  1.00  0.00     0.005 C 
ATOM     13  C   UNL     1      75.678  34.941  51.912  1.00  0.00    -0.026 C 
ATOM     14  C   UNL     1      76.117  32.598  52.467  1.00  0.00     0.005 C 
ATOM     15  C   UNL     1      74.970  33.570  52.153  1.00  0.00    -0.001 C 
ATOM     16  C   UNL     1      74.775  36.125  52.374  1.00  0.00     0.007 C 
ATOM     17  C   UNL     1      75.896  35.107  50.386  1.00  0.00     0.012 C 
ATOM     18  C   UNL     1      73.869  33.556  53.266  1.00  0.00     0.000 C 
ATOM     19  C   UNL     1      74.206  36.020  53.805  1.00  0.00     0.005 C 
ATOM     20  C   UNL     1      74.130  34.581  54.391  1.00  0.00     0.003 C 
ATOM     21  C   UNL     1      72.455  33.760  52.691  1.00  0.00     0.031 C 
ATOM     22  C   UNL     1      73.086  34.430  55.572  1.00  0.00    -0.008 C 
ATOM     23  C   UNL     1      71.407  33.840  53.773  1.00  0.00    -0.027 C 
ATOM     24  C   UNL     1      71.665  34.213  55.046  1.00  0.00    -0.065 C 
ATOM     25  C   UNL     1      73.433  33.178  56.444  1.00  0.00     0.014 C 
ATOM     26  C   UNL     1      73.143  35.690  56.485  1.00  0.00     0.016 C 
ATOM     27  C   UNL     1      70.586  34.017  56.085  1.00  0.00     0.063 C 
ATOM     28  C   UNL     1      72.369  32.846  57.518  1.00  0.00     0.033 C 
ATOM     29  C   UNL     1      70.933  32.782  56.940  1.00  0.00     0.118 C 
BRANCH  29  30
ATOM     30  O   UNL     1      69.999  32.626  57.976  1.00  0.00    -0.393 OA
ATOM     31  H   UNL     1      69.104  32.829  57.606  1.00  0.00     0.210 HD
ENDBRANCH  29  30
ENDBRANCH   1  11
TORSDOF 6
ENDMDL
MODEL 2
REMARK VINA RESULT:    13.094      0.986      1.815
REMARK INTER + INTRA:          17.299
REMARK INTER:                  18.445
REMARK INTRA:                  -1.146
REMARK UNBOUND:                -0.006
REMARK SMILES CC[C@@H](C=C[C@H](C)[C@@H]1CC[C@H]2[C@@H]3CC=C4C[C@H](O)CC[C@@]4(C)[C@@H]3CC[C@]21C)C(C)C
REMARK SMILES IDX 6 1 7 2 5 3 4 4 3 5 2 6 1 7 28 8 29 9 30 10 8 11 9 12 26 13
REMARK SMILES IDX 10 14 11 15 25 16 27 17 12 18 24 19 23 20 13 21 21 22 14 23
REMARK SMILES IDX 15 24 20 25 22 26 16 27 19 28 17 29 18 30
REMARK H PARENT 18 31
REMARK Flexibility Score: inf
ROOT
ATOM      1  C   UNL     1      77.324  35.218  52.145  1.00  0.00     0.012 C 
ATOM      2  C   UNL     1      78.234  36.125  53.006  1.00  0.00     0.012 C 
ENDROOT
BRANCH   1   3
ATOM      3  C   UNL     1      78.112  34.112  51.476  1.00  0.00    -0.028 C 
ATOM      4  C   UNL     1      79.437  34.202  51.258  1.00  0.00    -0.027 C 
BRANCH   4   5
ATOM      5  C   UNL     1      80.217  33.052  50.644  1.00  0.00     0.014 C 
BRANCH   5   6
ATOM      6  C   UNL     1      81.162  32.443  51.712  1.00  0.00     0.004 C 
ATOM      7  C   UNL     1      81.606  33.459  52.769  1.00  0.00     0.004 C 
ENDBRANCH   5   6
BRANCH   5   8
ATOM      8  C   UNL     1      80.990  33.540  49.383  1.00  0.00    -0.011 C 
ATOM      9  C   UNL     1      80.848  32.568  48.200  1.00  0.00     0.008 C 
ATOM     10  C   UNL     1      80.511  34.934  48.932  1.00  0.00     0.008 C 
ENDBRANCH   5   8
ENDBRANCH   4   5
ENDBRANCH   1   3
BRANCH   1  11
ATOM     11  C   UNL     1      76.028  34.683  52.860  1.00  0.00     0.002 C 
ATOM     12  C   UNL     1      76.118  33.168  53.120  1.00  0.00     0.005 C 
ATOM     13  C   UNL     1      74.593  34.957  52.251  1.00  0.00    -0.026 C 
ATOM     14  C   UNL     1      74.911  32.539  52.453  1.00  0.00     0.005 C 
ATOM     15  C   UNL     1      73.814  33.613  52.418  1.00  0.00    -0.001 C 
ATOM     16  C   UNL     1      73.854  36.124  52.971  1.00  0.00     0.007 C 
ATOM     17  C   UNL     1      74.627  35.306  50.741  1.00  0.00     0.012 C 
ATOM     18  C   UNL     1      72.867  33.523  53.662  1.00  0.00     0.000 C 
ATOM     19  C   UNL     1      73.466  35.870  54.443  1.00  0.00     0.005 C 
ATOM     20  C   UNL     1      73.351  34.375  54.856  1.00  0.00     0.003 C 
ATOM     21  C   UNL     1      71.412  33.889  53.315  1.00  0.00     0.031 C 
ATOM     22  C   UNL     1      72.458  34.137  56.142  1.00  0.00    -0.008 C 
ATOM     23  C   UNL     1      70.520  33.893  54.531  1.00  0.00    -0.027 C 
ATOM     24  C   UNL     1      70.969  34.080  55.793  1.00  0.00    -0.065 C 
ATOM     25  C   UNL     1      72.813  32.763  56.801  1.00  0.00     0.014 C 
ATOM     26  C   UNL     1      72.730  35.262  57.184  1.00  0.00     0.016 C 
ATOM     27  C   UNL     1      70.018  33.819  56.938  1.00  0.00     0.063 C 
ATOM     28  C   UNL     1      71.872  32.362  57.962  1.00  0.00     0.033 C 
ATOM     29  C   UNL     1      70.373  32.464  57.582  1.00  0.00     0.118 C 
BRANCH  29  30
ATOM     30  O   UNL     1      69.570  32.233  58.710  1.00  0.00    -0.393 OA
ATOM     31  H   UNL     1      69.045  31.411  58.541  1.00  0.00     0.210 HD
ENDBRANCH  29  30
ENDBRANCH   1  11
TORSDOF 6
ENDMDL
