MODEL 1
REMARK VINA RESULT:    -5.457      0.000      0.000
REMARK INTER + INTRA:          -6.153
REMARK INTER:                  -6.095
REMARK INTRA:                  -0.058
REMARK UNBOUND:                -0.058
REMARK SMILES COc1cc2ccc(=O)oc2c(O)c1O
REMARK SMILES IDX 3 1 14 2 12 3 11 4 5 5 4 6 6 7 7 8 8 9 9 10 10 11 2 12 1 13
REMARK SMILES IDX 15 14 13 16
REMARK H PARENT 15 15 13 17
REMARK Flexibility Score: inf
ROOT
ATOM      1  C   UNL     1      80.081 -22.327 139.604  1.00  0.00     0.165 A 
ATOM      2  C   UNL     1      80.612 -21.634 140.710  1.00  0.00     0.204 A 
ATOM      3  C   UNL     1      81.809 -22.066 141.310  1.00  0.00     0.205 A 
ATOM      4  C   UNL     1      82.477 -23.190 140.808  1.00  0.00     0.184 A 
ATOM      5  C   UNL     1      81.949 -23.886 139.701  1.00  0.00     0.025 A 
ATOM      6  C   UNL     1      80.759 -23.457 139.104  1.00  0.00     0.062 A 
ATOM      7  C   UNL     1      82.641 -25.005 139.225  1.00  0.00     0.020 A 
ATOM      8  C   UNL     1      83.824 -25.397 139.851  1.00  0.00     0.094 A 
ATOM      9  C   UNL     1      84.288 -24.658 140.943  1.00  0.00     0.336 A 
ATOM     10  O   UNL     1      85.353 -24.996 141.522  1.00  0.00    -0.246 OA
ATOM     11  O   UNL     1      83.611 -23.599 141.376  1.00  0.00    -0.419 OA
ENDROOT
BRANCH   1  12
ATOM     12  O   UNL     1      78.884 -21.868 139.030  1.00  0.00    -0.493 OA
ATOM     13  C   UNL     1      78.701 -21.604 137.643  1.00  0.00     0.278 C 
ENDBRANCH   1  12
BRANCH   2  14
ATOM     14  O   UNL     1      79.959 -20.512 141.223  1.00  0.00    -0.502 OA
ATOM     15  H   UNL     1      79.034 -20.236 140.917  1.00  0.00     0.293 HD
ENDBRANCH   2  14
BRANCH   3  16
ATOM     16  O   UNL     1      82.347 -21.389 142.406  1.00  0.00    -0.502 OA
ATOM     17  H   UNL     1      82.788 -21.874 143.176  1.00  0.00     0.293 HD
ENDBRANCH   3  16
TORSDOF 3
ENDMDL
MODEL 2
REMARK VINA RESULT:    -5.216      1.414      2.168
REMARK INTER + INTRA:          -5.885
REMARK INTER:                  -5.835
REMARK INTRA:                  -0.050
REMARK UNBOUND:                -0.058
REMARK SMILES COc1cc2ccc(=O)oc2c(O)c1O
REMARK SMILES IDX 3 1 14 2 12 3 11 4 5 5 4 6 6 7 7 8 8 9 9 10 10 11 2 12 1 13
REMARK SMILES IDX 15 14 13 16
REMARK H PARENT 15 15 13 17
REMARK Flexibility Score: inf
ROOT
ATOM      1  C   UNL     1      79.824 -23.233 138.671  1.00  0.00     0.165 A 
ATOM      2  C   UNL     1      79.495 -22.103 139.447  1.00  0.00     0.204 A 
ATOM      3  C   UNL     1      80.383 -21.639 140.435  1.00  0.00     0.205 A 
ATOM      4  C   UNL     1      81.598 -22.300 140.650  1.00  0.00     0.184 A 
ATOM      5  C   UNL     1      81.931 -23.430 139.875  1.00  0.00     0.025 A 
ATOM      6  C   UNL     1      81.048 -23.893 138.892  1.00  0.00     0.062 A 
ATOM      7  C   UNL     1      83.153 -24.068 140.116  1.00  0.00     0.020 A 
ATOM      8  C   UNL     1      84.002 -23.573 141.105  1.00  0.00     0.094 A 
ATOM      9  C   UNL     1      83.606 -22.447 141.834  1.00  0.00     0.336 A 
ATOM     10  O   UNL     1      84.357 -21.985 142.731  1.00  0.00    -0.246 OA
ATOM     11  O   UNL     1      82.439 -21.860 141.585  1.00  0.00    -0.419 OA
ENDROOT
BRANCH   1  12
ATOM     12  O   UNL     1      78.914 -23.669 137.693  1.00  0.00    -0.493 OA
ATOM     13  C   UNL     1      78.908 -24.971 137.118  1.00  0.00     0.278 C 
ENDBRANCH   1  12
BRANCH   2  14
ATOM     14  O   UNL     1      78.287 -21.433 139.246  1.00  0.00    -0.502 OA
ATOM     15  H   UNL     1      78.244 -20.495 138.869  1.00  0.00     0.293 HD
ENDBRANCH   2  14
BRANCH   3  16
ATOM     16  O   UNL     1      80.070 -20.522 141.211  1.00  0.00    -0.502 OA
ATOM     17  H   UNL     1      80.579 -20.291 142.055  1.00  0.00     0.293 HD
ENDBRANCH   3  16
TORSDOF 3
ENDMDL
MODEL 3
REMARK VINA RESULT:    -5.195      4.496      7.544
REMARK INTER + INTRA:          -5.861
REMARK INTER:                  -5.810
REMARK INTRA:                  -0.051
REMARK UNBOUND:                -0.058
REMARK SMILES COc1cc2ccc(=O)oc2c(O)c1O
REMARK SMILES IDX 3 1 14 2 12 3 11 4 5 5 4 6 6 7 7 8 8 9 9 10 10 11 2 12 1 13
REMARK SMILES IDX 15 14 13 16
REMARK H PARENT 15 15 13 17
REMARK Flexibility Score: inf
ROOT
ATOM      1  C   UNL     1      76.204 -22.541 133.515  1.00  0.00     0.165 A 
ATOM      2  C   UNL     1      76.360 -23.922 133.748  1.00  0.00     0.204 A 
ATOM      3  C   UNL     1      77.070 -24.375 134.875  1.00  0.00     0.205 A 
ATOM      4  C   UNL     1      77.623 -23.452 135.771  1.00  0.00     0.184 A 
ATOM      5  C   UNL     1      77.469 -22.069 135.542  1.00  0.00     0.025 A 
ATOM      6  C   UNL     1      76.763 -21.618 134.421  1.00  0.00     0.062 A 
ATOM      7  C   UNL     1      78.035 -21.174 136.456  1.00  0.00     0.020 A 
ATOM      8  C   UNL     1      78.730 -21.668 137.560  1.00  0.00     0.094 A 
ATOM      9  C   UNL     1      78.842 -23.052 137.723  1.00  0.00     0.336 A 
ATOM     10  O   UNL     1      79.465 -23.519 138.712  1.00  0.00    -0.246 OA
ATOM     11  O   UNL     1      78.295 -23.881 136.839  1.00  0.00    -0.419 OA
ENDROOT
BRANCH   1  12
ATOM     12  O   UNL     1      75.490 -22.124 132.380  1.00  0.00    -0.493 OA
ATOM     13  C   UNL     1      75.706 -20.895 131.694  1.00  0.00     0.278 C 
ENDBRANCH   1  12
BRANCH   2  14
ATOM     14  O   UNL     1      75.815 -24.855 132.865  1.00  0.00    -0.502 OA
ATOM     15  H   UNL     1      76.287 -25.138 132.015  1.00  0.00     0.293 HD
ENDBRANCH   2  14
BRANCH   3  16
ATOM     16  O   UNL     1      77.232 -25.740 135.118  1.00  0.00    -0.502 OA
ATOM     17  H   UNL     1      77.560 -26.380 134.407  1.00  0.00     0.293 HD
ENDBRANCH   3  16
TORSDOF 3
ENDMDL
MODEL 4
REMARK VINA RESULT:    -5.130      1.660      5.216
REMARK INTER + INTRA:          -5.788
REMARK INTER:                  -5.738
REMARK INTRA:                  -0.050
REMARK UNBOUND:                -0.058
REMARK SMILES COc1cc2ccc(=O)oc2c(O)c1O
REMARK SMILES IDX 3 1 14 2 12 3 11 4 5 5 4 6 6 7 7 8 8 9 9 10 10 11 2 12 1 13
REMARK SMILES IDX 15 14 13 16
REMARK H PARENT 15 15 13 17
REMARK Flexibility Score: inf
ROOT
ATOM      1  C   UNL     1      83.186 -22.793 141.540  1.00  0.00     0.165 A 
ATOM      2  C   UNL     1      83.325 -23.778 140.542  1.00  0.00     0.204 A 
ATOM      3  C   UNL     1      82.327 -23.944 139.565  1.00  0.00     0.205 A 
ATOM      4  C   UNL     1      81.190 -23.128 139.582  1.00  0.00     0.184 A 
ATOM      5  C   UNL     1      81.046 -22.141 140.578  1.00  0.00     0.025 A 
ATOM      6  C   UNL     1      82.039 -21.975 141.551  1.00  0.00     0.062 A 
ATOM      7  C   UNL     1      79.897 -21.342 140.566  1.00  0.00     0.020 A 
ATOM      8  C   UNL     1      78.934 -21.542 139.577  1.00  0.00     0.094 A 
ATOM      9  C   UNL     1      79.144 -22.540 138.621  1.00  0.00     0.336 A 
ATOM     10  O   UNL     1      78.286 -22.736 137.721  1.00  0.00    -0.246 OA
ATOM     11  O   UNL     1      80.245 -23.285 138.655  1.00  0.00    -0.419 OA
ENDROOT
BRANCH   1  12
ATOM     12  O   UNL     1      84.202 -22.656 142.501  1.00  0.00    -0.493 OA
ATOM     13  C   UNL     1      84.030 -22.052 143.778  1.00  0.00     0.278 C 
ENDBRANCH   1  12
BRANCH   2  14
ATOM     14  O   UNL     1      84.453 -24.601 140.512  1.00  0.00    -0.502 OA
ATOM     15  H   UNL     1      85.391 -24.231 140.422  1.00  0.00     0.293 HD
ENDBRANCH   2  14
BRANCH   3  16
ATOM     16  O   UNL     1      82.452 -24.916 138.571  1.00  0.00    -0.502 OA
ATOM     17  H   UNL     1      83.341 -25.136 138.140  1.00  0.00     0.293 HD
ENDBRANCH   3  16
TORSDOF 3
ENDMDL
MODEL 5
REMARK VINA RESULT:    -5.127      0.985      4.725
REMARK INTER + INTRA:          -5.785
REMARK INTER:                  -5.721
REMARK INTRA:                  -0.064
REMARK UNBOUND:                -0.058
REMARK SMILES COc1cc2ccc(=O)oc2c(O)c1O
REMARK SMILES IDX 3 1 14 2 12 3 11 4 5 5 4 6 6 7 7 8 8 9 9 10 10 11 2 12 1 13
REMARK SMILES IDX 15 14 13 16
REMARK H PARENT 15 15 13 17
REMARK Flexibility Score: inf
ROOT
ATOM      1  C   UNL     1      82.421 -23.228 140.856  1.00  0.00     0.165 A 
ATOM      2  C   UNL     1      81.820 -22.064 141.377  1.00  0.00     0.204 A 
ATOM      3  C   UNL     1      80.597 -21.604 140.855  1.00  0.00     0.205 A 
ATOM      4  C   UNL     1      79.973 -22.303 139.816  1.00  0.00     0.184 A 
ATOM      5  C   UNL     1      80.570 -23.468 139.292  1.00  0.00     0.025 A 
ATOM      6  C   UNL     1      81.786 -23.927 139.810  1.00  0.00     0.062 A 
ATOM      7  C   UNL     1      79.919 -24.143 138.254  1.00  0.00     0.020 A 
ATOM      8  C   UNL     1      78.708 -23.650 137.769  1.00  0.00     0.094 A 
ATOM      9  C   UNL     1      78.175 -22.489 138.336  1.00  0.00     0.336 A 
ATOM     10  O   UNL     1      77.083 -22.028 137.913  1.00  0.00    -0.246 OA
ATOM     11  O   UNL     1      78.814 -21.867 139.323  1.00  0.00    -0.419 OA
ENDROOT
BRANCH   1  12
ATOM     12  O   UNL     1      83.642 -23.659 141.400  1.00  0.00    -0.493 OA
ATOM     13  C   UNL     1      84.864 -23.748 140.675  1.00  0.00     0.278 C 
ENDBRANCH   1  12
BRANCH   2  14
ATOM     14  O   UNL     1      82.431 -21.355 142.413  1.00  0.00    -0.502 OA
ATOM     15  H   UNL     1      82.927 -21.815 143.166  1.00  0.00     0.293 HD
ENDBRANCH   2  14
BRANCH   3  16
ATOM     16  O   UNL     1      79.992 -20.453 141.361  1.00  0.00    -0.502 OA
ATOM     17  H   UNL     1      80.235 -19.526 141.034  1.00  0.00     0.293 HD
ENDBRANCH   3  16
TORSDOF 3
ENDMDL
MODEL 6
REMARK VINA RESULT:    -5.098      1.878      4.616
REMARK INTER + INTRA:          -5.752
REMARK INTER:                  -5.717
REMARK INTRA:                  -0.035
REMARK UNBOUND:                -0.058
REMARK SMILES COc1cc2ccc(=O)oc2c(O)c1O
REMARK SMILES IDX 3 1 14 2 12 3 11 4 5 5 4 6 6 7 7 8 8 9 9 10 10 11 2 12 1 13
REMARK SMILES IDX 15 14 13 16
REMARK H PARENT 15 15 13 17
REMARK Flexibility Score: inf
ROOT
ATOM      1  C   UNL     1      81.455 -22.467 140.598  1.00  0.00     0.165 A 
ATOM      2  C   UNL     1      80.322 -21.644 140.438  1.00  0.00     0.204 A 
ATOM      3  C   UNL     1      79.320 -21.988 139.513  1.00  0.00     0.205 A 
ATOM      4  C   UNL     1      79.447 -23.151 138.745  1.00  0.00     0.184 A 
ATOM      5  C   UNL     1      80.578 -23.979 138.901  1.00  0.00     0.025 A 
ATOM      6  C   UNL     1      81.575 -23.637 139.822  1.00  0.00     0.062 A 
ATOM      7  C   UNL     1      80.673 -25.134 138.119  1.00  0.00     0.020 A 
ATOM      8  C   UNL     1      79.656 -25.436 137.214  1.00  0.00     0.094 A 
ATOM      9  C   UNL     1      78.563 -24.570 137.113  1.00  0.00     0.336 A 
ATOM     10  O   UNL     1      77.634 -24.823 136.302  1.00  0.00    -0.246 OA
ATOM     11  O   UNL     1      78.497 -23.477 137.869  1.00  0.00    -0.419 OA
ENDROOT
BRANCH   1  12
ATOM     12  O   UNL     1      82.436 -22.093 141.531  1.00  0.00    -0.493 OA
ATOM     13  C   UNL     1      82.400 -22.419 142.916  1.00  0.00     0.278 C 
ENDBRANCH   1  12
BRANCH   2  14
ATOM     14  O   UNL     1      80.181 -20.479 141.195  1.00  0.00    -0.502 OA
ATOM     15  H   UNL     1      80.964 -20.037 141.660  1.00  0.00     0.293 HD
ENDBRANCH   2  14
BRANCH   3  16
ATOM     16  O   UNL     1      78.193 -21.181 139.344  1.00  0.00    -0.502 OA
ATOM     17  H   UNL     1      77.703 -20.768 140.127  1.00  0.00     0.293 HD
ENDBRANCH   3  16
TORSDOF 3
ENDMDL
MODEL 7
REMARK VINA RESULT:    -5.051      1.243      1.801
REMARK INTER + INTRA:          -5.700
REMARK INTER:                  -5.631
REMARK INTRA:                  -0.069
REMARK UNBOUND:                -0.058
REMARK SMILES COc1cc2ccc(=O)oc2c(O)c1O
REMARK SMILES IDX 3 1 14 2 12 3 11 4 5 5 4 6 6 7 7 8 8 9 9 10 10 11 2 12 1 13
REMARK SMILES IDX 15 14 13 16
REMARK H PARENT 15 15 13 17
REMARK Flexibility Score: inf
ROOT
ATOM      1  C   UNL     1      78.794 -22.628 138.707  1.00  0.00     0.165 A 
ATOM      2  C   UNL     1      78.906 -21.620 139.685  1.00  0.00     0.204 A 
ATOM      3  C   UNL     1      80.057 -21.538 140.490  1.00  0.00     0.205 A 
ATOM      4  C   UNL     1      81.096 -22.460 140.321  1.00  0.00     0.184 A 
ATOM      5  C   UNL     1      80.989 -23.471 139.343  1.00  0.00     0.025 A 
ATOM      6  C   UNL     1      79.844 -23.553 138.542  1.00  0.00     0.062 A 
ATOM      7  C   UNL     1      82.045 -24.376 139.200  1.00  0.00     0.020 A 
ATOM      8  C   UNL     1      83.167 -24.257 140.020  1.00  0.00     0.094 A 
ATOM      9  C   UNL     1      83.204 -23.230 140.969  1.00  0.00     0.336 A 
ATOM     10  O   UNL     1      84.207 -23.105 141.719  1.00  0.00    -0.246 OA
ATOM     11  O   UNL     1      82.186 -22.382 141.084  1.00  0.00    -0.419 OA
ENDROOT
BRANCH   1  12
ATOM     12  O   UNL     1      77.631 -22.681 137.921  1.00  0.00    -0.493 OA
ATOM     13  C   UNL     1      77.537 -22.202 136.583  1.00  0.00     0.278 C 
ENDBRANCH   1  12
BRANCH   2  14
ATOM     14  O   UNL     1      77.878 -20.693 139.867  1.00  0.00    -0.502 OA
ATOM     15  H   UNL     1      77.010 -20.737 139.349  1.00  0.00     0.293 HD
ENDBRANCH   2  14
BRANCH   3  16
ATOM     16  O   UNL     1      80.181 -20.545 141.463  1.00  0.00    -0.502 OA
ATOM     17  H   UNL     1      79.588 -19.725 141.477  1.00  0.00     0.293 HD
ENDBRANCH   3  16
TORSDOF 3
ENDMDL
MODEL 8
REMARK VINA RESULT:    -5.024      7.325      9.136
REMARK INTER + INTRA:          -5.670
REMARK INTER:                  -5.602
REMARK INTRA:                  -0.069
REMARK UNBOUND:                -0.058
REMARK SMILES COc1cc2ccc(=O)oc2c(O)c1O
REMARK SMILES IDX 3 1 14 2 12 3 11 4 5 5 4 6 6 7 7 8 8 9 9 10 10 11 2 12 1 13
REMARK SMILES IDX 15 14 13 16
REMARK H PARENT 15 15 13 17
REMARK Flexibility Score: inf
ROOT
ATOM      1  C   UNL     1      75.721 -21.101 132.275  1.00  0.00     0.165 A 
ATOM      2  C   UNL     1      77.041 -21.585 132.177  1.00  0.00     0.204 A 
ATOM      3  C   UNL     1      77.523 -22.522 133.109  1.00  0.00     0.205 A 
ATOM      4  C   UNL     1      76.691 -22.978 134.138  1.00  0.00     0.184 A 
ATOM      5  C   UNL     1      75.369 -22.497 134.239  1.00  0.00     0.025 A 
ATOM      6  C   UNL     1      74.888 -21.565 133.313  1.00  0.00     0.062 A 
ATOM      7  C   UNL     1      74.563 -22.973 135.279  1.00  0.00     0.020 A 
ATOM      8  C   UNL     1      75.084 -23.902 136.180  1.00  0.00     0.094 A 
ATOM      9  C   UNL     1      76.403 -24.335 136.017  1.00  0.00     0.336 A 
ATOM     10  O   UNL     1      76.892 -25.172 136.819  1.00  0.00    -0.246 OA
ATOM     11  O   UNL     1      77.148 -23.866 135.020  1.00  0.00    -0.419 OA
ENDROOT
BRANCH   1  12
ATOM     12  O   UNL     1      75.272 -20.166 131.328  1.00  0.00    -0.493 OA
ATOM     13  C   UNL     1      75.074 -18.781 131.590  1.00  0.00     0.278 C 
ENDBRANCH   1  12
BRANCH   2  14
ATOM     14  O   UNL     1      77.884 -21.140 131.157  1.00  0.00    -0.502 OA
ATOM     15  H   UNL     1      77.608 -20.422 130.500  1.00  0.00     0.293 HD
ENDBRANCH   2  14
BRANCH   3  16
ATOM     16  O   UNL     1      78.828 -23.009 133.024  1.00  0.00    -0.502 OA
ATOM     17  H   UNL     1      79.081 -23.775 132.412  1.00  0.00     0.293 HD
ENDBRANCH   3  16
TORSDOF 3
ENDMDL
MODEL 9
REMARK VINA RESULT:    -4.938      1.941      4.674
REMARK INTER + INTRA:          -5.574
REMARK INTER:                  -5.506
REMARK INTRA:                  -0.067
REMARK UNBOUND:                -0.058
REMARK SMILES COc1cc2ccc(=O)oc2c(O)c1O
REMARK SMILES IDX 3 1 14 2 12 3 11 4 5 5 4 6 6 7 7 8 8 9 9 10 10 11 2 12 1 13
REMARK SMILES IDX 15 14 13 16
REMARK H PARENT 15 15 13 17
REMARK Flexibility Score: inf
ROOT
ATOM      1  C   UNL     1      84.906 -23.157 142.366  1.00  0.00     0.165 A 
ATOM      2  C   UNL     1      83.897 -22.199 142.595  1.00  0.00     0.204 A 
ATOM      3  C   UNL     1      82.718 -22.213 141.827  1.00  0.00     0.205 A 
ATOM      4  C   UNL     1      82.545 -23.180 140.830  1.00  0.00     0.184 A 
ATOM      5  C   UNL     1      83.551 -24.140 140.597  1.00  0.00     0.025 A 
ATOM      6  C   UNL     1      84.724 -24.127 141.361  1.00  0.00     0.062 A 
ATOM      7  C   UNL     1      83.345 -25.093 139.593  1.00  0.00     0.020 A 
ATOM      8  C   UNL     1      82.161 -25.068 138.857  1.00  0.00     0.094 A 
ATOM      9  C   UNL     1      81.207 -24.087 139.143  1.00  0.00     0.336 A 
ATOM     10  O   UNL     1      80.132 -24.048 138.490  1.00  0.00    -0.246 OA
ATOM     11  O   UNL     1      81.428 -23.193 140.103  1.00  0.00    -0.419 OA
ENDROOT
BRANCH   1  12
ATOM     12  O   UNL     1      86.069 -23.113 143.151  1.00  0.00    -0.493 OA
ATOM     13  C   UNL     1      87.282 -22.475 142.765  1.00  0.00     0.278 C 
ENDBRANCH   1  12
BRANCH   2  14
ATOM     14  O   UNL     1      84.055 -21.228 143.585  1.00  0.00    -0.502 OA
ATOM     15  H   UNL     1      83.809 -21.394 144.553  1.00  0.00     0.293 HD
ENDBRANCH   2  14
BRANCH   3  16
ATOM     16  O   UNL     1      81.712 -21.271 142.043  1.00  0.00    -0.502 OA
ATOM     17  H   UNL     1      81.146 -21.268 142.882  1.00  0.00     0.293 HD
ENDBRANCH   3  16
TORSDOF 3
ENDMDL
