MODEL 1
REMARK VINA RESULT:    -8.239      0.000      0.000
REMARK INTER + INTRA:         -15.674
REMARK INTER:                 -13.537
REMARK INTRA:                  -2.137
REMARK UNBOUND:                -2.137
REMARK SMILES C[C@H]1O[C@H](OC[C@@H]2O[C@H](Oc3c(-c4ccc(O)c(O)c4)oc4cc(O)cc(O)c4c3=O)[C@H](O)[C@H](O)[C@H]2O)[C@H](O)[C@H](O)[C@@H]1O
REMARK SMILES IDX 7 1 36 2 34 3 32 4 9 5 8 6 6 7 5 8 4 9 1 10 2 11 42 12 3 13
REMARK SMILES IDX 40 14 38 15 43 16 41 18 39 20 37 22 35 24 10 26 11 27 12 28
REMARK SMILES IDX 30 29 21 30 29 31 31 32 22 33 27 34 23 35 26 36 24 37 13 38
REMARK SMILES IDX 20 39 14 40 18 41 15 42 16 43 19 44 17 46 28 48 25 50 33 52
REMARK H PARENT 43 17 41 19 39 21 37 23 35 25 19 45 17 47 28 49 25 51 33 53
REMARK Flexibility Score: inf
ROOT
ATOM      1  C   UNL     1       2.121 -41.240 -35.582  1.00  0.00     0.180 C 
ATOM      2  C   UNL     1       2.336 -39.755 -35.359  1.00  0.00     0.177 C 
ATOM      3  C   UNL     1       0.992 -38.935 -35.472  1.00  0.00     0.180 C 
ATOM      4  C   UNL     1      -0.312 -39.844 -35.437  1.00  0.00     0.214 C 
ATOM      5  C   UNL     1      -0.178 -41.270 -34.733  1.00  0.00     0.339 C 
ATOM      6  O   UNL     1       1.189 -41.736 -34.616  1.00  0.00    -0.332 OA
ENDROOT
BRANCH   1   7
ATOM      7  C   UNL     1       1.801 -41.828 -37.063  1.00  0.00     0.198 C 
BRANCH   7   8
ATOM      8  O   UNL     1       2.862 -41.666 -38.071  1.00  0.00    -0.347 OA
BRANCH   8   9
ATOM      9  C   UNL     1       3.324 -42.789 -38.947  1.00  0.00     0.281 C 
ATOM     10  C   UNL     1       4.124 -46.054 -38.871  1.00  0.00     0.041 C 
ATOM     11  C   UNL     1       3.173 -45.088 -39.685  1.00  0.00     0.150 C 
ATOM     12  C   UNL     1       3.897 -44.701 -41.005  1.00  0.00     0.174 C 
ATOM     13  O   UNL     1       2.556 -43.991 -38.931  1.00  0.00    -0.344 OA
ATOM     14  C   UNL     1       3.405 -43.344 -41.508  1.00  0.00     0.179 C 
ATOM     15  C   UNL     1       3.649 -42.313 -40.443  1.00  0.00     0.202 C 
BRANCH  12  16
ATOM     16  O   UNL     1       3.712 -45.691 -42.011  1.00  0.00    -0.388 OA
ATOM     17  H   UNL     1       2.969 -45.390 -42.605  1.00  0.00     0.211 HD
ENDBRANCH  12  16
BRANCH  14  18
ATOM     18  O   UNL     1       2.036 -43.360 -41.832  1.00  0.00    -0.387 OA
ATOM     19  H   UNL     1       1.989 -42.607 -42.532  1.00  0.00     0.211 HD
ENDBRANCH  14  18
BRANCH  15  20
ATOM     20  O   UNL     1       2.952 -41.172 -40.878  1.00  0.00    -0.385 OA
ATOM     21  H   UNL     1       3.351 -40.440 -40.338  1.00  0.00     0.211 HD
ENDBRANCH  15  20
ENDBRANCH   8   9
ENDBRANCH   7   8
ENDBRANCH   1   7
BRANCH   2  22
ATOM     22  O   UNL     1       2.927 -39.515 -34.075  1.00  0.00    -0.387 OA
ATOM     23  H   UNL     1       3.832 -39.953 -34.066  1.00  0.00     0.211 HD
ENDBRANCH   2  22
BRANCH   3  24
ATOM     24  O   UNL     1       0.955 -38.044 -36.582  1.00  0.00    -0.387 OA
ATOM     25  H   UNL     1       1.200 -38.532 -37.416  1.00  0.00     0.211 HD
ENDBRANCH   3  24
BRANCH   5  26
ATOM     26  O   UNL     1      -0.871 -42.300 -35.432  1.00  0.00    -0.454 OA
BRANCH  26  27
ATOM     27  C   UNL     1      -0.944 -43.714 -35.189  1.00  0.00     0.214 A 
ATOM     28  C   UNL     1      -1.648 -44.138 -34.041  1.00  0.00     0.180 A 
ATOM     29  C   UNL     1      -0.416 -44.721 -36.018  1.00  0.00     0.239 A 
ATOM     30  O   UNL     1      -1.467 -45.341 -33.500  1.00  0.00    -0.452 OA
ATOM     31  C   UNL     1      -0.291 -46.033 -35.479  1.00  0.00     0.111 A 
ATOM     32  O   UNL     1      -0.261 -44.458 -37.215  1.00  0.00    -0.285 OA
ATOM     33  C   UNL     1      -0.747 -46.276 -34.152  1.00  0.00     0.146 A 
ATOM     34  C   UNL     1       0.300 -47.098 -36.212  1.00  0.00     0.134 A 
ATOM     35  C   UNL     1      -0.430 -47.493 -33.528  1.00  0.00     0.094 A 
ATOM     36  C   UNL     1       0.556 -48.333 -35.568  1.00  0.00     0.093 A 
ATOM     37  C   UNL     1       0.314 -48.467 -34.205  1.00  0.00     0.123 A 
BRANCH  28  38
ATOM     38  C   UNL     1      -2.823 -43.342 -33.727  1.00  0.00     0.025 A 
ATOM     39  C   UNL     1      -3.970 -43.517 -34.460  1.00  0.00     0.062 A 
ATOM     40  C   UNL     1      -2.899 -42.834 -32.397  1.00  0.00     0.016 A 
ATOM     41  C   UNL     1      -5.239 -43.430 -33.845  1.00  0.00     0.158 A 
ATOM     42  C   UNL     1      -4.132 -42.722 -31.732  1.00  0.00     0.051 A 
ATOM     43  C   UNL     1      -5.296 -43.042 -32.482  1.00  0.00     0.157 A 
BRANCH  41  44
ATOM     44  O   UNL     1      -6.361 -43.944 -34.492  1.00  0.00    -0.504 OA
ATOM     45  H   UNL     1      -6.999 -43.310 -35.064  1.00  0.00     0.293 HD
ENDBRANCH  41  44
BRANCH  43  46
ATOM     46  O   UNL     1      -6.529 -43.218 -31.885  1.00  0.00    -0.504 OA
ATOM     47  H   UNL     1      -6.614 -43.506 -30.904  1.00  0.00     0.293 HD
ENDBRANCH  43  46
ENDBRANCH  28  38
BRANCH  34  48
ATOM     48  O   UNL     1       0.955 -46.794 -37.376  1.00  0.00    -0.507 OA
ATOM     49  H   UNL     1       0.419 -46.278 -38.122  1.00  0.00     0.293 HD
ENDBRANCH  34  48
BRANCH  37  50
ATOM     50  O   UNL     1       0.976 -49.460 -33.454  1.00  0.00    -0.508 OA
ATOM     51  H   UNL     1       0.894 -50.415 -33.786  1.00  0.00     0.293 HD
ENDBRANCH  37  50
ENDBRANCH  26  27
ENDBRANCH   5  26
BRANCH   4  52
ATOM     52  O   UNL     1      -0.698 -39.992 -36.770  1.00  0.00    -0.384 OA
ATOM     53  H   UNL     1       0.004 -39.519 -37.358  1.00  0.00     0.211 HD
ENDBRANCH   4  52
TORSDOF 16
ENDMDL
MODEL 2
REMARK VINA RESULT:    -7.818      2.615      7.473
REMARK INTER + INTRA:         -14.983
REMARK INTER:                 -11.151
REMARK INTRA:                  -3.832
REMARK UNBOUND:                -2.137
REMARK SMILES C[C@H]1O[C@H](OC[C@@H]2O[C@H](Oc3c(-c4ccc(O)c(O)c4)oc4cc(O)cc(O)c4c3=O)[C@H](O)[C@H](O)[C@H]2O)[C@H](O)[C@H](O)[C@@H]1O
REMARK SMILES IDX 7 1 36 2 34 3 32 4 9 5 8 6 6 7 5 8 4 9 1 10 2 11 42 12 3 13
REMARK SMILES IDX 40 14 38 15 43 16 41 18 39 20 37 22 35 24 10 26 11 27 12 28
REMARK SMILES IDX 30 29 21 30 29 31 31 32 22 33 27 34 23 35 26 36 24 37 13 38
REMARK SMILES IDX 20 39 14 40 18 41 15 42 16 43 19 44 17 46 28 48 25 50 33 52
REMARK H PARENT 43 17 41 19 39 21 37 23 35 25 19 45 17 47 28 49 25 51 33 53
REMARK Flexibility Score: inf
ROOT
ATOM      1  C   UNL     1      -4.544 -43.943 -33.003  1.00  0.00     0.180 C 
ATOM      2  C   UNL     1      -5.694 -42.954 -33.039  1.00  0.00     0.177 C 
ATOM      3  C   UNL     1      -5.242 -41.533 -33.554  1.00  0.00     0.180 C 
ATOM      4  C   UNL     1      -3.808 -41.532 -34.243  1.00  0.00     0.214 C 
ATOM      5  C   UNL     1      -3.301 -42.918 -34.850  1.00  0.00     0.339 C 
ATOM      6  O   UNL     1      -3.988 -44.076 -34.314  1.00  0.00    -0.332 OA
ENDROOT
BRANCH   1   7
ATOM      7  C   UNL     1      -3.376 -43.827 -31.879  1.00  0.00     0.198 C 
BRANCH   7   8
ATOM      8  O   UNL     1      -3.474 -42.689 -30.951  1.00  0.00    -0.347 OA
BRANCH   8   9
ATOM      9  C   UNL     1      -2.272 -42.038 -30.339  1.00  0.00     0.281 C 
ATOM     10  C   UNL     1       0.875 -42.679 -29.347  1.00  0.00     0.041 C 
ATOM     11  C   UNL     1       0.115 -41.651 -30.276  1.00  0.00     0.150 C 
ATOM     12  C   UNL     1      -0.128 -40.352 -29.458  1.00  0.00     0.174 C 
ATOM     13  O   UNL     1      -1.031 -42.174 -31.029  1.00  0.00    -0.344 OA
ATOM     14  C   UNL     1      -1.354 -39.607 -29.986  1.00  0.00     0.179 C 
ATOM     15  C   UNL     1      -2.546 -40.517 -29.907  1.00  0.00     0.202 C 
BRANCH  12  16
ATOM     16  O   UNL     1       1.011 -39.497 -29.487  1.00  0.00    -0.388 OA
ATOM     17  H   UNL     1       1.763 -40.000 -29.907  1.00  0.00     0.211 HD
ENDBRANCH  12  16
BRANCH  14  18
ATOM     18  O   UNL     1      -1.186 -39.178 -31.315  1.00  0.00    -0.387 OA
ATOM     19  H   UNL     1      -0.696 -39.985 -31.725  1.00  0.00     0.211 HD
ENDBRANCH  14  18
BRANCH  15  20
ATOM     20  O   UNL     1      -3.555 -39.856 -30.630  1.00  0.00    -0.385 OA
ATOM     21  H   UNL     1      -4.360 -39.975 -30.061  1.00  0.00     0.211 HD
ENDBRANCH  15  20
ENDBRANCH   8   9
ENDBRANCH   7   8
ENDBRANCH   1   7
BRANCH   2  22
ATOM     22  O   UNL     1      -6.754 -43.440 -33.874  1.00  0.00    -0.387 OA
ATOM     23  H   UNL     1      -6.709 -42.946 -34.748  1.00  0.00     0.211 HD
ENDBRANCH   2  22
BRANCH   3  24
ATOM     24  O   UNL     1      -5.324 -40.511 -32.566  1.00  0.00    -0.387 OA
ATOM     25  H   UNL     1      -5.612 -39.654 -32.988  1.00  0.00     0.211 HD
ENDBRANCH   3  24
BRANCH   5  26
ATOM     26  O   UNL     1      -1.917 -43.155 -34.607  1.00  0.00    -0.454 OA
BRANCH  26  27
ATOM     27  C   UNL     1      -0.956 -43.937 -35.334  1.00  0.00     0.214 A 
ATOM     28  C   UNL     1      -0.314 -43.318 -36.430  1.00  0.00     0.180 A 
ATOM     29  C   UNL     1      -0.560 -45.251 -35.027  1.00  0.00     0.239 A 
ATOM     30  O   UNL     1       0.278 -44.018 -37.394  1.00  0.00    -0.452 OA
ATOM     31  C   UNL     1       0.147 -45.986 -36.020  1.00  0.00     0.111 A 
ATOM     32  O   UNL     1      -0.684 -45.631 -33.857  1.00  0.00    -0.285 OA
ATOM     33  C   UNL     1       0.461 -45.346 -37.253  1.00  0.00     0.146 A 
ATOM     34  C   UNL     1       0.522 -47.345 -35.832  1.00  0.00     0.134 A 
ATOM     35  C   UNL     1       0.952 -46.114 -38.321  1.00  0.00     0.094 A 
ATOM     36  C   UNL     1       1.067 -48.076 -36.915  1.00  0.00     0.093 A 
ATOM     37  C   UNL     1       1.147 -47.493 -38.174  1.00  0.00     0.123 A 
BRANCH  28  38
ATOM     38  C   UNL     1      -0.024 -41.907 -36.239  1.00  0.00     0.025 A 
ATOM     39  C   UNL     1      -0.868 -40.967 -36.776  1.00  0.00     0.062 A 
ATOM     40  C   UNL     1       0.776 -41.579 -35.105  1.00  0.00     0.016 A 
ATOM     41  C   UNL     1      -1.137 -39.762 -36.088  1.00  0.00     0.158 A 
ATOM     42  C   UNL     1       0.559 -40.394 -34.381  1.00  0.00     0.051 A 
ATOM     43  C   UNL     1      -0.422 -39.502 -34.891  1.00  0.00     0.157 A 
BRANCH  41  44
ATOM     44  O   UNL     1      -2.236 -38.987 -36.450  1.00  0.00    -0.504 OA
ATOM     45  H   UNL     1      -2.106 -37.996 -36.823  1.00  0.00     0.293 HD
ENDBRANCH  41  44
BRANCH  43  46
ATOM     46  O   UNL     1      -0.908 -38.442 -34.151  1.00  0.00    -0.504 OA
ATOM     47  H   UNL     1      -0.286 -37.706 -33.796  1.00  0.00     0.293 HD
ENDBRANCH  43  46
ENDBRANCH  28  38
BRANCH  34  48
ATOM     48  O   UNL     1      -0.002 -48.014 -34.758  1.00  0.00    -0.507 OA
ATOM     49  H   UNL     1       0.509 -47.947 -33.839  1.00  0.00     0.293 HD
ENDBRANCH  34  48
BRANCH  37  50
ATOM     50  O   UNL     1       1.219 -48.295 -39.332  1.00  0.00    -0.508 OA
ATOM     51  H   UNL     1       1.801 -49.124 -39.279  1.00  0.00     0.293 HD
ENDBRANCH  37  50
ENDBRANCH  26  27
ENDBRANCH   5  26
BRANCH   4  52
ATOM     52  O   UNL     1      -2.925 -41.074 -33.265  1.00  0.00    -0.384 OA
ATOM     53  H   UNL     1      -3.108 -41.604 -32.400  1.00  0.00     0.211 HD
ENDBRANCH   4  52
TORSDOF 16
ENDMDL
MODEL 3
REMARK VINA RESULT:    -7.806      2.673      8.475
REMARK INTER + INTRA:         -14.962
REMARK INTER:                 -11.745
REMARK INTRA:                  -3.217
REMARK UNBOUND:                -2.137
REMARK SMILES C[C@H]1O[C@H](OC[C@@H]2O[C@H](Oc3c(-c4ccc(O)c(O)c4)oc4cc(O)cc(O)c4c3=O)[C@H](O)[C@H](O)[C@H]2O)[C@H](O)[C@H](O)[C@@H]1O
REMARK SMILES IDX 7 1 36 2 34 3 32 4 9 5 8 6 6 7 5 8 4 9 1 10 2 11 42 12 3 13
REMARK SMILES IDX 40 14 38 15 43 16 41 18 39 20 37 22 35 24 10 26 11 27 12 28
REMARK SMILES IDX 30 29 21 30 29 31 31 32 22 33 27 34 23 35 26 36 24 37 13 38
REMARK SMILES IDX 20 39 14 40 18 41 15 42 16 43 19 44 17 46 28 48 25 50 33 52
REMARK H PARENT 43 17 41 19 39 21 37 23 35 25 19 45 17 47 28 49 25 51 33 53
REMARK Flexibility Score: inf
ROOT
ATOM      1  C   UNL     1      -4.497 -43.653 -32.679  1.00  0.00     0.180 C 
ATOM      2  C   UNL     1      -5.680 -42.717 -32.837  1.00  0.00     0.177 C 
ATOM      3  C   UNL     1      -5.290 -41.383 -33.585  1.00  0.00     0.180 C 
ATOM      4  C   UNL     1      -3.876 -41.451 -34.311  1.00  0.00     0.214 C 
ATOM      5  C   UNL     1      -3.339 -42.902 -34.704  1.00  0.00     0.339 C 
ATOM      6  O   UNL     1      -3.972 -43.978 -33.970  1.00  0.00    -0.332 OA
ENDROOT
BRANCH   1   7
ATOM      7  C   UNL     1      -3.303 -43.325 -31.626  1.00  0.00     0.198 C 
BRANCH   7   8
ATOM      8  O   UNL     1      -3.715 -43.056 -30.238  1.00  0.00    -0.347 OA
BRANCH   8   9
ATOM      9  C   UNL     1      -3.840 -41.669 -29.687  1.00  0.00     0.281 C 
ATOM     10  C   UNL     1      -2.105 -38.825 -29.242  1.00  0.00     0.041 C 
ATOM     11  C   UNL     1      -3.480 -39.284 -29.872  1.00  0.00     0.150 C 
ATOM     12  C   UNL     1      -4.596 -39.044 -28.817  1.00  0.00     0.174 C 
ATOM     13  O   UNL     1      -3.486 -40.587 -30.546  1.00  0.00    -0.344 OA
ATOM     14  C   UNL     1      -5.762 -40.005 -29.044  1.00  0.00     0.179 C 
ATOM     15  C   UNL     1      -5.252 -41.416 -28.967  1.00  0.00     0.202 C 
BRANCH  12  16
ATOM     16  O   UNL     1      -5.061 -37.698 -28.848  1.00  0.00    -0.388 OA
ATOM     17  H   UNL     1      -5.623 -37.585 -29.664  1.00  0.00     0.211 HD
ENDBRANCH  12  16
BRANCH  14  18
ATOM     18  O   UNL     1      -6.385 -39.805 -30.289  1.00  0.00    -0.387 OA
ATOM     19  H   UNL     1      -6.857 -40.711 -30.423  1.00  0.00     0.211 HD
ENDBRANCH  14  18
BRANCH  15  20
ATOM     20  O   UNL     1      -6.316 -42.212 -29.427  1.00  0.00    -0.385 OA
ATOM     21  H   UNL     1      -6.279 -42.095 -30.413  1.00  0.00     0.211 HD
ENDBRANCH  15  20
ENDBRANCH   8   9
ENDBRANCH   7   8
ENDBRANCH   1   7
BRANCH   2  22
ATOM     22  O   UNL     1      -6.745 -43.361 -33.549  1.00  0.00    -0.387 OA
ATOM     23  H   UNL     1      -7.503 -43.506 -32.904  1.00  0.00     0.211 HD
ENDBRANCH   2  22
BRANCH   3  24
ATOM     24  O   UNL     1      -5.381 -40.220 -32.770  1.00  0.00    -0.387 OA
ATOM     25  H   UNL     1      -5.401 -40.481 -31.807  1.00  0.00     0.211 HD
ENDBRANCH   3  24
BRANCH   5  26
ATOM     26  O   UNL     1      -1.941 -43.056 -34.471  1.00  0.00    -0.454 OA
BRANCH  26  27
ATOM     27  C   UNL     1      -0.964 -43.876 -35.131  1.00  0.00     0.214 A 
ATOM     28  C   UNL     1      -0.313 -43.327 -36.258  1.00  0.00     0.180 A 
ATOM     29  C   UNL     1      -0.561 -45.162 -34.730  1.00  0.00     0.239 A 
ATOM     30  O   UNL     1       0.299 -44.086 -37.164  1.00  0.00    -0.452 OA
ATOM     31  C   UNL     1       0.166 -45.956 -35.661  1.00  0.00     0.111 A 
ATOM     32  O   UNL     1      -0.698 -45.463 -33.538  1.00  0.00    -0.285 OA
ATOM     33  C   UNL     1       0.491 -45.400 -36.931  1.00  0.00     0.146 A 
ATOM     34  C   UNL     1       0.550 -47.295 -35.376  1.00  0.00     0.134 A 
ATOM     35  C   UNL     1       1.003 -46.234 -37.937  1.00  0.00     0.094 A 
ATOM     36  C   UNL     1       1.116 -48.094 -36.399  1.00  0.00     0.093 A 
ATOM     37  C   UNL     1       1.208 -47.598 -37.694  1.00  0.00     0.123 A 
BRANCH  28  38
ATOM     38  C   UNL     1      -0.038 -41.903 -36.160  1.00  0.00     0.025 A 
ATOM     39  C   UNL     1      -0.879 -41.011 -36.775  1.00  0.00     0.062 A 
ATOM     40  C   UNL     1       0.740 -41.491 -35.038  1.00  0.00     0.016 A 
ATOM     41  C   UNL     1      -1.170 -39.764 -36.177  1.00  0.00     0.158 A 
ATOM     42  C   UNL     1       0.500 -40.261 -34.401  1.00  0.00     0.051 A 
ATOM     43  C   UNL     1      -0.479 -39.415 -34.989  1.00  0.00     0.157 A 
BRANCH  41  44
ATOM     44  O   UNL     1      -2.269 -39.026 -36.611  1.00  0.00    -0.504 OA
ATOM     45  H   UNL     1      -3.208 -39.099 -36.111  1.00  0.00     0.293 HD
ENDBRANCH  41  44
BRANCH  43  46
ATOM     46  O   UNL     1      -0.986 -38.311 -34.332  1.00  0.00    -0.504 OA
ATOM     47  H   UNL     1      -1.842 -38.368 -33.767  1.00  0.00     0.293 HD
ENDBRANCH  43  46
ENDBRANCH  28  38
BRANCH  34  48
ATOM     48  O   UNL     1       0.018 -47.895 -34.265  1.00  0.00    -0.507 OA
ATOM     49  H   UNL     1      -0.434 -48.839 -34.384  1.00  0.00     0.293 HD
ENDBRANCH  34  48
BRANCH  37  50
ATOM     50  O   UNL     1       1.303 -48.476 -38.793  1.00  0.00    -0.508 OA
ATOM     51  H   UNL     1       0.431 -48.828 -39.174  1.00  0.00     0.293 HD
ENDBRANCH  37  50
ENDBRANCH  26  27
ENDBRANCH   5  26
BRANCH   4  52
ATOM     52  O   UNL     1      -2.984 -40.817 -33.446  1.00  0.00    -0.384 OA
ATOM     53  H   UNL     1      -2.030 -41.114 -33.702  1.00  0.00     0.211 HD
ENDBRANCH   4  52
TORSDOF 16
ENDMDL
MODEL 4
REMARK VINA RESULT:    -7.488      1.156      4.683
REMARK INTER + INTRA:         -14.441
REMARK INTER:                 -12.602
REMARK INTRA:                  -1.839
REMARK UNBOUND:                -2.137
REMARK SMILES C[C@H]1O[C@H](OC[C@@H]2O[C@H](Oc3c(-c4ccc(O)c(O)c4)oc4cc(O)cc(O)c4c3=O)[C@H](O)[C@H](O)[C@H]2O)[C@H](O)[C@H](O)[C@@H]1O
REMARK SMILES IDX 7 1 36 2 34 3 32 4 9 5 8 6 6 7 5 8 4 9 1 10 2 11 42 12 3 13
REMARK SMILES IDX 40 14 38 15 43 16 41 18 39 20 37 22 35 24 10 26 11 27 12 28
REMARK SMILES IDX 30 29 21 30 29 31 31 32 22 33 27 34 23 35 26 36 24 37 13 38
REMARK SMILES IDX 20 39 14 40 18 41 15 42 16 43 19 44 17 46 28 48 25 50 33 52
REMARK H PARENT 43 17 41 19 39 21 37 23 35 25 19 45 17 47 28 49 25 51 33 53
REMARK Flexibility Score: inf
ROOT
ATOM      1  C   UNL     1       2.582 -40.688 -35.765  1.00  0.00     0.180 C 
ATOM      2  C   UNL     1       2.372 -39.217 -36.069  1.00  0.00     0.177 C 
ATOM      3  C   UNL     1       0.852 -38.801 -35.978  1.00  0.00     0.180 C 
ATOM      4  C   UNL     1      -0.063 -39.887 -35.261  1.00  0.00     0.214 C 
ATOM      5  C   UNL     1       0.664 -40.887 -34.252  1.00  0.00     0.339 C 
ATOM      6  O   UNL     1       2.096 -40.977 -34.450  1.00  0.00    -0.332 OA
ENDROOT
BRANCH   1   7
ATOM      7  C   UNL     1       2.130 -41.836 -36.823  1.00  0.00     0.198 C 
BRANCH   7   8
ATOM      8  O   UNL     1       2.614 -41.676 -38.204  1.00  0.00    -0.347 OA
BRANCH   8   9
ATOM      9  C   UNL     1       3.116 -42.824 -39.024  1.00  0.00     0.281 C 
ATOM     10  C   UNL     1       3.834 -46.103 -38.835  1.00  0.00     0.041 C 
ATOM     11  C   UNL     1       2.970 -45.132 -39.735  1.00  0.00     0.150 C 
ATOM     12  C   UNL     1       3.801 -44.783 -41.001  1.00  0.00     0.174 C 
ATOM     13  O   UNL     1       2.322 -44.009 -39.048  1.00  0.00    -0.344 OA
ATOM     14  C   UNL     1       3.379 -43.426 -41.562  1.00  0.00     0.179 C 
ATOM     15  C   UNL     1       3.564 -42.381 -40.499  1.00  0.00     0.202 C 
BRANCH  12  16
ATOM     16  O   UNL     1       3.670 -45.787 -42.003  1.00  0.00    -0.388 OA
ATOM     17  H   UNL     1       2.934 -45.513 -42.619  1.00  0.00     0.211 HD
ENDBRANCH  12  16
BRANCH  14  18
ATOM     18  O   UNL     1       2.038 -43.418 -41.989  1.00  0.00    -0.387 OA
ATOM     19  H   UNL     1       2.131 -43.795 -42.943  1.00  0.00     0.211 HD
ENDBRANCH  14  18
BRANCH  15  20
ATOM     20  O   UNL     1       2.929 -41.233 -41.004  1.00  0.00    -0.385 OA
ATOM     21  H   UNL     1       3.476 -40.489 -40.639  1.00  0.00     0.211 HD
ENDBRANCH  15  20
ENDBRANCH   8   9
ENDBRANCH   7   8
ENDBRANCH   1   7
BRANCH   2  22
ATOM     22  O   UNL     1       3.137 -38.400 -35.173  1.00  0.00    -0.387 OA
ATOM     23  H   UNL     1       2.650 -37.527 -35.061  1.00  0.00     0.211 HD
ENDBRANCH   2  22
BRANCH   3  24
ATOM     24  O   UNL     1       0.287 -38.414 -37.227  1.00  0.00    -0.387 OA
ATOM     25  H   UNL     1      -0.476 -37.790 -37.074  1.00  0.00     0.211 HD
ENDBRANCH   3  24
BRANCH   5  26
ATOM     26  O   UNL     1       0.184 -42.225 -34.357  1.00  0.00    -0.454 OA
BRANCH  26  27
ATOM     27  C   UNL     1      -1.086 -42.797 -34.005  1.00  0.00     0.214 A 
ATOM     28  C   UNL     1      -1.482 -43.965 -34.692  1.00  0.00     0.180 A 
ATOM     29  C   UNL     1      -1.954 -42.325 -33.004  1.00  0.00     0.239 A 
ATOM     30  O   UNL     1      -2.752 -44.360 -34.748  1.00  0.00    -0.452 OA
ATOM     31  C   UNL     1      -3.296 -42.801 -33.002  1.00  0.00     0.111 A 
ATOM     32  O   UNL     1      -1.462 -41.669 -32.078  1.00  0.00    -0.285 OA
ATOM     33  C   UNL     1      -3.684 -43.762 -33.978  1.00  0.00     0.146 A 
ATOM     34  C   UNL     1      -4.266 -42.324 -32.078  1.00  0.00     0.134 A 
ATOM     35  C   UNL     1      -5.044 -44.072 -34.136  1.00  0.00     0.094 A 
ATOM     36  C   UNL     1      -5.623 -42.701 -32.232  1.00  0.00     0.093 A 
ATOM     37  C   UNL     1      -6.011 -43.455 -33.333  1.00  0.00     0.123 A 
BRANCH  28  38
ATOM     38  C   UNL     1      -0.396 -44.881 -34.998  1.00  0.00     0.025 A 
ATOM     39  C   UNL     1      -0.125 -45.916 -34.137  1.00  0.00     0.062 A 
ATOM     40  C   UNL     1      -0.033 -44.986 -36.373  1.00  0.00     0.016 A 
ATOM     41  C   UNL     1       0.289 -47.173 -34.630  1.00  0.00     0.158 A 
ATOM     42  C   UNL     1       0.390 -46.209 -36.921  1.00  0.00     0.051 A 
ATOM     43  C   UNL     1       0.530 -47.300 -36.021  1.00  0.00     0.157 A 
BRANCH  41  44
ATOM     44  O   UNL     1       0.224 -48.297 -33.808  1.00  0.00    -0.504 OA
ATOM     45  H   UNL     1      -0.626 -48.940 -33.831  1.00  0.00     0.293 HD
ENDBRANCH  41  44
BRANCH  43  46
ATOM     46  O   UNL     1       0.688 -48.600 -36.462  1.00  0.00    -0.504 OA
ATOM     47  H   UNL     1      -0.100 -49.257 -36.489  1.00  0.00     0.293 HD
ENDBRANCH  43  46
ENDBRANCH  28  38
BRANCH  34  48
ATOM     48  O   UNL     1      -3.950 -41.229 -31.319  1.00  0.00    -0.507 OA
ATOM     49  H   UNL     1      -3.173 -40.603 -31.657  1.00  0.00     0.293 HD
ENDBRANCH  34  48
BRANCH  37  50
ATOM     50  O   UNL     1      -7.351 -43.442 -33.774  1.00  0.00    -0.508 OA
ATOM     51  H   UNL     1      -7.661 -44.239 -34.320  1.00  0.00     0.293 HD
ENDBRANCH  37  50
ENDBRANCH  26  27
ENDBRANCH   5  26
BRANCH   4  52
ATOM     52  O   UNL     1      -0.678 -40.595 -36.294  1.00  0.00    -0.384 OA
ATOM     53  H   UNL     1      -0.446 -41.593 -36.176  1.00  0.00     0.211 HD
ENDBRANCH   4  52
TORSDOF 16
ENDMDL
MODEL 5
REMARK VINA RESULT:    -7.336      2.952      6.148
REMARK INTER + INTRA:         -14.190
REMARK INTER:                 -10.934
REMARK INTRA:                  -3.256
REMARK UNBOUND:                -2.137
REMARK SMILES C[C@H]1O[C@H](OC[C@@H]2O[C@H](Oc3c(-c4ccc(O)c(O)c4)oc4cc(O)cc(O)c4c3=O)[C@H](O)[C@H](O)[C@H]2O)[C@H](O)[C@H](O)[C@@H]1O
REMARK SMILES IDX 7 1 36 2 34 3 32 4 9 5 8 6 6 7 5 8 4 9 1 10 2 11 42 12 3 13
REMARK SMILES IDX 40 14 38 15 43 16 41 18 39 20 37 22 35 24 10 26 11 27 12 28
REMARK SMILES IDX 30 29 21 30 29 31 31 32 22 33 27 34 23 35 26 36 24 37 13 38
REMARK SMILES IDX 20 39 14 40 18 41 15 42 16 43 19 44 17 46 28 48 25 50 33 52
REMARK H PARENT 43 17 41 19 39 21 37 23 35 25 19 45 17 47 28 49 25 51 33 53
REMARK Flexibility Score: inf
ROOT
ATOM      1  C   UNL     1      -1.874 -39.354 -34.393  1.00  0.00     0.180 C 
ATOM      2  C   UNL     1      -0.708 -38.456 -34.761  1.00  0.00     0.177 C 
ATOM      3  C   UNL     1       0.669 -39.227 -34.736  1.00  0.00     0.180 C 
ATOM      4  C   UNL     1       0.511 -40.809 -34.685  1.00  0.00     0.214 C 
ATOM      5  C   UNL     1      -0.856 -41.414 -35.244  1.00  0.00     0.339 C 
ATOM      6  O   UNL     1      -1.937 -40.452 -35.308  1.00  0.00    -0.332 OA
ENDROOT
BRANCH   1   7
ATOM      7  C   UNL     1      -2.098 -39.852 -32.862  1.00  0.00     0.198 C 
BRANCH   7   8
ATOM      8  O   UNL     1      -1.137 -39.350 -31.866  1.00  0.00    -0.347 OA
BRANCH   8   9
ATOM      9  C   UNL     1      -0.749 -40.132 -30.649  1.00  0.00     0.281 C 
ATOM     10  C   UNL     1      -1.936 -42.388 -28.458  1.00  0.00     0.041 C 
ATOM     11  C   UNL     1      -0.685 -42.207 -29.407  1.00  0.00     0.150 C 
ATOM     12  C   UNL     1       0.489 -41.649 -28.555  1.00  0.00     0.174 C 
ATOM     13  O   UNL     1      -0.932 -41.546 -30.694  1.00  0.00    -0.344 OA
ATOM     14  C   UNL     1       1.457 -40.856 -29.432  1.00  0.00     0.179 C 
ATOM     15  C   UNL     1       0.706 -39.741 -30.101  1.00  0.00     0.202 C 
BRANCH  12  16
ATOM     16  O   UNL     1       1.184 -42.692 -27.880  1.00  0.00    -0.388 OA
ATOM     17  H   UNL     1       1.300 -43.449 -28.519  1.00  0.00     0.211 HD
ENDBRANCH  12  16
BRANCH  14  18
ATOM     18  O   UNL     1       2.066 -41.658 -30.415  1.00  0.00    -0.387 OA
ATOM     19  H   UNL     1       1.717 -41.216 -31.277  1.00  0.00     0.211 HD
ENDBRANCH  14  18
BRANCH  15  20
ATOM     20  O   UNL     1       1.597 -39.229 -31.061  1.00  0.00    -0.385 OA
ATOM     21  H   UNL     1       2.242 -38.704 -30.519  1.00  0.00     0.211 HD
ENDBRANCH  15  20
ENDBRANCH   8   9
ENDBRANCH   7   8
ENDBRANCH   1   7
BRANCH   2  22
ATOM     22  O   UNL     1      -0.901 -37.881 -36.060  1.00  0.00    -0.387 OA
ATOM     23  H   UNL     1      -0.047 -37.996 -36.577  1.00  0.00     0.211 HD
ENDBRANCH   2  22
BRANCH   3  24
ATOM     24  O   UNL     1       1.560 -38.778 -33.720  1.00  0.00    -0.387 OA
ATOM     25  H   UNL     1       2.463 -38.614 -34.110  1.00  0.00     0.211 HD
ENDBRANCH   3  24
BRANCH   5  26
ATOM     26  O   UNL     1      -1.352 -42.488 -34.448  1.00  0.00    -0.454 OA
BRANCH  26  27
ATOM     27  C   UNL     1      -1.219 -43.910 -34.602  1.00  0.00     0.214 A 
ATOM     28  C   UNL     1      -1.934 -44.728 -33.700  1.00  0.00     0.180 A 
ATOM     29  C   UNL     1      -0.477 -44.565 -35.601  1.00  0.00     0.239 A 
ATOM     30  O   UNL     1      -1.607 -45.999 -33.482  1.00  0.00    -0.452 OA
ATOM     31  C   UNL     1      -0.188 -45.948 -35.421  1.00  0.00     0.111 A 
ATOM     32  O   UNL     1      -0.273 -43.958 -36.658  1.00  0.00    -0.285 OA
ATOM     33  C   UNL     1      -0.701 -46.611 -34.270  1.00  0.00     0.146 A 
ATOM     34  C   UNL     1       0.619 -46.677 -36.337  1.00  0.00     0.134 A 
ATOM     35  C   UNL     1      -0.244 -47.902 -33.960  1.00  0.00     0.094 A 
ATOM     36  C   UNL     1       1.017 -47.999 -36.020  1.00  0.00     0.093 A 
ATOM     37  C   UNL     1       0.694 -48.541 -34.781  1.00  0.00     0.123 A 
BRANCH  28  38
ATOM     38  C   UNL     1      -3.241 -44.213 -33.326  1.00  0.00     0.025 A 
ATOM     39  C   UNL     1      -3.408 -43.628 -32.095  1.00  0.00     0.062 A 
ATOM     40  C   UNL     1      -4.109 -43.865 -34.402  1.00  0.00     0.016 A 
ATOM     41  C   UNL     1      -4.266 -42.517 -31.936  1.00  0.00     0.158 A 
ATOM     42  C   UNL     1      -4.987 -42.772 -34.303  1.00  0.00     0.051 A 
ATOM     43  C   UNL     1      -5.036 -42.101 -33.051  1.00  0.00     0.157 A 
BRANCH  41  44
ATOM     44  O   UNL     1      -4.167 -41.722 -30.796  1.00  0.00    -0.504 OA
ATOM     45  H   UNL     1      -3.993 -40.673 -30.876  1.00  0.00     0.293 HD
ENDBRANCH  41  44
BRANCH  43  46
ATOM     46  O   UNL     1      -5.655 -40.876 -32.898  1.00  0.00    -0.504 OA
ATOM     47  H   UNL     1      -5.615 -40.159 -33.633  1.00  0.00     0.293 HD
ENDBRANCH  43  46
ENDBRANCH  28  38
BRANCH  34  48
ATOM     48  O   UNL     1       1.305 -45.974 -37.291  1.00  0.00    -0.507 OA
ATOM     49  H   UNL     1       1.302 -46.349 -38.276  1.00  0.00     0.293 HD
ENDBRANCH  34  48
BRANCH  37  50
ATOM     50  O   UNL     1       1.444 -49.610 -34.249  1.00  0.00    -0.508 OA
ATOM     51  H   UNL     1       2.296 -49.369 -33.754  1.00  0.00     0.293 HD
ENDBRANCH  37  50
ENDBRANCH  26  27
ENDBRANCH   5  26
BRANCH   4  52
ATOM     52  O   UNL     1       0.689 -41.158 -33.346  1.00  0.00    -0.384 OA
ATOM     53  H   UNL     1       0.365 -42.130 -33.226  1.00  0.00     0.211 HD
ENDBRANCH   4  52
TORSDOF 16
ENDMDL
MODEL 6
REMARK VINA RESULT:    -7.329      1.806      6.324
REMARK INTER + INTRA:         -14.179
REMARK INTER:                 -12.533
REMARK INTRA:                  -1.646
REMARK UNBOUND:                -2.137
REMARK SMILES C[C@H]1O[C@H](OC[C@@H]2O[C@H](Oc3c(-c4ccc(O)c(O)c4)oc4cc(O)cc(O)c4c3=O)[C@H](O)[C@H](O)[C@H]2O)[C@H](O)[C@H](O)[C@@H]1O
REMARK SMILES IDX 7 1 36 2 34 3 32 4 9 5 8 6 6 7 5 8 4 9 1 10 2 11 42 12 3 13
REMARK SMILES IDX 40 14 38 15 43 16 41 18 39 20 37 22 35 24 10 26 11 27 12 28
REMARK SMILES IDX 30 29 21 30 29 31 31 32 22 33 27 34 23 35 26 36 24 37 13 38
REMARK SMILES IDX 20 39 14 40 18 41 15 42 16 43 19 44 17 46 28 48 25 50 33 52
REMARK H PARENT 43 17 41 19 39 21 37 23 35 25 19 45 17 47 28 49 25 51 33 53
REMARK Flexibility Score: inf
ROOT
ATOM      1  C   UNL     1       2.004 -43.877 -39.597  1.00  0.00     0.180 C 
ATOM      2  C   UNL     1       2.396 -44.737 -40.784  1.00  0.00     0.177 C 
ATOM      3  C   UNL     1       2.448 -46.271 -40.417  1.00  0.00     0.180 C 
ATOM      4  C   UNL     1       1.753 -46.617 -39.028  1.00  0.00     0.214 C 
ATOM      5  C   UNL     1       0.641 -45.597 -38.507  1.00  0.00     0.339 C 
ATOM      6  O   UNL     1       0.720 -44.286 -39.117  1.00  0.00    -0.332 OA
ENDROOT
BRANCH   1   7
ATOM      7  C   UNL     1       3.037 -43.623 -38.369  1.00  0.00     0.198 C 
BRANCH   7   8
ATOM      8  O   UNL     1       4.125 -42.664 -38.621  1.00  0.00    -0.347 OA
BRANCH   8   9
ATOM      9  C   UNL     1       3.915 -41.181 -38.612  1.00  0.00     0.281 C 
ATOM     10  C   UNL     1       4.061 -38.470 -40.595  1.00  0.00     0.041 C 
ATOM     11  C   UNL     1       3.028 -39.169 -39.623  1.00  0.00     0.150 C 
ATOM     12  C   UNL     1       3.105 -38.455 -38.245  1.00  0.00     0.174 C 
ATOM     13  O   UNL     1       3.043 -40.636 -39.602  1.00  0.00    -0.344 OA
ATOM     14  C   UNL     1       2.685 -39.406 -37.125  1.00  0.00     0.179 C 
ATOM     15  C   UNL     1       3.578 -40.613 -37.150  1.00  0.00     0.202 C 
BRANCH  12  16
ATOM     16  O   UNL     1       2.297 -37.284 -38.220  1.00  0.00    -0.388 OA
ATOM     17  H   UNL     1       2.778 -36.588 -37.690  1.00  0.00     0.211 HD
ENDBRANCH  12  16
BRANCH  14  18
ATOM     18  O   UNL     1       1.346 -39.819 -37.250  1.00  0.00    -0.387 OA
ATOM     19  H   UNL     1       1.232 -39.817 -38.274  1.00  0.00     0.211 HD
ENDBRANCH  14  18
BRANCH  15  20
ATOM     20  O   UNL     1       2.975 -41.529 -36.270  1.00  0.00    -0.385 OA
ATOM     21  H   UNL     1       3.632 -41.601 -35.529  1.00  0.00     0.211 HD
ENDBRANCH  15  20
ENDBRANCH   8   9
ENDBRANCH   7   8
ENDBRANCH   1   7
BRANCH   2  22
ATOM     22  O   UNL     1       1.483 -44.545 -41.873  1.00  0.00    -0.387 OA
ATOM     23  H   UNL     1       0.604 -44.245 -41.489  1.00  0.00     0.211 HD
ENDBRANCH   2  22
BRANCH   3  24
ATOM     24  O   UNL     1       3.755 -46.832 -40.478  1.00  0.00    -0.387 OA
ATOM     25  H   UNL     1       3.726 -47.788 -40.194  1.00  0.00     0.211 HD
ENDBRANCH   3  24
BRANCH   5  26
ATOM     26  O   UNL     1       0.718 -45.366 -37.102  1.00  0.00    -0.454 OA
BRANCH  26  27
ATOM     27  C   UNL     1      -0.221 -44.763 -36.197  1.00  0.00     0.214 A 
ATOM     28  C   UNL     1      -0.971 -45.629 -35.371  1.00  0.00     0.180 A 
ATOM     29  C   UNL     1      -0.429 -43.383 -36.025  1.00  0.00     0.239 A 
ATOM     30  O   UNL     1      -2.109 -45.250 -34.795  1.00  0.00    -0.452 OA
ATOM     31  C   UNL     1      -1.604 -42.965 -35.337  1.00  0.00     0.111 A 
ATOM     32  O   UNL     1       0.499 -42.620 -36.315  1.00  0.00    -0.285 OA
ATOM     33  C   UNL     1      -2.484 -43.956 -34.818  1.00  0.00     0.146 A 
ATOM     34  C   UNL     1      -1.940 -41.592 -35.181  1.00  0.00     0.134 A 
ATOM     35  C   UNL     1      -3.747 -43.572 -34.341  1.00  0.00     0.094 A 
ATOM     36  C   UNL     1      -3.201 -41.237 -34.644  1.00  0.00     0.093 A 
ATOM     37  C   UNL     1      -4.136 -42.226 -34.360  1.00  0.00     0.123 A 
BRANCH  28  38
ATOM     38  C   UNL     1      -0.242 -46.795 -34.902  1.00  0.00     0.025 A 
ATOM     39  C   UNL     1      -0.373 -47.190 -33.594  1.00  0.00     0.062 A 
ATOM     40  C   UNL     1       0.128 -47.746 -35.899  1.00  0.00     0.016 A 
ATOM     41  C   UNL     1      -0.382 -48.561 -33.252  1.00  0.00     0.158 A 
ATOM     42  C   UNL     1       0.141 -49.123 -35.619  1.00  0.00     0.051 A 
ATOM     43  C   UNL     1      -0.134 -49.507 -34.279  1.00  0.00     0.157 A 
BRANCH  41  44
ATOM     44  O   UNL     1      -0.858 -48.963 -32.006  1.00  0.00    -0.504 OA
ATOM     45  H   UNL     1      -0.191 -49.334 -31.261  1.00  0.00     0.293 HD
ENDBRANCH  41  44
BRANCH  43  46
ATOM     46  O   UNL     1      -0.401 -50.817 -33.930  1.00  0.00    -0.504 OA
ATOM     47  H   UNL     1      -0.857 -51.053 -33.041  1.00  0.00     0.293 HD
ENDBRANCH  43  46
ENDBRANCH  28  38
BRANCH  34  48
ATOM     48  O   UNL     1      -1.225 -40.668 -35.896  1.00  0.00    -0.507 OA
ATOM     49  H   UNL     1      -1.102 -39.709 -35.478  1.00  0.00     0.293 HD
ENDBRANCH  34  48
BRANCH  37  50
ATOM     50  O   UNL     1      -5.510 -41.916 -34.292  1.00  0.00    -0.508 OA
ATOM     51  H   UNL     1      -6.145 -42.687 -34.115  1.00  0.00     0.293 HD
ENDBRANCH  37  50
ENDBRANCH  26  27
ENDBRANCH   5  26
BRANCH   4  52
ATOM     52  O   UNL     1       2.795 -46.718 -38.106  1.00  0.00    -0.384 OA
ATOM     53  H   UNL     1       2.473 -46.305 -37.218  1.00  0.00     0.211 HD
ENDBRANCH   4  52
TORSDOF 16
ENDMDL
MODEL 7
REMARK VINA RESULT:    -7.310      2.752      7.481
REMARK INTER + INTRA:         -14.148
REMARK INTER:                 -11.466
REMARK INTRA:                  -2.682
REMARK UNBOUND:                -2.137
REMARK SMILES C[C@H]1O[C@H](OC[C@@H]2O[C@H](Oc3c(-c4ccc(O)c(O)c4)oc4cc(O)cc(O)c4c3=O)[C@H](O)[C@H](O)[C@H]2O)[C@H](O)[C@H](O)[C@@H]1O
REMARK SMILES IDX 7 1 36 2 34 3 32 4 9 5 8 6 6 7 5 8 4 9 1 10 2 11 42 12 3 13
REMARK SMILES IDX 40 14 38 15 43 16 41 18 39 20 37 22 35 24 10 26 11 27 12 28
REMARK SMILES IDX 30 29 21 30 29 31 31 32 22 33 27 34 23 35 26 36 24 37 13 38
REMARK SMILES IDX 20 39 14 40 18 41 15 42 16 43 19 44 17 46 28 48 25 50 33 52
REMARK H PARENT 43 17 41 19 39 21 37 23 35 25 19 45 17 47 28 49 25 51 33 53
REMARK Flexibility Score: inf
ROOT
ATOM      1  C   UNL     1      -1.902 -39.384 -34.163  1.00  0.00     0.180 C 
ATOM      2  C   UNL     1      -0.712 -38.449 -34.267  1.00  0.00     0.177 C 
ATOM      3  C   UNL     1       0.662 -39.223 -34.212  1.00  0.00     0.180 C 
ATOM      4  C   UNL     1       0.515 -40.794 -34.415  1.00  0.00     0.214 C 
ATOM      5  C   UNL     1      -0.780 -41.300 -35.199  1.00  0.00     0.339 C 
ATOM      6  O   UNL     1      -1.857 -40.333 -35.233  1.00  0.00    -0.332 OA
ENDROOT
BRANCH   1   7
ATOM      7  C   UNL     1      -2.281 -40.104 -32.756  1.00  0.00     0.198 C 
BRANCH   7   8
ATOM      8  O   UNL     1      -2.442 -39.216 -31.592  1.00  0.00    -0.347 OA
BRANCH   8   9
ATOM      9  C   UNL     1      -3.773 -38.685 -31.158  1.00  0.00     0.281 C 
ATOM     10  C   UNL     1      -6.238 -36.608 -32.111  1.00  0.00     0.041 C 
ATOM     11  C   UNL     1      -6.073 -38.107 -31.638  1.00  0.00     0.150 C 
ATOM     12  C   UNL     1      -6.395 -38.169 -30.118  1.00  0.00     0.174 C 
ATOM     13  O   UNL     1      -4.857 -38.800 -32.078  1.00  0.00    -0.344 OA
ATOM     14  C   UNL     1      -5.663 -39.341 -29.464  1.00  0.00     0.179 C 
ATOM     15  C   UNL     1      -4.187 -39.181 -29.690  1.00  0.00     0.202 C 
BRANCH  12  16
ATOM     16  O   UNL     1      -7.795 -38.278 -29.887  1.00  0.00    -0.388 OA
ATOM     17  H   UNL     1      -8.023 -39.247 -29.822  1.00  0.00     0.211 HD
ENDBRANCH  12  16
BRANCH  14  18
ATOM     18  O   UNL     1      -6.078 -40.584 -29.979  1.00  0.00    -0.387 OA
ATOM     19  H   UNL     1      -6.808 -40.846 -29.301  1.00  0.00     0.211 HD
ENDBRANCH  14  18
BRANCH  15  20
ATOM     20  O   UNL     1      -3.624 -40.404 -29.284  1.00  0.00    -0.385 OA
ATOM     21  H   UNL     1      -2.672 -40.172 -29.116  1.00  0.00     0.211 HD
ENDBRANCH  15  20
ENDBRANCH   8   9
ENDBRANCH   7   8
ENDBRANCH   1   7
BRANCH   2  22
ATOM     22  O   UNL     1      -0.772 -37.685 -35.479  1.00  0.00    -0.387 OA
ATOM     23  H   UNL     1       0.080 -37.847 -35.988  1.00  0.00     0.211 HD
ENDBRANCH   2  22
BRANCH   3  24
ATOM     24  O   UNL     1       1.436 -38.937 -33.052  1.00  0.00    -0.387 OA
ATOM     25  H   UNL     1       1.419 -39.718 -32.432  1.00  0.00     0.211 HD
ENDBRANCH   3  24
BRANCH   5  26
ATOM     26  O   UNL     1      -1.347 -42.478 -34.630  1.00  0.00    -0.454 OA
BRANCH  26  27
ATOM     27  C   UNL     1      -1.125 -43.865 -34.928  1.00  0.00     0.214 A 
ATOM     28  C   UNL     1      -1.792 -44.814 -34.122  1.00  0.00     0.180 A 
ATOM     29  C   UNL     1      -0.339 -44.367 -35.981  1.00  0.00     0.239 A 
ATOM     30  O   UNL     1      -1.387 -46.079 -34.033  1.00  0.00    -0.452 OA
ATOM     31  C   UNL     1       0.035 -45.740 -35.941  1.00  0.00     0.111 A 
ATOM     32  O   UNL     1      -0.168 -43.643 -36.968  1.00  0.00    -0.285 OA
ATOM     33  C   UNL     1      -0.441 -46.550 -34.870  1.00  0.00     0.146 A 
ATOM     34  C   UNL     1       0.890 -46.320 -36.917  1.00  0.00     0.134 A 
ATOM     35  C   UNL     1       0.094 -47.835 -34.689  1.00  0.00     0.094 A 
ATOM     36  C   UNL     1       1.368 -47.641 -36.733  1.00  0.00     0.093 A 
ATOM     37  C   UNL     1       1.074 -48.327 -35.561  1.00  0.00     0.123 A 
BRANCH  28  38
ATOM     38  C   UNL     1      -3.129 -44.422 -33.712  1.00  0.00     0.025 A 
ATOM     39  C   UNL     1      -3.373 -44.140 -32.390  1.00  0.00     0.062 A 
ATOM     40  C   UNL     1      -3.954 -43.850 -34.725  1.00  0.00     0.016 A 
ATOM     41  C   UNL     1      -4.270 -43.111 -32.026  1.00  0.00     0.158 A 
ATOM     42  C   UNL     1      -4.867 -42.825 -34.424  1.00  0.00     0.051 A 
ATOM     43  C   UNL     1      -4.996 -42.462 -33.057  1.00  0.00     0.157 A 
BRANCH  41  44
ATOM     44  O   UNL     1      -4.250 -42.599 -30.731  1.00  0.00    -0.504 OA
ATOM     45  H   UNL     1      -4.720 -43.123 -29.929  1.00  0.00     0.293 HD
ENDBRANCH  41  44
BRANCH  43  46
ATOM     46  O   UNL     1      -5.657 -41.316 -32.660  1.00  0.00    -0.504 OA
ATOM     47  H   UNL     1      -5.985 -40.622 -33.342  1.00  0.00     0.293 HD
ENDBRANCH  43  46
ENDBRANCH  28  38
BRANCH  34  48
ATOM     48  O   UNL     1       1.535 -45.482 -37.787  1.00  0.00    -0.507 OA
ATOM     49  H   UNL     1       2.186 -45.913 -38.495  1.00  0.00     0.293 HD
ENDBRANCH  34  48
BRANCH  37  50
ATOM     50  O   UNL     1       1.887 -49.397 -35.134  1.00  0.00    -0.508 OA
ATOM     51  H   UNL     1       2.890 -49.247 -35.156  1.00  0.00     0.293 HD
ENDBRANCH  37  50
ENDBRANCH  26  27
ENDBRANCH   5  26
BRANCH   4  52
ATOM     52  O   UNL     1       0.554 -41.341 -33.132  1.00  0.00    -0.384 OA
ATOM     53  H   UNL     1       1.543 -41.456 -32.866  1.00  0.00     0.211 HD
ENDBRANCH   4  52
TORSDOF 16
ENDMDL
MODEL 8
REMARK VINA RESULT:    -7.296      2.359      7.359
REMARK INTER + INTRA:         -14.126
REMARK INTER:                 -10.483
REMARK INTRA:                  -3.643
REMARK UNBOUND:                -2.137
REMARK SMILES C[C@H]1O[C@H](OC[C@@H]2O[C@H](Oc3c(-c4ccc(O)c(O)c4)oc4cc(O)cc(O)c4c3=O)[C@H](O)[C@H](O)[C@H]2O)[C@H](O)[C@H](O)[C@@H]1O
REMARK SMILES IDX 7 1 36 2 34 3 32 4 9 5 8 6 6 7 5 8 4 9 1 10 2 11 42 12 3 13
REMARK SMILES IDX 40 14 38 15 43 16 41 18 39 20 37 22 35 24 10 26 11 27 12 28
REMARK SMILES IDX 30 29 21 30 29 31 31 32 22 33 27 34 23 35 26 36 24 37 13 38
REMARK SMILES IDX 20 39 14 40 18 41 15 42 16 43 19 44 17 46 28 48 25 50 33 52
REMARK H PARENT 43 17 41 19 39 21 37 23 35 25 19 45 17 47 28 49 25 51 33 53
REMARK Flexibility Score: inf
ROOT
ATOM      1  C   UNL     1      -3.841 -43.560 -32.201  1.00  0.00     0.180 C 
ATOM      2  C   UNL     1      -5.187 -42.903 -32.440  1.00  0.00     0.177 C 
ATOM      3  C   UNL     1      -5.162 -41.925 -33.678  1.00  0.00     0.180 C 
ATOM      4  C   UNL     1      -3.878 -42.100 -34.601  1.00  0.00     0.214 C 
ATOM      5  C   UNL     1      -3.143 -43.516 -34.550  1.00  0.00     0.339 C 
ATOM      6  O   UNL     1      -3.454 -44.292 -33.368  1.00  0.00    -0.332 OA
ENDROOT
BRANCH   1   7
ATOM      7  C   UNL     1      -2.591 -42.714 -31.598  1.00  0.00     0.198 C 
BRANCH   7   8
ATOM      8  O   UNL     1      -2.821 -41.276 -31.384  1.00  0.00    -0.347 OA
BRANCH   8   9
ATOM      9  C   UNL     1      -1.751 -40.247 -31.582  1.00  0.00     0.281 C 
ATOM     10  C   UNL     1       1.589 -39.862 -31.587  1.00  0.00     0.041 C 
ATOM     11  C   UNL     1       0.363 -39.558 -32.538  1.00  0.00     0.150 C 
ATOM     12  C   UNL     1      -0.044 -38.071 -32.338  1.00  0.00     0.174 C 
ATOM     13  O   UNL     1      -0.727 -40.541 -32.531  1.00  0.00    -0.344 OA
ATOM     14  C   UNL     1      -1.523 -37.871 -32.668  1.00  0.00     0.179 C 
ATOM     15  C   UNL     1      -2.343 -38.771 -31.788  1.00  0.00     0.202 C 
BRANCH  12  16
ATOM     16  O   UNL     1       0.755 -37.201 -33.133  1.00  0.00    -0.388 OA
ATOM     17  H   UNL     1       0.146 -36.564 -33.600  1.00  0.00     0.211 HD
ENDBRANCH  12  16
BRANCH  14  18
ATOM     18  O   UNL     1      -1.812 -38.153 -34.016  1.00  0.00    -0.387 OA
ATOM     19  H   UNL     1      -1.248 -37.436 -34.494  1.00  0.00     0.211 HD
ENDBRANCH  14  18
BRANCH  15  20
ATOM     20  O   UNL     1      -3.643 -38.710 -32.320  1.00  0.00    -0.385 OA
ATOM     21  H   UNL     1      -3.547 -39.145 -33.209  1.00  0.00     0.211 HD
ENDBRANCH  15  20
ENDBRANCH   8   9
ENDBRANCH   7   8
ENDBRANCH   1   7
BRANCH   2  22
ATOM     22  O   UNL     1      -6.205 -43.892 -32.644  1.00  0.00    -0.387 OA
ATOM     23  H   UNL     1      -5.765 -44.713 -33.024  1.00  0.00     0.211 HD
ENDBRANCH   2  22
BRANCH   3  24
ATOM     24  O   UNL     1      -5.349 -40.556 -33.333  1.00  0.00    -0.387 OA
ATOM     25  H   UNL     1      -6.306 -40.304 -33.455  1.00  0.00     0.211 HD
ENDBRANCH   3  24
BRANCH   5  26
ATOM     26  O   UNL     1      -1.722 -43.402 -34.564  1.00  0.00    -0.454 OA
BRANCH  26  27
ATOM     27  C   UNL     1      -0.735 -44.072 -35.364  1.00  0.00     0.214 A 
ATOM     28  C   UNL     1       0.003 -43.283 -36.275  1.00  0.00     0.180 A 
ATOM     29  C   UNL     1      -0.401 -45.436 -35.291  1.00  0.00     0.239 A 
ATOM     30  O   UNL     1       0.643 -43.812 -37.315  1.00  0.00    -0.452 OA
ATOM     31  C   UNL     1       0.354 -45.998 -36.359  1.00  0.00     0.111 A 
ATOM     32  O   UNL     1      -0.621 -46.026 -34.228  1.00  0.00    -0.285 OA
ATOM     33  C   UNL     1       0.776 -45.149 -37.422  1.00  0.00     0.146 A 
ATOM     34  C   UNL     1       0.674 -47.382 -36.413  1.00  0.00     0.134 A 
ATOM     35  C   UNL     1       1.320 -45.720 -38.584  1.00  0.00     0.094 A 
ATOM     36  C   UNL     1       1.274 -47.917 -37.579  1.00  0.00     0.093 A 
ATOM     37  C   UNL     1       1.463 -47.109 -38.694  1.00  0.00     0.123 A 
BRANCH  28  38
ATOM     38  C   UNL     1       0.320 -41.948 -35.796  1.00  0.00     0.025 A 
ATOM     39  C   UNL     1       1.570 -41.694 -35.288  1.00  0.00     0.062 A 
ATOM     40  C   UNL     1      -0.453 -40.884 -36.347  1.00  0.00     0.016 A 
ATOM     41  C   UNL     1       2.200 -40.450 -35.513  1.00  0.00     0.158 A 
ATOM     42  C   UNL     1       0.117 -39.624 -36.592  1.00  0.00     0.051 A 
ATOM     43  C   UNL     1       1.462 -39.436 -36.174  1.00  0.00     0.157 A 
BRANCH  41  44
ATOM     44  O   UNL     1       3.573 -40.321 -35.309  1.00  0.00    -0.504 OA
ATOM     45  H   UNL     1       4.179 -41.176 -35.118  1.00  0.00     0.293 HD
ENDBRANCH  41  44
BRANCH  43  46
ATOM     46  O   UNL     1       2.212 -38.349 -36.578  1.00  0.00    -0.504 OA
ATOM     47  H   UNL     1       1.900 -37.387 -36.401  1.00  0.00     0.293 HD
ENDBRANCH  43  46
ENDBRANCH  28  38
BRANCH  34  48
ATOM     48  O   UNL     1       0.054 -48.221 -35.525  1.00  0.00    -0.507 OA
ATOM     49  H   UNL     1      -0.619 -48.935 -35.909  1.00  0.00     0.293 HD
ENDBRANCH  34  48
BRANCH  37  50
ATOM     50  O   UNL     1       1.595 -47.678 -39.977  1.00  0.00    -0.508 OA
ATOM     51  H   UNL     1       1.775 -48.675 -40.019  1.00  0.00     0.293 HD
ENDBRANCH  37  50
ENDBRANCH  26  27
ENDBRANCH   5  26
BRANCH   4  52
ATOM     52  O   UNL     1      -3.004 -41.081 -34.220  1.00  0.00    -0.384 OA
ATOM     53  H   UNL     1      -2.478 -40.786 -35.056  1.00  0.00     0.211 HD
ENDBRANCH   4  52
TORSDOF 16
ENDMDL
MODEL 9
REMARK VINA RESULT:    -7.050      2.621      6.248
REMARK INTER + INTRA:         -13.721
REMARK INTER:                 -10.736
REMARK INTRA:                  -2.985
REMARK UNBOUND:                -2.137
REMARK SMILES C[C@H]1O[C@H](OC[C@@H]2O[C@H](Oc3c(-c4ccc(O)c(O)c4)oc4cc(O)cc(O)c4c3=O)[C@H](O)[C@H](O)[C@H]2O)[C@H](O)[C@H](O)[C@@H]1O
REMARK SMILES IDX 7 1 36 2 34 3 32 4 9 5 8 6 6 7 5 8 4 9 1 10 2 11 42 12 3 13
REMARK SMILES IDX 40 14 38 15 43 16 41 18 39 20 37 22 35 24 10 26 11 27 12 28
REMARK SMILES IDX 30 29 21 30 29 31 31 32 22 33 27 34 23 35 26 36 24 37 13 38
REMARK SMILES IDX 20 39 14 40 18 41 15 42 16 43 19 44 17 46 28 48 25 50 33 52
REMARK H PARENT 43 17 41 19 39 21 37 23 35 25 19 45 17 47 28 49 25 51 33 53
REMARK Flexibility Score: inf
ROOT
ATOM      1  C   UNL     1      -0.556 -39.386 -36.350  1.00  0.00     0.180 C 
ATOM      2  C   UNL     1       0.719 -38.613 -36.070  1.00  0.00     0.177 C 
ATOM      3  C   UNL     1       1.626 -39.327 -34.994  1.00  0.00     0.180 C 
ATOM      4  C   UNL     1       1.203 -40.833 -34.705  1.00  0.00     0.214 C 
ATOM      5  C   UNL     1       0.399 -41.589 -35.858  1.00  0.00     0.339 C 
ATOM      6  O   UNL     1      -0.225 -40.698 -36.815  1.00  0.00    -0.332 OA
ENDROOT
BRANCH   1   7
ATOM      7  C   UNL     1      -1.761 -39.436 -35.261  1.00  0.00     0.198 C 
BRANCH   7   8
ATOM      8  O   UNL     1      -1.589 -38.603 -34.060  1.00  0.00    -0.347 OA
BRANCH   8   9
ATOM      9  C   UNL     1      -2.502 -38.692 -32.876  1.00  0.00     0.281 C 
ATOM     10  C   UNL     1      -5.743 -39.017 -32.044  1.00  0.00     0.041 C 
ATOM     11  C   UNL     1      -4.364 -39.717 -31.719  1.00  0.00     0.150 C 
ATOM     12  C   UNL     1      -3.835 -39.138 -30.377  1.00  0.00     0.174 C 
ATOM     13  O   UNL     1      -3.398 -39.801 -32.821  1.00  0.00    -0.344 OA
ATOM     14  C   UNL     1      -2.311 -39.232 -30.317  1.00  0.00     0.179 C 
ATOM     15  C   UNL     1      -1.731 -38.485 -31.484  1.00  0.00     0.202 C 
BRANCH  12  16
ATOM     16  O   UNL     1      -4.409 -39.807 -29.259  1.00  0.00    -0.388 OA
ATOM     17  H   UNL     1      -3.671 -40.045 -28.630  1.00  0.00     0.211 HD
ENDBRANCH  12  16
BRANCH  14  18
ATOM     18  O   UNL     1      -1.856 -40.563 -30.347  1.00  0.00    -0.387 OA
ATOM     19  H   UNL     1      -1.216 -40.572 -29.540  1.00  0.00     0.211 HD
ENDBRANCH  14  18
BRANCH  15  20
ATOM     20  O   UNL     1      -0.367 -38.827 -31.492  1.00  0.00    -0.385 OA
ATOM     21  H   UNL     1      -0.158 -38.954 -30.530  1.00  0.00     0.211 HD
ENDBRANCH  15  20
ENDBRANCH   8   9
ENDBRANCH   7   8
ENDBRANCH   1   7
BRANCH   2  22
ATOM     22  O   UNL     1       1.475 -38.429 -37.275  1.00  0.00    -0.387 OA
ATOM     23  H   UNL     1       1.991 -37.570 -37.187  1.00  0.00     0.211 HD
ENDBRANCH   2  22
BRANCH   3  24
ATOM     24  O   UNL     1       1.756 -38.599 -33.778  1.00  0.00    -0.387 OA
ATOM     25  H   UNL     1       0.881 -38.581 -33.300  1.00  0.00     0.211 HD
ENDBRANCH   3  24
BRANCH   5  26
ATOM     26  O   UNL     1      -0.658 -42.402 -35.354  1.00  0.00    -0.454 OA
BRANCH  26  27
ATOM     27  C   UNL     1      -0.750 -43.826 -35.190  1.00  0.00     0.214 A 
ATOM     28  C   UNL     1      -1.463 -44.303 -34.068  1.00  0.00     0.180 A 
ATOM     29  C   UNL     1      -0.234 -44.793 -36.071  1.00  0.00     0.239 A 
ATOM     30  O   UNL     1      -1.299 -45.536 -33.594  1.00  0.00    -0.452 OA
ATOM     31  C   UNL     1      -0.128 -46.134 -35.605  1.00  0.00     0.111 A 
ATOM     32  O   UNL     1      -0.073 -44.467 -37.253  1.00  0.00    -0.285 OA
ATOM     33  C   UNL     1      -0.590 -46.443 -34.294  1.00  0.00     0.146 A 
ATOM     34  C   UNL     1       0.451 -47.165 -36.395  1.00  0.00     0.134 A 
ATOM     35  C   UNL     1      -0.291 -47.697 -33.737  1.00  0.00     0.094 A 
ATOM     36  C   UNL     1       0.689 -48.437 -35.819  1.00  0.00     0.093 A 
ATOM     37  C   UNL     1       0.441 -48.642 -34.466  1.00  0.00     0.123 A 
BRANCH  28  38
ATOM     38  C   UNL     1      -2.628 -43.510 -33.713  1.00  0.00     0.025 A 
ATOM     39  C   UNL     1      -3.740 -43.550 -34.516  1.00  0.00     0.062 A 
ATOM     40  C   UNL     1      -2.757 -43.168 -32.334  1.00  0.00     0.016 A 
ATOM     41  C   UNL     1      -5.036 -43.494 -33.955  1.00  0.00     0.158 A 
ATOM     42  C   UNL     1      -4.019 -43.094 -31.720  1.00  0.00     0.051 A 
ATOM     43  C   UNL     1      -5.152 -43.276 -32.559  1.00  0.00     0.157 A 
BRANCH  41  44
ATOM     44  O   UNL     1      -6.138 -43.883 -34.714  1.00  0.00    -0.504 OA
ATOM     45  H   UNL     1      -6.706 -43.164 -35.259  1.00  0.00     0.293 HD
ENDBRANCH  41  44
BRANCH  43  46
ATOM     46  O   UNL     1      -6.419 -43.479 -32.048  1.00  0.00    -0.504 OA
ATOM     47  H   UNL     1      -7.238 -42.995 -32.435  1.00  0.00     0.293 HD
ENDBRANCH  43  46
ENDBRANCH  28  38
BRANCH  34  48
ATOM     48  O   UNL     1       1.112 -46.806 -37.539  1.00  0.00    -0.507 OA
ATOM     49  H   UNL     1       1.160 -47.509 -38.322  1.00  0.00     0.293 HD
ENDBRANCH  34  48
BRANCH  37  50
ATOM     50  O   UNL     1       1.088 -49.684 -33.770  1.00  0.00    -0.508 OA
ATOM     51  H   UNL     1       0.523 -50.490 -33.524  1.00  0.00     0.293 HD
ENDBRANCH  37  50
ENDBRANCH  26  27
ENDBRANCH   5  26
BRANCH   4  52
ATOM     52  O   UNL     1       0.450 -40.789 -33.532  1.00  0.00    -0.384 OA
ATOM     53  H   UNL     1       0.450 -39.816 -33.191  1.00  0.00     0.211 HD
ENDBRANCH   4  52
TORSDOF 16
ENDMDL
