MODEL 1
REMARK VINA RESULT:    -4.965      0.000      0.000
REMARK INTER + INTRA:          -6.296
REMARK INTER:                  -5.980
REMARK INTRA:                  -0.315
REMARK UNBOUND:                -0.315
REMARK SMILES O=c1c(O)c(-c2ccc(O)c(O)c2)oc2cc(O)cc(O)c12
REMARK SMILES IDX 5 1 3 2 2 3 1 4 22 5 20 6 19 7 17 8 16 9 15 10 14 11 6 12
REMARK SMILES IDX 7 13 8 14 9 15 13 16 11 17 10 18 12 20 4 22 21 24 18 26
REMARK H PARENT 10 19 12 21 4 23 21 25 18 27
REMARK Flexibility Score: inf
ROOT
ATOM      1  C   UNL     1      22.925   7.363  -7.440  1.00  0.00     0.180 A 
ATOM      2  C   UNL     1      22.270   6.332  -8.136  1.00  0.00     0.208 A 
ATOM      3  C   UNL     1      22.556   4.998  -7.806  1.00  0.00     0.238 A 
ATOM      4  O   UNL     1      21.927   4.081  -8.395  1.00  0.00    -0.285 OA
ATOM      5  C   UNL     1      23.505   4.710  -6.795  1.00  0.00     0.111 A 
ATOM      6  C   UNL     1      23.901   3.395  -6.406  1.00  0.00     0.134 A 
ATOM      7  C   UNL     1      24.750   3.227  -5.305  1.00  0.00     0.093 A 
ATOM      8  C   UNL     1      25.268   4.329  -4.621  1.00  0.00     0.123 A 
ATOM      9  C   UNL     1      24.934   5.617  -5.029  1.00  0.00     0.094 A 
ATOM     10  C   UNL     1      24.061   5.817  -6.101  1.00  0.00     0.146 A 
ATOM     11  O   UNL     1      23.760   7.061  -6.451  1.00  0.00    -0.452 OA
ENDROOT
BRANCH   1  12
ATOM     12  C   UNL     1      22.695   8.792  -7.748  1.00  0.00     0.025 A 
ATOM     13  C   UNL     1      23.399   9.394  -8.803  1.00  0.00     0.016 A 
ATOM     14  C   UNL     1      23.182  10.737  -9.125  1.00  0.00     0.051 A 
ATOM     15  C   UNL     1      22.245  11.492  -8.407  1.00  0.00     0.157 A 
ATOM     16  C   UNL     1      21.741   9.549  -7.044  1.00  0.00     0.062 A 
ATOM     17  C   UNL     1      21.518  10.893  -7.366  1.00  0.00     0.158 A 
BRANCH  15  18
ATOM     18  O   UNL     1      22.031  12.832  -8.730  1.00  0.00    -0.504 OA
ATOM     19  H   UNL     1      22.778  13.419  -9.081  1.00  0.00     0.293 HD
ENDBRANCH  15  18
BRANCH  17  20
ATOM     20  O   UNL     1      20.569  11.614  -6.642  1.00  0.00    -0.504 OA
ATOM     21  H   UNL     1      20.820  12.413  -6.071  1.00  0.00     0.293 HD
ENDBRANCH  17  20
ENDBRANCH   1  12
BRANCH   2  22
ATOM     22  O   UNL     1      21.321   6.639  -9.115  1.00  0.00    -0.502 OA
ATOM     23  H   UNL     1      20.737   5.933  -9.546  1.00  0.00     0.293 HD
ENDBRANCH   2  22
BRANCH   6  24
ATOM     24  O   UNL     1      23.515   2.233  -7.080  1.00  0.00    -0.507 OA
ATOM     25  H   UNL     1      23.117   2.211  -8.007  1.00  0.00     0.293 HD
ENDBRANCH   6  24
BRANCH   8  26
ATOM     26  O   UNL     1      26.125   4.153  -3.536  1.00  0.00    -0.508 OA
ATOM     27  H   UNL     1      25.771   3.941  -2.609  1.00  0.00     0.293 HD
ENDBRANCH   8  26
TORSDOF 6
ENDMDL
MODEL 2
REMARK VINA RESULT:    -4.947      1.136      2.903
REMARK INTER + INTRA:          -6.275
REMARK INTER:                  -5.941
REMARK INTRA:                  -0.333
REMARK UNBOUND:                -0.315
REMARK SMILES O=c1c(O)c(-c2ccc(O)c(O)c2)oc2cc(O)cc(O)c12
REMARK SMILES IDX 5 1 3 2 2 3 1 4 22 5 20 6 19 7 17 8 16 9 15 10 14 11 6 12
REMARK SMILES IDX 7 13 8 14 9 15 13 16 11 17 10 18 12 20 4 22 21 24 18 26
REMARK H PARENT 10 19 12 21 4 23 21 25 18 27
REMARK Flexibility Score: inf
ROOT
ATOM      1  C   UNL     1      23.727   7.807  -6.646  1.00  0.00     0.180 A 
ATOM      2  C   UNL     1      24.734   7.847  -5.666  1.00  0.00     0.208 A 
ATOM      3  C   UNL     1      25.185   6.642  -5.105  1.00  0.00     0.238 A 
ATOM      4  O   UNL     1      26.125   6.680  -4.268  1.00  0.00    -0.285 OA
ATOM      5  C   UNL     1      24.615   5.414  -5.518  1.00  0.00     0.111 A 
ATOM      6  C   UNL     1      24.969   4.137  -4.988  1.00  0.00     0.134 A 
ATOM      7  C   UNL     1      24.433   2.978  -5.564  1.00  0.00     0.093 A 
ATOM      8  C   UNL     1      23.507   3.054  -6.608  1.00  0.00     0.123 A 
ATOM      9  C   UNL     1      23.112   4.298  -7.092  1.00  0.00     0.094 A 
ATOM     10  C   UNL     1      23.655   5.471  -6.563  1.00  0.00     0.146 A 
ATOM     11  O   UNL     1      23.259   6.635  -7.061  1.00  0.00    -0.452 OA
ENDROOT
BRANCH   1  12
ATOM     12  C   UNL     1      23.182   9.036  -7.266  1.00  0.00     0.025 A 
ATOM     13  C   UNL     1      23.700   9.480  -8.493  1.00  0.00     0.016 A 
ATOM     14  C   UNL     1      23.186  10.626  -9.106  1.00  0.00     0.051 A 
ATOM     15  C   UNL     1      22.136  11.335  -8.510  1.00  0.00     0.157 A 
ATOM     16  C   UNL     1      22.114   9.739  -6.681  1.00  0.00     0.062 A 
ATOM     17  C   UNL     1      21.595  10.886  -7.294  1.00  0.00     0.158 A 
BRANCH  15  18
ATOM     18  O   UNL     1      21.626  12.479  -9.123  1.00  0.00    -0.504 OA
ATOM     19  H   UNL     1      21.251  12.455 -10.064  1.00  0.00     0.293 HD
ENDBRANCH  15  18
BRANCH  17  20
ATOM     20  O   UNL     1      20.539  11.562  -6.681  1.00  0.00    -0.504 OA
ATOM     21  H   UNL     1      20.674  12.439  -6.192  1.00  0.00     0.293 HD
ENDBRANCH  17  20
ENDBRANCH   1  12
BRANCH   2  22
ATOM     22  O   UNL     1      25.299   9.068  -5.288  1.00  0.00    -0.502 OA
ATOM     23  H   UNL     1      26.269   9.297  -5.466  1.00  0.00     0.293 HD
ENDBRANCH   2  22
BRANCH   6  24
ATOM     24  O   UNL     1      25.812   3.955  -3.888  1.00  0.00    -0.507 OA
ATOM     25  H   UNL     1      26.708   4.403  -3.770  1.00  0.00     0.293 HD
ENDBRANCH   6  24
BRANCH   8  26
ATOM     26  O   UNL     1      22.968   1.897  -7.164  1.00  0.00    -0.508 OA
ATOM     27  H   UNL     1      22.028   1.879  -7.545  1.00  0.00     0.293 HD
ENDBRANCH   8  26
TORSDOF 6
ENDMDL
MODEL 3
REMARK VINA RESULT:    -4.361      1.681      6.971
REMARK INTER + INTRA:          -5.568
REMARK INTER:                  -5.283
REMARK INTRA:                  -0.285
REMARK UNBOUND:                -0.315
REMARK SMILES O=c1c(O)c(-c2ccc(O)c(O)c2)oc2cc(O)cc(O)c12
REMARK SMILES IDX 5 1 3 2 2 3 1 4 22 5 20 6 19 7 17 8 16 9 15 10 14 11 6 12
REMARK SMILES IDX 7 13 8 14 9 15 13 16 11 17 10 18 12 20 4 22 21 24 18 26
REMARK H PARENT 10 19 12 21 4 23 21 25 18 27
REMARK Flexibility Score: inf
ROOT
ATOM      1  C   UNL     1      23.916   6.836  -6.423  1.00  0.00     0.180 A 
ATOM      2  C   UNL     1      22.543   7.119  -6.318  1.00  0.00     0.208 A 
ATOM      3  C   UNL     1      22.068   8.362  -6.765  1.00  0.00     0.238 A 
ATOM      4  O   UNL     1      20.831   8.589  -6.718  1.00  0.00    -0.285 OA
ATOM      5  C   UNL     1      22.972   9.313  -7.297  1.00  0.00     0.111 A 
ATOM      6  C   UNL     1      22.606  10.619  -7.743  1.00  0.00     0.134 A 
ATOM      7  C   UNL     1      23.561  11.426  -8.372  1.00  0.00     0.093 A 
ATOM      8  C   UNL     1      24.885  11.001  -8.512  1.00  0.00     0.123 A 
ATOM      9  C   UNL     1      25.265   9.752  -8.027  1.00  0.00     0.094 A 
ATOM     10  C   UNL     1      24.327   8.908  -7.427  1.00  0.00     0.146 A 
ATOM     11  O   UNL     1      24.729   7.723  -6.988  1.00  0.00    -0.452 OA
ENDROOT
BRANCH   1  12
ATOM     12  C   UNL     1      24.496   5.559  -5.951  1.00  0.00     0.025 A 
ATOM     13  C   UNL     1      25.120   5.506  -4.694  1.00  0.00     0.016 A 
ATOM     14  C   UNL     1      25.655   4.305  -4.219  1.00  0.00     0.051 A 
ATOM     15  C   UNL     1      25.560   3.137  -4.987  1.00  0.00     0.157 A 
ATOM     16  C   UNL     1      24.384   4.379  -6.709  1.00  0.00     0.062 A 
ATOM     17  C   UNL     1      24.917   3.174  -6.235  1.00  0.00     0.158 A 
BRANCH  15  18
ATOM     18  O   UNL     1      26.096   1.941  -4.511  1.00  0.00    -0.504 OA
ATOM     19  H   UNL     1      27.085   1.843  -4.315  1.00  0.00     0.293 HD
ENDBRANCH  15  18
BRANCH  17  20
ATOM     20  O   UNL     1      24.794   2.026  -7.017  1.00  0.00    -0.504 OA
ATOM     21  H   UNL     1      25.601   1.531  -7.377  1.00  0.00     0.293 HD
ENDBRANCH  17  20
ENDBRANCH   1  12
BRANCH   2  22
ATOM     22  O   UNL     1      21.664   6.158  -5.809  1.00  0.00    -0.502 OA
ATOM     23  H   UNL     1      20.661   6.225  -5.923  1.00  0.00     0.293 HD
ENDBRANCH   2  22
BRANCH   6  24
ATOM     24  O   UNL     1      21.336  11.175  -7.568  1.00  0.00    -0.507 OA
ATOM     25  H   UNL     1      20.615  10.788  -6.978  1.00  0.00     0.293 HD
ENDBRANCH   6  24
BRANCH   8  26
ATOM     26  O   UNL     1      25.832  11.817  -9.125  1.00  0.00    -0.508 OA
ATOM     27  H   UNL     1      26.475  12.384  -8.583  1.00  0.00     0.293 HD
ENDBRANCH   8  26
TORSDOF 6
ENDMDL
MODEL 4
REMARK VINA RESULT:    -3.915     21.144     23.074
REMARK INTER + INTRA:          -5.031
REMARK INTER:                  -5.290
REMARK INTRA:                   0.259
REMARK UNBOUND:                -0.315
REMARK SMILES O=c1c(O)c(-c2ccc(O)c(O)c2)oc2cc(O)cc(O)c12
REMARK SMILES IDX 5 1 3 2 2 3 1 4 22 5 20 6 19 7 17 8 16 9 15 10 14 11 6 12
REMARK SMILES IDX 7 13 8 14 9 15 13 16 11 17 10 18 12 20 4 22 21 24 18 26
REMARK H PARENT 10 19 12 21 4 23 21 25 18 27
REMARK Flexibility Score: inf
ROOT
ATOM      1  C   UNL     1       6.718  19.739   2.122  1.00  0.00     0.180 A 
ATOM      2  C   UNL     1       6.462  20.951   2.789  1.00  0.00     0.208 A 
ATOM      3  C   UNL     1       6.453  20.967   4.192  1.00  0.00     0.238 A 
ATOM      4  O   UNL     1       6.277  22.064   4.783  1.00  0.00    -0.285 OA
ATOM      5  C   UNL     1       6.685  19.771   4.913  1.00  0.00     0.111 A 
ATOM      6  C   UNL     1       6.659  19.664   6.336  1.00  0.00     0.134 A 
ATOM      7  C   UNL     1       7.031  18.459   6.944  1.00  0.00     0.093 A 
ATOM      8  C   UNL     1       7.365  17.338   6.179  1.00  0.00     0.123 A 
ATOM      9  C   UNL     1       7.335  17.416   4.789  1.00  0.00     0.094 A 
ATOM     10  C   UNL     1       7.003  18.614   4.153  1.00  0.00     0.146 A 
ATOM     11  O   UNL     1       6.997  18.648   2.826  1.00  0.00    -0.452 OA
ENDROOT
BRANCH   1  12
ATOM     12  C   UNL     1       6.720  19.638   0.646  1.00  0.00     0.025 A 
ATOM     13  C   UNL     1       7.217  20.705  -0.120  1.00  0.00     0.016 A 
ATOM     14  C   UNL     1       7.247  20.621  -1.515  1.00  0.00     0.051 A 
ATOM     15  C   UNL     1       6.796  19.464  -2.164  1.00  0.00     0.157 A 
ATOM     16  C   UNL     1       6.287  18.470  -0.009  1.00  0.00     0.062 A 
ATOM     17  C   UNL     1       6.318  18.383  -1.406  1.00  0.00     0.158 A 
BRANCH  15  18
ATOM     18  O   UNL     1       6.826  19.385  -3.555  1.00  0.00    -0.504 OA
ATOM     19  H   UNL     1       6.533  18.549  -4.046  1.00  0.00     0.293 HD
ENDBRANCH  15  18
BRANCH  17  20
ATOM     20  O   UNL     1       5.875  17.212  -2.020  1.00  0.00    -0.504 OA
ATOM     21  H   UNL     1       5.543  16.417  -1.487  1.00  0.00     0.293 HD
ENDBRANCH  17  20
ENDBRANCH   1  12
BRANCH   2  22
ATOM     22  O   UNL     1       6.258  22.125   2.058  1.00  0.00    -0.502 OA
ATOM     23  H   UNL     1       5.759  22.921   2.436  1.00  0.00     0.293 HD
ENDBRANCH   2  22
BRANCH   6  24
ATOM     24  O   UNL     1       6.252  20.694   7.188  1.00  0.00    -0.507 OA
ATOM     25  H   UNL     1       5.310  21.050   7.251  1.00  0.00     0.293 HD
ENDBRANCH   6  24
BRANCH   8  26
ATOM     26  O   UNL     1       7.719  16.139   6.793  1.00  0.00    -0.508 OA
ATOM     27  H   UNL     1       8.646  15.743   6.689  1.00  0.00     0.293 HD
ENDBRANCH   8  26
TORSDOF 6
ENDMDL
MODEL 5
REMARK VINA RESULT:    -3.839     22.314     24.039
REMARK INTER + INTRA:          -4.940
REMARK INTER:                  -4.781
REMARK INTRA:                  -0.159
REMARK UNBOUND:                -0.315
REMARK SMILES O=c1c(O)c(-c2ccc(O)c(O)c2)oc2cc(O)cc(O)c12
REMARK SMILES IDX 5 1 3 2 2 3 1 4 22 5 20 6 19 7 17 8 16 9 15 10 14 11 6 12
REMARK SMILES IDX 7 13 8 14 9 15 13 16 11 17 10 18 12 20 4 22 21 24 18 26
REMARK H PARENT 10 19 12 21 4 23 21 25 18 27
REMARK Flexibility Score: inf
ROOT
ATOM      1  C   UNL     1       7.198  17.059   6.493  1.00  0.00     0.180 A 
ATOM      2  C   UNL     1       6.655  17.291   5.216  1.00  0.00     0.208 A 
ATOM      3  C   UNL     1       6.937  18.503   4.567  1.00  0.00     0.238 A 
ATOM      4  O   UNL     1       6.494  18.683   3.403  1.00  0.00    -0.285 OA
ATOM      5  C   UNL     1       7.745  19.474   5.207  1.00  0.00     0.111 A 
ATOM      6  C   UNL     1       8.063  20.754   4.658  1.00  0.00     0.134 A 
ATOM      7  C   UNL     1       8.977  21.581   5.321  1.00  0.00     0.093 A 
ATOM      8  C   UNL     1       9.534  21.204   6.546  1.00  0.00     0.123 A 
ATOM      9  C   UNL     1       9.185  19.983   7.118  1.00  0.00     0.094 A 
ATOM     10  C   UNL     1       8.303  19.119   6.463  1.00  0.00     0.146 A 
ATOM     11  O   UNL     1       8.006  17.961   7.038  1.00  0.00    -0.452 OA
ENDROOT
BRANCH   1  12
ATOM     12  C   UNL     1       6.925  15.817   7.250  1.00  0.00     0.025 A 
ATOM     13  C   UNL     1       6.162  15.879   8.427  1.00  0.00     0.016 A 
ATOM     14  C   UNL     1       5.875  14.715   9.147  1.00  0.00     0.051 A 
ATOM     15  C   UNL     1       6.332  13.472   8.691  1.00  0.00     0.157 A 
ATOM     16  C   UNL     1       7.364  14.564   6.785  1.00  0.00     0.062 A 
ATOM     17  C   UNL     1       7.076  13.396   7.502  1.00  0.00     0.158 A 
BRANCH  15  18
ATOM     18  O   UNL     1       6.045  12.313   9.412  1.00  0.00    -0.504 OA
ATOM     19  H   UNL     1       6.154  11.393   9.003  1.00  0.00     0.293 HD
ENDBRANCH  15  18
BRANCH  17  20
ATOM     20  O   UNL     1       7.533  12.172   7.014  1.00  0.00    -0.504 OA
ATOM     21  H   UNL     1       7.688  11.376   7.621  1.00  0.00     0.293 HD
ENDBRANCH  17  20
ENDBRANCH   1  12
BRANCH   2  22
ATOM     22  O   UNL     1       5.878  16.310   4.593  1.00  0.00    -0.502 OA
ATOM     23  H   UNL     1       5.037  16.530   4.076  1.00  0.00     0.293 HD
ENDBRANCH   2  22
BRANCH   6  24
ATOM     24  O   UNL     1       7.491  21.265   3.490  1.00  0.00    -0.507 OA
ATOM     25  H   UNL     1       7.059  20.706   2.769  1.00  0.00     0.293 HD
ENDBRANCH   6  24
BRANCH   8  26
ATOM     26  O   UNL     1      10.431  22.040   7.206  1.00  0.00    -0.508 OA
ATOM     27  H   UNL     1      10.683  21.888   8.177  1.00  0.00     0.293 HD
ENDBRANCH   8  26
TORSDOF 6
ENDMDL
MODEL 6
REMARK VINA RESULT:    -3.836      2.581      3.553
REMARK INTER + INTRA:          -4.936
REMARK INTER:                  -4.631
REMARK INTRA:                  -0.305
REMARK UNBOUND:                -0.315
REMARK SMILES O=c1c(O)c(-c2ccc(O)c(O)c2)oc2cc(O)cc(O)c12
REMARK SMILES IDX 5 1 3 2 2 3 1 4 22 5 20 6 19 7 17 8 16 9 15 10 14 11 6 12
REMARK SMILES IDX 7 13 8 14 9 15 13 16 11 17 10 18 12 20 4 22 21 24 18 26
REMARK H PARENT 10 19 12 21 4 23 21 25 18 27
REMARK Flexibility Score: inf
ROOT
ATOM      1  C   UNL     1      23.685   8.828  -7.758  1.00  0.00     0.180 A 
ATOM      2  C   UNL     1      22.291   8.665  -7.683  1.00  0.00     0.208 A 
ATOM      3  C   UNL     1      21.736   7.409  -7.972  1.00  0.00     0.238 A 
ATOM      4  O   UNL     1      20.492   7.255  -7.850  1.00  0.00    -0.285 OA
ATOM      5  C   UNL     1      22.579   6.335  -8.347  1.00  0.00     0.111 A 
ATOM      6  C   UNL     1      22.120   5.030  -8.700  1.00  0.00     0.134 A 
ATOM      7  C   UNL     1      23.052   4.010  -8.929  1.00  0.00     0.093 A 
ATOM      8  C   UNL     1      24.425   4.264  -8.881  1.00  0.00     0.123 A 
ATOM      9  C   UNL     1      24.881   5.548  -8.595  1.00  0.00     0.094 A 
ATOM     10  C   UNL     1      23.977   6.579  -8.327  1.00  0.00     0.146 A 
ATOM     11  O   UNL     1      24.454   7.785  -8.049  1.00  0.00    -0.452 OA
ENDROOT
BRANCH   1  12
ATOM     12  C   UNL     1      24.342  10.128  -7.493  1.00  0.00     0.025 A 
ATOM     13  C   UNL     1      24.378  11.103  -8.503  1.00  0.00     0.016 A 
ATOM     14  C   UNL     1      24.974  12.345  -8.267  1.00  0.00     0.051 A 
ATOM     15  C   UNL     1      25.528  12.636  -7.013  1.00  0.00     0.157 A 
ATOM     16  C   UNL     1      24.881  10.432  -6.230  1.00  0.00     0.062 A 
ATOM     17  C   UNL     1      25.476  11.676  -5.989  1.00  0.00     0.158 A 
BRANCH  15  18
ATOM     18  O   UNL     1      26.124  13.875  -6.782  1.00  0.00    -0.504 OA
ATOM     19  H   UNL     1      26.534  14.416  -7.534  1.00  0.00     0.293 HD
ENDBRANCH  15  18
BRANCH  17  20
ATOM     20  O   UNL     1      26.006  11.940  -4.726  1.00  0.00    -0.504 OA
ATOM     21  H   UNL     1      26.994  11.842  -4.526  1.00  0.00     0.293 HD
ENDBRANCH  17  20
ENDBRANCH   1  12
BRANCH   2  22
ATOM     22  O   UNL     1      21.479   9.732  -7.288  1.00  0.00    -0.502 OA
ATOM     23  H   UNL     1      20.749  10.108  -7.881  1.00  0.00     0.293 HD
ENDBRANCH   2  22
BRANCH   6  24
ATOM     24  O   UNL     1      20.774   4.695  -8.866  1.00  0.00    -0.507 OA
ATOM     25  H   UNL     1      20.357   3.825  -8.571  1.00  0.00     0.293 HD
ENDBRANCH   6  24
BRANCH   8  26
ATOM     26  O   UNL     1      25.344   3.246  -9.125  1.00  0.00    -0.508 OA
ATOM     27  H   UNL     1      25.513   2.897 -10.062  1.00  0.00     0.293 HD
ENDBRANCH   8  26
TORSDOF 6
ENDMDL
MODEL 7
REMARK VINA RESULT:    -3.707      2.004      3.538
REMARK INTER + INTRA:          -4.782
REMARK INTER:                  -4.723
REMARK INTRA:                  -0.059
REMARK UNBOUND:                -0.315
REMARK SMILES O=c1c(O)c(-c2ccc(O)c(O)c2)oc2cc(O)cc(O)c12
REMARK SMILES IDX 5 1 3 2 2 3 1 4 22 5 20 6 19 7 17 8 16 9 15 10 14 11 6 12
REMARK SMILES IDX 7 13 8 14 9 15 13 16 11 17 10 18 12 20 4 22 21 24 18 26
REMARK H PARENT 10 19 12 21 4 23 21 25 18 27
REMARK Flexibility Score: inf
ROOT
ATOM      1  C   UNL     1      24.592   6.780  -6.368  1.00  0.00     0.180 A 
ATOM      2  C   UNL     1      25.123   6.210  -5.198  1.00  0.00     0.208 A 
ATOM      3  C   UNL     1      24.993   4.827  -4.995  1.00  0.00     0.238 A 
ATOM      4  O   UNL     1      25.517   4.314  -3.972  1.00  0.00    -0.285 OA
ATOM      5  C   UNL     1      24.321   4.034  -5.956  1.00  0.00     0.111 A 
ATOM      6  C   UNL     1      24.097   2.629  -5.833  1.00  0.00     0.134 A 
ATOM      7  C   UNL     1      23.537   1.924  -6.905  1.00  0.00     0.093 A 
ATOM      8  C   UNL     1      23.133   2.583  -8.069  1.00  0.00     0.123 A 
ATOM      9  C   UNL     1      23.293   3.962  -8.174  1.00  0.00     0.094 A 
ATOM     10  C   UNL     1      23.882   4.688  -7.136  1.00  0.00     0.146 A 
ATOM     11  O   UNL     1      24.026   5.999  -7.282  1.00  0.00    -0.452 OA
ENDROOT
BRANCH   1  12
ATOM     12  C   UNL     1      24.668   8.233  -6.641  1.00  0.00     0.025 A 
ATOM     13  C   UNL     1      25.922   8.862  -6.695  1.00  0.00     0.016 A 
ATOM     14  C   UNL     1      26.018  10.228  -6.972  1.00  0.00     0.051 A 
ATOM     15  C   UNL     1      24.863  10.983  -7.214  1.00  0.00     0.157 A 
ATOM     16  C   UNL     1      23.512   8.990  -6.905  1.00  0.00     0.062 A 
ATOM     17  C   UNL     1      23.605  10.359  -7.185  1.00  0.00     0.158 A 
BRANCH  15  18
ATOM     18  O   UNL     1      24.962  12.346  -7.488  1.00  0.00    -0.504 OA
ATOM     19  H   UNL     1      25.403  12.687  -8.334  1.00  0.00     0.293 HD
ENDBRANCH  15  18
BRANCH  17  20
ATOM     20  O   UNL     1      22.437  11.079  -7.436  1.00  0.00    -0.504 OA
ATOM     21  H   UNL     1      21.564  10.867  -6.967  1.00  0.00     0.293 HD
ENDBRANCH  17  20
ENDBRANCH   1  12
BRANCH   2  22
ATOM     22  O   UNL     1      25.801   7.008  -4.272  1.00  0.00    -0.502 OA
ATOM     23  H   UNL     1      26.688   6.736  -3.867  1.00  0.00     0.293 HD
ENDBRANCH   2  22
BRANCH   6  24
ATOM     24  O   UNL     1      24.379   1.892  -4.679  1.00  0.00    -0.507 OA
ATOM     25  H   UNL     1      23.824   1.909  -3.837  1.00  0.00     0.293 HD
ENDBRANCH   6  24
BRANCH   8  26
ATOM     26  O   UNL     1      22.561   1.875  -9.124  1.00  0.00    -0.508 OA
ATOM     27  H   UNL     1      22.924   1.946 -10.068  1.00  0.00     0.293 HD
ENDBRANCH   8  26
TORSDOF 6
ENDMDL
MODEL 8
REMARK VINA RESULT:    -3.675      2.070      2.133
REMARK INTER + INTRA:          -4.743
REMARK INTER:                  -4.583
REMARK INTRA:                  -0.160
REMARK UNBOUND:                -0.315
REMARK SMILES O=c1c(O)c(-c2ccc(O)c(O)c2)oc2cc(O)cc(O)c12
REMARK SMILES IDX 5 1 3 2 2 3 1 4 22 5 20 6 19 7 17 8 16 9 15 10 14 11 6 12
REMARK SMILES IDX 7 13 8 14 9 15 13 16 11 17 10 18 12 20 4 22 21 24 18 26
REMARK H PARENT 10 19 12 21 4 23 21 25 18 27
REMARK Flexibility Score: inf
ROOT
ATOM      1  C   UNL     1      23.870   7.050  -7.624  1.00  0.00     0.180 A 
ATOM      2  C   UNL     1      22.692   6.592  -8.240  1.00  0.00     0.208 A 
ATOM      3  C   UNL     1      22.427   5.214  -8.261  1.00  0.00     0.238 A 
ATOM      4  O   UNL     1      21.346   4.814  -8.766  1.00  0.00    -0.285 OA
ATOM      5  C   UNL     1      23.349   4.309  -7.682  1.00  0.00     0.111 A 
ATOM      6  C   UNL     1      23.201   2.889  -7.682  1.00  0.00     0.134 A 
ATOM      7  C   UNL     1      24.109   2.101  -6.965  1.00  0.00     0.093 A 
ATOM      8  C   UNL     1      25.196   2.676  -6.302  1.00  0.00     0.123 A 
ATOM      9  C   UNL     1      25.383   4.055  -6.346  1.00  0.00     0.094 A 
ATOM     10  C   UNL     1      24.474   4.872  -7.023  1.00  0.00     0.146 A 
ATOM     11  O   UNL     1      24.682   6.182  -7.030  1.00  0.00    -0.452 OA
ENDROOT
BRANCH   1  12
ATOM     12  C   UNL     1      24.231   8.485  -7.583  1.00  0.00     0.025 A 
ATOM     13  C   UNL     1      24.484   9.168  -8.783  1.00  0.00     0.016 A 
ATOM     14  C   UNL     1      24.806  10.529  -8.769  1.00  0.00     0.051 A 
ATOM     15  C   UNL     1      24.863  11.229  -7.557  1.00  0.00     0.157 A 
ATOM     16  C   UNL     1      24.269   9.197  -6.370  1.00  0.00     0.062 A 
ATOM     17  C   UNL     1      24.588  10.560  -6.353  1.00  0.00     0.158 A 
BRANCH  15  18
ATOM     18  O   UNL     1      25.185  12.585  -7.547  1.00  0.00    -0.504 OA
ATOM     19  H   UNL     1      25.816  12.986  -8.230  1.00  0.00     0.293 HD
ENDBRANCH  15  18
BRANCH  17  20
ATOM     20  O   UNL     1      24.622  11.231  -5.131  1.00  0.00    -0.504 OA
ATOM     21  H   UNL     1      23.914  11.090  -4.420  1.00  0.00     0.293 HD
ENDBRANCH  17  20
ENDBRANCH   1  12
BRANCH   2  22
ATOM     22  O   UNL     1      21.785   7.503  -8.786  1.00  0.00    -0.502 OA
ATOM     23  H   UNL     1      21.829   8.496  -8.594  1.00  0.00     0.293 HD
ENDBRANCH   2  22
BRANCH   6  24
ATOM     24  O   UNL     1      22.204   2.209  -8.387  1.00  0.00    -0.507 OA
ATOM     25  H   UNL     1      21.666   2.602  -9.144  1.00  0.00     0.293 HD
ENDBRANCH   6  24
BRANCH   8  26
ATOM     26  O   UNL     1      26.104   1.882  -5.605  1.00  0.00    -0.508 OA
ATOM     27  H   UNL     1      26.716   1.230  -6.082  1.00  0.00     0.293 HD
ENDBRANCH   8  26
TORSDOF 6
ENDMDL
MODEL 9
REMARK VINA RESULT:    -3.552     21.367     23.174
REMARK INTER + INTRA:          -4.594
REMARK INTER:                  -4.681
REMARK INTRA:                   0.087
REMARK UNBOUND:                -0.315
REMARK SMILES O=c1c(O)c(-c2ccc(O)c(O)c2)oc2cc(O)cc(O)c12
REMARK SMILES IDX 5 1 3 2 2 3 1 4 22 5 20 6 19 7 17 8 16 9 15 10 14 11 6 12
REMARK SMILES IDX 7 13 8 14 9 15 13 16 11 17 10 18 12 20 4 22 21 24 18 26
REMARK H PARENT 10 19 12 21 4 23 21 25 18 27
REMARK Flexibility Score: inf
ROOT
ATOM      1  C   UNL     1       6.889  19.701   3.070  1.00  0.00     0.180 A 
ATOM      2  C   UNL     1       7.357  20.513   4.118  1.00  0.00     0.208 A 
ATOM      3  C   UNL     1       7.399  19.987   5.419  1.00  0.00     0.238 A 
ATOM      4  O   UNL     1       7.869  20.700   6.344  1.00  0.00    -0.285 OA
ATOM      5  C   UNL     1       6.958  18.663   5.659  1.00  0.00     0.111 A 
ATOM      6  C   UNL     1       6.919  18.043   6.945  1.00  0.00     0.134 A 
ATOM      7  C   UNL     1       6.589  16.686   7.045  1.00  0.00     0.093 A 
ATOM      8  C   UNL     1       6.232  15.945   5.916  1.00  0.00     0.123 A 
ATOM      9  C   UNL     1       6.209  16.557   4.666  1.00  0.00     0.094 A 
ATOM     10  C   UNL     1       6.570  17.900   4.527  1.00  0.00     0.146 A 
ATOM     11  O   UNL     1       6.545  18.442   3.316  1.00  0.00    -0.452 OA
ENDROOT
BRANCH   1  12
ATOM     12  C   UNL     1       6.792  20.192   1.677  1.00  0.00     0.025 A 
ATOM     13  C   UNL     1       6.244  21.461   1.428  1.00  0.00     0.016 A 
ATOM     14  C   UNL     1       6.162  21.953   0.122  1.00  0.00     0.051 A 
ATOM     15  C   UNL     1       6.641  21.191  -0.951  1.00  0.00     0.157 A 
ATOM     16  C   UNL     1       7.290  19.439   0.598  1.00  0.00     0.062 A 
ATOM     17  C   UNL     1       7.212  19.930  -0.711  1.00  0.00     0.158 A 
BRANCH  15  18
ATOM     18  O   UNL     1       6.556  21.684  -2.253  1.00  0.00    -0.504 OA
ATOM     19  H   UNL     1       7.022  21.224  -3.026  1.00  0.00     0.293 HD
ENDBRANCH  15  18
BRANCH  17  20
ATOM     20  O   UNL     1       7.710  19.153  -1.756  1.00  0.00    -0.504 OA
ATOM     21  H   UNL     1       8.281  19.548  -2.495  1.00  0.00     0.293 HD
ENDBRANCH  17  20
ENDBRANCH   1  12
BRANCH   2  22
ATOM     22  O   UNL     1       7.808  21.809   3.856  1.00  0.00    -0.502 OA
ATOM     23  H   UNL     1       7.813  22.205   2.924  1.00  0.00     0.293 HD
ENDBRANCH   2  22
BRANCH   6  24
ATOM     24  O   UNL     1       7.167  18.716   8.144  1.00  0.00    -0.507 OA
ATOM     25  H   UNL     1       8.023  19.202   8.364  1.00  0.00     0.293 HD
ENDBRANCH   6  24
BRANCH   8  26
ATOM     26  O   UNL     1       5.889  14.600   6.028  1.00  0.00    -0.508 OA
ATOM     27  H   UNL     1       4.926  14.290   5.960  1.00  0.00     0.293 HD
ENDBRANCH   8  26
TORSDOF 6
ENDMDL
