MODEL 1
REMARK VINA RESULT:    -3.402      0.000      0.000
REMARK INTER + INTRA:          -3.839
REMARK INTER:                  -3.799
REMARK INTRA:                  -0.040
REMARK UNBOUND:                -0.040
REMARK SMILES CCCC(=O)[O-]
REMARK SMILES IDX 3 1 4 2 5 3 6 4 2 5 1 6
REMARK H PARENT
REMARK Flexibility Score: inf
ROOT
ATOM      1  C   UNL     1      10.127  33.367  40.985  1.00  0.00     0.052 C 
ENDROOT
BRANCH   1   2
ATOM      2  C   UNL     1       8.771  32.738  41.042  1.00  0.00     0.041 C 
ATOM      3  O   UNL     1       7.737  33.457  41.027  1.00  0.00    -0.550 OA
ATOM      4  O   UNL     1       8.647  31.354  41.063  1.00  0.00    -0.550 OA
ENDBRANCH   1   2
BRANCH   1   5
ATOM      5  C   UNL     1      10.789  33.340  42.365  1.00  0.00     0.003 C 
ATOM      6  C   UNL     1      10.566  34.654  43.109  1.00  0.00     0.004 C 
ENDBRANCH   1   5
TORSDOF 2
ENDMDL
MODEL 2
REMARK VINA RESULT:    -3.268     10.589     11.217
REMARK INTER + INTRA:          -3.690
REMARK INTER:                  -3.629
REMARK INTRA:                  -0.060
REMARK UNBOUND:                -0.040
REMARK SMILES CCCC(=O)[O-]
REMARK SMILES IDX 3 1 4 2 5 3 6 4 2 5 1 6
REMARK H PARENT
REMARK Flexibility Score: inf
ROOT
ATOM      1  C   UNL     1       5.310  42.118  48.211  1.00  0.00     0.052 C 
ENDROOT
BRANCH   1   2
ATOM      2  C   UNL     1       6.181  40.916  48.401  1.00  0.00     0.041 C 
ATOM      3  O   UNL     1       5.755  39.770  48.099  1.00  0.00    -0.550 OA
ATOM      4  O   UNL     1       7.482  41.067  48.864  1.00  0.00    -0.550 OA
ENDBRANCH   1   2
BRANCH   1   5
ATOM      5  C   UNL     1       4.654  42.090  46.828  1.00  0.00     0.003 C 
ATOM      6  C   UNL     1       5.671  42.395  45.730  1.00  0.00     0.004 C 
ENDBRANCH   1   5
TORSDOF 2
ENDMDL
MODEL 3
REMARK VINA RESULT:    -3.254     13.346     14.159
REMARK INTER + INTRA:          -3.675
REMARK INTER:                  -3.634
REMARK INTRA:                  -0.041
REMARK UNBOUND:                -0.040
REMARK SMILES CCCC(=O)[O-]
REMARK SMILES IDX 3 1 4 2 5 3 6 4 2 5 1 6
REMARK H PARENT
REMARK Flexibility Score: inf
ROOT
ATOM      1  C   UNL     1       4.403  34.972  54.877  1.00  0.00     0.052 C 
ENDROOT
BRANCH   1   2
ATOM      2  C   UNL     1       2.927  35.064  54.654  1.00  0.00     0.041 C 
ATOM      3  O   UNL     1       2.335  34.194  53.961  1.00  0.00    -0.550 OA
ATOM      4  O   UNL     1       2.195  36.082  55.251  1.00  0.00    -0.550 OA
ENDBRANCH   1   2
BRANCH   1   5
ATOM      5  C   UNL     1       5.151  35.880  53.897  1.00  0.00     0.003 C 
ATOM      6  C   UNL     1       5.560  35.116  52.641  1.00  0.00     0.004 C 
ENDBRANCH   1   5
TORSDOF 2
ENDMDL
MODEL 4
REMARK VINA RESULT:    -3.221     10.200     11.052
REMARK INTER + INTRA:          -3.637
REMARK INTER:                  -3.625
REMARK INTRA:                  -0.012
REMARK UNBOUND:                -0.040
REMARK SMILES CCCC(=O)[O-]
REMARK SMILES IDX 3 1 4 2 5 3 6 4 2 5 1 6
REMARK H PARENT
REMARK Flexibility Score: inf
ROOT
ATOM      1  C   UNL     1       4.982  42.144  46.933  1.00  0.00     0.052 C 
ENDROOT
BRANCH   1   2
ATOM      2  C   UNL     1       5.683  42.004  45.619  1.00  0.00     0.041 C 
ATOM      3  O   UNL     1       6.479  41.047  45.424  1.00  0.00    -0.550 OA
ATOM      4  O   UNL     1       5.421  42.901  44.592  1.00  0.00    -0.550 OA
ENDBRANCH   1   2
BRANCH   1   5
ATOM      5  C   UNL     1       5.766  41.430  48.038  1.00  0.00     0.003 C 
ATOM      6  C   UNL     1       5.568  42.119  49.386  1.00  0.00     0.004 C 
ENDBRANCH   1   5
TORSDOF 2
ENDMDL
MODEL 5
REMARK VINA RESULT:    -3.154     13.805     14.554
REMARK INTER + INTRA:          -3.563
REMARK INTER:                  -3.526
REMARK INTRA:                  -0.037
REMARK UNBOUND:                -0.040
REMARK SMILES CCCC(=O)[O-]
REMARK SMILES IDX 3 1 4 2 5 3 6 4 2 5 1 6
REMARK H PARENT
REMARK Flexibility Score: inf
ROOT
ATOM      1  C   UNL     1       3.124  34.896  53.925  1.00  0.00     0.052 C 
ENDROOT
BRANCH   1   2
ATOM      2  C   UNL     1       2.890  35.643  55.200  1.00  0.00     0.041 C 
ATOM      3  O   UNL     1       1.751  36.111  55.462  1.00  0.00    -0.550 OA
ATOM      4  O   UNL     1       3.919  35.779  56.125  1.00  0.00    -0.550 OA
ENDBRANCH   1   2
BRANCH   1   5
ATOM      5  C   UNL     1       3.891  35.768  52.927  1.00  0.00     0.003 C 
ATOM      6  C   UNL     1       5.374  35.408  52.908  1.00  0.00     0.004 C 
ENDBRANCH   1   5
TORSDOF 2
ENDMDL
MODEL 6
REMARK VINA RESULT:    -3.143     13.364     14.034
REMARK INTER + INTRA:          -3.550
REMARK INTER:                  -3.484
REMARK INTRA:                  -0.067
REMARK UNBOUND:                -0.040
REMARK SMILES CCCC(=O)[O-]
REMARK SMILES IDX 3 1 4 2 5 3 6 4 2 5 1 6
REMARK H PARENT
REMARK Flexibility Score: inf
ROOT
ATOM      1  C   UNL     1       2.324  34.552  54.288  1.00  0.00     0.052 C 
ENDROOT
BRANCH   1   2
ATOM      2  C   UNL     1       3.305  34.507  53.159  1.00  0.00     0.041 C 
ATOM      3  O   UNL     1       3.287  35.397  52.268  1.00  0.00    -0.550 OA
ATOM      4  O   UNL     1       4.271  33.510  53.116  1.00  0.00    -0.550 OA
ENDBRANCH   1   2
BRANCH   1   5
ATOM      5  C   UNL     1       2.556  35.797  55.148  1.00  0.00     0.003 C 
ATOM      6  C   UNL     1       3.933  35.765  55.805  1.00  0.00     0.004 C 
ENDBRANCH   1   5
TORSDOF 2
ENDMDL
MODEL 7
REMARK VINA RESULT:    -3.094     10.426     11.117
REMARK INTER + INTRA:          -3.496
REMARK INTER:                  -3.486
REMARK INTRA:                  -0.011
REMARK UNBOUND:                -0.040
REMARK SMILES CCCC(=O)[O-]
REMARK SMILES IDX 3 1 4 2 5 3 6 4 2 5 1 6
REMARK H PARENT
REMARK Flexibility Score: inf
ROOT
ATOM      1  C   UNL     1       6.565  40.939  47.532  1.00  0.00     0.052 C 
ENDROOT
BRANCH   1   2
ATOM      2  C   UNL     1       5.434  41.888  47.776  1.00  0.00     0.041 C 
ATOM      3  O   UNL     1       4.620  42.154  46.852  1.00  0.00    -0.550 OA
ATOM      4  O   UNL     1       5.249  42.440  49.037  1.00  0.00    -0.550 OA
ENDBRANCH   1   2
BRANCH   1   5
ATOM      5  C   UNL     1       7.478  40.868  48.759  1.00  0.00     0.003 C 
ATOM      6  C   UNL     1       8.841  40.283  48.398  1.00  0.00     0.004 C 
ENDBRANCH   1   5
TORSDOF 2
ENDMDL
MODEL 8
REMARK VINA RESULT:    -3.090     12.708     13.517
REMARK INTER + INTRA:          -3.491
REMARK INTER:                  -3.419
REMARK INTRA:                  -0.072
REMARK UNBOUND:                -0.040
REMARK SMILES CCCC(=O)[O-]
REMARK SMILES IDX 3 1 4 2 5 3 6 4 2 5 1 6
REMARK H PARENT
REMARK Flexibility Score: inf
ROOT
ATOM      1  C   UNL     1       5.088  36.005  53.784  1.00  0.00     0.052 C 
ENDROOT
BRANCH   1   2
ATOM      2  C   UNL     1       4.411  34.983  52.927  1.00  0.00     0.041 C 
ATOM      3  O   UNL     1       4.712  33.765  53.034  1.00  0.00    -0.550 OA
ATOM      4  O   UNL     1       3.410  35.369  52.043  1.00  0.00    -0.550 OA
ENDBRANCH   1   2
BRANCH   1   5
ATOM      5  C   UNL     1       4.860  35.698  55.266  1.00  0.00     0.003 C 
ATOM      6  C   UNL     1       3.393  35.881  55.647  1.00  0.00     0.004 C 
ENDBRANCH   1   5
TORSDOF 2
ENDMDL
MODEL 9
REMARK VINA RESULT:    -2.993     10.852     11.810
REMARK INTER + INTRA:          -3.383
REMARK INTER:                  -3.372
REMARK INTRA:                  -0.011
REMARK UNBOUND:                -0.040
REMARK SMILES CCCC(=O)[O-]
REMARK SMILES IDX 3 1 4 2 5 3 6 4 2 5 1 6
REMARK H PARENT
REMARK Flexibility Score: inf
ROOT
ATOM      1  C   UNL     1       7.157  44.451  43.418  1.00  0.00     0.052 C 
ENDROOT
BRANCH   1   2
ATOM      2  C   UNL     1       7.406  44.960  42.034  1.00  0.00     0.041 C 
ATOM      3  O   UNL     1       7.753  44.166  41.119  1.00  0.00    -0.550 OA
ATOM      4  O   UNL     1       7.207  46.303  41.740  1.00  0.00    -0.550 OA
ENDBRANCH   1   2
BRANCH   1   5
ATOM      5  C   UNL     1       6.578  43.034  43.372  1.00  0.00     0.003 C 
ATOM      6  C   UNL     1       5.560  42.820  44.490  1.00  0.00     0.004 C 
ENDBRANCH   1   5
TORSDOF 2
ENDMDL
