MODEL 1
REMARK VINA RESULT:    -5.453      0.000      0.000
REMARK INTER + INTRA:          -9.134
REMARK INTER:                  -8.003
REMARK INTRA:                  -1.131
REMARK UNBOUND:                -1.131
REMARK SMILES CC(C)COC(=O)c1ccccc1C(=O)OCC(C)C
REMARK SMILES IDX 8 1 9 2 10 3 11 4 12 5 13 6 6 7 7 8 5 9 4 10 2 11 1 12 3 13
REMARK SMILES IDX 14 14 15 15 16 16 17 17 18 18 19 19 20 20
REMARK H PARENT
REMARK Flexibility Score: inf
ROOT
ATOM      1  C   UNL     1     185.410 199.107 169.771  1.00  0.00     0.074 A 
ATOM      2  C   UNL     1     185.607 199.097 168.378  1.00  0.00     0.016 A 
ATOM      3  C   UNL     1     184.893 199.963 167.549  1.00  0.00     0.001 A 
ATOM      4  C   UNL     1     183.972 200.852 168.096  1.00  0.00     0.001 A 
ATOM      5  C   UNL     1     183.777 200.896 169.478  1.00  0.00     0.016 A 
ATOM      6  C   UNL     1     184.503 200.048 170.333  1.00  0.00     0.074 A 
ENDROOT
BRANCH   1   7
ATOM      7  C   UNL     1     186.118 198.086 170.574  1.00  0.00     0.339 C 
ATOM      8  O   UNL     1     185.774 196.873 170.512  1.00  0.00    -0.246 OA
BRANCH   7   9
ATOM      9  O   UNL     1     187.211 198.466 171.359  1.00  0.00    -0.462 OA
BRANCH   9  10
ATOM     10  C   UNL     1     188.557 198.147 171.015  1.00  0.00     0.236 C 
BRANCH  10  11
ATOM     11  C   UNL     1     189.108 199.158 169.998  1.00  0.00     0.021 C 
ATOM     12  C   UNL     1     190.591 198.897 169.704  1.00  0.00     0.011 C 
ATOM     13  C   UNL     1     188.894 200.599 170.477  1.00  0.00     0.011 C 
ENDBRANCH  10  11
ENDBRANCH   9  10
ENDBRANCH   7   9
ENDBRANCH   1   7
BRANCH   6  14
ATOM     14  C   UNL     1     184.329 200.228 171.793  1.00  0.00     0.339 C 
ATOM     15  O   UNL     1     185.128 200.957 172.444  1.00  0.00    -0.246 OA
BRANCH  14  16
ATOM     16  O   UNL     1     183.235 199.632 172.435  1.00  0.00    -0.462 OA
BRANCH  16  17
ATOM     17  C   UNL     1     183.016 198.223 172.495  1.00  0.00     0.236 C 
BRANCH  17  18
ATOM     18  C   UNL     1     182.810 197.755 173.948  1.00  0.00     0.021 C 
ATOM     19  C   UNL     1     184.144 197.439 174.639  1.00  0.00     0.011 C 
ATOM     20  C   UNL     1     182.045 198.820 174.744  1.00  0.00     0.011 C 
ENDBRANCH  17  18
ENDBRANCH  16  17
ENDBRANCH  14  16
ENDBRANCH   6  14
TORSDOF 8
ENDMDL
MODEL 2
REMARK VINA RESULT:    -5.379      0.507      5.319
REMARK INTER + INTRA:          -9.026
REMARK INTER:                  -7.822
REMARK INTRA:                  -1.204
REMARK UNBOUND:                -1.131
REMARK SMILES CC(C)COC(=O)c1ccccc1C(=O)OCC(C)C
REMARK SMILES IDX 8 1 9 2 10 3 11 4 12 5 13 6 6 7 7 8 5 9 4 10 2 11 1 12 3 13
REMARK SMILES IDX 14 14 15 15 16 16 17 17 18 18 19 19 20 20
REMARK H PARENT
REMARK Flexibility Score: inf
ROOT
ATOM      1  C   UNL     1     184.191 200.067 170.310  1.00  0.00     0.074 A 
ATOM      2  C   UNL     1     183.430 200.862 169.434  1.00  0.00     0.016 A 
ATOM      3  C   UNL     1     183.660 200.832 168.059  1.00  0.00     0.001 A 
ATOM      4  C   UNL     1     184.653 200.008 167.535  1.00  0.00     0.001 A 
ATOM      5  C   UNL     1     185.405 199.193 168.383  1.00  0.00     0.016 A 
ATOM      6  C   UNL     1     185.174 199.191 169.770  1.00  0.00     0.074 A 
ENDROOT
BRANCH   1   7
ATOM      7  C   UNL     1     183.968 200.235 171.763  1.00  0.00     0.339 C 
ATOM      8  O   UNL     1     184.681 201.033 172.431  1.00  0.00    -0.246 OA
BRANCH   7   9
ATOM      9  O   UNL     1     182.920 199.546 172.381  1.00  0.00    -0.462 OA
BRANCH   9  10
ATOM     10  C   UNL     1     182.993 198.160 172.705  1.00  0.00     0.236 C 
BRANCH  10  11
ATOM     11  C   UNL     1     182.827 197.951 174.219  1.00  0.00     0.021 C 
ATOM     12  C   UNL     1     182.401 199.250 174.914  1.00  0.00     0.011 C 
ATOM     13  C   UNL     1     184.111 197.396 174.846  1.00  0.00     0.011 C 
ENDBRANCH  10  11
ENDBRANCH   9  10
ENDBRANCH   7   9
ENDBRANCH   1   7
BRANCH   6  14
ATOM     14  C   UNL     1     185.929 198.220 170.595  1.00  0.00     0.339 C 
ATOM     15  O   UNL     1     185.677 196.986 170.515  1.00  0.00    -0.246 OA
BRANCH  14  16
ATOM     16  O   UNL     1     186.968 198.676 171.417  1.00  0.00    -0.462 OA
BRANCH  16  17
ATOM     17  C   UNL     1     188.336 198.299 171.257  1.00  0.00     0.236 C 
BRANCH  17  18
ATOM     18  C   UNL     1     189.119 199.371 170.476  1.00  0.00     0.021 C 
ATOM     19  C   UNL     1     189.094 199.106 168.964  1.00  0.00     0.011 C 
ATOM     20  C   UNL     1     188.552 200.764 170.775  1.00  0.00     0.011 C 
ENDBRANCH  17  18
ENDBRANCH  16  17
ENDBRANCH  14  16
ENDBRANCH   6  14
TORSDOF 8
ENDMDL
MODEL 3
REMARK VINA RESULT:    -5.005      1.637      4.992
REMARK INTER + INTRA:          -8.477
REMARK INTER:                  -7.752
REMARK INTRA:                  -0.725
REMARK UNBOUND:                -1.131
REMARK SMILES CC(C)COC(=O)c1ccccc1C(=O)OCC(C)C
REMARK SMILES IDX 8 1 9 2 10 3 11 4 12 5 13 6 6 7 7 8 5 9 4 10 2 11 1 12 3 13
REMARK SMILES IDX 14 14 15 15 16 16 17 17 18 18 19 19 20 20
REMARK H PARENT
REMARK Flexibility Score: inf
ROOT
ATOM      1  C   UNL     1     183.625 200.446 170.461  1.00  0.00     0.074 A 
ATOM      2  C   UNL     1     182.267 200.674 170.753  1.00  0.00     0.016 A 
ATOM      3  C   UNL     1     181.367 201.011 169.742  1.00  0.00     0.001 A 
ATOM      4  C   UNL     1     181.805 201.125 168.425  1.00  0.00     0.001 A 
ATOM      5  C   UNL     1     183.142 200.880 168.110  1.00  0.00     0.016 A 
ATOM      6  C   UNL     1     184.063 200.517 169.109  1.00  0.00     0.074 A 
ENDROOT
BRANCH   1   7
ATOM      7  C   UNL     1     184.542 200.204 171.598  1.00  0.00     0.339 C 
ATOM      8  O   UNL     1     185.318 201.116 171.997  1.00  0.00    -0.246 OA
BRANCH   7   9
ATOM      9  O   UNL     1     184.501 198.976 172.263  1.00  0.00    -0.462 OA
BRANCH   9  10
ATOM     10  C   UNL     1     183.379 198.099 172.198  1.00  0.00     0.236 C 
BRANCH  10  11
ATOM     11  C   UNL     1     182.878 197.759 173.610  1.00  0.00     0.021 C 
ATOM     12  C   UNL     1     181.945 198.853 174.145  1.00  0.00     0.011 C 
ATOM     13  C   UNL     1     184.048 197.525 174.572  1.00  0.00     0.011 C 
ENDBRANCH  10  11
ENDBRANCH   9  10
ENDBRANCH   7   9
ENDBRANCH   1   7
BRANCH   6  14
ATOM     14  C   UNL     1     185.437 200.162 168.687  1.00  0.00     0.339 C 
ATOM     15  O   UNL     1     186.103 200.951 167.960  1.00  0.00    -0.246 OA
BRANCH  14  16
ATOM     16  O   UNL     1     186.015 198.973 169.152  1.00  0.00    -0.462 OA
BRANCH  16  17
ATOM     17  C   UNL     1     187.421 198.762 169.267  1.00  0.00     0.236 C 
BRANCH  17  18
ATOM     18  C   UNL     1     187.749 197.854 170.468  1.00  0.00     0.021 C 
ATOM     19  C   UNL     1     188.084 198.671 171.724  1.00  0.00     0.011 C 
ATOM     20  C   UNL     1     186.577 196.908 170.753  1.00  0.00     0.011 C 
ENDBRANCH  17  18
ENDBRANCH  16  17
ENDBRANCH  14  16
ENDBRANCH   6  14
TORSDOF 8
ENDMDL
MODEL 4
REMARK VINA RESULT:    -4.988      1.408      4.635
REMARK INTER + INTRA:          -8.452
REMARK INTER:                  -7.509
REMARK INTRA:                  -0.943
REMARK UNBOUND:                -1.131
REMARK SMILES CC(C)COC(=O)c1ccccc1C(=O)OCC(C)C
REMARK SMILES IDX 8 1 9 2 10 3 11 4 12 5 13 6 6 7 7 8 5 9 4 10 2 11 1 12 3 13
REMARK SMILES IDX 14 14 15 15 16 16 17 17 18 18 19 19 20 20
REMARK H PARENT
REMARK Flexibility Score: inf
ROOT
ATOM      1  C   UNL     1     184.911 199.252 172.938  1.00  0.00     0.074 A 
ATOM      2  C   UNL     1     185.233 198.315 173.937  1.00  0.00     0.016 A 
ATOM      3  C   UNL     1     184.261 197.452 174.445  1.00  0.00     0.001 A 
ATOM      4  C   UNL     1     182.955 197.510 173.966  1.00  0.00     0.001 A 
ATOM      5  C   UNL     1     182.620 198.416 172.959  1.00  0.00     0.016 A 
ATOM      6  C   UNL     1     183.588 199.279 172.416  1.00  0.00     0.074 A 
ENDROOT
BRANCH   1   7
ATOM      7  C   UNL     1     185.963 200.209 172.528  1.00  0.00     0.339 C 
ATOM      8  O   UNL     1     186.334 201.125 173.312  1.00  0.00    -0.246 OA
BRANCH   7   9
ATOM      9  O   UNL     1     186.585 200.054 171.285  1.00  0.00    -0.462 OA
BRANCH   9  10
ATOM     10  C   UNL     1     187.979 200.274 171.086  1.00  0.00     0.236 C 
BRANCH  10  11
ATOM     11  C   UNL     1     188.690 198.954 170.750  1.00  0.00     0.021 C 
ATOM     12  C   UNL     1     189.306 198.999 169.346  1.00  0.00     0.011 C 
ATOM     13  C   UNL     1     187.738 197.761 170.888  1.00  0.00     0.011 C 
ENDBRANCH  10  11
ENDBRANCH   9  10
ENDBRANCH   7   9
ENDBRANCH   1   7
BRANCH   6  14
ATOM     14  C   UNL     1     183.189 200.133 171.273  1.00  0.00     0.339 C 
ATOM     15  O   UNL     1     182.430 201.125 171.455  1.00  0.00    -0.246 OA
BRANCH  14  16
ATOM     16  O   UNL     1     183.712 199.868 170.000  1.00  0.00    -0.462 OA
BRANCH  16  17
ATOM     17  C   UNL     1     183.558 200.737 168.879  1.00  0.00     0.236 C 
BRANCH  17  18
ATOM     18  C   UNL     1     184.688 200.523 167.853  1.00  0.00     0.021 C 
ATOM     19  C   UNL     1     185.523 199.276 168.177  1.00  0.00     0.011 C 
ATOM     20  C   UNL     1     184.105 200.413 166.439  1.00  0.00     0.011 C 
ENDBRANCH  17  18
ENDBRANCH  16  17
ENDBRANCH  14  16
ENDBRANCH   6  14
TORSDOF 8
ENDMDL
MODEL 5
REMARK VINA RESULT:    -4.947      1.335      4.781
REMARK INTER + INTRA:          -8.392
REMARK INTER:                  -7.498
REMARK INTRA:                  -0.894
REMARK UNBOUND:                -1.131
REMARK SMILES CC(C)COC(=O)c1ccccc1C(=O)OCC(C)C
REMARK SMILES IDX 8 1 9 2 10 3 11 4 12 5 13 6 6 7 7 8 5 9 4 10 2 11 1 12 3 13
REMARK SMILES IDX 14 14 15 15 16 16 17 17 18 18 19 19 20 20
REMARK H PARENT
REMARK Flexibility Score: inf
ROOT
ATOM      1  C   UNL     1     184.399 200.115 170.033  1.00  0.00     0.074 A 
ATOM      2  C   UNL     1     183.971 200.006 168.697  1.00  0.00     0.016 A 
ATOM      3  C   UNL     1     184.776 200.458 167.651  1.00  0.00     0.001 A 
ATOM      4  C   UNL     1     186.019 201.026 167.920  1.00  0.00     0.001 A 
ATOM      5  C   UNL     1     186.473 201.123 169.237  1.00  0.00     0.016 A 
ATOM      6  C   UNL     1     185.688 200.652 170.305  1.00  0.00     0.074 A 
ENDROOT
BRANCH   1   7
ATOM      7  C   UNL     1     183.447 199.718 171.095  1.00  0.00     0.339 C 
ATOM      8  O   UNL     1     182.556 200.522 171.487  1.00  0.00    -0.246 OA
BRANCH   7   9
ATOM      9  O   UNL     1     183.505 198.424 171.620  1.00  0.00    -0.462 OA
BRANCH   9  10
ATOM     10  C   UNL     1     184.292 198.088 172.760  1.00  0.00     0.236 C 
BRANCH  10  11
ATOM     11  C   UNL     1     183.400 197.917 173.999  1.00  0.00     0.021 C 
ATOM     12  C   UNL     1     183.026 199.276 174.604  1.00  0.00     0.011 C 
ATOM     13  C   UNL     1     184.074 197.023 175.047  1.00  0.00     0.011 C 
ENDBRANCH  10  11
ENDBRANCH   9  10
ENDBRANCH   7   9
ENDBRANCH   1   7
BRANCH   6  14
ATOM     14  C   UNL     1     186.279 200.683 171.663  1.00  0.00     0.339 C 
ATOM     15  O   UNL     1     185.610 201.123 172.638  1.00  0.00    -0.246 OA
BRANCH  14  16
ATOM     16  O   UNL     1     187.564 200.161 171.866  1.00  0.00    -0.462 OA
BRANCH  16  17
ATOM     17  C   UNL     1     187.823 198.821 172.281  1.00  0.00     0.236 C 
BRANCH  17  18
ATOM     18  C   UNL     1     188.154 197.921 171.076  1.00  0.00     0.021 C 
ATOM     19  C   UNL     1     186.885 197.365 170.415  1.00  0.00     0.011 C 
ATOM     20  C   UNL     1     188.986 198.697 170.048  1.00  0.00     0.011 C 
ENDBRANCH  17  18
ENDBRANCH  16  17
ENDBRANCH  14  16
ENDBRANCH   6  14
TORSDOF 8
ENDMDL
MODEL 6
REMARK VINA RESULT:    -4.923      1.297      3.367
REMARK INTER + INTRA:          -8.357
REMARK INTER:                  -7.577
REMARK INTRA:                  -0.780
REMARK UNBOUND:                -1.131
REMARK SMILES CC(C)COC(=O)c1ccccc1C(=O)OCC(C)C
REMARK SMILES IDX 8 1 9 2 10 3 11 4 12 5 13 6 6 7 7 8 5 9 4 10 2 11 1 12 3 13
REMARK SMILES IDX 14 14 15 15 16 16 17 17 18 18 19 19 20 20
REMARK H PARENT
REMARK Flexibility Score: inf
ROOT
ATOM      1  C   UNL     1     187.130 198.979 170.728  1.00  0.00     0.074 A 
ATOM      2  C   UNL     1     188.368 199.045 170.062  1.00  0.00     0.016 A 
ATOM      3  C   UNL     1     189.284 200.055 170.356  1.00  0.00     0.001 A 
ATOM      4  C   UNL     1     188.981 201.015 171.319  1.00  0.00     0.001 A 
ATOM      5  C   UNL     1     187.768 200.955 172.008  1.00  0.00     0.016 A 
ATOM      6  C   UNL     1     186.840 199.933 171.744  1.00  0.00     0.074 A 
ENDROOT
BRANCH   1   7
ATOM      7  C   UNL     1     186.164 197.949 170.285  1.00  0.00     0.339 C 
ATOM      8  O   UNL     1     186.367 196.731 170.543  1.00  0.00    -0.246 OA
BRANCH   7   9
ATOM      9  O   UNL     1     184.994 198.342 169.629  1.00  0.00    -0.462 OA
BRANCH   9  10
ATOM     10  C   UNL     1     184.770 199.677 169.183  1.00  0.00     0.236 C 
BRANCH  10  11
ATOM     11  C   UNL     1     185.419 199.902 167.807  1.00  0.00     0.021 C 
ATOM     12  C   UNL     1     186.344 201.125 167.824  1.00  0.00     0.011 C 
ATOM     13  C   UNL     1     184.357 200.039 166.710  1.00  0.00     0.011 C 
ENDBRANCH  10  11
ENDBRANCH   9  10
ENDBRANCH   7   9
ENDBRANCH   1   7
BRANCH   6  14
ATOM     14  C   UNL     1     185.627 199.865 172.591  1.00  0.00     0.339 C 
ATOM     15  O   UNL     1     184.931 200.899 172.788  1.00  0.00    -0.246 OA
BRANCH  14  16
ATOM     16  O   UNL     1     185.224 198.631 173.119  1.00  0.00    -0.462 OA
BRANCH  16  17
ATOM     17  C   UNL     1     183.906 198.100 172.989  1.00  0.00     0.236 C 
BRANCH  17  18
ATOM     18  C   UNL     1     183.295 197.787 174.368  1.00  0.00     0.021 C 
ATOM     19  C   UNL     1     184.285 197.040 175.273  1.00  0.00     0.011 C 
ATOM     20  C   UNL     1     182.833 199.081 175.048  1.00  0.00     0.011 C 
ENDBRANCH  17  18
ENDBRANCH  16  17
ENDBRANCH  14  16
ENDBRANCH   6  14
TORSDOF 8
ENDMDL
MODEL 7
REMARK VINA RESULT:    -4.870      1.523      5.443
REMARK INTER + INTRA:          -8.279
REMARK INTER:                  -7.622
REMARK INTRA:                  -0.657
REMARK UNBOUND:                -1.131
REMARK SMILES CC(C)COC(=O)c1ccccc1C(=O)OCC(C)C
REMARK SMILES IDX 8 1 9 2 10 3 11 4 12 5 13 6 6 7 7 8 5 9 4 10 2 11 1 12 3 13
REMARK SMILES IDX 14 14 15 15 16 16 17 17 18 18 19 19 20 20
REMARK H PARENT
REMARK Flexibility Score: inf
ROOT
ATOM      1  C   UNL     1     184.548 198.957 171.416  1.00  0.00     0.074 A 
ATOM      2  C   UNL     1     183.321 198.366 171.771  1.00  0.00     0.016 A 
ATOM      3  C   UNL     1     183.109 197.881 173.061  1.00  0.00     0.001 A 
ATOM      4  C   UNL     1     184.115 197.978 174.019  1.00  0.00     0.001 A 
ATOM      5  C   UNL     1     185.331 198.583 173.696  1.00  0.00     0.016 A 
ATOM      6  C   UNL     1     185.559 199.099 172.408  1.00  0.00     0.074 A 
ENDROOT
BRANCH   1   7
ATOM      7  C   UNL     1     184.741 199.346 170.001  1.00  0.00     0.339 C 
ATOM      8  O   UNL     1     185.114 198.493 169.150  1.00  0.00    -0.246 OA
BRANCH   7   9
ATOM      9  O   UNL     1     184.450 200.655 169.603  1.00  0.00    -0.462 OA
BRANCH   9  10
ATOM     10  C   UNL     1     183.473 200.961 168.612  1.00  0.00     0.236 C 
BRANCH  10  11
ATOM     11  C   UNL     1     183.940 200.484 167.228  1.00  0.00     0.021 C 
ATOM     12  C   UNL     1     185.281 201.123 166.846  1.00  0.00     0.011 C 
ATOM     13  C   UNL     1     182.879 200.765 166.157  1.00  0.00     0.011 C 
ENDBRANCH  10  11
ENDBRANCH   9  10
ENDBRANCH   7   9
ENDBRANCH   1   7
BRANCH   6  14
ATOM     14  C   UNL     1     186.827 199.826 172.169  1.00  0.00     0.339 C 
ATOM     15  O   UNL     1     186.873 201.081 172.294  1.00  0.00    -0.246 OA
BRANCH  14  16
ATOM     16  O   UNL     1     187.988 199.104 171.864  1.00  0.00    -0.462 OA
BRANCH  16  17
ATOM     17  C   UNL     1     188.079 198.150 170.805  1.00  0.00     0.236 C 
BRANCH  17  18
ATOM     18  C   UNL     1     188.800 198.747 169.582  1.00  0.00     0.021 C 
ATOM     19  C   UNL     1     188.205 200.102 169.175  1.00  0.00     0.011 C 
ATOM     20  C   UNL     1     190.299 198.896 169.871  1.00  0.00     0.011 C 
ENDBRANCH  17  18
ENDBRANCH  16  17
ENDBRANCH  14  16
ENDBRANCH   6  14
TORSDOF 8
ENDMDL
MODEL 8
REMARK VINA RESULT:    -4.845      1.407      2.241
REMARK INTER + INTRA:          -8.241
REMARK INTER:                  -7.095
REMARK INTRA:                  -1.147
REMARK UNBOUND:                -1.131
REMARK SMILES CC(C)COC(=O)c1ccccc1C(=O)OCC(C)C
REMARK SMILES IDX 8 1 9 2 10 3 11 4 12 5 13 6 6 7 7 8 5 9 4 10 2 11 1 12 3 13
REMARK SMILES IDX 14 14 15 15 16 16 17 17 18 18 19 19 20 20
REMARK H PARENT
REMARK Flexibility Score: inf
ROOT
ATOM      1  C   UNL     1     185.044 200.546 171.036  1.00  0.00     0.074 A 
ATOM      2  C   UNL     1     185.771 200.900 169.885  1.00  0.00     0.016 A 
ATOM      3  C   UNL     1     185.126 201.074 168.659  1.00  0.00     0.001 A 
ATOM      4  C   UNL     1     183.748 200.898 168.563  1.00  0.00     0.001 A 
ATOM      5  C   UNL     1     183.004 200.569 169.698  1.00  0.00     0.016 A 
ATOM      6  C   UNL     1     183.630 200.412 170.948  1.00  0.00     0.074 A 
ENDROOT
BRANCH   1   7
ATOM      7  C   UNL     1     185.808 200.268 172.274  1.00  0.00     0.339 C 
ATOM      8  O   UNL     1     185.839 201.116 173.208  1.00  0.00    -0.246 OA
BRANCH   7   9
ATOM      9  O   UNL     1     186.446 199.034 172.424  1.00  0.00    -0.462 OA
BRANCH   9  10
ATOM     10  C   UNL     1     187.844 198.856 172.212  1.00  0.00     0.236 C 
BRANCH  10  11
ATOM     11  C   UNL     1     188.095 198.021 170.947  1.00  0.00     0.021 C 
ATOM     12  C   UNL     1     188.780 198.856 169.858  1.00  0.00     0.011 C 
ATOM     13  C   UNL     1     186.793 197.406 170.421  1.00  0.00     0.011 C 
ENDBRANCH  10  11
ENDBRANCH   9  10
ENDBRANCH   7   9
ENDBRANCH   1   7
BRANCH   6  14
ATOM     14  C   UNL     1     182.767 200.176 172.128  1.00  0.00     0.339 C 
ATOM     15  O   UNL     1     182.104 201.125 172.631  1.00  0.00    -0.246 OA
BRANCH  14  16
ATOM     16  O   UNL     1     182.643 198.878 172.642  1.00  0.00    -0.462 OA
BRANCH  16  17
ATOM     17  C   UNL     1     183.284 198.429 173.836  1.00  0.00     0.236 C 
BRANCH  17  18
ATOM     18  C   UNL     1     182.334 198.524 175.045  1.00  0.00     0.021 C 
ATOM     19  C   UNL     1     182.597 199.786 175.878  1.00  0.00     0.011 C 
ATOM     20  C   UNL     1     180.875 198.499 174.575  1.00  0.00     0.011 C 
ENDBRANCH  17  18
ENDBRANCH  16  17
ENDBRANCH  14  16
ENDBRANCH   6  14
TORSDOF 8
ENDMDL
