MODEL 1
REMARK VINA RESULT:    -6.334      0.000      0.000
REMARK INTER + INTRA:         -10.901
REMARK INTER:                 -10.037
REMARK INTRA:                  -0.864
REMARK UNBOUND:                -0.864
REMARK SMILES CCCCCCCCCCCC(=O)[O-]
REMARK SMILES IDX 7 1 8 2 9 3 10 4 11 5 12 6 13 7 14 8 6 9 5 10 4 11 3 12 2 13
REMARK SMILES IDX 1 14
REMARK H PARENT
REMARK Flexibility Score: inf
ROOT
ATOM      1  C   UNL     1     -22.394 -21.055  29.558  1.00  0.00     0.000 C 
ENDROOT
BRANCH   1   2
ATOM      2  C   UNL     1     -22.220 -22.104  28.446  1.00  0.00     0.000 C 
BRANCH   2   3
ATOM      3  C   UNL     1     -21.891 -23.501  28.996  1.00  0.00     0.000 C 
BRANCH   3   4
ATOM      4  C   UNL     1     -23.091 -24.461  28.928  1.00  0.00     0.006 C 
BRANCH   4   5
ATOM      5  C   UNL     1     -23.464 -25.022  30.307  1.00  0.00     0.053 C 
BRANCH   5   6
ATOM      6  C   UNL     1     -24.768 -25.757  30.277  1.00  0.00     0.041 C 
ATOM      7  O   UNL     1     -25.149 -26.411  31.284  1.00  0.00    -0.550 OA
ATOM      8  O   UNL     1     -25.577 -25.697  29.149  1.00  0.00    -0.550 OA
ENDBRANCH   5   6
ENDBRANCH   4   5
ENDBRANCH   3   4
ENDBRANCH   2   3
ENDBRANCH   1   2
BRANCH   1   9
ATOM      9  C   UNL     1     -22.051 -21.606  30.952  1.00  0.00     0.000 C 
BRANCH   9  10
ATOM     10  C   UNL     1     -20.924 -20.814  31.638  1.00  0.00    -0.000 C 
BRANCH  10  11
ATOM     11  C   UNL     1     -21.015 -19.303  31.366  1.00  0.00    -0.000 C 
BRANCH  11  12
ATOM     12  C   UNL     1     -19.655 -18.688  30.991  1.00  0.00    -0.000 C 
BRANCH  12  13
ATOM     13  C   UNL     1     -19.420 -18.660  29.473  1.00  0.00    -0.003 C 
ATOM     14  C   UNL     1     -20.461 -17.824  28.726  1.00  0.00     0.004 C 
ENDBRANCH  12  13
ENDBRANCH  11  12
ENDBRANCH  10  11
ENDBRANCH   9  10
ENDBRANCH   1   9
TORSDOF 10
ENDMDL
MODEL 2
REMARK VINA RESULT:    -6.334      4.542      7.431
REMARK INTER + INTRA:         -10.901
REMARK INTER:                 -10.334
REMARK INTRA:                  -0.568
REMARK UNBOUND:                -0.864
REMARK SMILES CCCCCCCCCCCC(=O)[O-]
REMARK SMILES IDX 7 1 8 2 9 3 10 4 11 5 12 6 13 7 14 8 6 9 5 10 4 11 3 12 2 13
REMARK SMILES IDX 1 14
REMARK H PARENT
REMARK Flexibility Score: inf
ROOT
ATOM      1  C   UNL     1     -22.382 -20.939  30.493  1.00  0.00     0.000 C 
ENDROOT
BRANCH   1   2
ATOM      2  C   UNL     1     -21.298 -19.849  30.420  1.00  0.00     0.000 C 
BRANCH   2   3
ATOM      3  C   UNL     1     -20.973 -19.433  28.977  1.00  0.00     0.000 C 
BRANCH   3   4
ATOM      4  C   UNL     1     -20.470 -17.982  28.879  1.00  0.00     0.006 C 
BRANCH   4   5
ATOM      5  C   UNL     1     -18.975 -17.865  29.205  1.00  0.00     0.053 C 
BRANCH   5   6
ATOM      6  C   UNL     1     -18.736 -17.055  30.442  1.00  0.00     0.041 C 
ATOM      7  O   UNL     1     -18.994 -17.539  31.575  1.00  0.00    -0.550 OA
ATOM      8  O   UNL     1     -18.197 -15.778  30.345  1.00  0.00    -0.550 OA
ENDBRANCH   5   6
ENDBRANCH   4   5
ENDBRANCH   3   4
ENDBRANCH   2   3
ENDBRANCH   1   2
BRANCH   1   9
ATOM      9  C   UNL     1     -22.001 -22.094  31.433  1.00  0.00     0.000 C 
BRANCH   9  10
ATOM     10  C   UNL     1     -22.335 -23.473  30.839  1.00  0.00    -0.000 C 
BRANCH  10  11
ATOM     11  C   UNL     1     -22.014 -23.562  29.337  1.00  0.00    -0.000 C 
BRANCH  11  12
ATOM     12  C   UNL     1     -23.045 -24.401  28.562  1.00  0.00    -0.000 C 
BRANCH  12  13
ATOM     13  C   UNL     1     -23.774 -25.413  29.460  1.00  0.00    -0.003 C 
ATOM     14  C   UNL     1     -24.121 -26.712  28.730  1.00  0.00     0.004 C 
ENDBRANCH  12  13
ENDBRANCH  11  12
ENDBRANCH  10  11
ENDBRANCH   9  10
ENDBRANCH   1   9
TORSDOF 10
ENDMDL
MODEL 3
REMARK VINA RESULT:    -6.326      3.982      6.869
REMARK INTER + INTRA:         -10.887
REMARK INTER:                 -10.015
REMARK INTRA:                  -0.872
REMARK UNBOUND:                -0.864
REMARK SMILES CCCCCCCCCCCC(=O)[O-]
REMARK SMILES IDX 7 1 8 2 9 3 10 4 11 5 12 6 13 7 14 8 6 9 5 10 4 11 3 12 2 13
REMARK SMILES IDX 1 14
REMARK H PARENT
REMARK Flexibility Score: inf
ROOT
ATOM      1  C   UNL     1     -21.799 -23.197  29.572  1.00  0.00     0.000 C 
ENDROOT
BRANCH   1   2
ATOM      2  C   UNL     1     -22.164 -22.202  28.456  1.00  0.00     0.000 C 
BRANCH   2   3
ATOM      3  C   UNL     1     -22.404 -20.780  28.987  1.00  0.00     0.000 C 
BRANCH   3   4
ATOM      4  C   UNL     1     -21.206 -19.847  28.741  1.00  0.00     0.006 C 
BRANCH   4   5
ATOM      5  C   UNL     1     -20.836 -19.037  29.991  1.00  0.00     0.053 C 
BRANCH   5   6
ATOM      6  C   UNL     1     -19.391 -18.645  29.995  1.00  0.00     0.041 C 
ATOM      7  O   UNL     1     -18.790 -18.433  28.909  1.00  0.00    -0.550 OA
ATOM      8  O   UNL     1     -18.716 -18.484  31.198  1.00  0.00    -0.550 OA
ENDBRANCH   5   6
ENDBRANCH   4   5
ENDBRANCH   3   4
ENDBRANCH   2   3
ENDBRANCH   1   2
BRANCH   1   9
ATOM      9  C   UNL     1     -22.158 -22.676  30.973  1.00  0.00     0.000 C 
BRANCH   9  10
ATOM     10  C   UNL     1     -23.312 -23.465  31.617  1.00  0.00    -0.000 C 
BRANCH  10  11
ATOM     11  C   UNL     1     -23.347 -24.935  31.165  1.00  0.00    -0.000 C 
BRANCH  11  12
ATOM     12  C   UNL     1     -24.775 -25.434  30.888  1.00  0.00    -0.000 C 
BRANCH  12  13
ATOM     13  C   UNL     1     -25.004 -25.775  29.408  1.00  0.00    -0.003 C 
ATOM     14  C   UNL     1     -23.750 -26.323  28.724  1.00  0.00     0.004 C 
ENDBRANCH  12  13
ENDBRANCH  11  12
ENDBRANCH  10  11
ENDBRANCH   9  10
ENDBRANCH   1   9
TORSDOF 10
ENDMDL
MODEL 4
REMARK VINA RESULT:    -6.263      4.977      7.803
REMARK INTER + INTRA:         -10.787
REMARK INTER:                 -10.291
REMARK INTRA:                  -0.496
REMARK UNBOUND:                -0.864
REMARK SMILES CCCCCCCCCCCC(=O)[O-]
REMARK SMILES IDX 7 1 8 2 9 3 10 4 11 5 12 6 13 7 14 8 6 9 5 10 4 11 3 12 2 13
REMARK SMILES IDX 1 14
REMARK H PARENT
REMARK Flexibility Score: inf
ROOT
ATOM      1  C   UNL     1     -21.975 -21.012  29.094  1.00  0.00     0.000 C 
ENDROOT
BRANCH   1   2
ATOM      2  C   UNL     1     -21.286 -19.783  28.476  1.00  0.00     0.000 C 
BRANCH   2   3
ATOM      3  C   UNL     1     -20.804 -18.780  29.535  1.00  0.00     0.000 C 
BRANCH   3   4
ATOM      4  C   UNL     1     -20.215 -17.501  28.914  1.00  0.00     0.006 C 
BRANCH   4   5
ATOM      5  C   UNL     1     -18.681 -17.517  28.901  1.00  0.00     0.053 C 
BRANCH   5   6
ATOM      6  C   UNL     1     -18.114 -16.255  28.327  1.00  0.00     0.041 C 
ATOM      7  O   UNL     1     -18.226 -16.012  27.097  1.00  0.00    -0.550 OA
ATOM      8  O   UNL     1     -17.489 -15.332  29.157  1.00  0.00    -0.550 OA
ENDBRANCH   5   6
ENDBRANCH   4   5
ENDBRANCH   3   4
ENDBRANCH   2   3
ENDBRANCH   1   2
BRANCH   1   9
ATOM      9  C   UNL     1     -22.117 -20.907  30.621  1.00  0.00     0.000 C 
BRANCH   9  10
ATOM     10  C   UNL     1     -21.979 -22.271  31.321  1.00  0.00    -0.000 C 
BRANCH  10  11
ATOM     11  C   UNL     1     -22.281 -23.450  30.381  1.00  0.00    -0.000 C 
BRANCH  11  12
ATOM     12  C   UNL     1     -23.129 -24.541  31.058  1.00  0.00    -0.000 C 
BRANCH  12  13
ATOM     13  C   UNL     1     -23.750 -25.516  30.045  1.00  0.00    -0.003 C 
ATOM     14  C   UNL     1     -23.308 -25.241  28.607  1.00  0.00     0.004 C 
ENDBRANCH  12  13
ENDBRANCH  11  12
ENDBRANCH  10  11
ENDBRANCH   9  10
ENDBRANCH   1   9
TORSDOF 10
ENDMDL
MODEL 5
REMARK VINA RESULT:    -6.227      1.231      2.031
REMARK INTER + INTRA:         -10.730
REMARK INTER:                 -10.155
REMARK INTRA:                  -0.576
REMARK UNBOUND:                -0.864
REMARK SMILES CCCCCCCCCCCC(=O)[O-]
REMARK SMILES IDX 7 1 8 2 9 3 10 4 11 5 12 6 13 7 14 8 6 9 5 10 4 11 3 12 2 13
REMARK SMILES IDX 1 14
REMARK H PARENT
REMARK Flexibility Score: inf
ROOT
ATOM      1  C   UNL     1     -22.211 -22.845  28.740  1.00  0.00     0.000 C 
ENDROOT
BRANCH   1   2
ATOM      2  C   UNL     1     -22.100 -23.476  30.139  1.00  0.00     0.000 C 
BRANCH   2   3
ATOM      3  C   UNL     1     -23.103 -24.620  30.353  1.00  0.00     0.000 C 
BRANCH   3   4
ATOM      4  C   UNL     1     -23.678 -25.158  29.031  1.00  0.00     0.006 C 
BRANCH   4   5
ATOM      5  C   UNL     1     -23.825 -26.685  29.042  1.00  0.00     0.053 C 
BRANCH   5   6
ATOM      6  C   UNL     1     -25.245 -27.108  29.263  1.00  0.00     0.041 C 
ATOM      7  O   UNL     1     -26.083 -27.024  28.327  1.00  0.00    -0.550 OA
ATOM      8  O   UNL     1     -25.635 -27.624  30.492  1.00  0.00    -0.550 OA
ENDBRANCH   5   6
ENDBRANCH   4   5
ENDBRANCH   3   4
ENDBRANCH   2   3
ENDBRANCH   1   2
BRANCH   1   9
ATOM      9  C   UNL     1     -22.129 -21.310  28.772  1.00  0.00     0.000 C 
BRANCH   9  10
ATOM     10  C   UNL     1     -21.979 -20.758  30.201  1.00  0.00    -0.000 C 
BRANCH  10  11
ATOM     11  C   UNL     1     -21.110 -19.490  30.255  1.00  0.00    -0.000 C 
BRANCH  11  12
ATOM     12  C   UNL     1     -20.810 -18.921  28.857  1.00  0.00    -0.000 C 
BRANCH  12  13
ATOM     13  C   UNL     1     -19.918 -17.671  28.910  1.00  0.00    -0.003 C 
ATOM     14  C   UNL     1     -19.482 -17.311  30.331  1.00  0.00     0.004 C 
ENDBRANCH  12  13
ENDBRANCH  11  12
ENDBRANCH  10  11
ENDBRANCH   9  10
ENDBRANCH   1   9
TORSDOF 10
ENDMDL
MODEL 6
REMARK VINA RESULT:    -6.189      1.189      2.087
REMARK INTER + INTRA:         -10.671
REMARK INTER:                 -10.036
REMARK INTRA:                  -0.635
REMARK UNBOUND:                -0.864
REMARK SMILES CCCCCCCCCCCC(=O)[O-]
REMARK SMILES IDX 7 1 8 2 9 3 10 4 11 5 12 6 13 7 14 8 6 9 5 10 4 11 3 12 2 13
REMARK SMILES IDX 1 14
REMARK H PARENT
REMARK Flexibility Score: inf
ROOT
ATOM      1  C   UNL     1     -22.008 -23.254  30.242  1.00  0.00     0.000 C 
ENDROOT
BRANCH   1   2
ATOM      2  C   UNL     1     -22.948 -24.472  30.193  1.00  0.00     0.000 C 
BRANCH   2   3
ATOM      3  C   UNL     1     -23.131 -25.021  28.770  1.00  0.00     0.000 C 
BRANCH   3   4
ATOM      4  C   UNL     1     -23.962 -26.316  28.738  1.00  0.00     0.006 C 
BRANCH   4   5
ATOM      5  C   UNL     1     -25.348 -26.130  29.371  1.00  0.00     0.053 C 
BRANCH   5   6
ATOM      6  C   UNL     1     -25.579 -27.087  30.500  1.00  0.00     0.041 C 
ATOM      7  O   UNL     1     -25.290 -26.755  31.680  1.00  0.00    -0.550 OA
ATOM      8  O   UNL     1     -26.141 -28.333  30.254  1.00  0.00    -0.550 OA
ENDBRANCH   5   6
ENDBRANCH   4   5
ENDBRANCH   3   4
ENDBRANCH   2   3
ENDBRANCH   1   2
BRANCH   1   9
ATOM      9  C   UNL     1     -22.021 -22.441  28.936  1.00  0.00     0.000 C 
BRANCH   9  10
ATOM     10  C   UNL     1     -22.300 -20.947  29.176  1.00  0.00    -0.000 C 
BRANCH  10  11
ATOM     11  C   UNL     1     -21.950 -20.503  30.606  1.00  0.00    -0.000 C 
BRANCH  11  12
ATOM     12  C   UNL     1     -20.912 -19.369  30.635  1.00  0.00    -0.000 C 
BRANCH  12  13
ATOM     13  C   UNL     1     -20.549 -18.867  29.228  1.00  0.00    -0.003 C 
ATOM     14  C   UNL     1     -19.139 -18.281  29.152  1.00  0.00     0.004 C 
ENDBRANCH  12  13
ENDBRANCH  11  12
ENDBRANCH  10  11
ENDBRANCH   9  10
ENDBRANCH   1   9
TORSDOF 10
ENDMDL
MODEL 7
REMARK VINA RESULT:    -6.177      2.100      2.746
REMARK INTER + INTRA:         -10.652
REMARK INTER:                 -10.124
REMARK INTRA:                  -0.527
REMARK UNBOUND:                -0.864
REMARK SMILES CCCCCCCCCCCC(=O)[O-]
REMARK SMILES IDX 7 1 8 2 9 3 10 4 11 5 12 6 13 7 14 8 6 9 5 10 4 11 3 12 2 13
REMARK SMILES IDX 1 14
REMARK H PARENT
REMARK Flexibility Score: inf
ROOT
ATOM      1  C   UNL     1     -22.212 -23.523  29.237  1.00  0.00     0.000 C 
ENDROOT
BRANCH   1   2
ATOM      2  C   UNL     1     -22.858 -24.718  28.515  1.00  0.00     0.000 C 
BRANCH   2   3
ATOM      3  C   UNL     1     -24.034 -25.319  29.301  1.00  0.00     0.000 C 
BRANCH   3   4
ATOM      4  C   UNL     1     -24.466 -26.693  28.761  1.00  0.00     0.006 C 
BRANCH   4   5
ATOM      5  C   UNL     1     -25.974 -26.759  28.483  1.00  0.00     0.053 C 
BRANCH   5   6
ATOM      6  C   UNL     1     -26.398 -28.119  28.024  1.00  0.00     0.041 C 
ATOM      7  O   UNL     1     -26.672 -29.015  28.866  1.00  0.00    -0.550 OA
ATOM      8  O   UNL     1     -26.523 -28.390  26.667  1.00  0.00    -0.550 OA
ENDBRANCH   5   6
ENDBRANCH   4   5
ENDBRANCH   3   4
ENDBRANCH   2   3
ENDBRANCH   1   2
BRANCH   1   9
ATOM      9  C   UNL     1     -22.429 -23.561  30.759  1.00  0.00     0.000 C 
BRANCH   9  10
ATOM     10  C   UNL     1     -21.993 -22.256  31.449  1.00  0.00    -0.000 C 
BRANCH  10  11
ATOM     11  C   UNL     1     -22.168 -21.024  30.545  1.00  0.00    -0.000 C 
BRANCH  11  12
ATOM     12  C   UNL     1     -21.243 -19.862  30.947  1.00  0.00    -0.000 C 
BRANCH  12  13
ATOM     13  C   UNL     1     -20.715 -19.083  29.732  1.00  0.00    -0.003 C 
ATOM     14  C   UNL     1     -21.250 -19.620  28.404  1.00  0.00     0.004 C 
ENDBRANCH  12  13
ENDBRANCH  11  12
ENDBRANCH  10  11
ENDBRANCH   9  10
ENDBRANCH   1   9
TORSDOF 10
ENDMDL
MODEL 8
REMARK VINA RESULT:    -6.061      3.936      7.715
REMARK INTER + INTRA:         -10.468
REMARK INTER:                 -10.099
REMARK INTRA:                  -0.368
REMARK UNBOUND:                -0.864
REMARK SMILES CCCCCCCCCCCC(=O)[O-]
REMARK SMILES IDX 7 1 8 2 9 3 10 4 11 5 12 6 13 7 14 8 6 9 5 10 4 11 3 12 2 13
REMARK SMILES IDX 1 14
REMARK H PARENT
REMARK Flexibility Score: inf
ROOT
ATOM      1  C   UNL     1     -22.180 -22.922  29.209  1.00  0.00     0.000 C 
ENDROOT
BRANCH   1   2
ATOM      2  C   UNL     1     -22.279 -22.995  30.743  1.00  0.00     0.000 C 
BRANCH   2   3
ATOM      3  C   UNL     1     -21.690 -21.755  31.434  1.00  0.00     0.000 C 
BRANCH   3   4
ATOM      4  C   UNL     1     -21.785 -20.491  30.562  1.00  0.00     0.006 C 
BRANCH   4   5
ATOM      5  C   UNL     1     -20.977 -19.324  31.145  1.00  0.00     0.053 C 
BRANCH   5   6
ATOM      6  C   UNL     1     -20.312 -18.515  30.074  1.00  0.00     0.041 C 
ATOM      7  O   UNL     1     -19.485 -17.616  30.381  1.00  0.00    -0.550 OA
ATOM      8  O   UNL     1     -20.580 -18.776  28.736  1.00  0.00    -0.550 OA
ENDBRANCH   5   6
ENDBRANCH   4   5
ENDBRANCH   3   4
ENDBRANCH   2   3
ENDBRANCH   1   2
BRANCH   1   9
ATOM      9  C   UNL     1     -22.698 -24.195  28.520  1.00  0.00     0.000 C 
BRANCH   9  10
ATOM     10  C   UNL     1     -23.495 -25.100  29.475  1.00  0.00    -0.000 C 
BRANCH  10  11
ATOM     11  C   UNL     1     -23.866 -26.449  28.837  1.00  0.00    -0.000 C 
BRANCH  11  12
ATOM     12  C   UNL     1     -25.320 -26.860  29.130  1.00  0.00    -0.000 C 
BRANCH  12  13
ATOM     13  C   UNL     1     -25.920 -27.736  28.019  1.00  0.00    -0.003 C 
ATOM     14  C   UNL     1     -26.810 -28.855  28.561  1.00  0.00     0.004 C 
ENDBRANCH  12  13
ENDBRANCH  11  12
ENDBRANCH  10  11
ENDBRANCH   9  10
ENDBRANCH   1   9
TORSDOF 10
ENDMDL
MODEL 9
REMARK VINA RESULT:    -6.009      4.204      7.752
REMARK INTER + INTRA:         -10.385
REMARK INTER:                 -10.050
REMARK INTRA:                  -0.335
REMARK UNBOUND:                -0.864
REMARK SMILES CCCCCCCCCCCC(=O)[O-]
REMARK SMILES IDX 7 1 8 2 9 3 10 4 11 5 12 6 13 7 14 8 6 9 5 10 4 11 3 12 2 13
REMARK SMILES IDX 1 14
REMARK H PARENT
REMARK Flexibility Score: inf
ROOT
ATOM      1  C   UNL     1     -22.408 -23.443  30.462  1.00  0.00     0.000 C 
ENDROOT
BRANCH   1   2
ATOM      2  C   UNL     1     -22.062 -22.102  31.133  1.00  0.00     0.000 C 
BRANCH   2   3
ATOM      3  C   UNL     1     -22.131 -20.917  30.157  1.00  0.00     0.000 C 
BRANCH   3   4
ATOM      4  C   UNL     1     -21.182 -19.772  30.549  1.00  0.00     0.006 C 
BRANCH   4   5
ATOM      5  C   UNL     1     -20.654 -19.013  29.324  1.00  0.00     0.053 C 
BRANCH   5   6
ATOM      6  C   UNL     1     -19.377 -18.289  29.623  1.00  0.00     0.041 C 
ATOM      7  O   UNL     1     -18.784 -17.650  28.714  1.00  0.00    -0.550 OA
ATOM      8  O   UNL     1     -18.860 -18.292  30.912  1.00  0.00    -0.550 OA
ENDBRANCH   5   6
ENDBRANCH   4   5
ENDBRANCH   3   4
ENDBRANCH   2   3
ENDBRANCH   1   2
BRANCH   1   9
ATOM      9  C   UNL     1     -23.149 -24.405  31.406  1.00  0.00     0.000 C 
BRANCH   9  10
ATOM     10  C   UNL     1     -24.137 -25.318  30.659  1.00  0.00    -0.000 C 
BRANCH  10  11
ATOM     11  C   UNL     1     -23.842 -25.400  29.152  1.00  0.00    -0.000 C 
BRANCH  11  12
ATOM     12  C   UNL     1     -24.152 -26.788  28.565  1.00  0.00    -0.000 C 
BRANCH  12  13
ATOM     13  C   UNL     1     -25.607 -27.218  28.808  1.00  0.00    -0.003 C 
ATOM     14  C   UNL     1     -26.150 -28.126  27.704  1.00  0.00     0.004 C 
ENDBRANCH  12  13
ENDBRANCH  11  12
ENDBRANCH  10  11
ENDBRANCH   9  10
ENDBRANCH   1   9
TORSDOF 10
ENDMDL
