MODEL 1
REMARK VINA RESULT:    -4.147      0.000      0.000
REMARK INTER + INTRA:          -5.371
REMARK INTER:                  -5.116
REMARK INTRA:                  -0.255
REMARK UNBOUND:                -0.255
REMARK SMILES CCCCC=CC(C)=O
REMARK SMILES IDX 4 1 3 2 2 3 1 4 5 5 6 6 7 7 9 8 8 9
REMARK H PARENT
REMARK Flexibility Score: inf
ROOT
ATOM      1  C   UNL     1      11.232 -29.910  22.150  1.00  0.00     0.027 C 
ENDROOT
BRANCH   1   2
ATOM      2  C   UNL     1      11.154 -28.781  23.185  1.00  0.00     0.004 C 
BRANCH   2   3
ATOM      3  C   UNL     1      12.389 -28.781  24.093  1.00  0.00    -0.003 C 
ATOM      4  C   UNL     1      13.016 -27.391  24.170  1.00  0.00     0.004 C 
ENDBRANCH   2   3
ENDBRANCH   1   2
BRANCH   1   5
ATOM      5  C   UNL     1      12.355 -30.857  22.461  1.00  0.00    -0.023 C 
ATOM      6  C   UNL     1      13.148 -31.340  21.497  1.00  0.00     0.042 C 
BRANCH   6   7
ATOM      7  C   UNL     1      14.271 -32.264  21.755  1.00  0.00     0.152 C 
ATOM      8  O   UNL     1      14.468 -33.214  20.952  1.00  0.00    -0.295 OA
ATOM      9  C   UNL     1      15.181 -32.113  22.937  1.00  0.00     0.093 C 
ENDBRANCH   6   7
ENDBRANCH   1   5
TORSDOF 4
ENDMDL
MODEL 2
REMARK VINA RESULT:    -4.139      1.124      1.642
REMARK INTER + INTRA:          -5.361
REMARK INTER:                  -5.199
REMARK INTRA:                  -0.163
REMARK UNBOUND:                -0.255
REMARK SMILES CCCCC=CC(C)=O
REMARK SMILES IDX 4 1 3 2 2 3 1 4 5 5 6 6 7 7 9 8 8 9
REMARK H PARENT
REMARK Flexibility Score: inf
ROOT
ATOM      1  C   UNL     1      12.647 -30.378  22.601  1.00  0.00     0.027 C 
ENDROOT
BRANCH   1   2
ATOM      2  C   UNL     1      13.100 -29.530  23.796  1.00  0.00     0.004 C 
BRANCH   2   3
ATOM      3  C   UNL     1      12.111 -28.391  24.069  1.00  0.00    -0.003 C 
ATOM      4  C   UNL     1      10.875 -28.510  23.181  1.00  0.00     0.004 C 
ENDBRANCH   2   3
ENDBRANCH   1   2
BRANCH   1   5
ATOM      5  C   UNL     1      13.489 -31.612  22.458  1.00  0.00    -0.023 C 
ATOM      6  C   UNL     1      13.810 -32.102  21.255  1.00  0.00     0.042 C 
BRANCH   6   7
ATOM      7  C   UNL     1      14.644 -33.306  21.064  1.00  0.00     0.152 C 
ATOM      8  O   UNL     1      14.711 -33.819  19.915  1.00  0.00    -0.295 OA
ATOM      9  C   UNL     1      15.412 -33.937  22.186  1.00  0.00     0.093 C 
ENDBRANCH   6   7
ENDBRANCH   1   5
TORSDOF 4
ENDMDL
MODEL 3
REMARK VINA RESULT:    -3.981      1.724      2.530
REMARK INTER + INTRA:          -5.166
REMARK INTER:                  -4.990
REMARK INTRA:                  -0.176
REMARK UNBOUND:                -0.255
REMARK SMILES CCCCC=CC(C)=O
REMARK SMILES IDX 4 1 3 2 2 3 1 4 5 5 6 6 7 7 9 8 8 9
REMARK H PARENT
REMARK Flexibility Score: inf
ROOT
ATOM      1  C   UNL     1      13.248 -31.386  21.030  1.00  0.00     0.027 C 
ENDROOT
BRANCH   1   2
ATOM      2  C   UNL     1      12.371 -30.895  22.189  1.00  0.00     0.004 C 
BRANCH   2   3
ATOM      3  C   UNL     1      13.227 -30.518  23.404  1.00  0.00    -0.003 C 
ATOM      4  C   UNL     1      12.766 -29.197  24.013  1.00  0.00     0.004 C 
ENDBRANCH   2   3
ENDBRANCH   1   2
BRANCH   1   5
ATOM      5  C   UNL     1      14.187 -32.468  21.478  1.00  0.00    -0.023 C 
ATOM      6  C   UNL     1      14.590 -33.433  20.643  1.00  0.00     0.042 C 
BRANCH   6   7
ATOM      7  C   UNL     1      15.521 -34.511  21.035  1.00  0.00     0.152 C 
ATOM      8  O   UNL     1      15.766 -35.428  20.207  1.00  0.00    -0.295 OA
ATOM      9  C   UNL     1      16.182 -34.552  22.380  1.00  0.00     0.093 C 
ENDBRANCH   6   7
ENDBRANCH   1   5
TORSDOF 4
ENDMDL
MODEL 4
REMARK VINA RESULT:    -3.964      1.651      2.412
REMARK INTER + INTRA:          -5.146
REMARK INTER:                  -4.972
REMARK INTRA:                  -0.174
REMARK UNBOUND:                -0.255
REMARK SMILES CCCCC=CC(C)=O
REMARK SMILES IDX 4 1 3 2 2 3 1 4 5 5 6 6 7 7 9 8 8 9
REMARK H PARENT
REMARK Flexibility Score: inf
ROOT
ATOM      1  C   UNL     1      13.030 -31.001  21.704  1.00  0.00     0.027 C 
ENDROOT
BRANCH   1   2
ATOM      2  C   UNL     1      13.099 -30.852  23.229  1.00  0.00     0.004 C 
BRANCH   2   3
ATOM      3  C   UNL     1      13.282 -29.384  23.630  1.00  0.00    -0.003 C 
ATOM      4  C   UNL     1      11.942 -28.730  23.956  1.00  0.00     0.004 C 
ENDBRANCH   2   3
ENDBRANCH   1   2
BRANCH   1   5
ATOM      5  C   UNL     1      13.848 -32.168  21.233  1.00  0.00    -0.023 C 
ATOM      6  C   UNL     1      14.579 -32.897  22.084  1.00  0.00     0.042 C 
BRANCH   6   7
ATOM      7  C   UNL     1      15.390 -34.059  21.669  1.00  0.00     0.152 C 
ATOM      8  O   UNL     1      16.144 -34.605  22.519  1.00  0.00    -0.295 OA
ATOM      9  C   UNL     1      15.350 -34.612  20.276  1.00  0.00     0.093 C 
ENDBRANCH   6   7
ENDBRANCH   1   5
TORSDOF 4
ENDMDL
MODEL 5
REMARK VINA RESULT:    -3.920      2.649      5.033
REMARK INTER + INTRA:          -5.091
REMARK INTER:                  -4.905
REMARK INTRA:                  -0.186
REMARK UNBOUND:                -0.255
REMARK SMILES CCCCC=CC(C)=O
REMARK SMILES IDX 4 1 3 2 2 3 1 4 5 5 6 6 7 7 9 8 8 9
REMARK H PARENT
REMARK Flexibility Score: inf
ROOT
ATOM      1  C   UNL     1      13.963 -31.688  22.749  1.00  0.00     0.027 C 
ENDROOT
BRANCH   1   2
ATOM      2  C   UNL     1      13.942 -32.467  24.070  1.00  0.00     0.004 C 
BRANCH   2   3
ATOM      3  C   UNL     1      14.916 -33.650  24.026  1.00  0.00    -0.003 C 
ATOM      4  C   UNL     1      15.317 -33.981  22.591  1.00  0.00     0.004 C 
ENDBRANCH   2   3
ENDBRANCH   1   2
BRANCH   1   5
ATOM      5  C   UNL     1      13.040 -30.505  22.799  1.00  0.00    -0.023 C 
ATOM      6  C   UNL     1      13.204 -29.529  23.701  1.00  0.00     0.042 C 
BRANCH   6   7
ATOM      7  C   UNL     1      12.329 -28.342  23.781  1.00  0.00     0.152 C 
ATOM      8  O   UNL     1      12.808 -27.269  24.235  1.00  0.00    -0.295 OA
ATOM      9  C   UNL     1      10.896 -28.369  23.343  1.00  0.00     0.093 C 
ENDBRANCH   6   7
ENDBRANCH   1   5
TORSDOF 4
ENDMDL
MODEL 6
REMARK VINA RESULT:    -3.916      2.522      2.853
REMARK INTER + INTRA:          -5.087
REMARK INTER:                  -4.817
REMARK INTRA:                  -0.270
REMARK UNBOUND:                -0.255
REMARK SMILES CCCCC=CC(C)=O
REMARK SMILES IDX 4 1 3 2 2 3 1 4 5 5 6 6 7 7 9 8 8 9
REMARK H PARENT
REMARK Flexibility Score: inf
ROOT
ATOM      1  C   UNL     1      13.487 -30.375  23.867  1.00  0.00     0.027 C 
ENDROOT
BRANCH   1   2
ATOM      2  C   UNL     1      12.347 -29.617  23.176  1.00  0.00     0.004 C 
BRANCH   2   3
ATOM      3  C   UNL     1      11.895 -28.418  24.016  1.00  0.00    -0.003 C 
ATOM      4  C   UNL     1      12.995 -27.363  24.107  1.00  0.00     0.004 C 
ENDBRANCH   2   3
ENDBRANCH   1   2
BRANCH   1   5
ATOM      5  C   UNL     1      14.633 -30.613  22.927  1.00  0.00    -0.023 C 
ATOM      6  C   UNL     1      15.620 -29.720  22.788  1.00  0.00     0.042 C 
BRANCH   6   7
ATOM      7  C   UNL     1      16.771 -29.916  21.885  1.00  0.00     0.152 C 
ATOM      8  O   UNL     1      17.447 -28.909  21.540  1.00  0.00    -0.295 OA
ATOM      9  C   UNL     1      17.165 -31.265  21.364  1.00  0.00     0.093 C 
ENDBRANCH   6   7
ENDBRANCH   1   5
TORSDOF 4
ENDMDL
MODEL 7
REMARK VINA RESULT:    -3.904      1.236      1.722
REMARK INTER + INTRA:          -5.072
REMARK INTER:                  -4.918
REMARK INTRA:                  -0.154
REMARK UNBOUND:                -0.255
REMARK SMILES CCCCC=CC(C)=O
REMARK SMILES IDX 4 1 3 2 2 3 1 4 5 5 6 6 7 7 9 8 8 9
REMARK H PARENT
REMARK Flexibility Score: inf
ROOT
ATOM      1  C   UNL     1      12.722 -30.290  22.590  1.00  0.00     0.027 C 
ENDROOT
BRANCH   1   2
ATOM      2  C   UNL     1      12.984 -29.682  23.973  1.00  0.00     0.004 C 
BRANCH   2   3
ATOM      3  C   UNL     1      12.206 -28.374  24.155  1.00  0.00    -0.003 C 
ATOM      4  C   UNL     1      13.148 -27.175  24.213  1.00  0.00     0.004 C 
ENDBRANCH   2   3
ENDBRANCH   1   2
BRANCH   1   5
ATOM      5  C   UNL     1      13.487 -31.569  22.404  1.00  0.00    -0.023 C 
ATOM      6  C   UNL     1      14.220 -32.094  23.392  1.00  0.00     0.042 C 
BRANCH   6   7
ATOM      7  C   UNL     1      14.980 -33.354  23.258  1.00  0.00     0.152 C 
ATOM      8  O   UNL     1      14.958 -33.958  22.153  1.00  0.00    -0.295 OA
ATOM      9  C   UNL     1      15.773 -33.939  24.388  1.00  0.00     0.093 C 
ENDBRANCH   6   7
ENDBRANCH   1   5
TORSDOF 4
ENDMDL
MODEL 8
REMARK VINA RESULT:    -3.756      2.011      4.601
REMARK INTER + INTRA:          -4.889
REMARK INTER:                  -4.636
REMARK INTRA:                  -0.253
REMARK UNBOUND:                -0.255
REMARK SMILES CCCCC=CC(C)=O
REMARK SMILES IDX 4 1 3 2 2 3 1 4 5 5 6 6 7 7 9 8 8 9
REMARK H PARENT
REMARK Flexibility Score: inf
ROOT
ATOM      1  C   UNL     1      14.175 -32.466  20.962  1.00  0.00     0.027 C 
ENDROOT
BRANCH   1   2
ATOM      2  C   UNL     1      15.316 -32.499  21.986  1.00  0.00     0.004 C 
BRANCH   2   3
ATOM      3  C   UNL     1      15.353 -33.840  22.727  1.00  0.00    -0.003 C 
ATOM      4  C   UNL     1      15.353 -33.634  24.239  1.00  0.00     0.004 C 
ENDBRANCH   2   3
ENDBRANCH   1   2
BRANCH   1   5
ATOM      5  C   UNL     1      13.183 -31.387  21.286  1.00  0.00    -0.023 C 
ATOM      6  C   UNL     1      13.101 -30.859  22.512  1.00  0.00     0.042 C 
BRANCH   6   7
ATOM      7  C   UNL     1      12.150 -29.789  22.874  1.00  0.00     0.152 C 
ATOM      8  O   UNL     1      11.061 -29.711  22.245  1.00  0.00    -0.295 OA
ATOM      9  C   UNL     1      12.432 -28.795  23.961  1.00  0.00     0.093 C 
ENDBRANCH   6   7
ENDBRANCH   1   5
TORSDOF 4
ENDMDL
MODEL 9
REMARK VINA RESULT:    -3.741      8.935     10.196
REMARK INTER + INTRA:          -4.870
REMARK INTER:                  -4.692
REMARK INTRA:                  -0.179
REMARK UNBOUND:                -0.255
REMARK SMILES CCCCC=CC(C)=O
REMARK SMILES IDX 4 1 3 2 2 3 1 4 5 5 6 6 7 7 9 8 8 9
REMARK H PARENT
REMARK Flexibility Score: inf
ROOT
ATOM      1  C   UNL     1      19.631 -27.437  20.592  1.00  0.00     0.027 C 
ENDROOT
BRANCH   1   2
ATOM      2  C   UNL     1      19.679 -28.912  21.008  1.00  0.00     0.004 C 
BRANCH   2   3
ATOM      3  C   UNL     1      21.087 -29.490  20.825  1.00  0.00    -0.003 C 
ATOM      4  C   UNL     1      21.072 -31.014  20.910  1.00  0.00     0.004 C 
ENDBRANCH   2   3
ENDBRANCH   1   2
BRANCH   1   5
ATOM      5  C   UNL     1      20.965 -26.774  20.781  1.00  0.00    -0.023 C 
ATOM      6  C   UNL     1      21.289 -25.656  20.120  1.00  0.00     0.042 C 
BRANCH   6   7
ATOM      7  C   UNL     1      22.583 -24.963  20.282  1.00  0.00     0.152 C 
ATOM      8  O   UNL     1      22.875 -24.486  21.412  1.00  0.00    -0.295 OA
ATOM      9  C   UNL     1      23.558 -24.806  19.155  1.00  0.00     0.093 C 
ENDBRANCH   6   7
ENDBRANCH   1   5
TORSDOF 4
ENDMDL
