MODEL 1
REMARK VINA RESULT:    14.997      0.000      0.000
REMARK INTER + INTRA:          32.871
REMARK INTER:                  34.285
REMARK INTRA:                  -1.414
REMARK UNBOUND:                -1.414
REMARK SMILES CCCCCCCCCCCCCCCCCCCCCCCC(=O)[O-]
REMARK SMILES IDX 13 1 14 2 15 3 16 4 17 5 18 6 19 7 20 8 21 9 22 10 23 11
REMARK SMILES IDX 24 12 25 13 26 14 12 15 11 16 10 17 9 18 8 19 7 20 6 21 5 22
REMARK SMILES IDX 4 23 3 24 2 25 1 26
REMARK H PARENT
REMARK Flexibility Score: inf
ROOT
ATOM      1  C   UNL     1       0.391   9.332  -5.687  1.00  0.00     0.000 C 
ENDROOT
BRANCH   1   2
ATOM      2  C   UNL     1       1.706   8.783  -6.275  1.00  0.00     0.000 C 
BRANCH   2   3
ATOM      3  C   UNL     1       1.693   8.545  -7.795  1.00  0.00     0.000 C 
BRANCH   3   4
ATOM      4  C   UNL     1       0.449   7.784  -8.276  1.00  0.00     0.000 C 
BRANCH   4   5
ATOM      5  C   UNL     1      -0.518   8.733  -8.999  1.00  0.00     0.000 C 
BRANCH   5   6
ATOM      6  C   UNL     1      -0.295   8.764 -10.521  1.00  0.00     0.000 C 
BRANCH   6   7
ATOM      7  C   UNL     1      -0.745   7.493 -11.262  1.00  0.00     0.000 C 
BRANCH   7   8
ATOM      8  C   UNL     1      -0.756   7.644 -12.799  1.00  0.00     0.000 C 
BRANCH   8   9
ATOM      9  C   UNL     1       0.661   7.663 -13.390  1.00  0.00     0.000 C 
BRANCH   9  10
ATOM     10  C   UNL     1       1.165   9.101 -13.567  1.00  0.00     0.006 C 
BRANCH  10  11
ATOM     11  C   UNL     1       2.639   9.220 -13.161  1.00  0.00     0.053 C 
BRANCH  11  12
ATOM     12  C   UNL     1       2.881  10.464 -12.361  1.00  0.00     0.041 C 
ATOM     13  O   UNL     1       2.638  11.594 -12.868  1.00  0.00    -0.550 OA
ATOM     14  O   UNL     1       3.324  10.383 -11.044  1.00  0.00    -0.550 OA
ENDBRANCH  11  12
ENDBRANCH  10  11
ENDBRANCH   9  10
ENDBRANCH   8   9
ENDBRANCH   7   8
ENDBRANCH   6   7
ENDBRANCH   5   6
ENDBRANCH   4   5
ENDBRANCH   3   4
ENDBRANCH   2   3
ENDBRANCH   1   2
BRANCH   1  15
ATOM     15  C   UNL     1      -0.051   8.697  -4.353  1.00  0.00     0.000 C 
BRANCH  15  16
ATOM     16  C   UNL     1       0.367   7.228  -4.165  1.00  0.00     0.000 C 
BRANCH  16  17
ATOM     17  C   UNL     1       1.231   7.007  -2.911  1.00  0.00     0.000 C 
BRANCH  17  18
ATOM     18  C   UNL     1       2.646   7.589  -3.062  1.00  0.00    -0.000 C 
BRANCH  18  19
ATOM     19  C   UNL     1       3.655   6.939  -2.100  1.00  0.00    -0.000 C 
BRANCH  19  20
ATOM     20  C   UNL     1       5.040   7.617  -2.148  1.00  0.00    -0.000 C 
BRANCH  20  21
ATOM     21  C   UNL     1       6.170   6.700  -2.655  1.00  0.00    -0.000 C 
BRANCH  21  22
ATOM     22  C   UNL     1       5.747   5.256  -2.984  1.00  0.00    -0.000 C 
BRANCH  22  23
ATOM     23  C   UNL     1       6.090   4.783  -4.409  1.00  0.00    -0.000 C 
BRANCH  23  24
ATOM     24  C   UNL     1       6.806   3.421  -4.429  1.00  0.00    -0.000 C 
BRANCH  24  25
ATOM     25  C   UNL     1       7.390   3.042  -3.058  1.00  0.00    -0.003 C 
ATOM     26  C   UNL     1       6.983   1.639  -2.609  1.00  0.00     0.004 C 
ENDBRANCH  24  25
ENDBRANCH  23  24
ENDBRANCH  22  23
ENDBRANCH  21  22
ENDBRANCH  20  21
ENDBRANCH  19  20
ENDBRANCH  18  19
ENDBRANCH  17  18
ENDBRANCH  16  17
ENDBRANCH  15  16
ENDBRANCH   1  15
TORSDOF 22
ENDMDL
MODEL 2
REMARK VINA RESULT:    15.291      0.762      1.117
REMARK INTER + INTRA:          33.543
REMARK INTER:                  34.838
REMARK INTRA:                  -1.295
REMARK UNBOUND:                -1.414
REMARK SMILES CCCCCCCCCCCCCCCCCCCCCCCC(=O)[O-]
REMARK SMILES IDX 13 1 14 2 15 3 16 4 17 5 18 6 19 7 20 8 21 9 22 10 23 11
REMARK SMILES IDX 24 12 25 13 26 14 12 15 11 16 10 17 9 18 8 19 7 20 6 21 5 22
REMARK SMILES IDX 4 23 3 24 2 25 1 26
REMARK H PARENT
REMARK Flexibility Score: inf
ROOT
ATOM      1  C   UNL     1       0.035   8.082  -5.150  1.00  0.00     0.000 C 
ENDROOT
BRANCH   1   2
ATOM      2  C   UNL     1       0.705   9.123  -6.069  1.00  0.00     0.000 C 
BRANCH   2   3
ATOM      3  C   UNL     1       1.784   8.563  -7.013  1.00  0.00     0.000 C 
BRANCH   3   4
ATOM      4  C   UNL     1       1.277   8.340  -8.445  1.00  0.00     0.000 C 
BRANCH   4   5
ATOM      5  C   UNL     1      -0.244   8.541  -8.516  1.00  0.00     0.000 C 
BRANCH   5   6
ATOM      6  C   UNL     1      -0.749   8.748  -9.955  1.00  0.00     0.000 C 
BRANCH   6   7
ATOM      7  C   UNL     1      -0.187   7.750 -10.983  1.00  0.00     0.000 C 
BRANCH   7   8
ATOM      8  C   UNL     1      -0.857   7.849 -12.371  1.00  0.00     0.000 C 
BRANCH   8   9
ATOM      9  C   UNL     1       0.102   8.393 -13.440  1.00  0.00     0.000 C 
BRANCH   9  10
ATOM     10  C   UNL     1       1.543   8.437 -12.917  1.00  0.00     0.006 C 
BRANCH  10  11
ATOM     11  C   UNL     1       2.338   9.561 -13.591  1.00  0.00     0.053 C 
BRANCH  11  12
ATOM     12  C   UNL     1       2.746  10.606 -12.597  1.00  0.00     0.041 C 
ATOM     13  O   UNL     1       2.601  11.828 -12.875  1.00  0.00    -0.550 OA
ATOM     14  O   UNL     1       3.239  10.239 -11.348  1.00  0.00    -0.550 OA
ENDBRANCH  11  12
ENDBRANCH  10  11
ENDBRANCH   9  10
ENDBRANCH   8   9
ENDBRANCH   7   8
ENDBRANCH   6   7
ENDBRANCH   5   6
ENDBRANCH   4   5
ENDBRANCH   3   4
ENDBRANCH   2   3
ENDBRANCH   1   2
BRANCH   1  15
ATOM     15  C   UNL     1       0.479   8.122  -3.674  1.00  0.00     0.000 C 
BRANCH  15  16
ATOM     16  C   UNL     1       1.381   6.954  -3.237  1.00  0.00     0.000 C 
BRANCH  16  17
ATOM     17  C   UNL     1       2.880   7.296  -3.306  1.00  0.00     0.000 C 
BRANCH  17  18
ATOM     18  C   UNL     1       3.575   7.165  -1.941  1.00  0.00    -0.000 C 
BRANCH  18  19
ATOM     19  C   UNL     1       4.866   7.998  -1.855  1.00  0.00    -0.000 C 
BRANCH  19  20
ATOM     20  C   UNL     1       6.069   7.299  -2.521  1.00  0.00    -0.000 C 
BRANCH  20  21
ATOM     21  C   UNL     1       5.907   5.773  -2.664  1.00  0.00    -0.000 C 
BRANCH  21  22
ATOM     22  C   UNL     1       5.798   5.257  -4.112  1.00  0.00    -0.000 C 
BRANCH  22  23
ATOM     23  C   UNL     1       6.458   3.890  -4.370  1.00  0.00    -0.000 C 
BRANCH  23  24
ATOM     24  C   UNL     1       6.979   3.226  -3.083  1.00  0.00    -0.000 C 
BRANCH  24  25
ATOM     25  C   UNL     1       7.220   1.717  -3.254  1.00  0.00    -0.003 C 
ATOM     26  C   UNL     1       7.043   1.249  -4.698  1.00  0.00     0.004 C 
ENDBRANCH  24  25
ENDBRANCH  23  24
ENDBRANCH  22  23
ENDBRANCH  21  22
ENDBRANCH  20  21
ENDBRANCH  19  20
ENDBRANCH  18  19
ENDBRANCH  17  18
ENDBRANCH  16  17
ENDBRANCH  15  16
ENDBRANCH   1  15
TORSDOF 22
ENDMDL
MODEL 3
REMARK VINA RESULT:    15.379      4.465      7.237
REMARK INTER + INTRA:          33.743
REMARK INTER:                  34.766
REMARK INTRA:                  -1.023
REMARK UNBOUND:                -1.414
REMARK SMILES CCCCCCCCCCCCCCCCCCCCCCCC(=O)[O-]
REMARK SMILES IDX 13 1 14 2 15 3 16 4 17 5 18 6 19 7 20 8 21 9 22 10 23 11
REMARK SMILES IDX 24 12 25 13 26 14 12 15 11 16 10 17 9 18 8 19 7 20 6 21 5 22
REMARK SMILES IDX 4 23 3 24 2 25 1 26
REMARK H PARENT
REMARK Flexibility Score: inf
ROOT
ATOM      1  C   UNL     1       0.469   9.735  -5.173  1.00  0.00     0.000 C 
ENDROOT
BRANCH   1   2
ATOM      2  C   UNL     1      -0.802   9.818  -4.304  1.00  0.00     0.000 C 
BRANCH   2   3
ATOM      3  C   UNL     1      -0.572  10.270  -2.851  1.00  0.00     0.000 C 
BRANCH   3   4
ATOM      4  C   UNL     1      -1.485  11.430  -2.428  1.00  0.00     0.000 C 
BRANCH   4   5
ATOM      5  C   UNL     1      -1.394  11.664  -0.913  1.00  0.00     0.000 C 
BRANCH   5   6
ATOM      6  C   UNL     1      -0.671  12.975  -0.556  1.00  0.00     0.000 C 
BRANCH   6   7
ATOM      7  C   UNL     1      -0.344  13.876  -1.760  1.00  0.00     0.000 C 
BRANCH   7   8
ATOM      8  C   UNL     1      -0.413  15.385  -1.440  1.00  0.00     0.000 C 
BRANCH   8   9
ATOM      9  C   UNL     1       0.975  15.986  -1.177  1.00  0.00     0.000 C 
BRANCH   9  10
ATOM     10  C   UNL     1       1.695  16.308  -2.492  1.00  0.00     0.006 C 
BRANCH  10  11
ATOM     11  C   UNL     1       0.776  16.061  -3.695  1.00  0.00     0.053 C 
BRANCH  11  12
ATOM     12  C   UNL     1       1.564  15.646  -4.901  1.00  0.00     0.041 C 
ATOM     13  O   UNL     1       0.973  15.145  -5.896  1.00  0.00    -0.550 OA
ATOM     14  O   UNL     1       2.939  15.855  -4.952  1.00  0.00    -0.550 OA
ENDBRANCH  11  12
ENDBRANCH  10  11
ENDBRANCH   9  10
ENDBRANCH   8   9
ENDBRANCH   7   8
ENDBRANCH   6   7
ENDBRANCH   5   6
ENDBRANCH   4   5
ENDBRANCH   3   4
ENDBRANCH   2   3
ENDBRANCH   1   2
BRANCH   1  15
ATOM     15  C   UNL     1       0.940   8.308  -5.517  1.00  0.00     0.000 C 
BRANCH  15  16
ATOM     16  C   UNL     1       0.412   7.207  -4.581  1.00  0.00     0.000 C 
BRANCH  16  17
ATOM     17  C   UNL     1       1.153   7.160  -3.233  1.00  0.00     0.000 C 
BRANCH  17  18
ATOM     18  C   UNL     1       2.621   7.601  -3.356  1.00  0.00    -0.000 C 
BRANCH  18  19
ATOM     19  C   UNL     1       3.503   7.033  -2.230  1.00  0.00    -0.000 C 
BRANCH  19  20
ATOM     20  C   UNL     1       4.891   7.702  -2.169  1.00  0.00    -0.000 C 
BRANCH  20  21
ATOM     21  C   UNL     1       6.058   6.760  -2.524  1.00  0.00    -0.000 C 
BRANCH  21  22
ATOM     22  C   UNL     1       5.645   5.350  -2.987  1.00  0.00    -0.000 C 
BRANCH  22  23
ATOM     23  C   UNL     1       6.122   4.960  -4.399  1.00  0.00    -0.000 C 
BRANCH  23  24
ATOM     24  C   UNL     1       6.561   3.489  -4.496  1.00  0.00    -0.000 C 
BRANCH  24  25
ATOM     25  C   UNL     1       6.441   2.748  -3.154  1.00  0.00    -0.003 C 
ATOM     26  C   UNL     1       7.797   2.344  -2.576  1.00  0.00     0.004 C 
ENDBRANCH  24  25
ENDBRANCH  23  24
ENDBRANCH  22  23
ENDBRANCH  21  22
ENDBRANCH  20  21
ENDBRANCH  19  20
ENDBRANCH  18  19
ENDBRANCH  17  18
ENDBRANCH  16  17
ENDBRANCH  15  16
ENDBRANCH   1  15
TORSDOF 22
ENDMDL
MODEL 4
REMARK VINA RESULT:    16.077      1.732      2.704
REMARK INTER + INTRA:          35.339
REMARK INTER:                  36.956
REMARK INTRA:                  -1.617
REMARK UNBOUND:                -1.414
REMARK SMILES CCCCCCCCCCCCCCCCCCCCCCCC(=O)[O-]
REMARK SMILES IDX 13 1 14 2 15 3 16 4 17 5 18 6 19 7 20 8 21 9 22 10 23 11
REMARK SMILES IDX 24 12 25 13 26 14 12 15 11 16 10 17 9 18 8 19 7 20 6 21 5 22
REMARK SMILES IDX 4 23 3 24 2 25 1 26
REMARK H PARENT
REMARK Flexibility Score: inf
ROOT
ATOM      1  C   UNL     1       0.148   8.270  -6.589  1.00  0.00     0.000 C 
ENDROOT
BRANCH   1   2
ATOM      2  C   UNL     1       1.105   8.387  -7.792  1.00  0.00     0.000 C 
BRANCH   2   3
ATOM      3  C   UNL     1       2.538   8.831  -7.446  1.00  0.00     0.000 C 
BRANCH   3   4
ATOM      4  C   UNL     1       3.430   9.010  -8.684  1.00  0.00     0.000 C 
BRANCH   4   5
ATOM      5  C   UNL     1       2.696   9.814  -9.767  1.00  0.00     0.000 C 
BRANCH   5   6
ATOM      6  C   UNL     1       3.537  10.000 -11.042  1.00  0.00     0.000 C 
BRANCH   6   7
ATOM      7  C   UNL     1       3.103  11.178 -11.932  1.00  0.00     0.000 C 
BRANCH   7   8
ATOM      8  C   UNL     1       2.361  10.744 -13.215  1.00  0.00     0.000 C 
BRANCH   8   9
ATOM      9  C   UNL     1       2.301   9.216 -13.360  1.00  0.00     0.000 C 
BRANCH   9  10
ATOM     10  C   UNL     1       0.860   8.740 -13.577  1.00  0.00     0.006 C 
BRANCH  10  11
ATOM     11  C   UNL     1       0.558   7.499 -12.728  1.00  0.00     0.053 C 
BRANCH  11  12
ATOM     12  C   UNL     1      -0.633   7.724 -11.846  1.00  0.00     0.041 C 
ATOM     13  O   UNL     1      -1.761   7.273 -12.185  1.00  0.00    -0.550 OA
ATOM     14  O   UNL     1      -0.495   8.386 -10.629  1.00  0.00    -0.550 OA
ENDBRANCH  11  12
ENDBRANCH  10  11
ENDBRANCH   9  10
ENDBRANCH   8   9
ENDBRANCH   7   8
ENDBRANCH   6   7
ENDBRANCH   5   6
ENDBRANCH   4   5
ENDBRANCH   3   4
ENDBRANCH   2   3
ENDBRANCH   1   2
BRANCH   1  15
ATOM     15  C   UNL     1       0.457   9.210  -5.407  1.00  0.00     0.000 C 
BRANCH  15  16
ATOM     16  C   UNL     1       0.102   8.645  -4.020  1.00  0.00     0.000 C 
BRANCH  16  17
ATOM     17  C   UNL     1       0.947   7.417  -3.639  1.00  0.00     0.000 C 
BRANCH  17  18
ATOM     18  C   UNL     1       2.457   7.681  -3.764  1.00  0.00    -0.000 C 
BRANCH  18  19
ATOM     19  C   UNL     1       3.277   6.915  -2.713  1.00  0.00    -0.000 C 
BRANCH  19  20
ATOM     20  C   UNL     1       4.700   7.486  -2.539  1.00  0.00    -0.000 C 
BRANCH  20  21
ATOM     21  C   UNL     1       5.822   6.456  -2.771  1.00  0.00    -0.000 C 
BRANCH  21  22
ATOM     22  C   UNL     1       5.405   5.195  -3.552  1.00  0.00    -0.000 C 
BRANCH  22  23
ATOM     23  C   UNL     1       6.433   4.696  -4.585  1.00  0.00    -0.000 C 
BRANCH  23  24
ATOM     24  C   UNL     1       6.758   3.199  -4.428  1.00  0.00    -0.000 C 
BRANCH  24  25
ATOM     25  C   UNL     1       7.323   2.862  -3.038  1.00  0.00    -0.003 C 
ATOM     26  C   UNL     1       6.895   1.480  -2.545  1.00  0.00     0.004 C 
ENDBRANCH  24  25
ENDBRANCH  23  24
ENDBRANCH  22  23
ENDBRANCH  21  22
ENDBRANCH  20  21
ENDBRANCH  19  20
ENDBRANCH  18  19
ENDBRANCH  17  18
ENDBRANCH  16  17
ENDBRANCH  15  16
ENDBRANCH   1  15
TORSDOF 22
ENDMDL
MODEL 5
REMARK VINA RESULT:    16.663      2.882      9.708
REMARK INTER + INTRA:          36.679
REMARK INTER:                  37.535
REMARK INTRA:                  -0.857
REMARK UNBOUND:                -1.414
REMARK SMILES CCCCCCCCCCCCCCCCCCCCCCCC(=O)[O-]
REMARK SMILES IDX 13 1 14 2 15 3 16 4 17 5 18 6 19 7 20 8 21 9 22 10 23 11
REMARK SMILES IDX 24 12 25 13 26 14 12 15 11 16 10 17 9 18 8 19 7 20 6 21 5 22
REMARK SMILES IDX 4 23 3 24 2 25 1 26
REMARK H PARENT
REMARK Flexibility Score: inf
ROOT
ATOM      1  C   UNL     1       0.500   8.298  -6.963  1.00  0.00     0.000 C 
ENDROOT
BRANCH   1   2
ATOM      2  C   UNL     1       0.950   9.122  -5.740  1.00  0.00     0.000 C 
BRANCH   2   3
ATOM      3  C   UNL     1       0.252   8.761  -4.416  1.00  0.00     0.000 C 
BRANCH   3   4
ATOM      4  C   UNL     1       0.091   7.248  -4.212  1.00  0.00     0.000 C 
BRANCH   4   5
ATOM      5  C   UNL     1       0.916   6.774  -3.007  1.00  0.00     0.000 C 
BRANCH   5   6
ATOM      6  C   UNL     1       2.265   7.504  -2.886  1.00  0.00     0.000 C 
BRANCH   6   7
ATOM      7  C   UNL     1       3.294   6.807  -1.978  1.00  0.00     0.000 C 
BRANCH   7   8
ATOM      8  C   UNL     1       4.441   7.733  -1.518  1.00  0.00     0.000 C 
BRANCH   8   9
ATOM      9  C   UNL     1       5.619   7.730  -2.503  1.00  0.00     0.000 C 
BRANCH   9  10
ATOM     10  C   UNL     1       6.228   6.328  -2.630  1.00  0.00     0.006 C 
BRANCH  10  11
ATOM     11  C   UNL     1       5.313   5.404  -3.444  1.00  0.00     0.053 C 
BRANCH  11  12
ATOM     12  C   UNL     1       6.113   4.457  -4.286  1.00  0.00     0.041 C 
ATOM     13  O   UNL     1       6.802   3.556  -3.736  1.00  0.00    -0.550 OA
ATOM     14  O   UNL     1       6.063   4.533  -5.675  1.00  0.00    -0.550 OA
ENDBRANCH  11  12
ENDBRANCH  10  11
ENDBRANCH   9  10
ENDBRANCH   8   9
ENDBRANCH   7   8
ENDBRANCH   6   7
ENDBRANCH   5   6
ENDBRANCH   4   5
ENDBRANCH   3   4
ENDBRANCH   2   3
ENDBRANCH   1   2
BRANCH   1  15
ATOM     15  C   UNL     1       1.354   8.481  -8.232  1.00  0.00     0.000 C 
BRANCH  15  16
ATOM     16  C   UNL     1       2.793   8.967  -7.981  1.00  0.00     0.000 C 
BRANCH  16  17
ATOM     17  C   UNL     1       3.564   9.255  -9.281  1.00  0.00     0.000 C 
BRANCH  17  18
ATOM     18  C   UNL     1       2.719  10.033 -10.304  1.00  0.00    -0.000 C 
BRANCH  18  19
ATOM     19  C   UNL     1       3.512  10.388 -11.574  1.00  0.00    -0.000 C 
BRANCH  19  20
ATOM     20  C   UNL     1       2.803  11.451 -12.438  1.00  0.00    -0.000 C 
BRANCH  20  21
ATOM     21  C   UNL     1       2.210  10.900 -13.749  1.00  0.00    -0.000 C 
BRANCH  21  22
ATOM     22  C   UNL     1       1.806   9.414 -13.714  1.00  0.00    -0.000 C 
BRANCH  22  23
ATOM     23  C   UNL     1       0.374   9.137 -13.218  1.00  0.00    -0.000 C 
BRANCH  23  24
ATOM     24  C   UNL     1      -0.015   7.651 -13.317  1.00  0.00    -0.000 C 
BRANCH  24  25
ATOM     25  C   UNL     1      -0.865   7.185 -12.124  1.00  0.00    -0.003 C 
ATOM     26  C   UNL     1      -0.698   8.075 -10.893  1.00  0.00     0.004 C 
ENDBRANCH  24  25
ENDBRANCH  23  24
ENDBRANCH  22  23
ENDBRANCH  21  22
ENDBRANCH  20  21
ENDBRANCH  19  20
ENDBRANCH  18  19
ENDBRANCH  17  18
ENDBRANCH  16  17
ENDBRANCH  15  16
ENDBRANCH   1  15
TORSDOF 22
ENDMDL
MODEL 6
REMARK VINA RESULT:    16.714      3.713     10.014
REMARK INTER + INTRA:          36.797
REMARK INTER:                  38.372
REMARK INTRA:                  -1.575
REMARK UNBOUND:                -1.414
REMARK SMILES CCCCCCCCCCCCCCCCCCCCCCCC(=O)[O-]
REMARK SMILES IDX 13 1 14 2 15 3 16 4 17 5 18 6 19 7 20 8 21 9 22 10 23 11
REMARK SMILES IDX 24 12 25 13 26 14 12 15 11 16 10 17 9 18 8 19 7 20 6 21 5 22
REMARK SMILES IDX 4 23 3 24 2 25 1 26
REMARK H PARENT
REMARK Flexibility Score: inf
ROOT
ATOM      1  C   UNL     1       0.305   8.705  -5.930  1.00  0.00     0.000 C 
ENDROOT
BRANCH   1   2
ATOM      2  C   UNL     1       0.794   8.966  -4.491  1.00  0.00     0.000 C 
BRANCH   2   3
ATOM      3  C   UNL     1       0.403   7.890  -3.462  1.00  0.00     0.000 C 
BRANCH   3   4
ATOM      4  C   UNL     1       1.493   6.827  -3.257  1.00  0.00     0.000 C 
BRANCH   4   5
ATOM      5  C   UNL     1       2.887   7.469  -3.293  1.00  0.00     0.000 C 
BRANCH   5   6
ATOM      6  C   UNL     1       3.723   7.146  -2.043  1.00  0.00     0.000 C 
BRANCH   6   7
ATOM      7  C   UNL     1       5.201   7.568  -2.131  1.00  0.00     0.000 C 
BRANCH   7   8
ATOM      8  C   UNL     1       6.106   6.512  -2.802  1.00  0.00     0.000 C 
BRANCH   8   9
ATOM      9  C   UNL     1       5.362   5.196  -3.069  1.00  0.00     0.000 C 
BRANCH   9  10
ATOM     10  C   UNL     1       5.754   4.608  -4.430  1.00  0.00     0.006 C 
BRANCH  10  11
ATOM     11  C   UNL     1       7.065   3.818  -4.330  1.00  0.00     0.053 C 
BRANCH  11  12
ATOM     12  C   UNL     1       7.009   2.817  -3.215  1.00  0.00     0.041 C 
ATOM     13  O   UNL     1       7.589   3.061  -2.122  1.00  0.00    -0.550 OA
ATOM     14  O   UNL     1       6.279   1.641  -3.358  1.00  0.00    -0.550 OA
ENDBRANCH  11  12
ENDBRANCH  10  11
ENDBRANCH   9  10
ENDBRANCH   8   9
ENDBRANCH   7   8
ENDBRANCH   6   7
ENDBRANCH   5   6
ENDBRANCH   4   5
ENDBRANCH   3   4
ENDBRANCH   2   3
ENDBRANCH   1   2
BRANCH   1  15
ATOM     15  C   UNL     1       1.412   8.394  -6.956  1.00  0.00     0.000 C 
BRANCH  15  16
ATOM     16  C   UNL     1       0.944   8.358  -8.422  1.00  0.00     0.000 C 
BRANCH  16  17
ATOM     17  C   UNL     1      -0.390   9.092  -8.643  1.00  0.00     0.000 C 
BRANCH  17  18
ATOM     18  C   UNL     1      -1.102   8.641  -9.929  1.00  0.00    -0.000 C 
BRANCH  18  19
ATOM     19  C   UNL     1      -0.180   7.835 -10.861  1.00  0.00    -0.000 C 
BRANCH  19  20
ATOM     20  C   UNL     1      -0.853   7.485 -12.204  1.00  0.00    -0.000 C 
BRANCH  20  21
ATOM     21  C   UNL     1       0.085   7.595 -13.422  1.00  0.00    -0.000 C 
BRANCH  21  22
ATOM     22  C   UNL     1       0.571   9.019 -13.751  1.00  0.00    -0.000 C 
BRANCH  22  23
ATOM     23  C   UNL     1       2.044   9.303 -13.400  1.00  0.00    -0.000 C 
BRANCH  23  24
ATOM     24  C   UNL     1       2.319  10.796 -13.146  1.00  0.00    -0.000 C 
BRANCH  24  25
ATOM     25  C   UNL     1       2.916  11.056 -11.753  1.00  0.00    -0.003 C 
ATOM     26  C   UNL     1       3.496   9.796 -11.112  1.00  0.00     0.004 C 
ENDBRANCH  24  25
ENDBRANCH  23  24
ENDBRANCH  22  23
ENDBRANCH  21  22
ENDBRANCH  20  21
ENDBRANCH  19  20
ENDBRANCH  18  19
ENDBRANCH  17  18
ENDBRANCH  16  17
ENDBRANCH  15  16
ENDBRANCH   1  15
TORSDOF 22
ENDMDL
MODEL 7
REMARK VINA RESULT:    17.108      2.875      9.901
REMARK INTER + INTRA:          37.697
REMARK INTER:                  38.120
REMARK INTRA:                  -0.423
REMARK UNBOUND:                -1.414
REMARK SMILES CCCCCCCCCCCCCCCCCCCCCCCC(=O)[O-]
REMARK SMILES IDX 13 1 14 2 15 3 16 4 17 5 18 6 19 7 20 8 21 9 22 10 23 11
REMARK SMILES IDX 24 12 25 13 26 14 12 15 11 16 10 17 9 18 8 19 7 20 6 21 5 22
REMARK SMILES IDX 4 23 3 24 2 25 1 26
REMARK H PARENT
REMARK Flexibility Score: inf
ROOT
ATOM      1  C   UNL     1       1.589   8.706  -6.801  1.00  0.00     0.000 C 
ENDROOT
BRANCH   1   2
ATOM      2  C   UNL     1       0.323   9.116  -6.022  1.00  0.00     0.000 C 
BRANCH   2   3
ATOM      3  C   UNL     1       0.409   8.933  -4.496  1.00  0.00     0.000 C 
BRANCH   3   4
ATOM      4  C   UNL     1       0.107   7.497  -4.042  1.00  0.00     0.000 C 
BRANCH   4   5
ATOM      5  C   UNL     1       1.181   7.003  -3.062  1.00  0.00     0.000 C 
BRANCH   5   6
ATOM      6  C   UNL     1       2.582   7.547  -3.392  1.00  0.00     0.000 C 
BRANCH   6   7
ATOM      7  C   UNL     1       3.616   7.386  -2.262  1.00  0.00     0.000 C 
BRANCH   7   8
ATOM      8  C   UNL     1       4.935   8.145  -2.520  1.00  0.00     0.000 C 
BRANCH   8   9
ATOM      9  C   UNL     1       6.113   7.542  -1.739  1.00  0.00     0.000 C 
BRANCH   9  10
ATOM     10  C   UNL     1       6.554   6.207  -2.352  1.00  0.00     0.006 C 
BRANCH  10  11
ATOM     11  C   UNL     1       5.489   5.666  -3.314  1.00  0.00     0.053 C 
BRANCH  11  12
ATOM     12  C   UNL     1       6.047   4.579  -4.182  1.00  0.00     0.041 C 
ATOM     13  O   UNL     1       5.931   4.655  -5.435  1.00  0.00    -0.550 OA
ATOM     14  O   UNL     1       6.737   3.509  -3.618  1.00  0.00    -0.550 OA
ENDBRANCH  11  12
ENDBRANCH  10  11
ENDBRANCH   9  10
ENDBRANCH   8   9
ENDBRANCH   7   8
ENDBRANCH   6   7
ENDBRANCH   5   6
ENDBRANCH   4   5
ENDBRANCH   3   4
ENDBRANCH   2   3
ENDBRANCH   1   2
BRANCH   1  15
ATOM     15  C   UNL     1       1.435   8.666  -8.334  1.00  0.00     0.000 C 
BRANCH  15  16
ATOM     16  C   UNL     1       0.155   7.976  -8.839  1.00  0.00     0.000 C 
BRANCH  16  17
ATOM     17  C   UNL     1      -0.281   8.467 -10.231  1.00  0.00     0.000 C 
BRANCH  17  18
ATOM     18  C   UNL     1      -0.351   7.326 -11.260  1.00  0.00    -0.000 C 
BRANCH  18  19
ATOM     19  C   UNL     1      -0.797   7.813 -12.649  1.00  0.00    -0.000 C 
BRANCH  19  20
ATOM     20  C   UNL     1       0.300   8.621 -13.374  1.00  0.00    -0.000 C 
BRANCH  20  21
ATOM     21  C   UNL     1      -0.229   9.844 -14.147  1.00  0.00    -0.000 C 
BRANCH  21  22
ATOM     22  C   UNL     1       0.680  11.088 -14.110  1.00  0.00    -0.000 C 
BRANCH  22  23
ATOM     23  C   UNL     1       2.178  10.796 -13.900  1.00  0.00    -0.000 C 
BRANCH  23  24
ATOM     24  C   UNL     1       2.650  11.098 -12.467  1.00  0.00    -0.000 C 
BRANCH  24  25
ATOM     25  C   UNL     1       3.304   9.881 -11.793  1.00  0.00    -0.003 C 
ATOM     26  C   UNL     1       3.368  10.008 -10.271  1.00  0.00     0.004 C 
ENDBRANCH  24  25
ENDBRANCH  23  24
ENDBRANCH  22  23
ENDBRANCH  21  22
ENDBRANCH  20  21
ENDBRANCH  19  20
ENDBRANCH  18  19
ENDBRANCH  17  18
ENDBRANCH  16  17
ENDBRANCH  15  16
ENDBRANCH   1  15
TORSDOF 22
ENDMDL
MODEL 8
REMARK VINA RESULT:    17.574      5.230      9.725
REMARK INTER + INTRA:          38.762
REMARK INTER:                  40.113
REMARK INTRA:                  -1.350
REMARK UNBOUND:                -1.414
REMARK SMILES CCCCCCCCCCCCCCCCCCCCCCCC(=O)[O-]
REMARK SMILES IDX 13 1 14 2 15 3 16 4 17 5 18 6 19 7 20 8 21 9 22 10 23 11
REMARK SMILES IDX 24 12 25 13 26 14 12 15 11 16 10 17 9 18 8 19 7 20 6 21 5 22
REMARK SMILES IDX 4 23 3 24 2 25 1 26
REMARK H PARENT
REMARK Flexibility Score: inf
ROOT
ATOM      1  C   UNL     1       0.109  10.529  -4.311  1.00  0.00     0.000 C 
ENDROOT
BRANCH   1   2
ATOM      2  C   UNL     1       0.084   9.469  -5.430  1.00  0.00     0.000 C 
BRANCH   2   3
ATOM      3  C   UNL     1       1.017   8.265  -5.210  1.00  0.00     0.000 C 
BRANCH   3   4
ATOM      4  C   UNL     1       0.464   7.250  -4.200  1.00  0.00     0.000 C 
BRANCH   4   5
ATOM      5  C   UNL     1       1.360   7.184  -2.954  1.00  0.00     0.000 C 
BRANCH   5   6
ATOM      6  C   UNL     1       2.817   7.579  -3.249  1.00  0.00     0.000 C 
BRANCH   6   7
ATOM      7  C   UNL     1       3.789   7.374  -2.072  1.00  0.00     0.000 C 
BRANCH   7   8
ATOM      8  C   UNL     1       5.263   7.658  -2.432  1.00  0.00     0.000 C 
BRANCH   8   9
ATOM      9  C   UNL     1       6.081   6.367  -2.589  1.00  0.00     0.000 C 
BRANCH   9  10
ATOM     10  C   UNL     1       5.277   5.294  -3.332  1.00  0.00     0.006 C 
BRANCH  10  11
ATOM     11  C   UNL     1       6.126   4.630  -4.424  1.00  0.00     0.053 C 
BRANCH  11  12
ATOM     12  C   UNL     1       6.819   3.408  -3.901  1.00  0.00     0.041 C 
ATOM     13  O   UNL     1       7.293   2.561  -4.707  1.00  0.00    -0.550 OA
ATOM     14  O   UNL     1       6.989   3.223  -2.532  1.00  0.00    -0.550 OA
ENDBRANCH  11  12
ENDBRANCH  10  11
ENDBRANCH   9  10
ENDBRANCH   8   9
ENDBRANCH   7   8
ENDBRANCH   6   7
ENDBRANCH   5   6
ENDBRANCH   4   5
ENDBRANCH   3   4
ENDBRANCH   2   3
ENDBRANCH   1   2
BRANCH   1  15
ATOM     15  C   UNL     1      -0.826  10.250  -3.118  1.00  0.00     0.000 C 
BRANCH  15  16
ATOM     16  C   UNL     1      -1.555  11.486  -2.562  1.00  0.00     0.000 C 
BRANCH  16  17
ATOM     17  C   UNL     1      -1.839  11.386  -1.053  1.00  0.00     0.000 C 
BRANCH  17  18
ATOM     18  C   UNL     1      -0.911  12.286  -0.221  1.00  0.00    -0.000 C 
BRANCH  18  19
ATOM     19  C   UNL     1      -0.179  13.332  -1.080  1.00  0.00    -0.000 C 
BRANCH  19  20
ATOM     20  C   UNL     1      -0.494  14.779  -0.649  1.00  0.00    -0.000 C 
BRANCH  20  21
ATOM     21  C   UNL     1      -0.129  15.841  -1.705  1.00  0.00    -0.000 C 
BRANCH  21  22
ATOM     22  C   UNL     1       1.375  16.152  -1.830  1.00  0.00    -0.000 C 
BRANCH  22  23
ATOM     23  C   UNL     1       1.890  16.311  -3.273  1.00  0.00    -0.000 C 
BRANCH  23  24
ATOM     24  C   UNL     1       0.944  15.693  -4.317  1.00  0.00    -0.000 C 
BRANCH  24  25
ATOM     25  C   UNL     1       1.690  15.183  -5.561  1.00  0.00    -0.003 C 
ATOM     26  C   UNL     1       3.205  15.138  -5.365  1.00  0.00     0.004 C 
ENDBRANCH  24  25
ENDBRANCH  23  24
ENDBRANCH  22  23
ENDBRANCH  21  22
ENDBRANCH  20  21
ENDBRANCH  19  20
ENDBRANCH  18  19
ENDBRANCH  17  18
ENDBRANCH  16  17
ENDBRANCH  15  16
ENDBRANCH   1  15
TORSDOF 22
ENDMDL
