MODEL 1
REMARK VINA RESULT:    28.810      0.000      0.000
REMARK INTER + INTRA:          32.723
REMARK INTER:                  33.020
REMARK INTRA:                  -0.297
REMARK UNBOUND:                -0.297
REMARK SMILES O=C1C[C@H](c2ccc(O)cc2)Oc2cc(O)cc(O)c21
REMARK SMILES IDX 3 1 4 2 12 3 13 4 14 5 15 6 17 7 18 8 20 9 2 10 1 11 5 12
REMARK SMILES IDX 6 13 11 14 7 15 10 16 8 17 9 18 19 20 16 22
REMARK H PARENT 9 19 19 21 16 23
REMARK Flexibility Score: inf
ROOT
ATOM      1  C   UNL     1      -3.002   0.351   3.539  1.00  0.00     0.131 C 
ATOM      2  C   UNL     1      -2.213  -0.934   3.252  1.00  0.00     0.211 C 
ATOM      3  O   UNL     1      -2.592  -1.485   1.988  1.00  0.00    -0.484 OA
ATOM      4  C   UNL     1      -3.917  -1.490   1.531  1.00  0.00     0.138 A 
ATOM      5  C   UNL     1      -4.250  -2.283   0.430  1.00  0.00     0.093 A 
ATOM      6  C   UNL     1      -5.567  -2.320  -0.038  1.00  0.00     0.123 A 
ATOM      7  C   UNL     1      -6.546  -1.540   0.579  1.00  0.00     0.093 A 
ATOM      8  C   UNL     1      -6.226  -0.708   1.659  1.00  0.00     0.133 A 
ATOM      9  C   UNL     1      -4.901  -0.703   2.169  1.00  0.00     0.102 A 
ATOM     10  C   UNL     1      -4.466   0.083   3.349  1.00  0.00     0.174 C 
ATOM     11  O   UNL     1      -5.284   0.481   4.220  1.00  0.00    -0.294 OA
ENDROOT
BRANCH   2  12
ATOM     12  C   UNL     1      -0.729  -0.667   3.277  1.00  0.00    -0.007 A 
ATOM     13  C   UNL     1      -0.102  -0.054   2.178  1.00  0.00     0.011 A 
ATOM     14  C   UNL     1       0.055  -1.076   4.370  1.00  0.00     0.011 A 
ATOM     15  C   UNL     1       1.278   0.168   2.185  1.00  0.00     0.046 A 
ATOM     16  C   UNL     1       1.435  -0.854   4.375  1.00  0.00     0.046 A 
ATOM     17  C   UNL     1       2.050  -0.230   3.285  1.00  0.00     0.115 A 
BRANCH  17  18
ATOM     18  O   UNL     1       3.426  -0.014   3.302  1.00  0.00    -0.508 OA
ATOM     19  H   UNL     1       4.075  -0.753   3.547  1.00  0.00     0.293 HD
ENDBRANCH  17  18
ENDBRANCH   2  12
BRANCH   8  20
ATOM     20  O   UNL     1      -7.240   0.111   2.161  1.00  0.00    -0.507 OA
ATOM     21  H   UNL     1      -7.287   0.428   3.118  1.00  0.00     0.293 HD
ENDBRANCH   8  20
BRANCH   6  22
ATOM     22  O   UNL     1      -5.912  -3.125  -1.123  1.00  0.00    -0.508 OA
ATOM     23  H   UNL     1      -6.488  -2.774  -1.880  1.00  0.00     0.293 HD
ENDBRANCH   6  22
TORSDOF 4
ENDMDL
