MODEL 1
REMARK VINA RESULT:    -5.427      0.000      0.000
REMARK INTER + INTRA:          -8.410
REMARK INTER:                  -7.964
REMARK INTRA:                  -0.445
REMARK UNBOUND:                -0.445
REMARK SMILES O=c1c(O[C@@H]2O[C@@H](CO)[C@@H](O)[C@@H](O)[C@H]2O)c(-c2ccc(O)c(O)c2)oc2cc(O)cc(O)c12
REMARK SMILES IDX 4 1 3 2 16 3 25 4 2 5 26 6 1 7 33 8 27 9 31 10 28 11 30 12
REMARK SMILES IDX 17 13 18 14 19 15 20 16 24 17 22 18 21 19 23 21 32 23 29 25
REMARK SMILES IDX 5 27 14 28 6 29 12 30 7 31 10 32 15 33 13 35 8 37 9 38 11 40
REMARK H PARENT 21 20 23 22 32 24 29 26 15 34 13 36 9 39 11 41
REMARK Flexibility Score: inf
ROOT
ATOM      1  O   UNL     1     -12.073   8.631   5.556  1.00  0.00    -0.454 OA
ENDROOT
BRANCH   1   2
ATOM      2  C   UNL     1     -10.701   8.784   5.843  1.00  0.00     0.214 A 
ATOM      3  C   UNL     1     -10.044   7.723   6.495  1.00  0.00     0.180 A 
ATOM      4  O   UNL     1      -8.747   7.799   6.755  1.00  0.00    -0.452 OA
ATOM      5  C   UNL     1      -9.943   9.927   5.495  1.00  0.00     0.239 A 
ATOM      6  C   UNL     1      -7.995   8.841   6.433  1.00  0.00     0.146 A 
ATOM      7  O   UNL     1     -10.517  10.923   4.990  1.00  0.00    -0.285 OA
ATOM      8  C   UNL     1      -8.549   9.953   5.748  1.00  0.00     0.111 A 
ATOM      9  C   UNL     1      -6.645   8.826   6.791  1.00  0.00     0.094 A 
ATOM     10  C   UNL     1      -7.682  11.030   5.390  1.00  0.00     0.134 A 
ATOM     11  C   UNL     1      -5.823   9.910   6.493  1.00  0.00     0.123 A 
ATOM     12  C   UNL     1      -6.344  11.006   5.800  1.00  0.00     0.093 A 
BRANCH   3  13
ATOM     13  C   UNL     1     -10.759   6.491   6.899  1.00  0.00     0.025 A 
ATOM     14  C   UNL     1     -11.368   6.380   8.161  1.00  0.00     0.016 A 
ATOM     15  C   UNL     1     -12.029   5.204   8.526  1.00  0.00     0.051 A 
ATOM     16  C   UNL     1     -12.076   4.118   7.641  1.00  0.00     0.157 A 
ATOM     17  C   UNL     1     -10.789   5.392   6.026  1.00  0.00     0.062 A 
ATOM     18  C   UNL     1     -11.452   4.210   6.391  1.00  0.00     0.158 A 
BRANCH  16  19
ATOM     19  O   UNL     1     -12.736   2.944   8.000  1.00  0.00    -0.504 OA
ATOM     20  H   UNL     1     -13.735   2.835   7.867  1.00  0.00     0.293 HD
ENDBRANCH  16  19
BRANCH  18  21
ATOM     21  O   UNL     1     -11.493   3.126   5.517  1.00  0.00    -0.504 OA
ATOM     22  H   UNL     1     -11.321   3.238   4.525  1.00  0.00     0.293 HD
ENDBRANCH  18  21
ENDBRANCH   3  13
BRANCH  10  23
ATOM     23  O   UNL     1      -8.075  12.125   4.614  1.00  0.00    -0.507 OA
ATOM     24  H   UNL     1      -8.712  12.845   4.917  1.00  0.00     0.293 HD
ENDBRANCH  10  23
BRANCH  11  25
ATOM     25  O   UNL     1      -4.485   9.884   6.880  1.00  0.00    -0.508 OA
ATOM     26  H   UNL     1      -4.011  10.720   7.204  1.00  0.00     0.293 HD
ENDBRANCH  11  25
ENDBRANCH   1   2
BRANCH   1  27
ATOM     27  C   UNL     1     -13.180   8.815   6.445  1.00  0.00     0.339 C 
ATOM     28  C   UNL     1     -12.736   9.658   7.663  1.00  0.00     0.214 C 
ATOM     29  O   UNL     1     -14.291   9.406   5.782  1.00  0.00    -0.332 OA
ATOM     30  C   UNL     1     -12.498  11.131   7.263  1.00  0.00     0.180 C 
ATOM     31  C   UNL     1     -13.973  10.692   5.273  1.00  0.00     0.179 C 
ATOM     32  C   UNL     1     -13.662  11.682   6.419  1.00  0.00     0.177 C 
BRANCH  28  33
ATOM     33  O   UNL     1     -13.654   9.556   8.727  1.00  0.00    -0.384 OA
ATOM     34  H   UNL     1     -13.927  10.471   8.995  1.00  0.00     0.211 HD
ENDBRANCH  28  33
BRANCH  30  35
ATOM     35  O   UNL     1     -12.307  11.930   8.402  1.00  0.00    -0.387 OA
ATOM     36  H   UNL     1     -12.352  12.874   8.100  1.00  0.00     0.211 HD
ENDBRANCH  30  35
BRANCH  31  37
ATOM     37  C   UNL     1     -15.125  11.186   4.382  1.00  0.00     0.191 C 
BRANCH  37  38
ATOM     38  O   UNL     1     -14.835  11.008   3.020  1.00  0.00    -0.394 OA
ATOM     39  H   UNL     1     -14.859  11.909   2.602  1.00  0.00     0.210 HD
ENDBRANCH  37  38
ENDBRANCH  31  37
BRANCH  32  40
ATOM     40  O   UNL     1     -14.802  11.878   7.218  1.00  0.00    -0.387 OA
ATOM     41  H   UNL     1     -14.551  12.524   7.929  1.00  0.00     0.211 HD
ENDBRANCH  32  40
ENDBRANCH   1  27
TORSDOF 12
ENDMDL
MODEL 2
REMARK VINA RESULT:    -2.678      1.853      7.025
REMARK INTER + INTRA:          -4.375
REMARK INTER:                  -6.214
REMARK INTRA:                   1.839
REMARK UNBOUND:                -0.445
REMARK SMILES O=c1c(O[C@@H]2O[C@@H](CO)[C@@H](O)[C@@H](O)[C@H]2O)c(-c2ccc(O)c(O)c2)oc2cc(O)cc(O)c12
REMARK SMILES IDX 4 1 3 2 16 3 25 4 2 5 26 6 1 7 33 8 27 9 31 10 28 11 30 12
REMARK SMILES IDX 17 13 18 14 19 15 20 16 24 17 22 18 21 19 23 21 32 23 29 25
REMARK SMILES IDX 5 27 14 28 6 29 12 30 7 31 10 32 15 33 13 35 8 37 9 38 11 40
REMARK H PARENT 21 20 23 22 32 24 29 26 15 34 13 36 9 39 11 41
REMARK Flexibility Score: inf
ROOT
ATOM      1  O   UNL     1      -9.822   7.116   5.300  1.00  0.00    -0.454 OA
ENDROOT
BRANCH   1   2
ATOM      2  C   UNL     1     -10.714   8.073   5.827  1.00  0.00     0.214 A 
ATOM      3  C   UNL     1     -10.182   9.308   6.243  1.00  0.00     0.180 A 
ATOM      4  O   UNL     1     -10.981  10.257   6.710  1.00  0.00    -0.452 OA
ATOM      5  C   UNL     1     -12.111   7.875   5.938  1.00  0.00     0.239 A 
ATOM      6  C   UNL     1     -12.294  10.122   6.817  1.00  0.00     0.146 A 
ATOM      7  O   UNL     1     -12.604   6.755   5.656  1.00  0.00    -0.285 OA
ATOM      8  C   UNL     1     -12.938   8.929   6.400  1.00  0.00     0.111 A 
ATOM      9  C   UNL     1     -13.032  11.177   7.359  1.00  0.00     0.094 A 
ATOM     10  C   UNL     1     -14.361   8.855   6.501  1.00  0.00     0.134 A 
ATOM     11  C   UNL     1     -14.412  11.070   7.512  1.00  0.00     0.123 A 
ATOM     12  C   UNL     1     -15.068   9.911   7.088  1.00  0.00     0.093 A 
BRANCH   3  13
ATOM     13  C   UNL     1      -8.733   9.601   6.164  1.00  0.00     0.025 A 
ATOM     14  C   UNL     1      -7.988   9.303   5.010  1.00  0.00     0.016 A 
ATOM     15  C   UNL     1      -6.619   9.578   4.961  1.00  0.00     0.051 A 
ATOM     16  C   UNL     1      -5.973  10.139   6.071  1.00  0.00     0.157 A 
ATOM     17  C   UNL     1      -8.075  10.141   7.281  1.00  0.00     0.062 A 
ATOM     18  C   UNL     1      -6.701  10.417   7.235  1.00  0.00     0.158 A 
BRANCH  16  19
ATOM     19  O   UNL     1      -4.607  10.416   6.027  1.00  0.00    -0.504 OA
ATOM     20  H   UNL     1      -4.090  10.394   5.156  1.00  0.00     0.293 HD
ENDBRANCH  16  19
BRANCH  18  21
ATOM     21  O   UNL     1      -6.053  10.967   8.339  1.00  0.00    -0.504 OA
ATOM     22  H   UNL     1      -5.294  10.482   8.804  1.00  0.00     0.293 HD
ENDBRANCH  18  21
ENDBRANCH   3  13
BRANCH  10  23
ATOM     23  O   UNL     1     -15.125   7.788   6.017  1.00  0.00    -0.507 OA
ATOM     24  H   UNL     1     -15.409   7.676   5.056  1.00  0.00     0.293 HD
ENDBRANCH  10  23
BRANCH  11  25
ATOM     25  O   UNL     1     -15.125  12.125   8.076  1.00  0.00    -0.508 OA
ATOM     26  H   UNL     1     -15.782  11.975   8.834  1.00  0.00     0.293 HD
ENDBRANCH  11  25
ENDBRANCH   1   2
BRANCH   1  27
ATOM     27  C   UNL     1      -9.248   5.990   5.973  1.00  0.00     0.339 C 
ATOM     28  C   UNL     1      -9.902   5.827   7.365  1.00  0.00     0.214 C 
ATOM     29  O   UNL     1      -9.366   4.802   5.200  1.00  0.00    -0.332 OA
ATOM     30  C   UNL     1     -11.355   5.319   7.241  1.00  0.00     0.180 C 
ATOM     31  C   UNL     1     -10.724   4.469   4.958  1.00  0.00     0.179 C 
ATOM     32  C   UNL     1     -11.455   4.123   6.276  1.00  0.00     0.177 C 
BRANCH  28  33
ATOM     33  O   UNL     1      -9.137   4.991   8.202  1.00  0.00    -0.384 OA
ATOM     34  H   UNL     1      -9.446   5.114   9.137  1.00  0.00     0.211 HD
ENDBRANCH  28  33
BRANCH  30  35
ATOM     35  O   UNL     1     -11.869   4.967   8.500  1.00  0.00    -0.387 OA
ATOM     36  H   UNL     1     -12.105   4.005   8.454  1.00  0.00     0.211 HD
ENDBRANCH  30  35
BRANCH  31  37
ATOM     37  C   UNL     1     -10.792   3.317   3.942  1.00  0.00     0.191 C 
BRANCH  37  38
ATOM     38  O   UNL     1      -9.605   3.212   3.201  1.00  0.00    -0.394 OA
ATOM     39  H   UNL     1      -8.857   3.368   3.836  1.00  0.00     0.210 HD
ENDBRANCH  37  38
ENDBRANCH  31  37
BRANCH  32  40
ATOM     40  O   UNL     1     -10.896   2.971   6.857  1.00  0.00    -0.387 OA
ATOM     41  H   UNL     1     -11.281   2.189   6.382  1.00  0.00     0.211 HD
ENDBRANCH  32  40
ENDBRANCH   1  27
TORSDOF 12
ENDMDL
