MODEL 1
REMARK VINA RESULT:    -3.719      0.000      0.000
REMARK INTER + INTRA:          -9.169
REMARK INTER:                  -6.764
REMARK INTRA:                  -2.405
REMARK UNBOUND:                -2.405
REMARK SMILES CCCCCCCCCCCCCCCC(=O)[O-]
REMARK SMILES IDX 9 1 10 2 11 3 12 4 13 5 14 6 15 7 16 8 17 9 18 10 8 11 7 12
REMARK SMILES IDX 6 13 5 14 4 15 3 16 2 17 1 18
REMARK H PARENT
REMARK Flexibility Score: inf
ROOT
ATOM      1  C   UNL     1       4.192   1.867 400.655  1.00  0.00     0.000 C 
ENDROOT
BRANCH   1   2
ATOM      2  C   UNL     1       3.953   0.366 400.431  1.00  0.00     0.000 C 
BRANCH   2   3
ATOM      3  C   UNL     1       5.258  -0.413 400.197  1.00  0.00     0.000 C 
BRANCH   3   4
ATOM      4  C   UNL     1       5.087  -1.931 400.380  1.00  0.00     0.000 C 
BRANCH   4   5
ATOM      5  C   UNL     1       3.624  -2.419 400.432  1.00  0.00     0.000 C 
BRANCH   5   6
ATOM      6  C   UNL     1       3.376  -3.651 401.327  1.00  0.00     0.006 C 
BRANCH   6   7
ATOM      7  C   UNL     1       4.642  -4.225 401.981  1.00  0.00     0.053 C 
BRANCH   7   8
ATOM      8  C   UNL     1       4.342  -5.426 402.823  1.00  0.00     0.041 C 
ATOM      9  O   UNL     1       3.743  -6.415 402.325  1.00  0.00    -0.550 OA
ATOM     10  O   UNL     1       4.755  -5.469 404.149  1.00  0.00    -0.550 OA
ENDBRANCH   7   8
ENDBRANCH   6   7
ENDBRANCH   5   6
ENDBRANCH   4   5
ENDBRANCH   3   4
ENDBRANCH   2   3
ENDBRANCH   1   2
BRANCH   1  11
ATOM     11  C   UNL     1       3.819   2.319 402.078  1.00  0.00     0.000 C 
BRANCH  11  12
ATOM     12  C   UNL     1       5.059   2.498 402.979  1.00  0.00    -0.000 C 
BRANCH  12  13
ATOM     13  C   UNL     1       5.153   1.461 404.115  1.00  0.00    -0.000 C 
BRANCH  13  14
ATOM     14  C   UNL     1       6.188   0.345 403.888  1.00  0.00    -0.000 C 
BRANCH  14  15
ATOM     15  C   UNL     1       5.617  -1.086 403.933  1.00  0.00    -0.000 C 
BRANCH  15  16
ATOM     16  C   UNL     1       4.087  -1.138 404.129  1.00  0.00    -0.000 C 
BRANCH  16  17
ATOM     17  C   UNL     1       3.673  -2.147 405.209  1.00  0.00    -0.003 C 
ATOM     18  C   UNL     1       2.395  -2.883 404.815  1.00  0.00     0.004 C 
ENDBRANCH  16  17
ENDBRANCH  15  16
ENDBRANCH  14  15
ENDBRANCH  13  14
ENDBRANCH  12  13
ENDBRANCH  11  12
ENDBRANCH   1  11
TORSDOF 14
ENDMDL
MODEL 2
REMARK VINA RESULT:    -3.650      1.362      3.379
REMARK INTER + INTRA:          -9.043
REMARK INTER:                  -6.666
REMARK INTRA:                  -2.377
REMARK UNBOUND:                -2.405
REMARK SMILES CCCCCCCCCCCCCCCC(=O)[O-]
REMARK SMILES IDX 9 1 10 2 11 3 12 4 13 5 14 6 15 7 16 8 17 9 18 10 8 11 7 12
REMARK SMILES IDX 6 13 5 14 4 15 3 16 2 17 1 18
REMARK H PARENT
REMARK Flexibility Score: inf
ROOT
ATOM      1  C   UNL     1       6.201  -0.943 400.325  1.00  0.00     0.000 C 
ENDROOT
BRANCH   1   2
ATOM      2  C   UNL     1       5.463  -2.279 400.499  1.00  0.00     0.000 C 
BRANCH   2   3
ATOM      3  C   UNL     1       3.941  -2.142 400.320  1.00  0.00     0.000 C 
BRANCH   3   4
ATOM      4  C   UNL     1       3.157  -3.274 401.006  1.00  0.00     0.000 C 
BRANCH   4   5
ATOM      5  C   UNL     1       3.403  -3.408 402.524  1.00  0.00     0.000 C 
BRANCH   5   6
ATOM      6  C   UNL     1       4.135  -4.694 402.957  1.00  0.00     0.006 C 
BRANCH   6   7
ATOM      7  C   UNL     1       4.450  -5.664 401.807  1.00  0.00     0.053 C 
BRANCH   7   8
ATOM      8  C   UNL     1       4.207  -7.090 402.194  1.00  0.00     0.041 C 
ATOM      9  O   UNL     1       4.447  -7.477 403.369  1.00  0.00    -0.550 OA
ATOM     10  O   UNL     1       3.684  -7.984 401.269  1.00  0.00    -0.550 OA
ENDBRANCH   7   8
ENDBRANCH   6   7
ENDBRANCH   5   6
ENDBRANCH   4   5
ENDBRANCH   3   4
ENDBRANCH   2   3
ENDBRANCH   1   2
BRANCH   1  11
ATOM     11  C   UNL     1       7.009  -0.547 401.573  1.00  0.00     0.000 C 
BRANCH  11  12
ATOM     12  C   UNL     1       6.459  -1.203 402.858  1.00  0.00    -0.000 C 
BRANCH  12  13
ATOM     13  C   UNL     1       5.889  -0.192 403.872  1.00  0.00    -0.000 C 
BRANCH  13  14
ATOM     14  C   UNL     1       4.353  -0.149 403.949  1.00  0.00    -0.000 C 
BRANCH  14  15
ATOM     15  C   UNL     1       3.669   0.619 402.801  1.00  0.00    -0.000 C 
BRANCH  15  16
ATOM     16  C   UNL     1       4.308   1.993 402.505  1.00  0.00    -0.000 C 
BRANCH  16  17
ATOM     17  C   UNL     1       4.016   2.476 401.078  1.00  0.00    -0.003 C 
ATOM     18  C   UNL     1       3.236   1.427 400.291  1.00  0.00     0.004 C 
ENDBRANCH  16  17
ENDBRANCH  15  16
ENDBRANCH  14  15
ENDBRANCH  13  14
ENDBRANCH  12  13
ENDBRANCH  11  12
ENDBRANCH   1  11
TORSDOF 14
ENDMDL
MODEL 3
REMARK VINA RESULT:    -3.632      1.264      2.328
REMARK INTER + INTRA:          -9.009
REMARK INTER:                  -6.746
REMARK INTRA:                  -2.263
REMARK UNBOUND:                -2.405
REMARK SMILES CCCCCCCCCCCCCCCC(=O)[O-]
REMARK SMILES IDX 9 1 10 2 11 3 12 4 13 5 14 6 15 7 16 8 17 9 18 10 8 11 7 12
REMARK SMILES IDX 6 13 5 14 4 15 3 16 2 17 1 18
REMARK H PARENT
REMARK Flexibility Score: inf
ROOT
ATOM      1  C   UNL     1       3.837   1.802 400.686  1.00  0.00     0.000 C 
ENDROOT
BRANCH   1   2
ATOM      2  C   UNL     1       5.198   1.232 400.257  1.00  0.00     0.000 C 
BRANCH   2   3
ATOM      3  C   UNL     1       5.122  -0.255 399.870  1.00  0.00     0.000 C 
BRANCH   3   4
ATOM      4  C   UNL     1       3.809  -0.920 400.319  1.00  0.00     0.000 C 
BRANCH   4   5
ATOM      5  C   UNL     1       3.661  -2.403 399.918  1.00  0.00     0.000 C 
BRANCH   5   6
ATOM      6  C   UNL     1       3.264  -3.354 401.065  1.00  0.00     0.006 C 
BRANCH   6   7
ATOM      7  C   UNL     1       4.409  -4.242 401.577  1.00  0.00     0.053 C 
BRANCH   7   8
ATOM      8  C   UNL     1       4.027  -4.989 402.818  1.00  0.00     0.041 C 
ATOM      9  O   UNL     1       3.723  -4.362 403.866  1.00  0.00    -0.550 OA
ATOM     10  O   UNL     1       3.972  -6.377 402.806  1.00  0.00    -0.550 OA
ENDBRANCH   7   8
ENDBRANCH   6   7
ENDBRANCH   5   6
ENDBRANCH   4   5
ENDBRANCH   3   4
ENDBRANCH   2   3
ENDBRANCH   1   2
BRANCH   1  11
ATOM     11  C   UNL     1       3.971   2.954 401.696  1.00  0.00     0.000 C 
BRANCH  11  12
ATOM     12  C   UNL     1       4.868   2.581 402.895  1.00  0.00    -0.000 C 
BRANCH  12  13
ATOM     13  C   UNL     1       4.286   1.457 403.776  1.00  0.00    -0.000 C 
BRANCH  13  14
ATOM     14  C   UNL     1       5.325   0.475 404.343  1.00  0.00    -0.000 C 
BRANCH  14  15
ATOM     15  C   UNL     1       5.196  -0.972 403.828  1.00  0.00    -0.000 C 
BRANCH  15  16
ATOM     16  C   UNL     1       6.401  -1.442 402.985  1.00  0.00    -0.000 C 
BRANCH  16  17
ATOM     17  C   UNL     1       7.674  -0.641 403.292  1.00  0.00    -0.003 C 
ATOM     18  C   UNL     1       8.216   0.034 402.036  1.00  0.00     0.004 C 
ENDBRANCH  16  17
ENDBRANCH  15  16
ENDBRANCH  14  15
ENDBRANCH  13  14
ENDBRANCH  12  13
ENDBRANCH  11  12
ENDBRANCH   1  11
TORSDOF 14
ENDMDL
MODEL 4
REMARK VINA RESULT:    -3.580      1.512      3.972
REMARK INTER + INTRA:          -8.915
REMARK INTER:                  -6.359
REMARK INTRA:                  -2.557
REMARK UNBOUND:                -2.405
REMARK SMILES CCCCCCCCCCCCCCCC(=O)[O-]
REMARK SMILES IDX 9 1 10 2 11 3 12 4 13 5 14 6 15 7 16 8 17 9 18 10 8 11 7 12
REMARK SMILES IDX 6 13 5 14 4 15 3 16 2 17 1 18
REMARK H PARENT
REMARK Flexibility Score: inf
ROOT
ATOM      1  C   UNL     1       5.931   2.548 402.946  1.00  0.00     0.000 C 
ENDROOT
BRANCH   1   2
ATOM      2  C   UNL     1       6.736   1.265 403.206  1.00  0.00     0.000 C 
BRANCH   2   3
ATOM      3  C   UNL     1       5.923   0.198 403.958  1.00  0.00     0.000 C 
BRANCH   3   4
ATOM      4  C   UNL     1       6.579  -1.193 403.910  1.00  0.00     0.000 C 
BRANCH   4   5
ATOM      5  C   UNL     1       5.732  -2.288 403.227  1.00  0.00     0.000 C 
BRANCH   5   6
ATOM      6  C   UNL     1       4.206  -2.096 403.333  1.00  0.00     0.006 C 
BRANCH   6   7
ATOM      7  C   UNL     1       3.388  -3.378 403.115  1.00  0.00     0.053 C 
BRANCH   7   8
ATOM      8  C   UNL     1       3.561  -3.925 401.731  1.00  0.00     0.041 C 
ATOM      9  O   UNL     1       3.168  -3.261 400.735  1.00  0.00    -0.550 OA
ATOM     10  O   UNL     1       4.186  -5.150 401.538  1.00  0.00    -0.550 OA
ENDBRANCH   7   8
ENDBRANCH   6   7
ENDBRANCH   5   6
ENDBRANCH   4   5
ENDBRANCH   3   4
ENDBRANCH   2   3
ENDBRANCH   1   2
BRANCH   1  11
ATOM     11  C   UNL     1       4.424   2.279 402.789  1.00  0.00     0.000 C 
BRANCH  11  12
ATOM     12  C   UNL     1       3.849   2.906 401.501  1.00  0.00    -0.000 C 
BRANCH  12  13
ATOM     13  C   UNL     1       3.502   1.872 400.412  1.00  0.00    -0.000 C 
BRANCH  13  14
ATOM     14  C   UNL     1       3.764   0.407 400.804  1.00  0.00    -0.000 C 
BRANCH  14  15
ATOM     15  C   UNL     1       4.981  -0.239 400.114  1.00  0.00    -0.000 C 
BRANCH  15  16
ATOM     16  C   UNL     1       5.995   0.783 399.557  1.00  0.00    -0.000 C 
BRANCH  16  17
ATOM     17  C   UNL     1       7.437   0.260 399.607  1.00  0.00    -0.003 C 
ATOM     18  C   UNL     1       7.503  -1.108 400.281  1.00  0.00     0.004 C 
ENDBRANCH  16  17
ENDBRANCH  15  16
ENDBRANCH  14  15
ENDBRANCH  13  14
ENDBRANCH  12  13
ENDBRANCH  11  12
ENDBRANCH   1  11
TORSDOF 14
ENDMDL
MODEL 5
REMARK VINA RESULT:    -3.540      1.279      3.837
REMARK INTER + INTRA:          -8.842
REMARK INTER:                  -6.762
REMARK INTRA:                  -2.080
REMARK UNBOUND:                -2.405
REMARK SMILES CCCCCCCCCCCCCCCC(=O)[O-]
REMARK SMILES IDX 9 1 10 2 11 3 12 4 13 5 14 6 15 7 16 8 17 9 18 10 8 11 7 12
REMARK SMILES IDX 6 13 5 14 4 15 3 16 2 17 1 18
REMARK H PARENT
REMARK Flexibility Score: inf
ROOT
ATOM      1  C   UNL     1       4.309   2.525 402.275  1.00  0.00     0.000 C 
ENDROOT
BRANCH   1   2
ATOM      2  C   UNL     1       4.380   1.449 403.370  1.00  0.00     0.000 C 
BRANCH   2   3
ATOM      3  C   UNL     1       5.565   1.656 404.328  1.00  0.00     0.000 C 
BRANCH   3   4
ATOM      4  C   UNL     1       6.508   0.442 404.380  1.00  0.00     0.000 C 
BRANCH   4   5
ATOM      5  C   UNL     1       5.878  -0.891 403.922  1.00  0.00     0.000 C 
BRANCH   5   6
ATOM      6  C   UNL     1       5.310  -1.770 405.054  1.00  0.00     0.006 C 
BRANCH   6   7
ATOM      7  C   UNL     1       3.777  -1.770 405.149  1.00  0.00     0.053 C 
BRANCH   7   8
ATOM      8  C   UNL     1       3.204  -3.143 404.974  1.00  0.00     0.041 C 
ATOM      9  O   UNL     1       3.861  -4.153 405.342  1.00  0.00    -0.550 OA
ATOM     10  O   UNL     1       1.934  -3.306 404.438  1.00  0.00    -0.550 OA
ENDBRANCH   7   8
ENDBRANCH   6   7
ENDBRANCH   5   6
ENDBRANCH   4   5
ENDBRANCH   3   4
ENDBRANCH   2   3
ENDBRANCH   1   2
BRANCH   1  11
ATOM     11  C   UNL     1       4.300   1.927 400.858  1.00  0.00     0.000 C 
BRANCH  11  12
ATOM     12  C   UNL     1       5.585   1.129 400.552  1.00  0.00    -0.000 C 
BRANCH  12  13
ATOM     13  C   UNL     1       5.330  -0.179 399.777  1.00  0.00    -0.000 C 
BRANCH  13  14
ATOM     14  C   UNL     1       3.962  -0.832 400.043  1.00  0.00    -0.000 C 
BRANCH  14  15
ATOM     15  C   UNL     1       3.879  -1.650 401.346  1.00  0.00    -0.000 C 
BRANCH  15  16
ATOM     16  C   UNL     1       3.480  -3.126 401.129  1.00  0.00    -0.000 C 
BRANCH  16  17
ATOM     17  C   UNL     1       4.580  -4.098 401.577  1.00  0.00    -0.003 C 
ATOM     18  C   UNL     1       3.996  -5.456 401.954  1.00  0.00     0.004 C 
ENDBRANCH  16  17
ENDBRANCH  15  16
ENDBRANCH  14  15
ENDBRANCH  13  14
ENDBRANCH  12  13
ENDBRANCH  11  12
ENDBRANCH   1  11
TORSDOF 14
ENDMDL
MODEL 6
REMARK VINA RESULT:    -3.536      5.596      8.586
REMARK INTER + INTRA:          -8.836
REMARK INTER:                  -7.335
REMARK INTRA:                  -1.501
REMARK UNBOUND:                -2.405
REMARK SMILES CCCCCCCCCCCCCCCC(=O)[O-]
REMARK SMILES IDX 9 1 10 2 11 3 12 4 13 5 14 6 15 7 16 8 17 9 18 10 8 11 7 12
REMARK SMILES IDX 6 13 5 14 4 15 3 16 2 17 1 18
REMARK H PARENT
REMARK Flexibility Score: inf
ROOT
ATOM      1  C   UNL     1       6.383   2.838 403.436  1.00  0.00     0.000 C 
ENDROOT
BRANCH   1   2
ATOM      2  C   UNL     1       7.462   3.257 404.446  1.00  0.00     0.000 C 
BRANCH   2   3
ATOM      3  C   UNL     1       7.232   4.670 405.006  1.00  0.00     0.000 C 
BRANCH   3   4
ATOM      4  C   UNL     1       6.878   5.693 403.913  1.00  0.00     0.000 C 
BRANCH   4   5
ATOM      5  C   UNL     1       5.625   6.546 404.201  1.00  0.00     0.000 C 
BRANCH   5   6
ATOM      6  C   UNL     1       4.535   6.496 403.112  1.00  0.00     0.006 C 
BRANCH   6   7
ATOM      7  C   UNL     1       3.893   7.855 402.793  1.00  0.00     0.053 C 
BRANCH   7   8
ATOM      8  C   UNL     1       2.916   8.275 403.848  1.00  0.00     0.041 C 
ATOM      9  O   UNL     1       3.292   9.009 404.800  1.00  0.00    -0.550 OA
ATOM     10  O   UNL     1       1.586   7.886 403.761  1.00  0.00    -0.550 OA
ENDBRANCH   7   8
ENDBRANCH   6   7
ENDBRANCH   5   6
ENDBRANCH   4   5
ENDBRANCH   3   4
ENDBRANCH   2   3
ENDBRANCH   1   2
BRANCH   1  11
ATOM     11  C   UNL     1       5.355   1.864 404.038  1.00  0.00     0.000 C 
BRANCH  11  12
ATOM     12  C   UNL     1       4.069   1.771 403.189  1.00  0.00    -0.000 C 
BRANCH  12  13
ATOM     13  C   UNL     1       3.994   2.823 402.065  1.00  0.00    -0.000 C 
BRANCH  13  14
ATOM     14  C   UNL     1       3.635   2.262 400.678  1.00  0.00    -0.000 C 
BRANCH  14  15
ATOM     15  C   UNL     1       3.511   0.727 400.613  1.00  0.00    -0.000 C 
BRANCH  15  16
ATOM     16  C   UNL     1       4.609   0.050 399.766  1.00  0.00    -0.000 C 
BRANCH  16  17
ATOM     17  C   UNL     1       6.005   0.218 400.382  1.00  0.00    -0.003 C 
ATOM     18  C   UNL     1       7.051   0.504 399.307  1.00  0.00     0.004 C 
ENDBRANCH  16  17
ENDBRANCH  15  16
ENDBRANCH  14  15
ENDBRANCH  13  14
ENDBRANCH  12  13
ENDBRANCH  11  12
ENDBRANCH   1  11
TORSDOF 14
ENDMDL
MODEL 7
REMARK VINA RESULT:    -3.522      1.565      2.547
REMARK INTER + INTRA:          -8.811
REMARK INTER:                  -6.757
REMARK INTRA:                  -2.053
REMARK UNBOUND:                -2.405
REMARK SMILES CCCCCCCCCCCCCCCC(=O)[O-]
REMARK SMILES IDX 9 1 10 2 11 3 12 4 13 5 14 6 15 7 16 8 17 9 18 10 8 11 7 12
REMARK SMILES IDX 6 13 5 14 4 15 3 16 2 17 1 18
REMARK H PARENT
REMARK Flexibility Score: inf
ROOT
ATOM      1  C   UNL     1       5.379  -0.367 400.048  1.00  0.00     0.000 C 
ENDROOT
BRANCH   1   2
ATOM      2  C   UNL     1       3.883  -0.715 400.010  1.00  0.00     0.000 C 
BRANCH   2   3
ATOM      3  C   UNL     1       3.630  -2.208 399.737  1.00  0.00     0.000 C 
BRANCH   3   4
ATOM      4  C   UNL     1       3.432  -3.023 401.027  1.00  0.00     0.000 C 
BRANCH   4   5
ATOM      5  C   UNL     1       4.451  -4.162 401.239  1.00  0.00     0.000 C 
BRANCH   5   6
ATOM      6  C   UNL     1       3.932  -5.360 402.060  1.00  0.00     0.006 C 
BRANCH   6   7
ATOM      7  C   UNL     1       5.024  -6.346 402.503  1.00  0.00     0.053 C 
BRANCH   7   8
ATOM      8  C   UNL     1       5.069  -7.562 401.629  1.00  0.00     0.041 C 
ATOM      9  O   UNL     1       4.026  -7.963 401.049  1.00  0.00    -0.550 OA
ATOM     10  O   UNL     1       6.269  -8.231 401.428  1.00  0.00    -0.550 OA
ENDBRANCH   7   8
ENDBRANCH   6   7
ENDBRANCH   5   6
ENDBRANCH   4   5
ENDBRANCH   3   4
ENDBRANCH   2   3
ENDBRANCH   1   2
BRANCH   1  11
ATOM     11  C   UNL     1       5.631   1.129 400.305  1.00  0.00     0.000 C 
BRANCH  11  12
ATOM     12  C   UNL     1       4.333   1.891 400.644  1.00  0.00    -0.000 C 
BRANCH  12  13
ATOM     13  C   UNL     1       4.382   2.624 401.999  1.00  0.00    -0.000 C 
BRANCH  13  14
ATOM     14  C   UNL     1       4.630   1.717 403.217  1.00  0.00    -0.000 C 
BRANCH  14  15
ATOM     15  C   UNL     1       3.570   0.618 403.431  1.00  0.00    -0.000 C 
BRANCH  15  16
ATOM     16  C   UNL     1       4.164  -0.746 403.842  1.00  0.00    -0.000 C 
BRANCH  16  17
ATOM     17  C   UNL     1       5.680  -0.815 403.610  1.00  0.00    -0.003 C 
ATOM     18  C   UNL     1       6.207  -2.230 403.831  1.00  0.00     0.004 C 
ENDBRANCH  16  17
ENDBRANCH  15  16
ENDBRANCH  14  15
ENDBRANCH  13  14
ENDBRANCH  12  13
ENDBRANCH  11  12
ENDBRANCH   1  11
TORSDOF 14
ENDMDL
MODEL 8
REMARK VINA RESULT:    -3.506      1.215      3.591
REMARK INTER + INTRA:          -8.781
REMARK INTER:                  -6.869
REMARK INTRA:                  -1.912
REMARK UNBOUND:                -2.405
REMARK SMILES CCCCCCCCCCCCCCCC(=O)[O-]
REMARK SMILES IDX 9 1 10 2 11 3 12 4 13 5 14 6 15 7 16 8 17 9 18 10 8 11 7 12
REMARK SMILES IDX 6 13 5 14 4 15 3 16 2 17 1 18
REMARK H PARENT
REMARK Flexibility Score: inf
ROOT
ATOM      1  C   UNL     1       5.861   0.537 404.009  1.00  0.00     0.000 C 
ENDROOT
BRANCH   1   2
ATOM      2  C   UNL     1       5.322  -0.843 404.414  1.00  0.00     0.000 C 
BRANCH   2   3
ATOM      3  C   UNL     1       3.931  -1.132 403.823  1.00  0.00     0.000 C 
BRANCH   3   4
ATOM      4  C   UNL     1       3.208  -2.286 404.539  1.00  0.00     0.000 C 
BRANCH   4   5
ATOM      5  C   UNL     1       2.960  -3.537 403.672  1.00  0.00     0.000 C 
BRANCH   5   6
ATOM      6  C   UNL     1       4.212  -4.385 403.371  1.00  0.00     0.006 C 
BRANCH   6   7
ATOM      7  C   UNL     1       4.029  -5.409 402.241  1.00  0.00     0.053 C 
BRANCH   7   8
ATOM      8  C   UNL     1       5.339  -5.825 401.644  1.00  0.00     0.041 C 
ATOM      9  O   UNL     1       6.057  -4.982 401.045  1.00  0.00    -0.550 OA
ATOM     10  O   UNL     1       5.782  -7.135 401.778  1.00  0.00    -0.550 OA
ENDBRANCH   7   8
ENDBRANCH   6   7
ENDBRANCH   5   6
ENDBRANCH   4   5
ENDBRANCH   3   4
ENDBRANCH   2   3
ENDBRANCH   1   2
BRANCH   1  11
ATOM     11  C   UNL     1       4.752   1.597 403.900  1.00  0.00     0.000 C 
BRANCH  11  12
ATOM     12  C   UNL     1       5.063   2.663 402.828  1.00  0.00    -0.000 C 
BRANCH  12  13
ATOM     13  C   UNL     1       3.929   2.858 401.803  1.00  0.00    -0.000 C 
BRANCH  13  14
ATOM     14  C   UNL     1       3.955   1.881 400.615  1.00  0.00    -0.000 C 
BRANCH  14  15
ATOM     15  C   UNL     1       5.333   1.255 400.323  1.00  0.00    -0.000 C 
BRANCH  15  16
ATOM     16  C   UNL     1       5.303  -0.284 400.202  1.00  0.00    -0.000 C 
BRANCH  16  17
ATOM     17  C   UNL     1       3.876  -0.829 400.056  1.00  0.00    -0.003 C 
ATOM     18  C   UNL     1       3.853  -2.351 400.162  1.00  0.00     0.004 C 
ENDBRANCH  16  17
ENDBRANCH  15  16
ENDBRANCH  14  15
ENDBRANCH  13  14
ENDBRANCH  12  13
ENDBRANCH  11  12
ENDBRANCH   1  11
TORSDOF 14
ENDMDL
MODEL 9
REMARK VINA RESULT:    -3.500      2.088      4.332
REMARK INTER + INTRA:          -8.770
REMARK INTER:                  -7.040
REMARK INTRA:                  -1.730
REMARK UNBOUND:                -2.405
REMARK SMILES CCCCCCCCCCCCCCCC(=O)[O-]
REMARK SMILES IDX 9 1 10 2 11 3 12 4 13 5 14 6 15 7 16 8 17 9 18 10 8 11 7 12
REMARK SMILES IDX 6 13 5 14 4 15 3 16 2 17 1 18
REMARK H PARENT
REMARK Flexibility Score: inf
ROOT
ATOM      1  C   UNL     1       5.020   2.018 402.366  1.00  0.00     0.000 C 
ENDROOT
BRANCH   1   2
ATOM      2  C   UNL     1       4.380   1.482 403.655  1.00  0.00     0.000 C 
BRANCH   2   3
ATOM      3  C   UNL     1       4.926   0.101 404.058  1.00  0.00     0.000 C 
BRANCH   3   4
ATOM      4  C   UNL     1       3.846  -0.994 404.041  1.00  0.00     0.000 C 
BRANCH   4   5
ATOM      5  C   UNL     1       4.304  -2.368 404.574  1.00  0.00     0.000 C 
BRANCH   5   6
ATOM      6  C   UNL     1       3.350  -3.028 405.589  1.00  0.00     0.006 C 
BRANCH   6   7
ATOM      7  C   UNL     1       3.234  -2.284 406.928  1.00  0.00     0.053 C 
BRANCH   7   8
ATOM      8  C   UNL     1       3.793  -3.084 408.065  1.00  0.00     0.041 C 
ATOM      9  O   UNL     1       3.020  -3.597 408.916  1.00  0.00    -0.550 OA
ATOM     10  O   UNL     1       5.162  -3.292 408.164  1.00  0.00    -0.550 OA
ENDBRANCH   7   8
ENDBRANCH   6   7
ENDBRANCH   5   6
ENDBRANCH   4   5
ENDBRANCH   3   4
ENDBRANCH   2   3
ENDBRANCH   1   2
BRANCH   1  11
ATOM     11  C   UNL     1       3.994   2.226 401.239  1.00  0.00     0.000 C 
BRANCH  11  12
ATOM     12  C   UNL     1       3.566   0.896 400.584  1.00  0.00    -0.000 C 
BRANCH  12  13
ATOM     13  C   UNL     1       4.743   0.085 400.005  1.00  0.00    -0.000 C 
BRANCH  13  14
ATOM     14  C   UNL     1       4.839  -1.365 400.509  1.00  0.00    -0.000 C 
BRANCH  14  15
ATOM     15  C   UNL     1       3.699  -2.290 400.038  1.00  0.00    -0.000 C 
BRANCH  15  16
ATOM     16  C   UNL     1       3.306  -3.367 401.072  1.00  0.00    -0.000 C 
BRANCH  16  17
ATOM     17  C   UNL     1       4.506  -4.218 401.511  1.00  0.00    -0.003 C 
ATOM     18  C   UNL     1       4.060  -5.606 401.964  1.00  0.00     0.004 C 
ENDBRANCH  16  17
ENDBRANCH  15  16
ENDBRANCH  14  15
ENDBRANCH  13  14
ENDBRANCH  12  13
ENDBRANCH  11  12
ENDBRANCH   1  11
TORSDOF 14
ENDMDL
