MODEL 1
REMARK VINA RESULT:    -4.563      0.000      0.000
REMARK INTER + INTRA:          -5.824
REMARK INTER:                  -5.496
REMARK INTRA:                  -0.327
REMARK UNBOUND:                -0.327
REMARK SMILES Oc1cc(O)c2cc(O)c(-c3ccc(O)c(O)c3)[o+]c2c1
REMARK SMILES IDX 10 1 19 2 20 3 21 4 2 5 3 6 4 7 6 8 7 9 8 10 11 11 12 12
REMARK SMILES IDX 13 13 14 14 18 15 16 16 15 17 17 19 9 21 1 23 5 25
REMARK H PARENT 15 18 17 20 9 22 1 24 5 26
REMARK Flexibility Score: inf
ROOT
ATOM      1  C   UNL     1       4.438  26.014  24.504  1.00  0.00     0.402 A 
ATOM      2  O   UNL     1       4.264  27.333  24.501  1.00  0.00    -0.202 OA
ATOM      3  C   UNL     1       5.246  28.200  24.728  1.00  0.00     0.368 A 
ATOM      4  C   UNL     1       4.964  29.568  24.706  1.00  0.00     0.162 A 
ATOM      5  C   UNL     1       5.977  30.500  24.946  1.00  0.00     0.128 A 
ATOM      6  C   UNL     1       7.277  30.063  25.210  1.00  0.00     0.093 A 
ATOM      7  C   UNL     1       7.585  28.698  25.238  1.00  0.00     0.136 A 
ATOM      8  C   UNL     1       6.561  27.746  24.993  1.00  0.00     0.125 A 
ATOM      9  C   UNL     1       6.781  26.359  24.988  1.00  0.00     0.078 A 
ATOM     10  C   UNL     1       5.721  25.484  24.733  1.00  0.00     0.223 A 
ENDROOT
BRANCH   1  11
ATOM     11  C   UNL     1       3.263  25.152  24.245  1.00  0.00     0.087 A 
ATOM     12  C   UNL     1       2.773  25.028  22.938  1.00  0.00     0.022 A 
ATOM     13  C   UNL     1       1.655  24.236  22.675  1.00  0.00     0.051 A 
ATOM     14  C   UNL     1       0.994  23.565  23.710  1.00  0.00     0.157 A 
ATOM     15  C   UNL     1       2.589  24.498  25.292  1.00  0.00     0.068 A 
ATOM     16  C   UNL     1       1.464  23.704  25.038  1.00  0.00     0.158 A 
BRANCH  14  17
ATOM     17  O   UNL     1      -0.114  22.783  23.379  1.00  0.00    -0.504 OA
ATOM     18  H   UNL     1      -0.273  21.850  23.732  1.00  0.00     0.293 HD
ENDBRANCH  14  17
BRANCH  16  19
ATOM     19  O   UNL     1       0.846  23.082  26.125  1.00  0.00    -0.504 OA
ATOM     20  H   UNL     1       0.941  22.101  26.342  1.00  0.00     0.293 HD
ENDBRANCH  16  19
ENDBRANCH   1  11
BRANCH  10  21
ATOM     21  O   UNL     1       5.949  24.107  24.678  1.00  0.00    -0.500 OA
ATOM     22  H   UNL     1       6.244  23.585  25.494  1.00  0.00     0.294 HD
ENDBRANCH  10  21
BRANCH   5  23
ATOM     23  O   UNL     1       5.704  31.867  24.925  1.00  0.00    -0.507 OA
ATOM     24  H   UNL     1       6.290  32.532  25.416  1.00  0.00     0.293 HD
ENDBRANCH   5  23
BRANCH   7  25
ATOM     25  O   UNL     1       8.909  28.342  25.513  1.00  0.00    -0.507 OA
ATOM     26  H   UNL     1       9.534  28.878  26.098  1.00  0.00     0.293 HD
ENDBRANCH   7  25
TORSDOF 6
ENDMDL
MODEL 2
REMARK VINA RESULT:    -4.470      3.522      6.867
REMARK INTER + INTRA:          -5.712
REMARK INTER:                  -5.668
REMARK INTRA:                  -0.044
REMARK UNBOUND:                -0.327
REMARK SMILES Oc1cc(O)c2cc(O)c(-c3ccc(O)c(O)c3)[o+]c2c1
REMARK SMILES IDX 10 1 19 2 20 3 21 4 2 5 3 6 4 7 6 8 7 9 8 10 11 11 12 12
REMARK SMILES IDX 13 13 14 14 18 15 16 16 15 17 17 19 9 21 1 23 5 25
REMARK H PARENT 15 18 17 20 9 22 1 24 5 26
REMARK Flexibility Score: inf
ROOT
ATOM      1  C   UNL     1       6.181  29.510  24.169  1.00  0.00     0.402 A 
ATOM      2  O   UNL     1       7.450  29.345  24.533  1.00  0.00    -0.202 OA
ATOM      3  C   UNL     1       7.945  28.185  24.952  1.00  0.00     0.368 A 
ATOM      4  C   UNL     1       9.293  28.112  25.314  1.00  0.00     0.162 A 
ATOM      5  C   UNL     1       9.837  26.905  25.762  1.00  0.00     0.128 A 
ATOM      6  C   UNL     1       9.032  25.767  25.848  1.00  0.00     0.093 A 
ATOM      7  C   UNL     1       7.679  25.815  25.491  1.00  0.00     0.136 A 
ATOM      8  C   UNL     1       7.120  27.036  25.033  1.00  0.00     0.125 A 
ATOM      9  C   UNL     1       5.779  27.174  24.642  1.00  0.00     0.078 A 
ATOM     10  C   UNL     1       5.303  28.411  24.197  1.00  0.00     0.223 A 
ENDROOT
BRANCH   1  11
ATOM     11  C   UNL     1       5.747  30.855  23.729  1.00  0.00     0.087 A 
ATOM     12  C   UNL     1       5.133  31.007  22.478  1.00  0.00     0.022 A 
ATOM     13  C   UNL     1       4.734  32.269  22.035  1.00  0.00     0.051 A 
ATOM     14  C   UNL     1       4.953  33.405  22.823  1.00  0.00     0.157 A 
ATOM     15  C   UNL     1       5.989  31.997  24.513  1.00  0.00     0.068 A 
ATOM     16  C   UNL     1       5.596  33.267  24.075  1.00  0.00     0.158 A 
BRANCH  14  17
ATOM     17  O   UNL     1       4.523  34.636  22.325  1.00  0.00    -0.504 OA
ATOM     18  H   UNL     1       5.079  35.479  22.347  1.00  0.00     0.293 HD
ENDBRANCH  14  17
BRANCH  16  19
ATOM     19  O   UNL     1       5.867  34.356  24.907  1.00  0.00    -0.504 OA
ATOM     20  H   UNL     1       5.162  34.996  25.246  1.00  0.00     0.293 HD
ENDBRANCH  16  19
ENDBRANCH   1  11
BRANCH  10  21
ATOM     21  O   UNL     1       3.983  28.536  23.760  1.00  0.00    -0.500 OA
ATOM     22  H   UNL     1       3.298  27.807  23.920  1.00  0.00     0.294 HD
ENDBRANCH  10  21
BRANCH   5  23
ATOM     23  O   UNL     1      11.180  26.824  26.125  1.00  0.00    -0.507 OA
ATOM     24  H   UNL     1      11.705  25.962  26.023  1.00  0.00     0.293 HD
ENDBRANCH   5  23
BRANCH   7  25
ATOM     25  O   UNL     1       6.940  24.633  25.608  1.00  0.00    -0.507 OA
ATOM     26  H   UNL     1       6.962  24.025  26.415  1.00  0.00     0.293 HD
ENDBRANCH   7  25
TORSDOF 6
ENDMDL
MODEL 3
REMARK VINA RESULT:    -4.423     20.638     22.677
REMARK INTER + INTRA:          -5.655
REMARK INTER:                  -5.341
REMARK INTRA:                  -0.314
REMARK UNBOUND:                -0.327
REMARK SMILES Oc1cc(O)c2cc(O)c(-c3ccc(O)c(O)c3)[o+]c2c1
REMARK SMILES IDX 10 1 19 2 20 3 21 4 2 5 3 6 4 7 6 8 7 9 8 10 11 11 12 12
REMARK SMILES IDX 13 13 14 14 18 15 16 16 15 17 17 19 9 21 1 23 5 25
REMARK H PARENT 15 18 17 20 9 22 1 24 5 26
REMARK Flexibility Score: inf
ROOT
ATOM      1  C   UNL     1      13.841  41.301  11.964  1.00  0.00     0.402 A 
ATOM      2  O   UNL     1      13.946  41.196  10.642  1.00  0.00    -0.202 OA
ATOM      3  C   UNL     1      12.914  41.331   9.815  1.00  0.00     0.368 A 
ATOM      4  C   UNL     1      13.125  41.201   8.439  1.00  0.00     0.162 A 
ATOM      5  C   UNL     1      12.056  41.334   7.548  1.00  0.00     0.128 A 
ATOM      6  C   UNL     1      10.774  41.598   8.032  1.00  0.00     0.093 A 
ATOM      7  C   UNL     1      10.537  41.732   9.406  1.00  0.00     0.136 A 
ATOM      8  C   UNL     1      11.617  41.600  10.316  1.00  0.00     0.125 A 
ATOM      9  C   UNL     1      11.476  41.732  11.707  1.00  0.00     0.078 A 
ATOM     10  C   UNL     1      12.591  41.593  12.540  1.00  0.00     0.223 A 
ENDROOT
BRANCH   1  11
ATOM     11  C   UNL     1      15.063  41.121  12.780  1.00  0.00     0.087 A 
ATOM     12  C   UNL     1      16.041  42.125  12.788  1.00  0.00     0.022 A 
ATOM     13  C   UNL     1      17.209  41.967  13.536  1.00  0.00     0.051 A 
ATOM     14  C   UNL     1      17.432  40.801  14.276  1.00  0.00     0.157 A 
ATOM     15  C   UNL     1      15.293  39.938  13.505  1.00  0.00     0.068 A 
ATOM     16  C   UNL     1      16.464  39.769  14.254  1.00  0.00     0.158 A 
BRANCH  14  17
ATOM     17  O   UNL     1      18.617  40.709  15.008  1.00  0.00    -0.504 OA
ATOM     18  H   UNL     1      18.794  40.005  15.710  1.00  0.00     0.293 HD
ENDBRANCH  14  17
BRANCH  16  19
ATOM     19  O   UNL     1      16.625  38.570  14.950  1.00  0.00    -0.504 OA
ATOM     20  H   UNL     1      17.347  38.409  15.639  1.00  0.00     0.293 HD
ENDBRANCH  16  19
ENDBRANCH   1  11
BRANCH  10  21
ATOM     21  O   UNL     1      12.460  41.774  13.918  1.00  0.00    -0.500 OA
ATOM     22  H   UNL     1      12.008  42.592  14.307  1.00  0.00     0.294 HD
ENDBRANCH  10  21
BRANCH   5  23
ATOM     23  O   UNL     1      12.258  41.207   6.175  1.00  0.00    -0.507 OA
ATOM     24  H   UNL     1      12.162  40.313   5.706  1.00  0.00     0.293 HD
ENDBRANCH   5  23
BRANCH   7  25
ATOM     25  O   UNL     1       9.224  41.992   9.811  1.00  0.00    -0.507 OA
ATOM     26  H   UNL     1       8.560  41.282  10.084  1.00  0.00     0.293 HD
ENDBRANCH   7  25
TORSDOF 6
ENDMDL
MODEL 4
REMARK VINA RESULT:    -4.392      2.053      3.706
REMARK INTER + INTRA:          -5.618
REMARK INTER:                  -5.564
REMARK INTRA:                  -0.054
REMARK UNBOUND:                -0.327
REMARK SMILES Oc1cc(O)c2cc(O)c(-c3ccc(O)c(O)c3)[o+]c2c1
REMARK SMILES IDX 10 1 19 2 20 3 21 4 2 5 3 6 4 7 6 8 7 9 8 10 11 11 12 12
REMARK SMILES IDX 13 13 14 14 18 15 16 16 15 17 17 19 9 21 1 23 5 25
REMARK H PARENT 15 18 17 20 9 22 1 24 5 26
REMARK Flexibility Score: inf
ROOT
ATOM      1  C   UNL     1       5.840  28.465  24.501  1.00  0.00     0.402 A 
ATOM      2  O   UNL     1       5.054  29.260  23.779  1.00  0.00    -0.202 OA
ATOM      3  C   UNL     1       5.276  30.561  23.624  1.00  0.00     0.368 A 
ATOM      4  C   UNL     1       4.392  31.315  22.848  1.00  0.00     0.162 A 
ATOM      5  C   UNL     1       4.601  32.686  22.672  1.00  0.00     0.128 A 
ATOM      6  C   UNL     1       5.697  33.305  23.275  1.00  0.00     0.093 A 
ATOM      7  C   UNL     1       6.598  32.572  24.058  1.00  0.00     0.136 A 
ATOM      8  C   UNL     1       6.393  31.180  24.239  1.00  0.00     0.125 A 
ATOM      9  C   UNL     1       7.250  30.365  24.995  1.00  0.00     0.078 A 
ATOM     10  C   UNL     1       6.984  28.998  25.122  1.00  0.00     0.223 A 
ENDROOT
BRANCH   1  11
ATOM     11  C   UNL     1       5.480  27.032  24.605  1.00  0.00     0.087 A 
ATOM     12  C   UNL     1       6.418  26.058  24.236  1.00  0.00     0.022 A 
ATOM     13  C   UNL     1       6.093  24.703  24.309  1.00  0.00     0.051 A 
ATOM     14  C   UNL     1       4.825  24.293  24.735  1.00  0.00     0.157 A 
ATOM     15  C   UNL     1       4.198  26.626  25.012  1.00  0.00     0.068 A 
ATOM     16  C   UNL     1       3.862  25.269  25.084  1.00  0.00     0.158 A 
BRANCH  14  17
ATOM     17  O   UNL     1       4.566  22.922  24.792  1.00  0.00    -0.504 OA
ATOM     18  H   UNL     1       4.388  22.347  23.981  1.00  0.00     0.293 HD
ENDBRANCH  14  17
BRANCH  16  19
ATOM     19  O   UNL     1       2.570  24.938  25.499  1.00  0.00    -0.504 OA
ATOM     20  H   UNL     1       2.366  24.335  26.283  1.00  0.00     0.293 HD
ENDBRANCH  16  19
ENDBRANCH   1  11
BRANCH  10  21
ATOM     21  O   UNL     1       7.863  28.178  25.832  1.00  0.00    -0.500 OA
ATOM     22  H   UNL     1       8.060  27.229  25.537  1.00  0.00     0.294 HD
ENDBRANCH  10  21
BRANCH   5  23
ATOM     23  O   UNL     1       3.724  33.444  21.899  1.00  0.00    -0.507 OA
ATOM     24  H   UNL     1       3.018  33.007  21.316  1.00  0.00     0.293 HD
ENDBRANCH   5  23
BRANCH   7  25
ATOM     25  O   UNL     1       7.668  33.268  24.630  1.00  0.00    -0.507 OA
ATOM     26  H   UNL     1       8.641  33.055  24.464  1.00  0.00     0.293 HD
ENDBRANCH   7  25
TORSDOF 6
ENDMDL
MODEL 5
REMARK VINA RESULT:    -4.310      2.049      6.597
REMARK INTER + INTRA:          -5.519
REMARK INTER:                  -5.259
REMARK INTRA:                  -0.260
REMARK UNBOUND:                -0.327
REMARK SMILES Oc1cc(O)c2cc(O)c(-c3ccc(O)c(O)c3)[o+]c2c1
REMARK SMILES IDX 10 1 19 2 20 3 21 4 2 5 3 6 4 7 6 8 7 9 8 10 11 11 12 12
REMARK SMILES IDX 13 13 14 14 18 15 16 16 15 17 17 19 9 21 1 23 5 25
REMARK H PARENT 15 18 17 20 9 22 1 24 5 26
REMARK Flexibility Score: inf
ROOT
ATOM      1  C   UNL     1       5.727  28.565  24.057  1.00  0.00     0.402 A 
ATOM      2  O   UNL     1       4.732  27.752  24.402  1.00  0.00    -0.202 OA
ATOM      3  C   UNL     1       4.908  26.471  24.708  1.00  0.00     0.368 A 
ATOM      4  C   UNL     1       3.799  25.696  25.055  1.00  0.00     0.162 A 
ATOM      5  C   UNL     1       3.957  24.345  25.378  1.00  0.00     0.128 A 
ATOM      6  C   UNL     1       5.227  23.767  25.352  1.00  0.00     0.093 A 
ATOM      7  C   UNL     1       6.355  24.522  25.006  1.00  0.00     0.136 A 
ATOM      8  C   UNL     1       6.202  25.894  24.680  1.00  0.00     0.125 A 
ATOM      9  C   UNL     1       7.276  26.731  24.336  1.00  0.00     0.078 A 
ATOM     10  C   UNL     1       7.046  28.076  24.032  1.00  0.00     0.223 A 
ENDROOT
BRANCH   1  11
ATOM     11  C   UNL     1       5.401  29.972  23.730  1.00  0.00     0.087 A 
ATOM     12  C   UNL     1       5.722  30.985  24.643  1.00  0.00     0.022 A 
ATOM     13  C   UNL     1       5.407  32.315  24.362  1.00  0.00     0.051 A 
ATOM     14  C   UNL     1       4.751  32.660  23.175  1.00  0.00     0.157 A 
ATOM     15  C   UNL     1       4.722  30.310  22.546  1.00  0.00     0.068 A 
ATOM     16  C   UNL     1       4.397  31.642  22.258  1.00  0.00     0.158 A 
BRANCH  14  17
ATOM     17  O   UNL     1       4.470  34.009  22.951  1.00  0.00    -0.504 OA
ATOM     18  H   UNL     1       3.740  34.519  23.425  1.00  0.00     0.293 HD
ENDBRANCH  14  17
BRANCH  16  19
ATOM     19  O   UNL     1       3.725  31.905  21.063  1.00  0.00    -0.504 OA
ATOM     20  H   UNL     1       4.183  32.018  20.170  1.00  0.00     0.293 HD
ENDBRANCH  16  19
ENDBRANCH   1  11
BRANCH  10  21
ATOM     21  O   UNL     1       8.119  28.920  23.738  1.00  0.00    -0.500 OA
ATOM     22  H   UNL     1       8.667  28.808  22.894  1.00  0.00     0.294 HD
ENDBRANCH  10  21
BRANCH   5  23
ATOM     23  O   UNL     1       2.855  23.565  25.726  1.00  0.00    -0.507 OA
ATOM     24  H   UNL     1       2.754  23.178  26.658  1.00  0.00     0.293 HD
ENDBRANCH   5  23
BRANCH   7  25
ATOM     25  O   UNL     1       7.591  23.868  25.001  1.00  0.00    -0.507 OA
ATOM     26  H   UNL     1       8.411  24.194  25.492  1.00  0.00     0.293 HD
ENDBRANCH   7  25
TORSDOF 6
ENDMDL
MODEL 6
REMARK VINA RESULT:    -4.241     18.281     20.903
REMARK INTER + INTRA:          -5.436
REMARK INTER:                  -5.162
REMARK INTRA:                  -0.275
REMARK UNBOUND:                -0.327
REMARK SMILES Oc1cc(O)c2cc(O)c(-c3ccc(O)c(O)c3)[o+]c2c1
REMARK SMILES IDX 10 1 19 2 20 3 21 4 2 5 3 6 4 7 6 8 7 9 8 10 11 11 12 12
REMARK SMILES IDX 13 13 14 14 18 15 16 16 15 17 17 19 9 21 1 23 5 25
REMARK H PARENT 15 18 17 20 9 22 1 24 5 26
REMARK Flexibility Score: inf
ROOT
ATOM      1  C   UNL     1      17.372  35.016  12.648  1.00  0.00     0.402 A 
ATOM      2  O   UNL     1      17.315  35.207  11.333  1.00  0.00    -0.202 OA
ATOM      3  C   UNL     1      16.724  34.359  10.497  1.00  0.00     0.368 A 
ATOM      4  C   UNL     1      16.718  34.645   9.129  1.00  0.00     0.162 A 
ATOM      5  C   UNL     1      16.106  33.768   8.229  1.00  0.00     0.128 A 
ATOM      6  C   UNL     1      15.499  32.601   8.698  1.00  0.00     0.093 A 
ATOM      7  C   UNL     1      15.492  32.292  10.064  1.00  0.00     0.136 A 
ATOM      8  C   UNL     1      16.109  33.178  10.983  1.00  0.00     0.125 A 
ATOM      9  C   UNL     1      16.139  32.956  12.369  1.00  0.00     0.078 A 
ATOM     10  C   UNL     1      16.763  33.881  13.213  1.00  0.00     0.223 A 
ENDROOT
BRANCH   1  11
ATOM     11  C   UNL     1      18.068  36.030  13.473  1.00  0.00     0.087 A 
ATOM     12  C   UNL     1      19.305  35.717  14.054  1.00  0.00     0.022 A 
ATOM     13  C   UNL     1      19.968  36.651  14.850  1.00  0.00     0.051 A 
ATOM     14  C   UNL     1      19.406  37.909  15.096  1.00  0.00     0.157 A 
ATOM     15  C   UNL     1      17.489  37.284  13.736  1.00  0.00     0.068 A 
ATOM     16  C   UNL     1      18.146  38.226  14.537  1.00  0.00     0.158 A 
BRANCH  14  17
ATOM     17  O   UNL     1      20.125  38.800  15.895  1.00  0.00    -0.504 OA
ATOM     18  H   UNL     1      21.023  38.591  16.307  1.00  0.00     0.293 HD
ENDBRANCH  14  17
BRANCH  16  19
ATOM     19  O   UNL     1      17.513  39.452  14.754  1.00  0.00    -0.504 OA
ATOM     20  H   UNL     1      17.886  40.183  15.342  1.00  0.00     0.293 HD
ENDBRANCH  16  19
ENDBRANCH   1  11
BRANCH  10  21
ATOM     21  O   UNL     1      16.749  33.686  14.595  1.00  0.00    -0.500 OA
ATOM     22  H   UNL     1      16.765  32.759  15.001  1.00  0.00     0.294 HD
ENDBRANCH  10  21
BRANCH   5  23
ATOM     23  O   UNL     1      16.095  34.046   6.864  1.00  0.00    -0.507 OA
ATOM     24  H   UNL     1      15.228  34.097   6.341  1.00  0.00     0.293 HD
ENDBRANCH   5  23
BRANCH   7  25
ATOM     25  O   UNL     1      14.867  31.102  10.451  1.00  0.00    -0.507 OA
ATOM     26  H   UNL     1      14.903  30.716  11.383  1.00  0.00     0.293 HD
ENDBRANCH   7  25
TORSDOF 6
ENDMDL
MODEL 7
REMARK VINA RESULT:    -4.191      4.575      6.792
REMARK INTER + INTRA:          -5.376
REMARK INTER:                  -5.162
REMARK INTRA:                  -0.214
REMARK UNBOUND:                -0.327
REMARK SMILES Oc1cc(O)c2cc(O)c(-c3ccc(O)c(O)c3)[o+]c2c1
REMARK SMILES IDX 10 1 19 2 20 3 21 4 2 5 3 6 4 7 6 8 7 9 8 10 11 11 12 12
REMARK SMILES IDX 13 13 14 14 18 15 16 16 15 17 17 19 9 21 1 23 5 25
REMARK H PARENT 15 18 17 20 9 22 1 24 5 26
REMARK Flexibility Score: inf
ROOT
ATOM      1  C   UNL     1       3.796  31.171  22.022  1.00  0.00     0.402 A 
ATOM      2  O   UNL     1       4.786  31.964  22.421  1.00  0.00    -0.202 OA
ATOM      3  C   UNL     1       5.707  31.593  23.305  1.00  0.00     0.368 A 
ATOM      4  C   UNL     1       6.709  32.499  23.664  1.00  0.00     0.162 A 
ATOM      5  C   UNL     1       7.686  32.136  24.595  1.00  0.00     0.128 A 
ATOM      6  C   UNL     1       7.663  30.863  25.168  1.00  0.00     0.093 A 
ATOM      7  C   UNL     1       6.669  29.937  24.825  1.00  0.00     0.136 A 
ATOM      8  C   UNL     1       5.675  30.299  23.880  1.00  0.00     0.125 A 
ATOM      9  C   UNL     1       4.650  29.433  23.467  1.00  0.00     0.078 A 
ATOM     10  C   UNL     1       3.709  29.860  22.526  1.00  0.00     0.223 A 
ENDROOT
BRANCH   1  11
ATOM     11  C   UNL     1       2.826  31.703  21.037  1.00  0.00     0.087 A 
ATOM     12  C   UNL     1       2.814  31.188  19.733  1.00  0.00     0.022 A 
ATOM     13  C   UNL     1       1.921  31.689  18.785  1.00  0.00     0.051 A 
ATOM     14  C   UNL     1       1.035  32.722  19.112  1.00  0.00     0.157 A 
ATOM     15  C   UNL     1       1.954  32.756  21.364  1.00  0.00     0.068 A 
ATOM     16  C   UNL     1       1.058  33.268  20.417  1.00  0.00     0.158 A 
BRANCH  14  17
ATOM     17  O   UNL     1       0.163  33.172  18.119  1.00  0.00    -0.504 OA
ATOM     18  H   UNL     1       0.361  33.947  17.502  1.00  0.00     0.293 HD
ENDBRANCH  14  17
BRANCH  16  19
ATOM     19  O   UNL     1       0.219  34.313  20.811  1.00  0.00    -0.504 OA
ATOM     20  H   UNL     1      -0.042  34.496  21.769  1.00  0.00     0.293 HD
ENDBRANCH  16  19
ENDBRANCH   1  11
BRANCH  10  21
ATOM     21  O   UNL     1       2.720  28.983  22.078  1.00  0.00    -0.500 OA
ATOM     22  H   UNL     1       1.867  28.831  22.602  1.00  0.00     0.294 HD
ENDBRANCH  10  21
BRANCH   5  23
ATOM     23  O   UNL     1       8.689  33.033  24.957  1.00  0.00    -0.507 OA
ATOM     24  H   UNL     1       9.111  33.658  24.280  1.00  0.00     0.293 HD
ENDBRANCH   5  23
BRANCH   7  25
ATOM     25  O   UNL     1       6.714  28.686  25.448  1.00  0.00    -0.507 OA
ATOM     26  H   UNL     1       6.565  27.807  24.972  1.00  0.00     0.293 HD
ENDBRANCH   7  25
TORSDOF 6
ENDMDL
MODEL 8
REMARK VINA RESULT:    -4.162      4.394      9.966
REMARK INTER + INTRA:          -5.341
REMARK INTER:                  -4.987
REMARK INTRA:                  -0.354
REMARK UNBOUND:                -0.327
REMARK SMILES Oc1cc(O)c2cc(O)c(-c3ccc(O)c(O)c3)[o+]c2c1
REMARK SMILES IDX 10 1 19 2 20 3 21 4 2 5 3 6 4 7 6 8 7 9 8 10 11 11 12 12
REMARK SMILES IDX 13 13 14 14 18 15 16 16 15 17 17 19 9 21 1 23 5 25
REMARK H PARENT 15 18 17 20 9 22 1 24 5 26
REMARK Flexibility Score: inf
ROOT
ATOM      1  C   UNL     1       6.913  33.486  23.997  1.00  0.00     0.402 A 
ATOM      2  O   UNL     1       7.643  32.442  24.376  1.00  0.00    -0.202 OA
ATOM      3  C   UNL     1       7.124  31.251  24.656  1.00  0.00     0.368 A 
ATOM      4  C   UNL     1       7.974  30.213  25.049  1.00  0.00     0.162 A 
ATOM      5  C   UNL     1       7.452  28.952  25.353  1.00  0.00     0.128 A 
ATOM      6  C   UNL     1       6.077  28.728  25.264  1.00  0.00     0.093 A 
ATOM      7  C   UNL     1       5.205  29.751  24.874  1.00  0.00     0.136 A 
ATOM      8  C   UNL     1       5.728  31.032  24.562  1.00  0.00     0.125 A 
ATOM      9  C   UNL     1       4.930  32.112  24.149  1.00  0.00     0.078 A 
ATOM     10  C   UNL     1       5.520  33.345  23.853  1.00  0.00     0.223 A 
ENDROOT
BRANCH   1  11
ATOM     11  C   UNL     1       7.608  34.765  23.722  1.00  0.00     0.087 A 
ATOM     12  C   UNL     1       8.209  34.968  22.471  1.00  0.00     0.022 A 
ATOM     13  C   UNL     1       8.886  36.157  22.198  1.00  0.00     0.051 A 
ATOM     14  C   UNL     1       8.991  37.159  23.169  1.00  0.00     0.157 A 
ATOM     15  C   UNL     1       7.731  35.759  24.708  1.00  0.00     0.068 A 
ATOM     16  C   UNL     1       8.412  36.954  24.443  1.00  0.00     0.158 A 
BRANCH  14  17
ATOM     17  O   UNL     1       9.675  38.328  22.829  1.00  0.00    -0.504 OA
ATOM     18  H   UNL     1      10.561  38.343  22.345  1.00  0.00     0.293 HD
ENDBRANCH  14  17
BRANCH  16  19
ATOM     19  O   UNL     1       8.493  37.899  25.468  1.00  0.00    -0.504 OA
ATOM     20  H   UNL     1       9.332  38.086  25.998  1.00  0.00     0.293 HD
ENDBRANCH  16  19
ENDBRANCH   1  11
BRANCH  10  21
ATOM     21  O   UNL     1       4.735  34.404  23.395  1.00  0.00    -0.500 OA
ATOM     22  H   UNL     1       4.414  35.136  24.017  1.00  0.00     0.294 HD
ENDBRANCH  10  21
BRANCH   5  23
ATOM     23  O   UNL     1       8.294  27.912  25.745  1.00  0.00    -0.507 OA
ATOM     24  H   UNL     1       8.792  27.349  25.064  1.00  0.00     0.293 HD
ENDBRANCH   5  23
BRANCH   7  25
ATOM     25  O   UNL     1       3.841  29.446  24.813  1.00  0.00    -0.507 OA
ATOM     26  H   UNL     1       3.151  30.009  24.337  1.00  0.00     0.293 HD
ENDBRANCH   7  25
TORSDOF 6
ENDMDL
MODEL 9
REMARK VINA RESULT:    -4.146      2.453      4.372
REMARK INTER + INTRA:          -5.321
REMARK INTER:                  -5.087
REMARK INTRA:                  -0.234
REMARK UNBOUND:                -0.327
REMARK SMILES Oc1cc(O)c2cc(O)c(-c3ccc(O)c(O)c3)[o+]c2c1
REMARK SMILES IDX 10 1 19 2 20 3 21 4 2 5 3 6 4 7 6 8 7 9 8 10 11 11 12 12
REMARK SMILES IDX 13 13 14 14 18 15 16 16 15 17 17 19 9 21 1 23 5 25
REMARK H PARENT 15 18 17 20 9 22 1 24 5 26
REMARK Flexibility Score: inf
ROOT
ATOM      1  C   UNL     1       4.833  28.499  23.595  1.00  0.00     0.402 A 
ATOM      2  O   UNL     1       5.241  29.563  24.280  1.00  0.00    -0.202 OA
ATOM      3  C   UNL     1       5.099  30.811  23.844  1.00  0.00     0.368 A 
ATOM      4  C   UNL     1       5.562  31.865  24.635  1.00  0.00     0.162 A 
ATOM      5  C   UNL     1       5.429  33.186  24.197  1.00  0.00     0.128 A 
ATOM      6  C   UNL     1       4.830  33.454  22.965  1.00  0.00     0.093 A 
ATOM      7  C   UNL     1       4.358  32.415  22.153  1.00  0.00     0.136 A 
ATOM      8  C   UNL     1       4.488  31.072  22.592  1.00  0.00     0.125 A 
ATOM      9  C   UNL     1       4.032  29.969  21.852  1.00  0.00     0.078 A 
ATOM     10  C   UNL     1       4.193  28.674  22.354  1.00  0.00     0.223 A 
ENDROOT
BRANCH   1  11
ATOM     11  C   UNL     1       5.056  27.158  24.184  1.00  0.00     0.087 A 
ATOM     12  C   UNL     1       6.356  26.636  24.236  1.00  0.00     0.022 A 
ATOM     13  C   UNL     1       6.586  25.368  24.770  1.00  0.00     0.051 A 
ATOM     14  C   UNL     1       5.526  24.589  25.248  1.00  0.00     0.157 A 
ATOM     15  C   UNL     1       3.985  26.371  24.642  1.00  0.00     0.068 A 
ATOM     16  C   UNL     1       4.207  25.095  25.175  1.00  0.00     0.158 A 
BRANCH  14  17
ATOM     17  O   UNL     1       5.825  23.332  25.776  1.00  0.00    -0.504 OA
ATOM     18  H   UNL     1       5.960  22.502  25.216  1.00  0.00     0.293 HD
ENDBRANCH  14  17
BRANCH  16  19
ATOM     19  O   UNL     1       3.096  24.370  25.612  1.00  0.00    -0.504 OA
ATOM     20  H   UNL     1       2.249  24.257  25.075  1.00  0.00     0.293 HD
ENDBRANCH  16  19
ENDBRANCH   1  11
BRANCH  10  21
ATOM     21  O   UNL     1       3.695  27.582  21.642  1.00  0.00    -0.500 OA
ATOM     22  H   UNL     1       3.388  27.668  20.681  1.00  0.00     0.294 HD
ENDBRANCH  10  21
BRANCH   5  23
ATOM     23  O   UNL     1       5.888  34.243  24.981  1.00  0.00    -0.507 OA
ATOM     24  H   UNL     1       5.652  34.314  25.965  1.00  0.00     0.293 HD
ENDBRANCH   5  23
BRANCH   7  25
ATOM     25  O   UNL     1       3.774  32.767  20.932  1.00  0.00    -0.507 OA
ATOM     26  H   UNL     1       2.792  32.666  20.720  1.00  0.00     0.293 HD
ENDBRANCH   7  25
TORSDOF 6
ENDMDL
