MODEL 1
REMARK VINA RESULT:    -3.171      0.000      0.000
REMARK INTER + INTRA:          -4.392
REMARK INTER:                  -3.912
REMARK INTRA:                  -0.479
REMARK UNBOUND:                -0.479
REMARK SMILES CCCCC=CC(C)=O
REMARK SMILES IDX 4 1 3 2 2 3 1 4 5 5 6 6 7 7 9 8 8 9
REMARK H PARENT
REMARK Flexibility Score: inf
ROOT
ATOM      1  C   UNL     1     -15.062   1.748 -12.598  1.00  0.00     0.027 C 
ENDROOT
BRANCH   1   2
ATOM      2  C   UNL     1     -15.421   0.541 -11.712  1.00  0.00     0.004 C 
BRANCH   2   3
ATOM      3  C   UNL     1     -14.761  -0.777 -12.151  1.00  0.00    -0.003 C 
ATOM      4  C   UNL     1     -13.520  -1.124 -11.328  1.00  0.00     0.004 C 
ENDBRANCH   2   3
ENDBRANCH   1   2
BRANCH   1   5
ATOM      5  C   UNL     1     -13.935   2.577 -12.033  1.00  0.00    -0.023 C 
ATOM      6  C   UNL     1     -12.651   2.523 -12.420  1.00  0.00     0.042 C 
BRANCH   6   7
ATOM      7  C   UNL     1     -12.110   1.725 -13.537  1.00  0.00     0.152 C 
ATOM      8  O   UNL     1     -11.326   0.775 -13.273  1.00  0.00    -0.295 OA
ATOM      9  C   UNL     1     -12.400   2.042 -14.972  1.00  0.00     0.093 C 
ENDBRANCH   6   7
ENDBRANCH   1   5
TORSDOF 4
ENDMDL
MODEL 2
REMARK VINA RESULT:    -3.144     15.804     17.553
REMARK INTER + INTRA:          -4.358
REMARK INTER:                  -4.141
REMARK INTRA:                  -0.217
REMARK UNBOUND:                -0.479
REMARK SMILES CCCCC=CC(C)=O
REMARK SMILES IDX 4 1 3 2 2 3 1 4 5 5 6 6 7 7 9 8 8 9
REMARK H PARENT
REMARK Flexibility Score: inf
ROOT
ATOM      1  C   UNL     1     -12.487  14.088 -22.385  1.00  0.00     0.027 C 
ENDROOT
BRANCH   1   2
ATOM      2  C   UNL     1     -11.928  12.655 -22.456  1.00  0.00     0.004 C 
BRANCH   2   3
ATOM      3  C   UNL     1     -11.548  12.198 -23.875  1.00  0.00    -0.003 C 
ATOM      4  C   UNL     1     -11.791  10.707 -24.106  1.00  0.00     0.004 C 
ENDBRANCH   2   3
ENDBRANCH   1   2
BRANCH   1   5
ATOM      5  C   UNL     1     -11.517  15.122 -22.900  1.00  0.00    -0.023 C 
ATOM      6  C   UNL     1     -11.841  16.229 -23.586  1.00  0.00     0.042 C 
BRANCH   6   7
ATOM      7  C   UNL     1     -13.208  16.704 -23.879  1.00  0.00     0.152 C 
ATOM      8  O   UNL     1     -13.636  16.611 -25.061  1.00  0.00    -0.295 OA
ATOM      9  C   UNL     1     -14.077  17.352 -22.847  1.00  0.00     0.093 C 
ENDBRANCH   6   7
ENDBRANCH   1   5
TORSDOF 4
ENDMDL
MODEL 3
REMARK VINA RESULT:    -3.129     15.393     17.295
REMARK INTER + INTRA:          -4.340
REMARK INTER:                  -4.119
REMARK INTRA:                  -0.222
REMARK UNBOUND:                -0.479
REMARK SMILES CCCCC=CC(C)=O
REMARK SMILES IDX 4 1 3 2 2 3 1 4 5 5 6 6 7 7 9 8 8 9
REMARK H PARENT
REMARK Flexibility Score: inf
ROOT
ATOM      1  C   UNL     1     -11.903  14.822 -23.307  1.00  0.00     0.027 C 
ENDROOT
BRANCH   1   2
ATOM      2  C   UNL     1     -12.261  16.160 -22.634  1.00  0.00     0.004 C 
BRANCH   2   3
ATOM      3  C   UNL     1     -13.445  16.894 -23.287  1.00  0.00    -0.003 C 
ATOM      4  C   UNL     1     -13.472  16.746 -24.808  1.00  0.00     0.004 C 
ENDBRANCH   2   3
ENDBRANCH   1   2
BRANCH   1   5
ATOM      5  C   UNL     1     -12.118  13.634 -22.404  1.00  0.00    -0.023 C 
ATOM      6  C   UNL     1     -11.870  12.353 -22.718  1.00  0.00     0.042 C 
BRANCH   6   7
ATOM      7  C   UNL     1     -11.245  11.868 -23.964  1.00  0.00     0.152 C 
ATOM      8  O   UNL     1     -11.983  11.359 -24.850  1.00  0.00    -0.295 OA
ATOM      9  C   UNL     1      -9.764  11.892 -24.188  1.00  0.00     0.093 C 
ENDBRANCH   6   7
ENDBRANCH   1   5
TORSDOF 4
ENDMDL
MODEL 4
REMARK VINA RESULT:    -3.052      1.058      1.606
REMARK INTER + INTRA:          -4.246
REMARK INTER:                  -3.658
REMARK INTRA:                  -0.588
REMARK UNBOUND:                -0.479
REMARK SMILES CCCCC=CC(C)=O
REMARK SMILES IDX 4 1 3 2 2 3 1 4 5 5 6 6 7 7 9 8 8 9
REMARK H PARENT
REMARK Flexibility Score: inf
ROOT
ATOM      1  C   UNL     1     -13.420   2.051 -11.858  1.00  0.00     0.027 C 
ENDROOT
BRANCH   1   2
ATOM      2  C   UNL     1     -14.919   1.920 -12.184  1.00  0.00     0.004 C 
BRANCH   2   3
ATOM      3  C   UNL     1     -15.519   0.546 -11.837  1.00  0.00    -0.003 C 
ATOM      4  C   UNL     1     -14.455  -0.510 -11.538  1.00  0.00     0.004 C 
ENDBRANCH   2   3
ENDBRANCH   1   2
BRANCH   1   5
ATOM      5  C   UNL     1     -12.627   2.674 -12.979  1.00  0.00    -0.023 C 
ATOM      6  C   UNL     1     -12.064   2.015 -14.003  1.00  0.00     0.042 C 
BRANCH   6   7
ATOM      7  C   UNL     1     -12.197   0.573 -14.289  1.00  0.00     0.152 C 
ATOM      8  O   UNL     1     -11.334  -0.216 -13.820  1.00  0.00    -0.295 OA
ATOM      9  C   UNL     1     -13.274   0.019 -15.171  1.00  0.00     0.093 C 
ENDBRANCH   6   7
ENDBRANCH   1   5
TORSDOF 4
ENDMDL
MODEL 5
REMARK VINA RESULT:    -3.041      1.337      3.554
REMARK INTER + INTRA:          -4.232
REMARK INTER:                  -3.718
REMARK INTRA:                  -0.513
REMARK UNBOUND:                -0.479
REMARK SMILES CCCCC=CC(C)=O
REMARK SMILES IDX 4 1 3 2 2 3 1 4 5 5 6 6 7 7 9 8 8 9
REMARK H PARENT
REMARK Flexibility Score: inf
ROOT
ATOM      1  C   UNL     1     -14.278   1.687 -12.097  1.00  0.00     0.027 C 
ENDROOT
BRANCH   1   2
ATOM      2  C   UNL     1     -13.974   1.812 -13.601  1.00  0.00     0.004 C 
BRANCH   2   3
ATOM      3  C   UNL     1     -12.669   2.565 -13.917  1.00  0.00    -0.003 C 
ATOM      4  C   UNL     1     -11.662   2.517 -12.769  1.00  0.00     0.004 C 
ENDBRANCH   2   3
ENDBRANCH   1   2
BRANCH   1   5
ATOM      5  C   UNL     1     -14.849   0.343 -11.723  1.00  0.00    -0.023 C 
ATOM      6  C   UNL     1     -14.141  -0.766 -11.458  1.00  0.00     0.042 C 
BRANCH   6   7
ATOM      7  C   UNL     1     -12.670  -0.860 -11.377  1.00  0.00     0.152 C 
ATOM      8  O   UNL     1     -12.026  -1.124 -12.428  1.00  0.00    -0.295 OA
ATOM      9  C   UNL     1     -11.920  -0.725 -10.088  1.00  0.00     0.093 C 
ENDBRANCH   6   7
ENDBRANCH   1   5
TORSDOF 4
ENDMDL
MODEL 6
REMARK VINA RESULT:    -3.040     13.941     14.856
REMARK INTER + INTRA:          -4.230
REMARK INTER:                  -3.873
REMARK INTRA:                  -0.357
REMARK UNBOUND:                -0.479
REMARK SMILES CCCCC=CC(C)=O
REMARK SMILES IDX 4 1 3 2 2 3 1 4 5 5 6 6 7 7 9 8 8 9
REMARK H PARENT
REMARK Flexibility Score: inf
ROOT
ATOM      1  C   UNL     1      -1.531   8.242 -11.297  1.00  0.00     0.027 C 
ENDROOT
BRANCH   1   2
ATOM      2  C   UNL     1      -1.495   7.142 -12.374  1.00  0.00     0.004 C 
BRANCH   2   3
ATOM      3  C   UNL     1      -0.793   7.563 -13.677  1.00  0.00    -0.003 C 
ATOM      4  C   UNL     1      -0.247   6.375 -14.469  1.00  0.00     0.004 C 
ENDBRANCH   2   3
ENDBRANCH   1   2
BRANCH   1   5
ATOM      5  C   UNL     1      -2.692   9.190 -11.463  1.00  0.00    -0.023 C 
ATOM      6  C   UNL     1      -2.603  10.512 -11.673  1.00  0.00     0.042 C 
BRANCH   6   7
ATOM      7  C   UNL     1      -1.360  11.278 -11.887  1.00  0.00     0.152 C 
ATOM      8  O   UNL     1      -0.951  12.033 -10.964  1.00  0.00    -0.295 OA
ATOM      9  C   UNL     1      -0.604  11.248 -13.180  1.00  0.00     0.093 C 
ENDBRANCH   6   7
ENDBRANCH   1   5
TORSDOF 4
ENDMDL
MODEL 7
REMARK VINA RESULT:    -3.033     13.211     15.265
REMARK INTER + INTRA:          -4.222
REMARK INTER:                  -3.852
REMARK INTRA:                  -0.370
REMARK UNBOUND:                -0.479
REMARK SMILES CCCCC=CC(C)=O
REMARK SMILES IDX 4 1 3 2 2 3 1 4 5 5 6 6 7 7 9 8 8 9
REMARK H PARENT
REMARK Flexibility Score: inf
ROOT
ATOM      1  C   UNL     1     -11.756  11.231 -24.513  1.00  0.00     0.027 C 
ENDROOT
BRANCH   1   2
ATOM      2  C   UNL     1     -11.903   9.823 -23.908  1.00  0.00     0.004 C 
BRANCH   2   3
ATOM      3  C   UNL     1     -12.629   9.797 -22.551  1.00  0.00    -0.003 C 
ATOM      4  C   UNL     1     -13.110   8.399 -22.161  1.00  0.00     0.004 C 
ENDBRANCH   2   3
ENDBRANCH   1   2
BRANCH   1   5
ATOM      5  C   UNL     1     -10.550  11.972 -23.993  1.00  0.00    -0.023 C 
ATOM      6  C   UNL     1     -10.574  13.097 -23.261  1.00  0.00     0.042 C 
BRANCH   6   7
ATOM      7  C   UNL     1     -11.780  13.768 -22.736  1.00  0.00     0.152 C 
ATOM      8  O   UNL     1     -12.182  14.816 -23.309  1.00  0.00    -0.295 OA
ATOM      9  C   UNL     1     -12.501  13.294 -21.513  1.00  0.00     0.093 C 
ENDBRANCH   6   7
ENDBRANCH   1   5
TORSDOF 4
ENDMDL
MODEL 8
REMARK VINA RESULT:    -3.018     13.618     15.052
REMARK INTER + INTRA:          -4.203
REMARK INTER:                  -3.703
REMARK INTRA:                  -0.499
REMARK UNBOUND:                -0.479
REMARK SMILES CCCCC=CC(C)=O
REMARK SMILES IDX 4 1 3 2 2 3 1 4 5 5 6 6 7 7 9 8 8 9
REMARK H PARENT
REMARK Flexibility Score: inf
ROOT
ATOM      1  C   UNL     1     -12.785  16.107 -15.362  1.00  0.00     0.027 C 
ENDROOT
BRANCH   1   2
ATOM      2  C   UNL     1     -12.823  17.307 -14.398  1.00  0.00     0.004 C 
BRANCH   2   3
ATOM      3  C   UNL     1     -12.947  16.916 -12.915  1.00  0.00    -0.003 C 
ATOM      4  C   UNL     1     -14.172  17.530 -12.239  1.00  0.00     0.004 C 
ENDBRANCH   2   3
ENDBRANCH   1   2
BRANCH   1   5
ATOM      5  C   UNL     1     -14.116  15.836 -16.017  1.00  0.00    -0.023 C 
ATOM      6  C   UNL     1     -15.041  14.965 -15.585  1.00  0.00     0.042 C 
BRANCH   6   7
ATOM      7  C   UNL     1     -14.984  14.182 -14.335  1.00  0.00     0.152 C 
ATOM      8  O   UNL     1     -15.636  14.593 -13.338  1.00  0.00    -0.295 OA
ATOM      9  C   UNL     1     -14.130  12.962 -14.184  1.00  0.00     0.093 C 
ENDBRANCH   6   7
ENDBRANCH   1   5
TORSDOF 4
ENDMDL
MODEL 9
REMARK VINA RESULT:    -3.007     11.682     13.400
REMARK INTER + INTRA:          -4.190
REMARK INTER:                  -3.856
REMARK INTRA:                  -0.334
REMARK UNBOUND:                -0.479
REMARK SMILES CCCCC=CC(C)=O
REMARK SMILES IDX 4 1 3 2 2 3 1 4 5 5 6 6 7 7 9 8 8 9
REMARK H PARENT
REMARK Flexibility Score: inf
ROOT
ATOM      1  C   UNL     1      -9.709  13.000  -8.232  1.00  0.00     0.027 C 
ENDROOT
BRANCH   1   2
ATOM      2  C   UNL     1      -8.514  13.904  -7.875  1.00  0.00     0.004 C 
BRANCH   2   3
ATOM      3  C   UNL     1      -8.118  14.889  -8.988  1.00  0.00    -0.003 C 
ATOM      4  C   UNL     1      -7.083  15.916  -8.533  1.00  0.00     0.004 C 
ENDBRANCH   2   3
ENDBRANCH   1   2
BRANCH   1   5
ATOM      5  C   UNL     1      -9.971  12.932  -9.715  1.00  0.00    -0.023 C 
ATOM      6  C   UNL     1      -9.496  11.999 -10.555  1.00  0.00     0.042 C 
BRANCH   6   7
ATOM      7  C   UNL     1      -8.715  10.805 -10.178  1.00  0.00     0.152 C 
ATOM      8  O   UNL     1      -9.305   9.693 -10.120  1.00  0.00    -0.295 OA
ATOM      9  C   UNL     1      -7.269  10.872  -9.793  1.00  0.00     0.093 C 
ENDBRANCH   6   7
ENDBRANCH   1   5
TORSDOF 4
ENDMDL
