MODEL 1
REMARK VINA RESULT:    -4.175      0.000      0.000
REMARK INTER + INTRA:          -6.187
REMARK INTER:                  -5.640
REMARK INTRA:                  -0.547
REMARK UNBOUND:                -0.547
REMARK SMILES CCCCCCC=CC(=O)[O-]
REMARK SMILES IDX 5 1 6 2 7 3 8 4 9 5 10 6 11 7 4 8 3 9 2 10 1 11
REMARK H PARENT
REMARK Flexibility Score: inf
ROOT
ATOM      1  C   UNL     1       6.977   5.945  18.902  1.00  0.00     0.004 C 
ENDROOT
BRANCH   1   2
ATOM      2  C   UNL     1       5.947   5.202  19.766  1.00  0.00     0.027 C 
BRANCH   2   3
ATOM      3  C   UNL     1       5.849   3.744  19.392  1.00  0.00    -0.025 C 
ATOM      4  C   UNL     1       5.678   2.702  20.224  1.00  0.00     0.020 C 
BRANCH   4   5
ATOM      5  C   UNL     1       5.593   2.732  21.700  1.00  0.00     0.064 C 
ATOM      6  O   UNL     1       4.496   2.768  22.311  1.00  0.00    -0.545 OA
ATOM      7  O   UNL     1       6.771   2.730  22.435  1.00  0.00    -0.545 OA
ENDBRANCH   4   5
ENDBRANCH   2   3
ENDBRANCH   1   2
BRANCH   1   8
ATOM      8  C   UNL     1       6.383   7.177  18.203  1.00  0.00     0.000 C 
BRANCH   8   9
ATOM      9  C   UNL     1       6.407   7.064  16.670  1.00  0.00    -0.000 C 
BRANCH   9  10
ATOM     10  C   UNL     1       6.581   5.618  16.160  1.00  0.00    -0.003 C 
ATOM     11  C   UNL     1       5.252   4.984  15.749  1.00  0.00     0.004 C 
ENDBRANCH   9  10
ENDBRANCH   8   9
ENDBRANCH   1   8
TORSDOF 6
ENDMDL
MODEL 2
REMARK VINA RESULT:    -4.122      1.433      1.692
REMARK INTER + INTRA:          -6.115
REMARK INTER:                  -5.779
REMARK INTRA:                  -0.336
REMARK UNBOUND:                -0.547
REMARK SMILES CCCCCCC=CC(=O)[O-]
REMARK SMILES IDX 5 1 6 2 7 3 8 4 9 5 10 6 11 7 4 8 3 9 2 10 1 11
REMARK H PARENT
REMARK Flexibility Score: inf
ROOT
ATOM      1  C   UNL     1       6.277   6.894  19.760  1.00  0.00     0.004 C 
ENDROOT
BRANCH   1   2
ATOM      2  C   UNL     1       6.220   6.092  21.068  1.00  0.00     0.027 C 
BRANCH   2   3
ATOM      3  C   UNL     1       4.813   5.661  21.401  1.00  0.00    -0.025 C 
ATOM      4  C   UNL     1       4.344   4.404  21.472  1.00  0.00     0.020 C 
BRANCH   4   5
ATOM      5  C   UNL     1       5.080   3.151  21.197  1.00  0.00     0.064 C 
ATOM      6  O   UNL     1       5.355   2.320  22.099  1.00  0.00    -0.545 OA
ATOM      7  O   UNL     1       5.488   2.890  19.896  1.00  0.00    -0.545 OA
ENDBRANCH   4   5
ENDBRANCH   2   3
ENDBRANCH   1   2
BRANCH   1   8
ATOM      8  C   UNL     1       6.534   6.006  18.533  1.00  0.00     0.000 C 
BRANCH   8   9
ATOM      9  C   UNL     1       6.481   6.788  17.210  1.00  0.00    -0.000 C 
BRANCH   9  10
ATOM     10  C   UNL     1       6.530   5.887  15.957  1.00  0.00    -0.003 C 
ATOM     11  C   UNL     1       5.292   5.001  15.830  1.00  0.00     0.004 C 
ENDBRANCH   9  10
ENDBRANCH   8   9
ENDBRANCH   1   8
TORSDOF 6
ENDMDL
MODEL 3
REMARK VINA RESULT:    -3.949      2.851      4.419
REMARK INTER + INTRA:          -5.881
REMARK INTER:                  -5.144
REMARK INTRA:                  -0.737
REMARK UNBOUND:                -0.547
REMARK SMILES CCCCCCC=CC(=O)[O-]
REMARK SMILES IDX 5 1 6 2 7 3 8 4 9 5 10 6 11 7 4 8 3 9 2 10 1 11
REMARK H PARENT
REMARK Flexibility Score: inf
ROOT
ATOM      1  C   UNL     1       7.542   5.102  15.147  1.00  0.00     0.004 C 
ENDROOT
BRANCH   1   2
ATOM      2  C   UNL     1       6.241   5.294  15.939  1.00  0.00     0.027 C 
BRANCH   2   3
ATOM      3  C   UNL     1       6.178   6.652  16.593  1.00  0.00    -0.025 C 
ATOM      4  C   UNL     1       6.445   6.947  17.877  1.00  0.00     0.020 C 
BRANCH   4   5
ATOM      5  C   UNL     1       6.819   6.011  18.958  1.00  0.00     0.064 C 
ATOM      6  O   UNL     1       8.015   5.729  19.221  1.00  0.00    -0.545 OA
ATOM      7  O   UNL     1       5.809   5.416  19.703  1.00  0.00    -0.545 OA
ENDBRANCH   4   5
ENDBRANCH   2   3
ENDBRANCH   1   2
BRANCH   1   8
ATOM      8  C   UNL     1       8.681   4.536  16.010  1.00  0.00     0.000 C 
BRANCH   8   9
ATOM      9  C   UNL     1       9.885   5.486  16.106  1.00  0.00    -0.000 C 
BRANCH   9  10
ATOM     10  C   UNL     1       9.689   6.813  15.343  1.00  0.00    -0.003 C 
ATOM     11  C   UNL     1      10.564   6.899  14.093  1.00  0.00     0.004 C 
ENDBRANCH   9  10
ENDBRANCH   8   9
ENDBRANCH   1   8
TORSDOF 6
ENDMDL
MODEL 4
REMARK VINA RESULT:    -3.946      5.456      7.546
REMARK INTER + INTRA:          -5.877
REMARK INTER:                  -5.510
REMARK INTRA:                  -0.367
REMARK UNBOUND:                -0.547
REMARK SMILES CCCCCCC=CC(=O)[O-]
REMARK SMILES IDX 5 1 6 2 7 3 8 4 9 5 10 6 11 7 4 8 3 9 2 10 1 11
REMARK H PARENT
REMARK Flexibility Score: inf
ROOT
ATOM      1  C   UNL     1       7.632   4.054  14.200  1.00  0.00     0.004 C 
ENDROOT
BRANCH   1   2
ATOM      2  C   UNL     1       8.927   3.985  13.378  1.00  0.00     0.027 C 
BRANCH   2   3
ATOM      3  C   UNL     1       8.977   5.059  12.320  1.00  0.00    -0.025 C 
ATOM      4  C   UNL     1       9.823   6.102  12.263  1.00  0.00     0.020 C 
BRANCH   4   5
ATOM      5  C   UNL     1      10.869   6.470  13.241  1.00  0.00     0.064 C 
ATOM      6  O   UNL     1      12.069   6.121  13.107  1.00  0.00    -0.545 OA
ATOM      7  O   UNL     1      10.508   7.219  14.353  1.00  0.00    -0.545 OA
ENDBRANCH   4   5
ENDBRANCH   2   3
ENDBRANCH   1   2
BRANCH   1   8
ATOM      8  C   UNL     1       7.663   5.169  15.257  1.00  0.00     0.000 C 
BRANCH   8   9
ATOM      9  C   UNL     1       6.291   5.413  15.906  1.00  0.00    -0.000 C 
BRANCH   9  10
ATOM     10  C   UNL     1       6.353   6.293  17.173  1.00  0.00    -0.003 C 
ATOM     11  C   UNL     1       6.325   7.786  16.845  1.00  0.00     0.004 C 
ENDBRANCH   9  10
ENDBRANCH   8   9
ENDBRANCH   1   8
TORSDOF 6
ENDMDL
MODEL 5
REMARK VINA RESULT:    -3.937      5.754      7.630
REMARK INTER + INTRA:          -5.864
REMARK INTER:                  -5.496
REMARK INTRA:                  -0.368
REMARK UNBOUND:                -0.547
REMARK SMILES CCCCCCC=CC(=O)[O-]
REMARK SMILES IDX 5 1 6 2 7 3 8 4 9 5 10 6 11 7 4 8 3 9 2 10 1 11
REMARK H PARENT
REMARK Flexibility Score: inf
ROOT
ATOM      1  C   UNL     1       8.707   6.381  15.869  1.00  0.00     0.004 C 
ENDROOT
BRANCH   1   2
ATOM      2  C   UNL     1      10.037   5.948  15.234  1.00  0.00     0.027 C 
BRANCH   2   3
ATOM      3  C   UNL     1      10.551   6.976  14.256  1.00  0.00    -0.025 C 
ATOM      4  C   UNL     1      10.585   6.875  12.916  1.00  0.00     0.020 C 
BRANCH   4   5
ATOM      5  C   UNL     1      10.171   5.722  12.088  1.00  0.00     0.064 C 
ATOM      6  O   UNL     1      10.988   4.859  11.678  1.00  0.00    -0.545 OA
ATOM      7  O   UNL     1       8.832   5.595  11.744  1.00  0.00    -0.545 OA
ENDBRANCH   4   5
ENDBRANCH   2   3
ENDBRANCH   1   2
BRANCH   1   8
ATOM      8  C   UNL     1       7.557   5.413  15.550  1.00  0.00     0.000 C 
BRANCH   8   9
ATOM      9  C   UNL     1       6.217   5.859  16.156  1.00  0.00    -0.000 C 
BRANCH   9  10
ATOM     10  C   UNL     1       6.365   6.897  17.288  1.00  0.00    -0.003 C 
ATOM     11  C   UNL     1       6.402   6.248  18.671  1.00  0.00     0.004 C 
ENDBRANCH   9  10
ENDBRANCH   8   9
ENDBRANCH   1   8
TORSDOF 6
ENDMDL
MODEL 6
REMARK VINA RESULT:    -3.869      1.946      2.563
REMARK INTER + INTRA:          -5.773
REMARK INTER:                  -5.167
REMARK INTRA:                  -0.605
REMARK UNBOUND:                -0.547
REMARK SMILES CCCCCCC=CC(=O)[O-]
REMARK SMILES IDX 5 1 6 2 7 3 8 4 9 5 10 6 11 7 4 8 3 9 2 10 1 11
REMARK H PARENT
REMARK Flexibility Score: inf
ROOT
ATOM      1  C   UNL     1       7.659   5.342  18.835  1.00  0.00     0.004 C 
ENDROOT
BRANCH   1   2
ATOM      2  C   UNL     1       7.542   5.902  20.261  1.00  0.00     0.027 C 
BRANCH   2   3
ATOM      3  C   UNL     1       6.364   6.833  20.402  1.00  0.00    -0.025 C 
ATOM      4  C   UNL     1       5.245   6.623  21.117  1.00  0.00     0.020 C 
BRANCH   4   5
ATOM      5  C   UNL     1       4.884   5.417  21.893  1.00  0.00     0.064 C 
ATOM      6  O   UNL     1       4.142   4.515  21.430  1.00  0.00    -0.545 OA
ATOM      7  O   UNL     1       5.376   5.284  23.184  1.00  0.00    -0.545 OA
ENDBRANCH   4   5
ENDBRANCH   2   3
ENDBRANCH   1   2
BRANCH   1   8
ATOM      8  C   UNL     1       6.307   4.878  18.271  1.00  0.00     0.000 C 
BRANCH   8   9
ATOM      9  C   UNL     1       6.050   5.388  16.843  1.00  0.00    -0.000 C 
BRANCH   9  10
ATOM     10  C   UNL     1       6.937   6.587  16.446  1.00  0.00    -0.003 C 
ATOM     11  C   UNL     1       6.291   7.927  16.795  1.00  0.00     0.004 C 
ENDBRANCH   9  10
ENDBRANCH   8   9
ENDBRANCH   1   8
TORSDOF 6
ENDMDL
MODEL 7
REMARK VINA RESULT:    -3.855      3.430      4.562
REMARK INTER + INTRA:          -5.754
REMARK INTER:                  -5.294
REMARK INTRA:                  -0.460
REMARK UNBOUND:                -0.547
REMARK SMILES CCCCCCC=CC(=O)[O-]
REMARK SMILES IDX 5 1 6 2 7 3 8 4 9 5 10 6 11 7 4 8 3 9 2 10 1 11
REMARK H PARENT
REMARK Flexibility Score: inf
ROOT
ATOM      1  C   UNL     1       8.965   5.425  15.813  1.00  0.00     0.004 C 
ENDROOT
BRANCH   1   2
ATOM      2  C   UNL     1       7.463   5.296  15.520  1.00  0.00     0.027 C 
BRANCH   2   3
ATOM      3  C   UNL     1       6.659   6.348  16.244  1.00  0.00    -0.025 C 
ATOM      4  C   UNL     1       6.331   6.365  17.548  1.00  0.00     0.020 C 
BRANCH   4   5
ATOM      5  C   UNL     1       6.638   5.339  18.568  1.00  0.00     0.064 C 
ATOM      6  O   UNL     1       5.972   4.280  18.679  1.00  0.00    -0.545 OA
ATOM      7  O   UNL     1       7.696   5.562  19.439  1.00  0.00    -0.545 OA
ENDBRANCH   4   5
ENDBRANCH   2   3
ENDBRANCH   1   2
BRANCH   1   8
ATOM      8  C   UNL     1       9.555   6.748  15.302  1.00  0.00     0.000 C 
BRANCH   8   9
ATOM      9  C   UNL     1      10.753   6.542  14.361  1.00  0.00    -0.000 C 
BRANCH   9  10
ATOM     10  C   UNL     1      10.449   6.889  12.888  1.00  0.00    -0.003 C 
ATOM     11  C   UNL     1       9.665   5.785  12.181  1.00  0.00     0.004 C 
ENDBRANCH   9  10
ENDBRANCH   8   9
ENDBRANCH   1   8
TORSDOF 6
ENDMDL
MODEL 8
REMARK VINA RESULT:    -3.850      5.112      6.847
REMARK INTER + INTRA:          -5.748
REMARK INTER:                  -5.266
REMARK INTRA:                  -0.481
REMARK UNBOUND:                -0.547
REMARK SMILES CCCCCCC=CC(=O)[O-]
REMARK SMILES IDX 5 1 6 2 7 3 8 4 9 5 10 6 11 7 4 8 3 9 2 10 1 11
REMARK H PARENT
REMARK Flexibility Score: inf
ROOT
ATOM      1  C   UNL     1       6.868   5.250  15.906  1.00  0.00     0.004 C 
ENDROOT
BRANCH   1   2
ATOM      2  C   UNL     1       8.150   5.444  15.083  1.00  0.00     0.027 C 
BRANCH   2   3
ATOM      3  C   UNL     1       9.057   6.483  15.694  1.00  0.00    -0.025 C 
ATOM      4  C   UNL     1      10.175   7.001  15.157  1.00  0.00     0.020 C 
BRANCH   4   5
ATOM      5  C   UNL     1      10.805   6.644  13.868  1.00  0.00     0.064 C 
ATOM      6  O   UNL     1      10.377   7.074  12.768  1.00  0.00    -0.545 OA
ATOM      7  O   UNL     1      11.904   5.796  13.876  1.00  0.00    -0.545 OA
ENDBRANCH   4   5
ENDBRANCH   2   3
ENDBRANCH   1   2
BRANCH   1   8
ATOM      8  C   UNL     1       6.441   6.529  16.643  1.00  0.00     0.000 C 
BRANCH   8   9
ATOM      9  C   UNL     1       6.370   6.343  18.168  1.00  0.00    -0.000 C 
BRANCH   9  10
ATOM     10  C   UNL     1       6.987   5.016  18.659  1.00  0.00    -0.003 C 
ATOM     11  C   UNL     1       5.956   4.109  19.330  1.00  0.00     0.004 C 
ENDBRANCH   9  10
ENDBRANCH   8   9
ENDBRANCH   1   8
TORSDOF 6
ENDMDL
MODEL 9
REMARK VINA RESULT:    -3.797      1.445      2.021
REMARK INTER + INTRA:          -5.675
REMARK INTER:                  -5.135
REMARK INTRA:                  -0.540
REMARK UNBOUND:                -0.547
REMARK SMILES CCCCCCC=CC(=O)[O-]
REMARK SMILES IDX 5 1 6 2 7 3 8 4 9 5 10 6 11 7 4 8 3 9 2 10 1 11
REMARK H PARENT
REMARK Flexibility Score: inf
ROOT
ATOM      1  C   UNL     1       6.431   6.569  17.584  1.00  0.00     0.004 C 
ENDROOT
BRANCH   1   2
ATOM      2  C   UNL     1       6.360   5.884  18.956  1.00  0.00     0.027 C 
BRANCH   2   3
ATOM      3  C   UNL     1       6.131   4.398  18.829  1.00  0.00    -0.025 C 
ATOM      4  C   UNL     1       5.633   3.571  19.764  1.00  0.00     0.020 C 
BRANCH   4   5
ATOM      5  C   UNL     1       5.234   3.909  21.147  1.00  0.00     0.064 C 
ATOM      6  O   UNL     1       4.169   4.521  21.410  1.00  0.00    -0.545 OA
ATOM      7  O   UNL     1       6.075   3.545  22.190  1.00  0.00    -0.545 OA
ENDBRANCH   4   5
ENDBRANCH   2   3
ENDBRANCH   1   2
BRANCH   1   8
ATOM      8  C   UNL     1       5.961   5.655  16.442  1.00  0.00     0.000 C 
BRANCH   8   9
ATOM      9  C   UNL     1       7.093   5.283  15.471  1.00  0.00    -0.000 C 
BRANCH   9  10
ATOM     10  C   UNL     1       8.448   5.931  15.823  1.00  0.00    -0.003 C 
ATOM     11  C   UNL     1       9.446   4.921  16.388  1.00  0.00     0.004 C 
ENDBRANCH   9  10
ENDBRANCH   8   9
ENDBRANCH   1   8
TORSDOF 6
ENDMDL
