MODEL 1
REMARK VINA RESULT:    -3.995      0.000      0.000
REMARK INTER + INTRA:          -4.884
REMARK INTER:                  -4.579
REMARK INTRA:                  -0.305
REMARK UNBOUND:                -0.305
REMARK SMILES COC(=O)c1ccccc1O
REMARK SMILES IDX 5 1 6 2 7 3 8 4 9 5 10 6 3 7 4 8 2 9 1 10 11 11
REMARK H PARENT 11 12
REMARK Flexibility Score: inf
ROOT
ATOM      1  C   UNL     1       8.459 -10.830 -40.087  1.00  0.00     0.101 A 
ATOM      2  C   UNL     1       9.628 -11.595 -39.920  1.00  0.00     0.019 A 
ATOM      3  C   UNL     1       9.605 -12.780 -39.182  1.00  0.00     0.001 A 
ATOM      4  C   UNL     1       8.416 -13.220 -38.601  1.00  0.00     0.004 A 
ATOM      5  C   UNL     1       7.243 -12.485 -38.773  1.00  0.00     0.047 A 
ATOM      6  C   UNL     1       7.243 -11.305 -39.529  1.00  0.00     0.130 A 
ENDROOT
BRANCH   1   7
ATOM      7  C   UNL     1       8.560  -9.545 -40.813  1.00  0.00     0.341 C 
ATOM      8  O   UNL     1       9.330  -8.636 -40.399  1.00  0.00    -0.246 OA
BRANCH   7   9
ATOM      9  O   UNL     1       7.838  -9.368 -41.998  1.00  0.00    -0.465 OA
ATOM     10  C   UNL     1       7.848 -10.323 -43.052  1.00  0.00     0.282 C 
ENDBRANCH   7   9
ENDBRANCH   1   7
BRANCH   6  11
ATOM     11  O   UNL     1       6.020 -10.660 -39.727  1.00  0.00    -0.507 OA
ATOM     12  H   UNL     1       5.504 -10.200 -38.990  1.00  0.00     0.293 HD
ENDBRANCH   6  11
TORSDOF 3
ENDMDL
MODEL 2
REMARK VINA RESULT:    -3.942      8.225      9.451
REMARK INTER + INTRA:          -4.824
REMARK INTER:                  -4.514
REMARK INTRA:                  -0.309
REMARK UNBOUND:                -0.305
REMARK SMILES COC(=O)c1ccccc1O
REMARK SMILES IDX 5 1 6 2 7 3 8 4 9 5 10 6 3 7 4 8 2 9 1 10 11 11
REMARK H PARENT 11 12
REMARK Flexibility Score: inf
ROOT
ATOM      1  C   UNL     1      -0.507  -9.864 -42.422  1.00  0.00     0.101 A 
ATOM      2  C   UNL     1      -1.454  -8.858 -42.688  1.00  0.00     0.019 A 
ATOM      3  C   UNL     1      -2.818  -9.153 -42.722  1.00  0.00     0.001 A 
ATOM      4  C   UNL     1      -3.257 -10.456 -42.493  1.00  0.00     0.004 A 
ATOM      5  C   UNL     1      -2.335 -11.463 -42.207  1.00  0.00     0.047 A 
ATOM      6  C   UNL     1      -0.964 -11.180 -42.147  1.00  0.00     0.130 A 
ENDROOT
BRANCH   1   7
ATOM      7  C   UNL     1       0.928  -9.509 -42.474  1.00  0.00     0.341 C 
ATOM      8  O   UNL     1       1.360  -8.722 -43.359  1.00  0.00    -0.246 OA
BRANCH   7   9
ATOM      9  O   UNL     1       1.794 -10.006 -41.494  1.00  0.00    -0.465 OA
ATOM     10  C   UNL     1       2.991 -10.708 -41.813  1.00  0.00     0.282 C 
ENDBRANCH   7   9
ENDBRANCH   1   7
BRANCH   6  11
ATOM     11  O   UNL     1      -0.103 -12.216 -41.780  1.00  0.00    -0.507 OA
ATOM     12  H   UNL     1      -0.364 -13.192 -41.794  1.00  0.00     0.293 HD
ENDBRANCH   6  11
TORSDOF 3
ENDMDL
MODEL 3
REMARK VINA RESULT:    -3.937     16.593     17.623
REMARK INTER + INTRA:          -4.818
REMARK INTER:                  -4.510
REMARK INTRA:                  -0.308
REMARK UNBOUND:                -0.305
REMARK SMILES COC(=O)c1ccccc1O
REMARK SMILES IDX 5 1 6 2 7 3 8 4 9 5 10 6 3 7 4 8 2 9 1 10 11 11
REMARK H PARENT 11 12
REMARK Flexibility Score: inf
ROOT
ATOM      1  C   UNL     1       0.586 -25.120 -46.365  1.00  0.00     0.101 A 
ATOM      2  C   UNL     1      -0.742 -24.674 -46.234  1.00  0.00     0.019 A 
ATOM      3  C   UNL     1      -1.799 -25.415 -46.766  1.00  0.00     0.001 A 
ATOM      4  C   UNL     1      -1.546 -26.612 -47.436  1.00  0.00     0.004 A 
ATOM      5  C   UNL     1      -0.238 -27.080 -47.558  1.00  0.00     0.047 A 
ATOM      6  C   UNL     1       0.833 -26.360 -47.011  1.00  0.00     0.130 A 
ENDROOT
BRANCH   1   7
ATOM      7  C   UNL     1       1.670 -24.255 -45.849  1.00  0.00     0.341 C 
ATOM      8  O   UNL     1       2.735 -24.105 -46.507  1.00  0.00    -0.246 OA
BRANCH   7   9
ATOM      9  O   UNL     1       1.479 -23.555 -44.653  1.00  0.00    -0.465 OA
ATOM     10  C   UNL     1       1.818 -24.100 -43.383  1.00  0.00     0.282 C 
ENDBRANCH   7   9
ENDBRANCH   1   7
BRANCH   6  11
ATOM     11  O   UNL     1       2.107 -26.922 -47.100  1.00  0.00    -0.507 OA
ATOM     12  H   UNL     1       2.702 -26.835 -47.912  1.00  0.00     0.293 HD
ENDBRANCH   6  11
TORSDOF 3
ENDMDL
MODEL 4
REMARK VINA RESULT:    -3.911     16.704     17.726
REMARK INTER + INTRA:          -4.788
REMARK INTER:                  -4.492
REMARK INTRA:                  -0.295
REMARK UNBOUND:                -0.305
REMARK SMILES COC(=O)c1ccccc1O
REMARK SMILES IDX 5 1 6 2 7 3 8 4 9 5 10 6 3 7 4 8 2 9 1 10 11 11
REMARK H PARENT 11 12
REMARK Flexibility Score: inf
ROOT
ATOM      1  C   UNL     1      -0.029 -25.094 -46.284  1.00  0.00     0.101 A 
ATOM      2  C   UNL     1      -1.428 -24.978 -46.197  1.00  0.00     0.019 A 
ATOM      3  C   UNL     1      -2.261 -25.894 -46.842  1.00  0.00     0.001 A 
ATOM      4  C   UNL     1      -1.711 -26.938 -47.584  1.00  0.00     0.004 A 
ATOM      5  C   UNL     1      -0.325 -27.081 -47.665  1.00  0.00     0.047 A 
ATOM      6  C   UNL     1       0.526 -26.184 -47.006  1.00  0.00     0.130 A 
ENDROOT
BRANCH   1   7
ATOM      7  C   UNL     1       0.803 -24.051 -45.645  1.00  0.00     0.341 C 
ATOM      8  O   UNL     1       1.925 -23.741 -46.130  1.00  0.00    -0.246 OA
BRANCH   7   9
ATOM      9  O   UNL     1       0.307 -23.366 -44.530  1.00  0.00    -0.465 OA
ATOM     10  C   UNL     1       0.052 -21.966 -44.541  1.00  0.00     0.282 C 
ENDBRANCH   7   9
ENDBRANCH   1   7
BRANCH   6  11
ATOM     11  O   UNL     1       1.899 -26.429 -47.063  1.00  0.00    -0.507 OA
ATOM     12  H   UNL     1       2.545 -25.870 -47.604  1.00  0.00     0.293 HD
ENDBRANCH   6  11
TORSDOF 3
ENDMDL
MODEL 5
REMARK VINA RESULT:    -3.875      8.315      9.678
REMARK INTER + INTRA:          -4.747
REMARK INTER:                  -4.453
REMARK INTRA:                  -0.293
REMARK UNBOUND:                -0.305
REMARK SMILES COC(=O)c1ccccc1O
REMARK SMILES IDX 5 1 6 2 7 3 8 4 9 5 10 6 3 7 4 8 2 9 1 10 11 11
REMARK H PARENT 11 12
REMARK Flexibility Score: inf
ROOT
ATOM      1  C   UNL     1      -0.771  -9.474 -41.701  1.00  0.00     0.101 A 
ATOM      2  C   UNL     1      -1.774  -9.262 -42.665  1.00  0.00     0.019 A 
ATOM      3  C   UNL     1      -2.952  -8.590 -42.332  1.00  0.00     0.001 A 
ATOM      4  C   UNL     1      -3.147  -8.121 -41.034  1.00  0.00     0.004 A 
ATOM      5  C   UNL     1      -2.155  -8.303 -40.070  1.00  0.00     0.047 A 
ATOM      6  C   UNL     1      -0.957  -8.956 -40.392  1.00  0.00     0.130 A 
ENDROOT
BRANCH   1   7
ATOM      7  C   UNL     1       0.422 -10.258 -42.090  1.00  0.00     0.341 C 
ATOM      8  O   UNL     1       0.310 -11.255 -42.854  1.00  0.00    -0.246 OA
BRANCH   7   9
ATOM      9  O   UNL     1       1.685  -9.848 -41.652  1.00  0.00    -0.465 OA
ATOM     10  C   UNL     1       2.856 -10.634 -41.844  1.00  0.00     0.282 C 
ENDBRANCH   7   9
ENDBRANCH   1   7
BRANCH   6  11
ATOM     11  O   UNL     1       0.025  -9.036 -39.403  1.00  0.00    -0.507 OA
ATOM     12  H   UNL     1       0.624  -9.840 -39.274  1.00  0.00     0.293 HD
ENDBRANCH   6  11
TORSDOF 3
ENDMDL
MODEL 6
REMARK VINA RESULT:    -3.873      6.389      7.546
REMARK INTER + INTRA:          -4.745
REMARK INTER:                  -4.478
REMARK INTRA:                  -0.267
REMARK UNBOUND:                -0.305
REMARK SMILES COC(=O)c1ccccc1O
REMARK SMILES IDX 5 1 6 2 7 3 8 4 9 5 10 6 3 7 4 8 2 9 1 10 11 11
REMARK H PARENT 11 12
REMARK Flexibility Score: inf
ROOT
ATOM      1  C   UNL     1       1.527 -10.824 -41.699  1.00  0.00     0.101 A 
ATOM      2  C   UNL     1       0.854  -9.609 -41.920  1.00  0.00     0.019 A 
ATOM      3  C   UNL     1      -0.448  -9.420 -41.454  1.00  0.00     0.001 A 
ATOM      4  C   UNL     1      -1.098 -10.440 -40.760  1.00  0.00     0.004 A 
ATOM      5  C   UNL     1      -0.438 -11.645 -40.513  1.00  0.00     0.047 A 
ATOM      6  C   UNL     1       0.877 -11.843 -40.955  1.00  0.00     0.130 A 
ENDROOT
BRANCH   1   7
ATOM      7  C   UNL     1       2.876 -10.995 -42.282  1.00  0.00     0.341 C 
ATOM      8  O   UNL     1       3.894 -11.034 -41.539  1.00  0.00    -0.246 OA
BRANCH   7   9
ATOM      9  O   UNL     1       3.009 -11.175 -43.663  1.00  0.00    -0.465 OA
ATOM     10  C   UNL     1       2.359 -12.228 -44.366  1.00  0.00     0.282 C 
ENDBRANCH   7   9
ENDBRANCH   1   7
BRANCH   6  11
ATOM     11  O   UNL     1       1.505 -13.040 -40.607  1.00  0.00    -0.507 OA
ATOM     12  H   UNL     1       2.147 -13.532 -41.214  1.00  0.00     0.293 HD
ENDBRANCH   6  11
TORSDOF 3
ENDMDL
MODEL 7
REMARK VINA RESULT:    -3.849      7.256      8.564
REMARK INTER + INTRA:          -4.716
REMARK INTER:                  -4.439
REMARK INTRA:                  -0.277
REMARK UNBOUND:                -0.305
REMARK SMILES COC(=O)c1ccccc1O
REMARK SMILES IDX 5 1 6 2 7 3 8 4 9 5 10 6 3 7 4 8 2 9 1 10 11 11
REMARK H PARENT 11 12
REMARK Flexibility Score: inf
ROOT
ATOM      1  C   UNL     1       0.421 -10.566 -41.077  1.00  0.00     0.101 A 
ATOM      2  C   UNL     1       0.601  -9.498 -41.976  1.00  0.00     0.019 A 
ATOM      3  C   UNL     1       1.477  -9.615 -43.056  1.00  0.00     0.001 A 
ATOM      4  C   UNL     1       2.186 -10.799 -43.256  1.00  0.00     0.004 A 
ATOM      5  C   UNL     1       2.005 -11.875 -42.388  1.00  0.00     0.047 A 
ATOM      6  C   UNL     1       1.114 -11.783 -41.311  1.00  0.00     0.130 A 
ENDROOT
BRANCH   1   7
ATOM      7  C   UNL     1      -0.461 -10.358 -39.908  1.00  0.00     0.341 C 
ATOM      8  O   UNL     1      -1.298 -11.240 -39.573  1.00  0.00    -0.246 OA
BRANCH   7   9
ATOM      9  O   UNL     1      -0.318  -9.199 -39.138  1.00  0.00    -0.465 OA
ATOM     10  C   UNL     1      -0.664  -9.147 -37.758  1.00  0.00     0.282 C 
ENDBRANCH   7   9
ENDBRANCH   1   7
BRANCH   6  11
ATOM     11  O   UNL     1       0.921 -12.922 -40.527  1.00  0.00    -0.507 OA
ATOM     12  H   UNL     1       1.202 -12.988 -39.558  1.00  0.00     0.293 HD
ENDBRANCH   6  11
TORSDOF 3
ENDMDL
MODEL 8
REMARK VINA RESULT:    -3.834      8.464      9.759
REMARK INTER + INTRA:          -4.699
REMARK INTER:                  -4.345
REMARK INTRA:                  -0.355
REMARK UNBOUND:                -0.305
REMARK SMILES COC(=O)c1ccccc1O
REMARK SMILES IDX 5 1 6 2 7 3 8 4 9 5 10 6 3 7 4 8 2 9 1 10 11 11
REMARK H PARENT 11 12
REMARK Flexibility Score: inf
ROOT
ATOM      1  C   UNL     1      -1.073  -8.599 -39.024  1.00  0.00     0.101 A 
ATOM      2  C   UNL     1      -1.006  -7.260 -38.597  1.00  0.00     0.019 A 
ATOM      3  C   UNL     1      -0.728  -6.949 -37.265  1.00  0.00     0.001 A 
ATOM      4  C   UNL     1      -0.512  -7.969 -36.339  1.00  0.00     0.004 A 
ATOM      5  C   UNL     1      -0.554  -9.302 -36.748  1.00  0.00     0.047 A 
ATOM      6  C   UNL     1      -0.811  -9.632 -38.086  1.00  0.00     0.130 A 
ENDROOT
BRANCH   1   7
ATOM      7  C   UNL     1      -1.448  -8.869 -40.429  1.00  0.00     0.341 C 
ATOM      8  O   UNL     1      -2.353  -8.194 -40.991  1.00  0.00    -0.246 OA
BRANCH   7   9
ATOM      9  O   UNL     1      -0.747  -9.841 -41.152  1.00  0.00    -0.465 OA
ATOM     10  C   UNL     1       0.602  -9.662 -41.569  1.00  0.00     0.282 C 
ENDBRANCH   7   9
ENDBRANCH   1   7
BRANCH   6  11
ATOM     11  O   UNL     1      -0.761 -10.980 -38.444  1.00  0.00    -0.507 OA
ATOM     12  H   UNL     1      -1.113 -11.339 -39.321  1.00  0.00     0.293 HD
ENDBRANCH   6  11
TORSDOF 3
ENDMDL
MODEL 9
REMARK VINA RESULT:    -3.767     16.804     17.886
REMARK INTER + INTRA:          -4.623
REMARK INTER:                  -4.346
REMARK INTRA:                  -0.276
REMARK UNBOUND:                -0.305
REMARK SMILES COC(=O)c1ccccc1O
REMARK SMILES IDX 5 1 6 2 7 3 8 4 9 5 10 6 3 7 4 8 2 9 1 10 11 11
REMARK H PARENT 11 12
REMARK Flexibility Score: inf
ROOT
ATOM      1  C   UNL     1      -0.074 -25.082 -46.404  1.00  0.00     0.101 A 
ATOM      2  C   UNL     1      -0.927 -24.183 -45.739  1.00  0.00     0.019 A 
ATOM      3  C   UNL     1      -0.412 -23.229 -44.860  1.00  0.00     0.001 A 
ATOM      4  C   UNL     1       0.962 -23.158 -44.631  1.00  0.00     0.004 A 
ATOM      5  C   UNL     1       1.825 -24.027 -45.298  1.00  0.00     0.047 A 
ATOM      6  C   UNL     1       1.327 -24.977 -46.200  1.00  0.00     0.130 A 
ENDROOT
BRANCH   1   7
ATOM      7  C   UNL     1      -0.682 -26.121 -47.264  1.00  0.00     0.341 C 
ATOM      8  O   UNL     1      -0.010 -27.125 -47.627  1.00  0.00    -0.246 OA
BRANCH   7   9
ATOM      9  O   UNL     1      -2.030 -26.014 -47.621  1.00  0.00    -0.465 OA
ATOM     10  C   UNL     1      -3.006 -26.974 -47.233  1.00  0.00     0.282 C 
ENDBRANCH   7   9
ENDBRANCH   1   7
BRANCH   6  11
ATOM     11  O   UNL     1       2.251 -25.763 -46.892  1.00  0.00    -0.507 OA
ATOM     12  H   UNL     1       2.831 -26.464 -46.450  1.00  0.00     0.293 HD
ENDBRANCH   6  11
TORSDOF 3
ENDMDL
