MODEL 1
REMARK VINA RESULT:    -3.757      0.000      0.000
REMARK INTER + INTRA:          -6.051
REMARK INTER:                  -5.734
REMARK INTRA:                  -0.317
REMARK UNBOUND:                -0.317
REMARK SMILES CC1=CCC[C@H](C)C(=O)C[C@@H](C(C)C)C(=O)C1
REMARK SMILES IDX 8 1 9 2 6 3 7 4 5 5 4 6 3 7 2 8 1 9 10 11 11 12 15 13 16 14
REMARK SMILES IDX 17 15 12 17 13 18 14 19
REMARK H PARENT
REMARK Flexibility Score: 70.00
ROOT
ATOM      1  C   UNL     1      11.960  22.211  56.048  1.00  0.00     0.136 C 
ATOM      2  O   UNL     1      11.010  22.204  56.818  1.00  0.00    -0.299 OA
ENDROOT
BRANCH   1   3
ATOM      3  C   UNL     1      11.784  22.751  54.644  1.00  0.00     0.053 C 
ATOM      4  C   UNL     1      10.541  22.133  53.994  1.00  0.00     0.016 C 
BRANCH   3   5
ATOM      5  C   UNL     1      11.698  24.297  54.613  1.00  0.00     0.015 C 
BRANCH   5   6
ATOM      6  C   UNL     1      12.941  25.024  55.162  1.00  0.00     0.028 C 
BRANCH   6   7
ATOM      7  C   UNL     1      14.178  24.727  54.346  1.00  0.00    -0.028 C 
ATOM      8  C   UNL     1      15.375  24.349  54.852  1.00  0.00    -0.070 CG0
ATOM      9  C   UNL     1      16.491  24.068  53.876  1.00  0.00     0.039 C 
ATOM     10  G   UNL     1      15.668  24.290  56.342  1.00  0.00     0.000 G0
ENDBRANCH   6   7
ENDBRANCH   5   6
ENDBRANCH   3   5
ENDBRANCH   1   3
BRANCH   1  11
ATOM     11  C   UNL     1      13.283  21.622  56.487  1.00  0.00     0.087 C 
BRANCH  11  12
ATOM     12  C   UNL     1      14.042  22.491  57.523  1.00  0.00     0.066 C 
BRANCH  12  13
ATOM     13  C   UNL     1      15.405  22.931  56.999  1.00  0.00     0.140 C 
ATOM     14  O   UNL     1      16.330  22.134  57.065  1.00  0.00    -0.299 OA
BRANCH  13  15
ATOM     15  C   UNL     1      15.670  24.275  56.347  1.00  0.00     0.106 CG0
ATOM     16  G   UNL     1      15.372  24.325  54.858  1.00  0.00     0.000 G0
ENDBRANCH  13  15
ENDBRANCH  12  13
BRANCH  12  17
ATOM     17  C   UNL     1      14.149  21.815  58.927  1.00  0.00    -0.006 C 
ATOM     18  C   UNL     1      13.086  22.372  59.892  1.00  0.00     0.008 C 
ATOM     19  C   UNL     1      13.996  20.285  58.854  1.00  0.00     0.008 C 
ENDBRANCH  12  17
ENDBRANCH  11  12
ENDBRANCH   1  11
TORSDOF 1
ENDMDL
MODEL 2
REMARK VINA RESULT:    -3.729      2.530      4.820
REMARK INTER + INTRA:          -6.007
REMARK INTER:                  -5.653
REMARK INTRA:                  -0.355
REMARK UNBOUND:                -0.317
REMARK SMILES CC1=CCC[C@H](C)C(=O)C[C@@H](C(C)C)C(=O)C1
REMARK SMILES IDX 8 1 9 2 6 3 7 4 5 5 4 6 3 7 2 8 1 9 10 11 11 12 15 13 16 14
REMARK SMILES IDX 17 15 12 17 13 18 14 19
REMARK H PARENT
REMARK Flexibility Score: 70.00
ROOT
ATOM      1  C   UNL     1      12.613  22.113  57.797  1.00  0.00     0.136 C 
ATOM      2  O   UNL     1      11.431  22.034  58.099  1.00  0.00    -0.299 OA
ENDROOT
BRANCH   1   3
ATOM      3  C   UNL     1      13.674  21.832  58.841  1.00  0.00     0.053 C 
ATOM      4  C   UNL     1      13.451  22.720  60.071  1.00  0.00     0.016 C 
BRANCH   3   5
ATOM      5  C   UNL     1      13.718  20.340  59.253  1.00  0.00     0.015 C 
BRANCH   5   6
ATOM      6  C   UNL     1      14.123  19.371  58.126  1.00  0.00     0.028 C 
BRANCH   6   7
ATOM      7  C   UNL     1      15.415  19.784  57.460  1.00  0.00    -0.028 C 
ATOM      8  C   UNL     1      15.580  19.984  56.131  1.00  0.00    -0.070 CG0
ATOM      9  C   UNL     1      16.942  20.422  55.653  1.00  0.00     0.039 C 
ATOM     10  G   UNL     1      14.497  19.695  55.105  1.00  0.00     0.000 G0
ENDBRANCH   6   7
ENDBRANCH   5   6
ENDBRANCH   3   5
ENDBRANCH   1   3
BRANCH   1  11
ATOM     11  C   UNL     1      13.002  22.550  56.401  1.00  0.00     0.087 C 
BRANCH  11  12
ATOM     12  C   UNL     1      12.560  21.562  55.291  1.00  0.00     0.066 C 
BRANCH  12  13
ATOM     13  C   UNL     1      13.759  20.936  54.584  1.00  0.00     0.140 C 
ATOM     14  O   UNL     1      14.181  21.483  53.575  1.00  0.00    -0.299 OA
BRANCH  13  15
ATOM     15  C   UNL     1      14.497  19.711  55.091  1.00  0.00     0.106 CG0
ATOM     16  G   UNL     1      15.566  20.001  56.131  1.00  0.00     0.000 G0
ENDBRANCH  13  15
ENDBRANCH  12  13
BRANCH  12  17
ATOM     17  C   UNL     1      11.552  22.192  54.278  1.00  0.00    -0.006 C 
ATOM     18  C   UNL     1      10.133  21.633  54.489  1.00  0.00     0.008 C 
ATOM     19  C   UNL     1      11.499  23.727  54.381  1.00  0.00     0.008 C 
ENDBRANCH  12  17
ENDBRANCH  11  12
ENDBRANCH   1  11
TORSDOF 1
ENDMDL
MODEL 3
REMARK VINA RESULT:    -3.543      2.059      2.874
REMARK INTER + INTRA:          -5.724
REMARK INTER:                  -5.505
REMARK INTRA:                  -0.220
REMARK UNBOUND:                -0.317
REMARK SMILES CC1=CCC[C@H](C)C(=O)C[C@@H](C(C)C)C(=O)C1
REMARK SMILES IDX 8 1 9 2 6 3 7 4 5 5 4 6 3 7 2 8 1 9 10 11 11 12 15 13 16 14
REMARK SMILES IDX 17 15 12 17 13 18 14 19
REMARK H PARENT
REMARK Flexibility Score: 70.00
ROOT
ATOM      1  C   UNL     1      11.893  22.002  58.835  1.00  0.00     0.136 C 
ATOM      2  O   UNL     1      11.613  22.749  59.762  1.00  0.00    -0.299 OA
ENDROOT
BRANCH   1   3
ATOM      3  C   UNL     1      10.987  21.939  57.623  1.00  0.00     0.053 C 
ATOM      4  C   UNL     1       9.519  22.015  58.058  1.00  0.00     0.016 C 
BRANCH   3   5
ATOM      5  C   UNL     1      11.302  23.050  56.591  1.00  0.00     0.015 C 
BRANCH   5   6
ATOM      6  C   UNL     1      11.636  22.541  55.176  1.00  0.00     0.028 C 
BRANCH   6   7
ATOM      7  C   UNL     1      13.057  22.865  54.777  1.00  0.00    -0.028 C 
ATOM      8  C   UNL     1      14.118  22.038  54.923  1.00  0.00    -0.070 CG0
ATOM      9  C   UNL     1      15.461  22.528  54.440  1.00  0.00     0.039 C 
ATOM     10  G   UNL     1      14.036  20.696  55.632  1.00  0.00     0.000 G0
ENDBRANCH   6   7
ENDBRANCH   5   6
ENDBRANCH   3   5
ENDBRANCH   1   3
BRANCH   1  11
ATOM     11  C   UNL     1      13.106  21.103  58.937  1.00  0.00     0.087 C 
BRANCH  11  12
ATOM     12  C   UNL     1      14.334  21.617  58.140  1.00  0.00     0.066 C 
BRANCH  12  13
ATOM     13  C   UNL     1      14.703  20.670  57.002  1.00  0.00     0.140 C 
ATOM     14  O   UNL     1      15.544  19.810  57.220  1.00  0.00    -0.299 OA
BRANCH  13  15
ATOM     15  C   UNL     1      14.047  20.693  55.634  1.00  0.00     0.106 CG0
ATOM     16  G   UNL     1      14.120  22.031  54.918  1.00  0.00     0.000 G0
ENDBRANCH  13  15
ENDBRANCH  12  13
BRANCH  12  17
ATOM     17  C   UNL     1      15.561  21.939  59.050  1.00  0.00    -0.006 C 
ATOM     18  C   UNL     1      16.493  22.965  58.378  1.00  0.00     0.008 C 
ATOM     19  C   UNL     1      15.144  22.480  60.429  1.00  0.00     0.008 C 
ENDBRANCH  12  17
ENDBRANCH  11  12
ENDBRANCH   1  11
TORSDOF 1
ENDMDL
MODEL 4
REMARK VINA RESULT:    -3.524      2.674      4.805
REMARK INTER + INTRA:          -5.696
REMARK INTER:                  -5.736
REMARK INTRA:                   0.040
REMARK UNBOUND:                -0.317
REMARK SMILES CC1=CCC[C@H](C)C(=O)C[C@@H](C(C)C)C(=O)C1
REMARK SMILES IDX 8 1 9 2 6 3 7 4 5 5 4 6 3 7 2 8 1 9 10 11 11 12 15 13 16 14
REMARK SMILES IDX 17 15 12 17 13 18 14 19
REMARK H PARENT
REMARK Flexibility Score: 70.00
ROOT
ATOM      1  C   UNL     1      14.777  20.529  58.333  1.00  0.00     0.136 C 
ATOM      2  O   UNL     1      15.897  21.005  58.215  1.00  0.00    -0.299 OA
ENDROOT
BRANCH   1   3
ATOM      3  C   UNL     1      13.840  21.068  59.394  1.00  0.00     0.053 C 
ATOM      4  C   UNL     1      14.497  22.241  60.129  1.00  0.00     0.016 C 
BRANCH   3   5
ATOM      5  C   UNL     1      12.470  21.493  58.811  1.00  0.00     0.015 C 
BRANCH   5   6
ATOM      6  C   UNL     1      12.518  22.716  57.876  1.00  0.00     0.028 C 
BRANCH   6   7
ATOM      7  C   UNL     1      11.641  22.533  56.659  1.00  0.00    -0.028 C 
ATOM      8  C   UNL     1      12.046  22.021  55.473  1.00  0.00    -0.070 CG0
ATOM      9  C   UNL     1      11.016  21.890  54.379  1.00  0.00     0.039 C 
ATOM     10  G   UNL     1      13.492  21.668  55.170  1.00  0.00     0.000 G0
ENDBRANCH   6   7
ENDBRANCH   5   6
ENDBRANCH   3   5
ENDBRANCH   1   3
BRANCH   1  11
ATOM     11  C   UNL     1      14.363  19.365  57.458  1.00  0.00     0.087 C 
BRANCH  11  12
ATOM     12  C   UNL     1      14.836  19.490  55.986  1.00  0.00     0.066 C 
BRANCH  12  13
ATOM     13  C   UNL     1      13.786  20.169  55.112  1.00  0.00     0.140 C 
ATOM     14  O   UNL     1      13.114  19.466  54.371  1.00  0.00    -0.299 OA
BRANCH  13  15
ATOM     15  C   UNL     1      13.482  21.655  55.151  1.00  0.00     0.106 CG0
ATOM     16  G   UNL     1      12.040  21.999  55.483  1.00  0.00     0.000 G0
ENDBRANCH  13  15
ENDBRANCH  12  13
BRANCH  12  17
ATOM     17  C   UNL     1      15.309  18.132  55.378  1.00  0.00    -0.006 C 
ATOM     18  C   UNL     1      16.458  18.343  54.376  1.00  0.00     0.008 C 
ATOM     19  C   UNL     1      15.771  17.136  56.457  1.00  0.00     0.008 C 
ENDBRANCH  12  17
ENDBRANCH  11  12
ENDBRANCH   1  11
TORSDOF 1
ENDMDL
MODEL 5
REMARK VINA RESULT:    -3.507      3.182      5.747
REMARK INTER + INTRA:          -5.668
REMARK INTER:                  -5.470
REMARK INTRA:                  -0.198
REMARK UNBOUND:                -0.317
REMARK SMILES CC1=CCC[C@H](C)C(=O)C[C@@H](C(C)C)C(=O)C1
REMARK SMILES IDX 8 1 9 2 6 3 7 4 5 5 4 6 3 7 2 8 1 9 10 11 11 12 15 13 16 14
REMARK SMILES IDX 17 15 12 17 13 18 14 19
REMARK H PARENT
REMARK Flexibility Score: 70.00
ROOT
ATOM      1  C   UNL     1      16.480  22.349  58.474  1.00  0.00     0.136 C 
ATOM      2  O   UNL     1      16.391  23.432  57.913  1.00  0.00    -0.299 OA
ENDROOT
BRANCH   1   3
ATOM      3  C   UNL     1      16.652  22.294  59.978  1.00  0.00     0.053 C 
ATOM      4  C   UNL     1      17.885  23.103  60.396  1.00  0.00     0.016 C 
BRANCH   3   5
ATOM      5  C   UNL     1      15.396  22.793  60.735  1.00  0.00     0.015 C 
BRANCH   5   6
ATOM      6  C   UNL     1      14.266  21.754  60.865  1.00  0.00     0.028 C 
BRANCH   6   7
ATOM      7  C   UNL     1      13.112  22.054  59.936  1.00  0.00    -0.028 C 
ATOM      8  C   UNL     1      12.806  21.354  58.818  1.00  0.00    -0.070 CG0
ATOM      9  C   UNL     1      11.595  21.788  58.030  1.00  0.00     0.039 C 
ATOM     10  G   UNL     1      13.673  20.229  58.278  1.00  0.00     0.000 G0
ENDBRANCH   6   7
ENDBRANCH   5   6
ENDBRANCH   3   5
ENDBRANCH   1   3
BRANCH   1  11
ATOM     11  C   UNL     1      16.479  21.078  57.652  1.00  0.00     0.087 C 
BRANCH  11  12
ATOM     12  C   UNL     1      15.462  21.092  56.481  1.00  0.00     0.066 C 
BRANCH  12  13
ATOM     13  C   UNL     1      14.162  20.386  56.856  1.00  0.00     0.140 C 
ATOM     14  O   UNL     1      13.497  19.891  55.957  1.00  0.00    -0.299 OA
BRANCH  13  15
ATOM     15  C   UNL     1      13.674  20.209  58.282  1.00  0.00     0.106 CG0
ATOM     16  G   UNL     1      12.820  21.352  58.805  1.00  0.00     0.000 G0
ENDBRANCH  13  15
ENDBRANCH  12  13
BRANCH  12  17
ATOM     17  C   UNL     1      16.058  20.541  55.147  1.00  0.00    -0.006 C 
ATOM     18  C   UNL     1      16.505  21.690  54.225  1.00  0.00     0.008 C 
ATOM     19  C   UNL     1      17.255  19.603  55.383  1.00  0.00     0.008 C 
ENDBRANCH  12  17
ENDBRANCH  11  12
ENDBRANCH   1  11
TORSDOF 1
ENDMDL
MODEL 6
REMARK VINA RESULT:    -3.425      1.944      4.270
REMARK INTER + INTRA:          -5.544
REMARK INTER:                  -5.173
REMARK INTRA:                  -0.371
REMARK UNBOUND:                -0.317
REMARK SMILES CC1=CCC[C@H](C)C(=O)C[C@@H](C(C)C)C(=O)C1
REMARK SMILES IDX 8 1 9 2 6 3 7 4 5 5 4 6 3 7 2 8 1 9 10 11 11 12 15 13 16 14
REMARK SMILES IDX 17 15 12 17 13 18 14 19
REMARK H PARENT
REMARK Flexibility Score: 70.00
ROOT
ATOM      1  C   UNL     1      12.550  25.323  54.375  1.00  0.00     0.136 C 
ATOM      2  O   UNL     1      12.442  26.257  53.593  1.00  0.00    -0.299 OA
ENDROOT
BRANCH   1   3
ATOM      3  C   UNL     1      11.579  24.163  54.297  1.00  0.00     0.053 C 
ATOM      4  C   UNL     1      11.957  23.238  53.135  1.00  0.00     0.016 C 
BRANCH   3   5
ATOM      5  C   UNL     1      11.505  23.364  55.621  1.00  0.00     0.015 C 
BRANCH   5   6
ATOM      6  C   UNL     1      12.134  21.960  55.565  1.00  0.00     0.028 C 
BRANCH   6   7
ATOM      7  C   UNL     1      12.845  21.605  56.850  1.00  0.00    -0.028 C 
ATOM      8  C   UNL     1      14.167  21.775  57.086  1.00  0.00    -0.070 CG0
ATOM      9  C   UNL     1      14.692  21.386  58.445  1.00  0.00     0.039 C 
ATOM     10  G   UNL     1      15.148  22.243  56.024  1.00  0.00     0.000 G0
ENDBRANCH   6   7
ENDBRANCH   5   6
ENDBRANCH   3   5
ENDBRANCH   1   3
BRANCH   1  11
ATOM     11  C   UNL     1      13.614  25.367  55.451  1.00  0.00     0.087 C 
BRANCH  11  12
ATOM     12  C   UNL     1      14.966  24.741  55.019  1.00  0.00     0.066 C 
BRANCH  12  13
ATOM     13  C   UNL     1      15.480  23.743  56.052  1.00  0.00     0.140 C 
ATOM     14  O   UNL     1      16.139  24.172  56.988  1.00  0.00    -0.299 OA
BRANCH  13  15
ATOM     15  C   UNL     1      15.172  22.257  56.021  1.00  0.00     0.106 CG0
ATOM     16  G   UNL     1      14.179  21.794  57.074  1.00  0.00     0.000 G0
ENDBRANCH  13  15
ENDBRANCH  12  13
BRANCH  12  17
ATOM     17  C   UNL     1      16.045  25.810  54.657  1.00  0.00    -0.006 C 
ATOM     18  C   UNL     1      16.172  25.973  53.131  1.00  0.00     0.008 C 
ATOM     19  C   UNL     1      15.741  27.185  55.277  1.00  0.00     0.008 C 
ENDBRANCH  12  17
ENDBRANCH  11  12
ENDBRANCH   1  11
TORSDOF 1
ENDMDL
MODEL 7
REMARK VINA RESULT:    -3.333      2.859      4.381
REMARK INTER + INTRA:          -5.403
REMARK INTER:                  -5.676
REMARK INTRA:                   0.272
REMARK UNBOUND:                -0.317
REMARK SMILES CC1=CCC[C@H](C)C(=O)C[C@@H](C(C)C)C(=O)C1
REMARK SMILES IDX 8 1 9 2 6 3 7 4 5 5 4 6 3 7 2 8 1 9 10 11 11 12 15 13 16 14
REMARK SMILES IDX 17 15 12 17 13 18 14 19
REMARK H PARENT
REMARK Flexibility Score: 70.00
ROOT
ATOM      1  C   UNL     1      14.221  20.177  58.794  1.00  0.00     0.136 C 
ATOM      2  O   UNL     1      13.906  19.761  59.900  1.00  0.00    -0.299 OA
ENDROOT
BRANCH   1   3
ATOM      3  C   UNL     1      14.306  21.670  58.550  1.00  0.00     0.053 C 
ATOM      4  C   UNL     1      12.926  22.312  58.728  1.00  0.00     0.016 C 
BRANCH   3   5
ATOM      5  C   UNL     1      15.346  22.360  59.466  1.00  0.00     0.015 C 
BRANCH   5   6
ATOM      6  C   UNL     1      16.669  22.737  58.772  1.00  0.00     0.028 C 
BRANCH   6   7
ATOM      7  C   UNL     1      16.440  23.338  57.405  1.00  0.00    -0.028 C 
ATOM      8  C   UNL     1      16.612  22.691  56.228  1.00  0.00    -0.070 CG0
ATOM      9  C   UNL     1      16.306  23.450  54.960  1.00  0.00     0.039 C 
ATOM     10  G   UNL     1      17.184  21.288  56.126  1.00  0.00     0.000 G0
ENDBRANCH   6   7
ENDBRANCH   5   6
ENDBRANCH   3   5
ENDBRANCH   1   3
BRANCH   1  11
ATOM     11  C   UNL     1      14.462  19.197  57.666  1.00  0.00     0.087 C 
BRANCH  11  12
ATOM     12  C   UNL     1      15.931  19.163  57.170  1.00  0.00     0.066 C 
BRANCH  12  13
ATOM     13  C   UNL     1      16.170  20.167  56.047  1.00  0.00     0.140 C 
ATOM     14  O   UNL     1      15.460  20.098  55.054  1.00  0.00    -0.299 OA
BRANCH  13  15
ATOM     15  C   UNL     1      17.195  21.283  56.112  1.00  0.00     0.106 CG0
ATOM     16  G   UNL     1      16.605  22.679  56.222  1.00  0.00     0.000 G0
ENDBRANCH  13  15
ENDBRANCH  12  13
BRANCH  12  17
ATOM     17  C   UNL     1      16.411  17.729  56.780  1.00  0.00    -0.006 C 
ATOM     18  C   UNL     1      15.524  17.131  55.672  1.00  0.00     0.008 C 
ATOM     19  C   UNL     1      17.875  17.709  56.305  1.00  0.00     0.008 C 
ENDBRANCH  12  17
ENDBRANCH  11  12
ENDBRANCH   1  11
TORSDOF 1
ENDMDL
MODEL 8
REMARK VINA RESULT:    -3.324      1.838      3.979
REMARK INTER + INTRA:          -5.390
REMARK INTER:                  -5.165
REMARK INTRA:                  -0.226
REMARK UNBOUND:                -0.317
REMARK SMILES CC1=CCC[C@H](C)C(=O)C[C@@H](C(C)C)C(=O)C1
REMARK SMILES IDX 8 1 9 2 6 3 7 4 5 5 4 6 3 7 2 8 1 9 10 11 11 12 15 13 16 14
REMARK SMILES IDX 17 15 12 17 13 18 14 19
REMARK H PARENT
REMARK Flexibility Score: 70.00
ROOT
ATOM      1  C   UNL     1      15.488  23.312  56.975  1.00  0.00     0.136 C 
ATOM      2  O   UNL     1      16.527  23.527  57.584  1.00  0.00    -0.299 OA
ENDROOT
BRANCH   1   3
ATOM      3  C   UNL     1      15.326  23.834  55.562  1.00  0.00     0.053 C 
ATOM      4  C   UNL     1      15.744  25.307  55.493  1.00  0.00     0.016 C 
BRANCH   3   5
ATOM      5  C   UNL     1      16.119  22.997  54.529  1.00  0.00     0.015 C 
BRANCH   5   6
ATOM      6  C   UNL     1      15.255  22.093  53.630  1.00  0.00     0.028 C 
BRANCH   6   7
ATOM      7  C   UNL     1      13.939  22.742  53.270  1.00  0.00    -0.028 C 
ATOM      8  C   UNL     1      12.730  22.383  53.764  1.00  0.00    -0.070 CG0
ATOM      9  C   UNL     1      11.526  23.169  53.307  1.00  0.00     0.039 C 
ATOM     10  G   UNL     1      12.524  21.180  54.669  1.00  0.00     0.000 G0
ENDBRANCH   6   7
ENDBRANCH   5   6
ENDBRANCH   3   5
ENDBRANCH   1   3
BRANCH   1  11
ATOM     11  C   UNL     1      14.354  22.582  57.662  1.00  0.00     0.087 C 
BRANCH  11  12
ATOM     12  C   UNL     1      13.928  21.274  56.947  1.00  0.00     0.066 C 
BRANCH  12  13
ATOM     13  C   UNL     1      12.634  21.458  56.159  1.00  0.00     0.140 C 
ATOM     14  O   UNL     1      11.661  21.902  56.749  1.00  0.00    -0.299 OA
BRANCH  13  15
ATOM     15  C   UNL     1      12.500  21.178  54.674  1.00  0.00     0.106 CG0
ATOM     16  G   UNL     1      12.723  22.386  53.780  1.00  0.00     0.000 G0
ENDBRANCH  13  15
ENDBRANCH  12  13
BRANCH  12  17
ATOM     17  C   UNL     1      13.852  20.047  57.911  1.00  0.00    -0.006 C 
ATOM     18  C   UNL     1      14.948  19.017  57.582  1.00  0.00     0.008 C 
ATOM     19  C   UNL     1      13.985  20.454  59.389  1.00  0.00     0.008 C 
ENDBRANCH  12  17
ENDBRANCH  11  12
ENDBRANCH   1  11
TORSDOF 1
ENDMDL
MODEL 9
REMARK VINA RESULT:    -3.296      2.289      4.070
REMARK INTER + INTRA:          -5.347
REMARK INTER:                  -5.268
REMARK INTRA:                  -0.079
REMARK UNBOUND:                -0.317
REMARK SMILES CC1=CCC[C@H](C)C(=O)C[C@@H](C(C)C)C(=O)C1
REMARK SMILES IDX 8 1 9 2 6 3 7 4 5 5 4 6 3 7 2 8 1 9 10 11 11 12 15 13 16 14
REMARK SMILES IDX 17 15 12 17 13 18 14 19
REMARK H PARENT
REMARK Flexibility Score: 70.00
ROOT
ATOM      1  C   UNL     1      13.709  20.439  58.627  1.00  0.00     0.136 C 
ATOM      2  O   UNL     1      13.103  19.378  58.686  1.00  0.00    -0.299 OA
ENDROOT
BRANCH   1   3
ATOM      3  C   UNL     1      13.162  21.656  59.345  1.00  0.00     0.053 C 
ATOM      4  C   UNL     1      14.235  22.251  60.264  1.00  0.00     0.016 C 
BRANCH   3   5
ATOM      5  C   UNL     1      12.633  22.732  58.366  1.00  0.00     0.015 C 
BRANCH   5   6
ATOM      6  C   UNL     1      11.415  22.298  57.527  1.00  0.00     0.028 C 
BRANCH   6   7
ATOM      7  C   UNL     1      11.448  22.885  56.135  1.00  0.00    -0.028 C 
ATOM      8  C   UNL     1      12.062  22.326  55.066  1.00  0.00    -0.070 CG0
ATOM      9  C   UNL     1      11.963  23.048  53.745  1.00  0.00     0.039 C 
ATOM     10  G   UNL     1      12.916  21.073  55.158  1.00  0.00     0.000 G0
ENDBRANCH   6   7
ENDBRANCH   5   6
ENDBRANCH   3   5
ENDBRANCH   1   3
BRANCH   1  11
ATOM     11  C   UNL     1      14.963  20.539  57.787  1.00  0.00     0.087 C 
BRANCH  11  12
ATOM     12  C   UNL     1      14.949  21.718  56.779  1.00  0.00     0.066 C 
BRANCH  12  13
ATOM     13  C   UNL     1      14.396  21.293  55.422  1.00  0.00     0.140 C 
ATOM     14  O   UNL     1      15.191  21.087  54.517  1.00  0.00    -0.299 OA
BRANCH  13  15
ATOM     15  C   UNL     1      12.924  21.054  55.144  1.00  0.00     0.106 CG0
ATOM     16  G   UNL     1      12.081  22.316  55.067  1.00  0.00     0.000 G0
ENDBRANCH  13  15
ENDBRANCH  12  13
BRANCH  12  17
ATOM     17  C   UNL     1      16.335  22.425  56.647  1.00  0.00    -0.006 C 
ATOM     18  C   UNL     1      16.180  23.957  56.668  1.00  0.00     0.008 C 
ATOM     19  C   UNL     1      17.313  22.012  57.761  1.00  0.00     0.008 C 
ENDBRANCH  12  17
ENDBRANCH  11  12
ENDBRANCH   1  11
TORSDOF 1
ENDMDL
