MODEL 1
REMARK VINA RESULT:    -3.633      0.000      0.000
REMARK INTER + INTRA:          -4.379
REMARK INTER:                  -4.377
REMARK INTRA:                  -0.003
REMARK UNBOUND:                -0.003
REMARK SMILES OCC(O)CO
REMARK SMILES IDX 3 1 5 2 6 3 2 5 1 6 4 8
REMARK H PARENT 6 4 1 7 4 9
REMARK Flexibility Score: inf
ROOT
ATOM      1  C   UNL     1       3.481  26.062  17.513  1.00  0.00     0.165 C 
ENDROOT
BRANCH   1   2
ATOM      2  C   UNL     1       3.526  26.763  16.141  1.00  0.00     0.190 C 
BRANCH   2   3
ATOM      3  O   UNL     1       2.857  26.003  15.170  1.00  0.00    -0.394 OA
ATOM      4  H   UNL     1       3.508  25.838  14.439  1.00  0.00     0.210 HD
ENDBRANCH   2   3
ENDBRANCH   1   2
BRANCH   1   5
ATOM      5  C   UNL     1       3.684  27.041  18.684  1.00  0.00     0.190 C 
BRANCH   5   6
ATOM      6  O   UNL     1       4.786  26.675  19.472  1.00  0.00    -0.394 OA
ATOM      7  H   UNL     1       4.840  27.330  20.216  1.00  0.00     0.210 HD
ENDBRANCH   5   6
ENDBRANCH   1   5
BRANCH   1   8
ATOM      8  O   UNL     1       2.281  25.345  17.669  1.00  0.00    -0.388 OA
ATOM      9  H   UNL     1       2.473  24.549  18.230  1.00  0.00     0.211 HD
ENDBRANCH   1   8
TORSDOF 5
ENDMDL
MODEL 2
REMARK VINA RESULT:    -3.618      0.586      3.136
REMARK INTER + INTRA:          -4.361
REMARK INTER:                  -4.359
REMARK INTRA:                  -0.003
REMARK UNBOUND:                -0.003
REMARK SMILES OCC(O)CO
REMARK SMILES IDX 3 1 5 2 6 3 2 5 1 6 4 8
REMARK H PARENT 6 4 1 7 4 9
REMARK Flexibility Score: inf
ROOT
ATOM      1  C   UNL     1       3.357  26.649  17.432  1.00  0.00     0.165 C 
ENDROOT
BRANCH   1   2
ATOM      2  C   UNL     1       4.642  26.850  18.258  1.00  0.00     0.190 C 
BRANCH   2   3
ATOM      3  O   UNL     1       4.510  26.283  19.535  1.00  0.00    -0.394 OA
ATOM      4  H   UNL     1       3.980  25.451  19.422  1.00  0.00     0.210 HD
ENDBRANCH   2   3
ENDBRANCH   1   2
BRANCH   1   5
ATOM      5  C   UNL     1       3.618  26.678  15.915  1.00  0.00     0.190 C 
BRANCH   5   6
ATOM      6  O   UNL     1       2.708  25.865  15.223  1.00  0.00    -0.394 OA
ATOM      7  H   UNL     1       2.144  25.417  15.906  1.00  0.00     0.210 HD
ENDBRANCH   5   6
ENDBRANCH   1   5
BRANCH   1   8
ATOM      8  O   UNL     1       2.706  25.459  17.802  1.00  0.00    -0.388 OA
ATOM      9  H   UNL     1       3.400  24.804  18.074  1.00  0.00     0.211 HD
ENDBRANCH   1   8
TORSDOF 5
ENDMDL
MODEL 3
REMARK VINA RESULT:    -3.431     19.397     20.031
REMARK INTER + INTRA:          -4.135
REMARK INTER:                  -4.119
REMARK INTRA:                  -0.016
REMARK UNBOUND:                -0.003
REMARK SMILES OCC(O)CO
REMARK SMILES IDX 3 1 5 2 6 3 2 5 1 6 4 8
REMARK H PARENT 6 4 1 7 4 9
REMARK Flexibility Score: inf
ROOT
ATOM      1  C   UNL     1       7.412   6.990  11.873  1.00  0.00     0.165 C 
ENDROOT
BRANCH   1   2
ATOM      2  C   UNL     1       7.947   7.699  13.132  1.00  0.00     0.190 C 
BRANCH   2   3
ATOM      3  O   UNL     1       8.809   8.750  12.785  1.00  0.00    -0.394 OA
ATOM      4  H   UNL     1       9.052   8.615  11.832  1.00  0.00     0.210 HD
ENDBRANCH   2   3
ENDBRANCH   1   2
BRANCH   1   5
ATOM      5  C   UNL     1       5.874   6.946  11.827  1.00  0.00     0.190 C 
BRANCH   5   6
ATOM      6  O   UNL     1       5.347   8.088  11.205  1.00  0.00    -0.394 OA
ATOM      7  H   UNL     1       4.489   7.818  10.784  1.00  0.00     0.210 HD
ENDBRANCH   5   6
ENDBRANCH   1   5
BRANCH   1   8
ATOM      8  O   UNL     1       7.927   7.584  10.707  1.00  0.00    -0.388 OA
ATOM      9  H   UNL     1       7.181   8.049  10.247  1.00  0.00     0.211 HD
ENDBRANCH   1   8
TORSDOF 5
ENDMDL
MODEL 4
REMARK VINA RESULT:    -3.406     17.947     18.356
REMARK INTER + INTRA:          -4.105
REMARK INTER:                  -3.892
REMARK INTRA:                  -0.214
REMARK UNBOUND:                -0.003
REMARK SMILES OCC(O)CO
REMARK SMILES IDX 3 1 5 2 6 3 2 5 1 6 4 8
REMARK H PARENT 6 4 1 7 4 9
REMARK Flexibility Score: inf
ROOT
ATOM      1  C   UNL     1      15.139  12.813  18.763  1.00  0.00     0.165 C 
ENDROOT
BRANCH   1   2
ATOM      2  C   UNL     1      13.709  12.497  18.281  1.00  0.00     0.190 C 
BRANCH   2   3
ATOM      3  O   UNL     1      13.463  11.116  18.319  1.00  0.00    -0.394 OA
ATOM      4  H   UNL     1      14.081  10.700  17.662  1.00  0.00     0.210 HD
ENDBRANCH   2   3
ENDBRANCH   1   2
BRANCH   1   5
ATOM      5  C   UNL     1      15.302  12.642  20.284  1.00  0.00     0.190 C 
BRANCH   5   6
ATOM      6  O   UNL     1      14.965  11.342  20.692  1.00  0.00    -0.394 OA
ATOM      7  H   UNL     1      15.563  11.114  21.451  1.00  0.00     0.210 HD
ENDBRANCH   5   6
ENDBRANCH   1   5
BRANCH   1   8
ATOM      8  O   UNL     1      16.083  12.035  18.071  1.00  0.00    -0.388 OA
ATOM      9  H   UNL     1      16.381  12.551  17.277  1.00  0.00     0.211 HD
ENDBRANCH   1   8
TORSDOF 5
ENDMDL
MODEL 5
REMARK VINA RESULT:    -3.286     13.566     14.540
REMARK INTER + INTRA:          -3.962
REMARK INTER:                  -3.739
REMARK INTRA:                  -0.223
REMARK UNBOUND:                -0.003
REMARK SMILES OCC(O)CO
REMARK SMILES IDX 3 1 5 2 6 3 2 5 1 6 4 8
REMARK H PARENT 6 4 1 7 4 9
REMARK Flexibility Score: inf
ROOT
ATOM      1  C   UNL     1       1.466  14.950  10.129  1.00  0.00     0.165 C 
ENDROOT
BRANCH   1   2
ATOM      2  C   UNL     1       1.779  13.471   9.833  1.00  0.00     0.190 C 
BRANCH   2   3
ATOM      3  O   UNL     1       1.098  12.628  10.724  1.00  0.00    -0.394 OA
ATOM      4  H   UNL     1       0.130  12.813  10.608  1.00  0.00     0.210 HD
ENDBRANCH   2   3
ENDBRANCH   1   2
BRANCH   1   5
ATOM      5  C   UNL     1       0.150  15.419   9.482  1.00  0.00     0.190 C 
BRANCH   5   6
ATOM      6  O   UNL     1      -0.588  14.336   8.981  1.00  0.00    -0.394 OA
ATOM      7  H   UNL     1      -1.019  14.644   8.141  1.00  0.00     0.210 HD
ENDBRANCH   5   6
ENDBRANCH   1   5
BRANCH   1   8
ATOM      8  O   UNL     1       1.452  15.190  11.515  1.00  0.00    -0.388 OA
ATOM      9  H   UNL     1       1.464  16.173  11.655  1.00  0.00     0.211 HD
ENDBRANCH   1   8
TORSDOF 5
ENDMDL
MODEL 6
REMARK VINA RESULT:    -3.266     16.155     16.555
REMARK INTER + INTRA:          -3.937
REMARK INTER:                  -3.932
REMARK INTRA:                  -0.006
REMARK UNBOUND:                -0.003
REMARK SMILES OCC(O)CO
REMARK SMILES IDX 3 1 5 2 6 3 2 5 1 6 4 8
REMARK H PARENT 6 4 1 7 4 9
REMARK Flexibility Score: inf
ROOT
ATOM      1  C   UNL     1      12.226  12.771  18.506  1.00  0.00     0.165 C 
ENDROOT
BRANCH   1   2
ATOM      2  C   UNL     1      13.689  12.882  18.032  1.00  0.00     0.190 C 
BRANCH   2   3
ATOM      3  O   UNL     1      14.423  11.746  18.406  1.00  0.00    -0.394 OA
ATOM      4  H   UNL     1      14.955  12.002  19.204  1.00  0.00     0.210 HD
ENDBRANCH   2   3
ENDBRANCH   1   2
BRANCH   1   5
ATOM      5  C   UNL     1      11.292  13.754  17.777  1.00  0.00     0.190 C 
BRANCH   5   6
ATOM      6  O   UNL     1      11.291  13.529  16.392  1.00  0.00    -0.394 OA
ATOM      7  H   UNL     1      12.223  13.302  16.135  1.00  0.00     0.210 HD
ENDBRANCH   5   6
ENDBRANCH   1   5
BRANCH   1   8
ATOM      8  O   UNL     1      11.758  11.451  18.376  1.00  0.00    -0.388 OA
ATOM      9  H   UNL     1      12.295  10.876  18.981  1.00  0.00     0.211 HD
ENDBRANCH   1   8
TORSDOF 5
ENDMDL
MODEL 7
REMARK VINA RESULT:    -3.201     10.964     11.519
REMARK INTER + INTRA:          -3.859
REMARK INTER:                  -3.638
REMARK INTRA:                  -0.222
REMARK UNBOUND:                -0.003
REMARK SMILES OCC(O)CO
REMARK SMILES IDX 3 1 5 2 6 3 2 5 1 6 4 8
REMARK H PARENT 6 4 1 7 4 9
REMARK Flexibility Score: inf
ROOT
ATOM      1  C   UNL     1      10.393  17.781  14.746  1.00  0.00     0.165 C 
ENDROOT
BRANCH   1   2
ATOM      2  C   UNL     1       9.012  18.368  15.099  1.00  0.00     0.190 C 
BRANCH   2   3
ATOM      3  O   UNL     1       8.239  18.557  13.943  1.00  0.00    -0.394 OA
ATOM      4  H   UNL     1       8.851  18.912  13.247  1.00  0.00     0.210 HD
ENDBRANCH   2   3
ENDBRANCH   1   2
BRANCH   1   5
ATOM      5  C   UNL     1      10.296  16.569  13.801  1.00  0.00     0.190 C 
BRANCH   5   6
ATOM      6  O   UNL     1      10.137  16.972  12.466  1.00  0.00    -0.394 OA
ATOM      7  H   UNL     1       9.163  17.083  12.312  1.00  0.00     0.210 HD
ENDBRANCH   5   6
ENDBRANCH   1   5
BRANCH   1   8
ATOM      8  O   UNL     1      11.232  18.769  14.203  1.00  0.00    -0.388 OA
ATOM      9  H   UNL     1      12.010  18.314  13.787  1.00  0.00     0.211 HD
ENDBRANCH   1   8
TORSDOF 5
ENDMDL
MODEL 8
REMARK VINA RESULT:    -3.181      7.699      8.018
REMARK INTER + INTRA:          -3.834
REMARK INTER:                  -3.610
REMARK INTRA:                  -0.224
REMARK UNBOUND:                -0.003
REMARK SMILES OCC(O)CO
REMARK SMILES IDX 3 1 5 2 6 3 2 5 1 6 4 8
REMARK H PARENT 6 4 1 7 4 9
REMARK Flexibility Score: inf
ROOT
ATOM      1  C   UNL     1       7.929  21.134  15.212  1.00  0.00     0.165 C 
ENDROOT
BRANCH   1   2
ATOM      2  C   UNL     1       8.740  19.927  15.722  1.00  0.00     0.190 C 
BRANCH   2   3
ATOM      3  O   UNL     1       9.844  19.680  14.893  1.00  0.00    -0.394 OA
ATOM      4  H   UNL     1      10.351  20.532  14.834  1.00  0.00     0.210 HD
ENDBRANCH   2   3
ENDBRANCH   1   2
BRANCH   1   5
ATOM      5  C   UNL     1       8.663  22.471  15.421  1.00  0.00     0.190 C 
BRANCH   5   6
ATOM      6  O   UNL     1       9.827  22.302  16.186  1.00  0.00    -0.394 OA
ATOM      7  H   UNL     1       9.724  22.865  16.997  1.00  0.00     0.210 HD
ENDBRANCH   5   6
ENDBRANCH   1   5
BRANCH   1   8
ATOM      8  O   UNL     1       7.578  20.965  13.861  1.00  0.00    -0.388 OA
ATOM      9  H   UNL     1       6.651  20.614  13.828  1.00  0.00     0.211 HD
ENDBRANCH   1   8
TORSDOF 5
ENDMDL
MODEL 9
REMARK VINA RESULT:    -3.178     17.789     18.303
REMARK INTER + INTRA:          -3.831
REMARK INTER:                  -3.611
REMARK INTRA:                  -0.220
REMARK UNBOUND:                -0.003
REMARK SMILES OCC(O)CO
REMARK SMILES IDX 3 1 5 2 6 3 2 5 1 6 4 8
REMARK H PARENT 6 4 1 7 4 9
REMARK Flexibility Score: inf
ROOT
ATOM      1  C   UNL     1      13.887  12.550  18.864  1.00  0.00     0.165 C 
ENDROOT
BRANCH   1   2
ATOM      2  C   UNL     1      14.231  12.510  20.366  1.00  0.00     0.190 C 
BRANCH   2   3
ATOM      3  O   UNL     1      15.000  11.378  20.673  1.00  0.00    -0.394 OA
ATOM      4  H   UNL     1      14.367  10.680  20.986  1.00  0.00     0.210 HD
ENDBRANCH   2   3
ENDBRANCH   1   2
BRANCH   1   5
ATOM      5  C   UNL     1      15.058  13.058  18.003  1.00  0.00     0.190 C 
BRANCH   5   6
ATOM      6  O   UNL     1      16.125  12.147  17.999  1.00  0.00    -0.394 OA
ATOM      7  H   UNL     1      16.817  12.510  18.611  1.00  0.00     0.210 HD
ENDBRANCH   5   6
ENDBRANCH   1   5
BRANCH   1   8
ATOM      8  O   UNL     1      13.452  11.290  18.417  1.00  0.00    -0.388 OA
ATOM      9  H   UNL     1      14.213  10.658  18.497  1.00  0.00     0.211 HD
ENDBRANCH   1   8
TORSDOF 5
ENDMDL
