MODEL 1
REMARK VINA RESULT:    -4.759      0.000      0.000
REMARK INTER + INTRA:          -7.322
REMARK INTER:                  -5.872
REMARK INTRA:                  -1.450
REMARK UNBOUND:                -1.450
REMARK SMILES C=C(CCC=C(C)C)[C@H]1CC=C(C)CC1
REMARK SMILES IDX 3 1 2 2 1 3 9 4 13 5 12 6 11 7 14 8 10 9 15 10 4 11 5 12
REMARK SMILES IDX 6 13 7 14 8 15
REMARK H PARENT
REMARK Flexibility Score: inf
ROOT
ATOM      1  C   UNL     1      -0.822  13.777  16.600  1.00  0.00     0.035 C 
ENDROOT
BRANCH   1   2
ATOM      2  C   UNL     1       0.470  13.086  16.970  1.00  0.00    -0.074 C 
ATOM      3  C   UNL     1       0.723  12.799  18.260  1.00  0.00     0.008 C 
BRANCH   2   4
ATOM      4  C   UNL     1       1.455  12.694  15.877  1.00  0.00     0.018 C 
ATOM      5  C   UNL     1       3.673  12.917  12.177  1.00  0.00     0.039 C 
ATOM      6  C   UNL     1       2.654  13.085  13.270  1.00  0.00    -0.077 C 
ATOM      7  C   UNL     1       1.689  12.167  13.441  1.00  0.00    -0.027 C 
ATOM      8  C   UNL     1       2.713  14.256  14.223  1.00  0.00     0.031 C 
ATOM      9  C   UNL     1       0.709  12.327  14.571  1.00  0.00     0.035 C 
ATOM     10  C   UNL     1       2.567  13.776  15.680  1.00  0.00     0.013 C 
ENDBRANCH   2   4
ENDBRANCH   1   2
BRANCH   1  11
ATOM     11  C   UNL     1      -0.843  15.206  17.152  1.00  0.00     0.032 C 
BRANCH  11  12
ATOM     12  C   UNL     1      -0.321  16.182  16.129  1.00  0.00    -0.028 C 
ATOM     13  C   UNL     1       0.810  16.908  16.274  1.00  0.00    -0.080 C 
ATOM     14  C   UNL     1       1.188  17.876  15.182  1.00  0.00     0.039 C 
ATOM     15  C   UNL     1       1.705  16.761  17.482  1.00  0.00     0.039 C 
ENDBRANCH  11  12
ENDBRANCH   1  11
TORSDOF 4
ENDMDL
MODEL 2
REMARK VINA RESULT:    -4.733      0.860      1.405
REMARK INTER + INTRA:          -7.289
REMARK INTER:                  -5.656
REMARK INTRA:                  -1.633
REMARK UNBOUND:                -1.450
REMARK SMILES C=C(CCC=C(C)C)[C@H]1CC=C(C)CC1
REMARK SMILES IDX 3 1 2 2 1 3 9 4 13 5 12 6 11 7 14 8 10 9 15 10 4 11 5 12
REMARK SMILES IDX 6 13 7 14 8 15
REMARK H PARENT
REMARK Flexibility Score: inf
ROOT
ATOM      1  C   UNL     1       1.166  14.481  17.668  1.00  0.00     0.035 C 
ENDROOT
BRANCH   1   2
ATOM      2  C   UNL     1       0.744  13.337  16.774  1.00  0.00    -0.074 C 
ATOM      3  C   UNL     1      -0.467  12.776  16.945  1.00  0.00     0.008 C 
BRANCH   2   4
ATOM      4  C   UNL     1       1.678  12.856  15.673  1.00  0.00     0.018 C 
ATOM      5  C   UNL     1       3.829  12.845  11.927  1.00  0.00     0.039 C 
ATOM      6  C   UNL     1       2.845  13.106  13.034  1.00  0.00    -0.077 C 
ATOM      7  C   UNL     1       1.826  12.258  13.246  1.00  0.00    -0.027 C 
ATOM      8  C   UNL     1       3.001  14.292  13.957  1.00  0.00     0.031 C 
ATOM      9  C   UNL     1       0.883  12.509  14.390  1.00  0.00     0.035 C 
ATOM     10  C   UNL     1       2.854  13.857  15.427  1.00  0.00     0.013 C 
ENDBRANCH   2   4
ENDBRANCH   1   2
BRANCH   1  11
ATOM     11  C   UNL     1       0.244  15.688  17.468  1.00  0.00     0.032 C 
BRANCH  11  12
ATOM     12  C   UNL     1       0.837  16.655  16.475  1.00  0.00    -0.028 C 
ATOM     13  C   UNL     1       0.456  16.750  15.181  1.00  0.00    -0.080 C 
ATOM     14  C   UNL     1       1.168  17.739  14.294  1.00  0.00     0.039 C 
ATOM     15  C   UNL     1      -0.666  15.913  14.614  1.00  0.00     0.039 C 
ENDBRANCH  11  12
ENDBRANCH   1  11
TORSDOF 4
ENDMDL
MODEL 3
REMARK VINA RESULT:    -4.627      1.253      4.165
REMARK INTER + INTRA:          -7.159
REMARK INTER:                  -5.596
REMARK INTRA:                  -1.563
REMARK UNBOUND:                -1.450
REMARK SMILES C=C(CCC=C(C)C)[C@H]1CC=C(C)CC1
REMARK SMILES IDX 3 1 2 2 1 3 9 4 13 5 12 6 11 7 14 8 10 9 15 10 4 11 5 12
REMARK SMILES IDX 6 13 7 14 8 15
REMARK H PARENT
REMARK Flexibility Score: inf
ROOT
ATOM      1  C   UNL     1      -0.633  12.855  16.249  1.00  0.00     0.035 C 
ENDROOT
BRANCH   1   2
ATOM      2  C   UNL     1      -0.163  13.251  17.630  1.00  0.00    -0.074 C 
ATOM      3  C   UNL     1      -0.122  12.325  18.606  1.00  0.00     0.008 C 
BRANCH   2   4
ATOM      4  C   UNL     1       0.286  14.681  17.894  1.00  0.00     0.018 C 
ATOM      5  C   UNL     1       2.056  18.553  17.161  1.00  0.00     0.039 C 
ATOM      6  C   UNL     1       1.675  17.099  17.111  1.00  0.00    -0.077 C 
ATOM      7  C   UNL     1       2.261  16.218  17.939  1.00  0.00    -0.027 C 
ATOM      8  C   UNL     1       0.603  16.601  16.170  1.00  0.00     0.031 C 
ATOM      9  C   UNL     1       1.831  14.778  17.909  1.00  0.00     0.035 C 
ATOM     10  C   UNL     1      -0.395  15.695  16.917  1.00  0.00     0.013 C 
ENDBRANCH   2   4
ENDBRANCH   1   2
BRANCH   1  11
ATOM     11  C   UNL     1       0.552  12.414  15.385  1.00  0.00     0.032 C 
BRANCH  11  12
ATOM     12  C   UNL     1       0.726  13.335  14.205  1.00  0.00    -0.028 C 
ATOM     13  C   UNL     1       1.862  14.011  13.924  1.00  0.00    -0.080 C 
ATOM     14  C   UNL     1       1.877  14.929  12.729  1.00  0.00     0.039 C 
ATOM     15  C   UNL     1       3.111  13.858  14.761  1.00  0.00     0.039 C 
ENDBRANCH  11  12
ENDBRANCH   1  11
TORSDOF 4
ENDMDL
MODEL 4
REMARK VINA RESULT:    -4.544      1.299      4.812
REMARK INTER + INTRA:          -7.057
REMARK INTER:                  -5.582
REMARK INTRA:                  -1.475
REMARK UNBOUND:                -1.450
REMARK SMILES C=C(CCC=C(C)C)[C@H]1CC=C(C)CC1
REMARK SMILES IDX 3 1 2 2 1 3 9 4 13 5 12 6 11 7 14 8 10 9 15 10 4 11 5 12
REMARK SMILES IDX 6 13 7 14 8 15
REMARK H PARENT
REMARK Flexibility Score: inf
ROOT
ATOM      1  C   UNL     1       0.540  17.010  15.048  1.00  0.00     0.035 C 
ENDROOT
BRANCH   1   2
ATOM      2  C   UNL     1       1.089  17.111  16.453  1.00  0.00    -0.074 C 
ATOM      3  C   UNL     1       1.951  18.097  16.758  1.00  0.00     0.008 C 
BRANCH   2   4
ATOM      4  C   UNL     1       0.636  16.115  17.513  1.00  0.00     0.018 C 
ATOM      5  C   UNL     1      -0.501  12.341  19.277  1.00  0.00     0.039 C 
ATOM      6  C   UNL     1      -0.201  13.464  18.325  1.00  0.00    -0.077 C 
ATOM      7  C   UNL     1      -1.113  14.425  18.103  1.00  0.00    -0.027 C 
ATOM      8  C   UNL     1       1.139  13.568  17.633  1.00  0.00     0.031 C 
ATOM      9  C   UNL     1      -0.774  15.567  17.185  1.00  0.00     0.035 C 
ATOM     10  C   UNL     1       1.702  14.997  17.755  1.00  0.00     0.013 C 
ENDBRANCH   2   4
ENDBRANCH   1   2
BRANCH   1  11
ATOM     11  C   UNL     1       1.491  16.206  14.157  1.00  0.00     0.032 C 
BRANCH  11  12
ATOM     12  C   UNL     1       1.060  14.764  14.078  1.00  0.00    -0.028 C 
ATOM     13  C   UNL     1       1.897  13.709  14.196  1.00  0.00    -0.080 C 
ATOM     14  C   UNL     1       1.328  12.320  14.057  1.00  0.00     0.039 C 
ATOM     15  C   UNL     1       3.371  13.885  14.479  1.00  0.00     0.039 C 
ENDBRANCH  11  12
ENDBRANCH   1  11
TORSDOF 4
ENDMDL
MODEL 5
REMARK VINA RESULT:    -4.418      1.412      4.046
REMARK INTER + INTRA:          -6.901
REMARK INTER:                  -5.242
REMARK INTRA:                  -1.659
REMARK UNBOUND:                -1.450
REMARK SMILES C=C(CCC=C(C)C)[C@H]1CC=C(C)CC1
REMARK SMILES IDX 3 1 2 2 1 3 9 4 13 5 12 6 11 7 14 8 10 9 15 10 4 11 5 12
REMARK SMILES IDX 6 13 7 14 8 15
REMARK H PARENT
REMARK Flexibility Score: inf
ROOT
ATOM      1  C   UNL     1       1.139  13.828  12.942  1.00  0.00     0.035 C 
ENDROOT
BRANCH   1   2
ATOM      2  C   UNL     1       2.210  13.735  14.006  1.00  0.00    -0.074 C 
ATOM      3  C   UNL     1       3.433  14.239  13.760  1.00  0.00     0.008 C 
BRANCH   2   4
ATOM      4  C   UNL     1       1.883  13.102  15.351  1.00  0.00     0.018 C 
ATOM      5  C   UNL     1      -0.281  12.256  18.992  1.00  0.00     0.039 C 
ATOM      6  C   UNL     1       0.253  12.885  17.735  1.00  0.00    -0.077 C 
ATOM      7  C   UNL     1       1.403  13.578  17.762  1.00  0.00    -0.027 C 
ATOM      8  C   UNL     1      -0.458  12.718  16.412  1.00  0.00     0.031 C 
ATOM      9  C   UNL     1       1.947  14.156  16.484  1.00  0.00     0.035 C 
ATOM     10  C   UNL     1       0.537  12.307  15.310  1.00  0.00     0.013 C 
ENDBRANCH   2   4
ENDBRANCH   1   2
BRANCH   1  11
ATOM     11  C   UNL     1       0.645  15.272  12.803  1.00  0.00     0.032 C 
BRANCH  11  12
ATOM     12  C   UNL     1      -0.310  15.620  13.916  1.00  0.00    -0.028 C 
ATOM     13  C   UNL     1      -0.097  16.595  14.827  1.00  0.00    -0.080 C 
ATOM     14  C   UNL     1      -1.125  16.804  15.910  1.00  0.00     0.039 C 
ATOM     15  C   UNL     1       1.123  17.485  14.777  1.00  0.00     0.039 C 
ENDBRANCH  11  12
ENDBRANCH   1  11
TORSDOF 4
ENDMDL
MODEL 6
REMARK VINA RESULT:    -4.384      1.393      2.060
REMARK INTER + INTRA:          -6.859
REMARK INTER:                  -5.902
REMARK INTRA:                  -0.957
REMARK UNBOUND:                -1.450
REMARK SMILES C=C(CCC=C(C)C)[C@H]1CC=C(C)CC1
REMARK SMILES IDX 3 1 2 2 1 3 9 4 13 5 12 6 11 7 14 8 10 9 15 10 4 11 5 12
REMARK SMILES IDX 6 13 7 14 8 15
REMARK H PARENT
REMARK Flexibility Score: inf
ROOT
ATOM      1  C   UNL     1       0.377  15.420  16.895  1.00  0.00     0.035 C 
ENDROOT
BRANCH   1   2
ATOM      2  C   UNL     1       1.526  14.470  17.146  1.00  0.00    -0.074 C 
ATOM      3  C   UNL     1       2.289  14.629  18.243  1.00  0.00     0.008 C 
BRANCH   2   4
ATOM      4  C   UNL     1       1.787  13.328  16.174  1.00  0.00     0.018 C 
ATOM      5  C   UNL     1       1.880  11.142  12.450  1.00  0.00     0.039 C 
ATOM      6  C   UNL     1       1.564  12.111  13.556  1.00  0.00    -0.077 C 
ATOM      7  C   UNL     1       0.719  11.762  14.539  1.00  0.00    -0.027 C 
ATOM      8  C   UNL     1       2.217  13.473  13.615  1.00  0.00     0.031 C 
ATOM      9  C   UNL     1       0.455  12.726  15.663  1.00  0.00     0.035 C 
ATOM     10  C   UNL     1       2.764  13.750  15.028  1.00  0.00     0.013 C 
ENDBRANCH   2   4
ENDBRANCH   1   2
BRANCH   1  11
ATOM     11  C   UNL     1       0.901  16.807  16.513  1.00  0.00     0.032 C 
BRANCH  11  12
ATOM     12  C   UNL     1      -0.027  17.479  15.534  1.00  0.00    -0.028 C 
ATOM     13  C   UNL     1       0.248  17.661  14.223  1.00  0.00    -0.080 C 
ATOM     14  C   UNL     1      -0.761  18.386  13.370  1.00  0.00     0.039 C 
ATOM     15  C   UNL     1       1.522  17.146  13.594  1.00  0.00     0.039 C 
ENDBRANCH  11  12
ENDBRANCH   1  11
TORSDOF 4
ENDMDL
MODEL 7
REMARK VINA RESULT:    -4.331      1.331      3.425
REMARK INTER + INTRA:          -6.794
REMARK INTER:                  -5.138
REMARK INTRA:                  -1.656
REMARK UNBOUND:                -1.450
REMARK SMILES C=C(CCC=C(C)C)[C@H]1CC=C(C)CC1
REMARK SMILES IDX 3 1 2 2 1 3 9 4 13 5 12 6 11 7 14 8 10 9 15 10 4 11 5 12
REMARK SMILES IDX 6 13 7 14 8 15
REMARK H PARENT
REMARK Flexibility Score: inf
ROOT
ATOM      1  C   UNL     1      -1.043  16.022  16.392  1.00  0.00     0.035 C 
ENDROOT
BRANCH   1   2
ATOM      2  C   UNL     1       0.267  16.048  15.639  1.00  0.00    -0.074 C 
ATOM      3  C   UNL     1       1.121  17.070  15.830  1.00  0.00     0.008 C 
BRANCH   2   4
ATOM      4  C   UNL     1       0.618  14.904  14.698  1.00  0.00     0.018 C 
ATOM      5  C   UNL     1       1.481  10.880  13.386  1.00  0.00     0.039 C 
ATOM      6  C   UNL     1       1.282  12.129  14.199  1.00  0.00    -0.077 C 
ATOM      7  C   UNL     1       2.251  13.058  14.259  1.00  0.00    -0.027 C 
ATOM      8  C   UNL     1      -0.017  12.394  14.925  1.00  0.00     0.031 C 
ATOM      9  C   UNL     1       2.013  14.323  15.036  1.00  0.00     0.035 C 
ATOM     10  C   UNL     1      -0.512  13.825  14.644  1.00  0.00     0.013 C 
ENDBRANCH   2   4
ENDBRANCH   1   2
BRANCH   1  11
ATOM     11  C   UNL     1      -0.800  15.773  17.884  1.00  0.00     0.032 C 
BRANCH  11  12
ATOM     12  C   UNL     1      -0.993  14.317  18.222  1.00  0.00    -0.028 C 
ATOM     13  C   UNL     1       0.015  13.447  18.453  1.00  0.00    -0.080 C 
ATOM     14  C   UNL     1      -0.330  12.008  18.741  1.00  0.00     0.039 C 
ATOM     15  C   UNL     1       1.463  13.879  18.446  1.00  0.00     0.039 C 
ENDBRANCH  11  12
ENDBRANCH   1  11
TORSDOF 4
ENDMDL
MODEL 8
REMARK VINA RESULT:    -4.286      1.370      4.433
REMARK INTER + INTRA:          -6.738
REMARK INTER:                  -5.021
REMARK INTRA:                  -1.717
REMARK UNBOUND:                -1.450
REMARK SMILES C=C(CCC=C(C)C)[C@H]1CC=C(C)CC1
REMARK SMILES IDX 3 1 2 2 1 3 9 4 13 5 12 6 11 7 14 8 10 9 15 10 4 11 5 12
REMARK SMILES IDX 6 13 7 14 8 15
REMARK H PARENT
REMARK Flexibility Score: inf
ROOT
ATOM      1  C   UNL     1       0.494  13.161  17.191  1.00  0.00     0.035 C 
ENDROOT
BRANCH   1   2
ATOM      2  C   UNL     1       1.127  14.478  17.580  1.00  0.00    -0.074 C 
ATOM      3  C   UNL     1       2.247  14.480  18.325  1.00  0.00     0.008 C 
BRANCH   2   4
ATOM      4  C   UNL     1       0.509  15.783  17.098  1.00  0.00     0.018 C 
ATOM      5  C   UNL     1      -1.125  18.707  14.371  1.00  0.00     0.039 C 
ATOM      6  C   UNL     1      -0.393  17.546  14.984  1.00  0.00    -0.077 C 
ATOM      7  C   UNL     1       0.810  17.729  15.551  1.00  0.00    -0.027 C 
ATOM      8  C   UNL     1      -1.005  16.164  15.020  1.00  0.00     0.031 C 
ATOM      9  C   UNL     1       1.504  16.565  16.204  1.00  0.00     0.035 C 
ATOM     10  C   UNL     1      -0.887  15.556  16.430  1.00  0.00     0.013 C 
ENDBRANCH   2   4
ENDBRANCH   1   2
BRANCH   1  11
ATOM     11  C   UNL     1       1.342  12.451  16.131  1.00  0.00     0.032 C 
BRANCH  11  12
ATOM     12  C   UNL     1       0.937  12.883  14.745  1.00  0.00    -0.028 C 
ATOM     13  C   UNL     1       1.731  13.579  13.900  1.00  0.00    -0.080 C 
ATOM     14  C   UNL     1       1.176  13.977  12.556  1.00  0.00     0.039 C 
ATOM     15  C   UNL     1       3.153  13.946  14.258  1.00  0.00     0.039 C 
ENDBRANCH  11  12
ENDBRANCH   1  11
TORSDOF 4
ENDMDL
MODEL 9
REMARK VINA RESULT:    -4.263      1.452      4.878
REMARK INTER + INTRA:          -6.709
REMARK INTER:                  -5.195
REMARK INTRA:                  -1.515
REMARK UNBOUND:                -1.450
REMARK SMILES C=C(CCC=C(C)C)[C@H]1CC=C(C)CC1
REMARK SMILES IDX 3 1 2 2 1 3 9 4 13 5 12 6 11 7 14 8 10 9 15 10 4 11 5 12
REMARK SMILES IDX 6 13 7 14 8 15
REMARK H PARENT
REMARK Flexibility Score: inf
ROOT
ATOM      1  C   UNL     1       1.329  17.759  14.077  1.00  0.00     0.035 C 
ENDROOT
BRANCH   1   2
ATOM      2  C   UNL     1       0.062  17.651  14.894  1.00  0.00    -0.074 C 
ATOM      3  C   UNL     1      -1.026  18.352  14.524  1.00  0.00     0.008 C 
BRANCH   2   4
ATOM      4  C   UNL     1       0.020  16.727  16.103  1.00  0.00     0.018 C 
ATOM      5  C   UNL     1       0.798  13.262  18.561  1.00  0.00     0.039 C 
ATOM      6  C   UNL     1       0.625  14.215  17.412  1.00  0.00    -0.077 C 
ATOM      7  C   UNL     1      -0.595  14.432  16.892  1.00  0.00    -0.027 C 
ATOM      8  C   UNL     1       1.797  14.982  16.845  1.00  0.00     0.031 C 
ATOM      9  C   UNL     1      -0.755  15.427  15.776  1.00  0.00     0.035 C 
ATOM     10  C   UNL     1       1.446  16.474  16.693  1.00  0.00     0.013 C 
ENDBRANCH   2   4
ENDBRANCH   1   2
BRANCH   1  11
ATOM     11  C   UNL     1       1.361  16.679  12.990  1.00  0.00     0.032 C 
BRANCH  11  12
ATOM     12  C   UNL     1       2.630  15.871  13.076  1.00  0.00    -0.028 C 
ATOM     13  C   UNL     1       2.673  14.538  13.298  1.00  0.00    -0.080 C 
ATOM     14  C   UNL     1       4.019  13.869  13.398  1.00  0.00     0.039 C 
ATOM     15  C   UNL     1       1.416  13.708  13.427  1.00  0.00     0.039 C 
ENDBRANCH  11  12
ENDBRANCH   1  11
TORSDOF 4
ENDMDL
