MODEL 1
REMARK VINA RESULT:     5.535      0.000      0.000
REMARK INTER + INTRA:          13.627
REMARK INTER:                  14.596
REMARK INTRA:                  -0.968
REMARK UNBOUND:                -0.968
REMARK SMILES CCCCCCCCCCCCCCCCCCCCCCCCCCCCCC(=O)[O-]
REMARK SMILES IDX 16 1 17 2 18 3 19 4 20 5 21 6 22 7 23 8 24 9 25 10 26 11
REMARK SMILES IDX 27 12 28 13 29 14 30 15 31 16 32 17 15 18 14 19 13 20 12 21
REMARK SMILES IDX 11 22 10 23 9 24 8 25 7 26 6 27 5 28 4 29 3 30 2 31 1 32
REMARK H PARENT
REMARK Flexibility Score: inf
ROOT
ATOM      1  C   UNL     1       5.277 -34.996  18.569  1.00  0.00     0.000 C 
ENDROOT
BRANCH   1   2
ATOM      2  C   UNL     1       6.122 -34.092  19.483  1.00  0.00     0.000 C 
BRANCH   2   3
ATOM      3  C   UNL     1       6.122 -34.571  20.945  1.00  0.00     0.000 C 
BRANCH   3   4
ATOM      4  C   UNL     1       4.733 -35.030  21.420  1.00  0.00     0.000 C 
BRANCH   4   5
ATOM      5  C   UNL     1       4.369 -34.486  22.814  1.00  0.00     0.000 C 
BRANCH   5   6
ATOM      6  C   UNL     1       5.572 -34.154  23.715  1.00  0.00     0.000 C 
BRANCH   6   7
ATOM      7  C   UNL     1       6.066 -35.364  24.527  1.00  0.00     0.000 C 
BRANCH   7   8
ATOM      8  C   UNL     1       4.920 -36.330  24.894  1.00  0.00     0.000 C 
BRANCH   8   9
ATOM      9  C   UNL     1       5.159 -37.105  26.199  1.00  0.00     0.000 C 
BRANCH   9  10
ATOM     10  C   UNL     1       4.062 -38.138  26.491  1.00  0.00     0.000 C 
BRANCH  10  11
ATOM     11  C   UNL     1       3.080 -37.610  27.548  1.00  0.00     0.000 C 
BRANCH  11  12
ATOM     12  C   UNL     1       1.676 -37.351  26.980  1.00  0.00     0.000 C 
BRANCH  12  13
ATOM     13  C   UNL     1       1.089 -36.007  27.437  1.00  0.00     0.006 C 
BRANCH  13  14
ATOM     14  C   UNL     1       2.080 -35.250  28.331  1.00  0.00     0.053 C 
BRANCH  14  15
ATOM     15  C   UNL     1       1.392 -34.562  29.473  1.00  0.00     0.041 C 
ATOM     16  O   UNL     1       1.972 -34.422  30.585  1.00  0.00    -0.550 OA
ATOM     17  O   UNL     1       0.077 -34.134  29.330  1.00  0.00    -0.550 OA
ENDBRANCH  14  15
ENDBRANCH  13  14
ENDBRANCH  12  13
ENDBRANCH  11  12
ENDBRANCH  10  11
ENDBRANCH   9  10
ENDBRANCH   8   9
ENDBRANCH   7   8
ENDBRANCH   6   7
ENDBRANCH   5   6
ENDBRANCH   4   5
ENDBRANCH   3   4
ENDBRANCH   2   3
ENDBRANCH   1   2
BRANCH   1  18
ATOM     18  C   UNL     1       4.520 -34.211  17.484  1.00  0.00     0.000 C 
BRANCH  18  19
ATOM     19  C   UNL     1       3.484 -35.022  16.676  1.00  0.00     0.000 C 
BRANCH  19  20
ATOM     20  C   UNL     1       4.070 -36.043  15.683  1.00  0.00     0.000 C 
BRANCH  20  21
ATOM     21  C   UNL     1       3.072 -37.148  15.296  1.00  0.00     0.000 C 
BRANCH  21  22
ATOM     22  C   UNL     1       1.607 -36.714  15.484  1.00  0.00     0.000 C 
BRANCH  22  23
ATOM     23  C   UNL     1       1.057 -36.873  16.915  1.00  0.00     0.000 C 
BRANCH  23  24
ATOM     24  C   UNL     1       1.797 -37.907  17.788  1.00  0.00    -0.000 C 
BRANCH  24  25
ATOM     25  C   UNL     1       1.141 -38.200  19.150  1.00  0.00    -0.000 C 
BRANCH  25  26
ATOM     26  C   UNL     1       1.813 -37.517  20.355  1.00  0.00    -0.000 C 
BRANCH  26  27
ATOM     27  C   UNL     1       3.173 -36.862  20.026  1.00  0.00    -0.000 C 
BRANCH  27  28
ATOM     28  C   UNL     1       4.087 -37.777  19.191  1.00  0.00    -0.000 C 
BRANCH  28  29
ATOM     29  C   UNL     1       5.127 -38.517  20.059  1.00  0.00    -0.000 C 
BRANCH  29  30
ATOM     30  C   UNL     1       5.088 -38.115  21.545  1.00  0.00    -0.000 C 
BRANCH  30  31
ATOM     31  C   UNL     1       5.926 -39.010  22.474  1.00  0.00    -0.003 C 
ATOM     32  C   UNL     1       5.987 -40.463  22.001  1.00  0.00     0.004 C 
ENDBRANCH  30  31
ENDBRANCH  29  30
ENDBRANCH  28  29
ENDBRANCH  27  28
ENDBRANCH  26  27
ENDBRANCH  25  26
ENDBRANCH  24  25
ENDBRANCH  23  24
ENDBRANCH  22  23
ENDBRANCH  21  22
ENDBRANCH  20  21
ENDBRANCH  19  20
ENDBRANCH  18  19
ENDBRANCH   1  18
TORSDOF 28
ENDMDL
MODEL 2
REMARK VINA RESULT:     6.095      3.423      7.230
REMARK INTER + INTRA:          15.105
REMARK INTER:                  16.809
REMARK INTRA:                  -1.704
REMARK UNBOUND:                -0.968
REMARK SMILES CCCCCCCCCCCCCCCCCCCCCCCCCCCCCC(=O)[O-]
REMARK SMILES IDX 16 1 17 2 18 3 19 4 20 5 21 6 22 7 23 8 24 9 25 10 26 11
REMARK SMILES IDX 27 12 28 13 29 14 30 15 31 16 32 17 15 18 14 19 13 20 12 21
REMARK SMILES IDX 11 22 10 23 9 24 8 25 7 26 6 27 5 28 4 29 3 30 2 31 1 32
REMARK H PARENT
REMARK Flexibility Score: inf
ROOT
ATOM      1  C   UNL     1       4.728 -36.247  24.701  1.00  0.00     0.000 C 
ENDROOT
BRANCH   1   2
ATOM      2  C   UNL     1       5.117 -36.865  26.055  1.00  0.00     0.000 C 
BRANCH   2   3
ATOM      3  C   UNL     1       4.233 -38.067  26.426  1.00  0.00     0.000 C 
BRANCH   3   4
ATOM      4  C   UNL     1       3.737 -38.844  25.196  1.00  0.00     0.000 C 
BRANCH   4   5
ATOM      5  C   UNL     1       4.443 -40.201  25.021  1.00  0.00     0.000 C 
BRANCH   5   6
ATOM      6  C   UNL     1       5.739 -40.156  24.191  1.00  0.00     0.000 C 
BRANCH   6   7
ATOM      7  C   UNL     1       5.890 -41.361  23.247  1.00  0.00     0.000 C 
BRANCH   7   8
ATOM      8  C   UNL     1       6.122 -40.932  21.783  1.00  0.00     0.000 C 
BRANCH   8   9
ATOM      9  C   UNL     1       5.850 -39.442  21.525  1.00  0.00     0.000 C 
BRANCH   9  10
ATOM     10  C   UNL     1       5.916 -39.070  20.037  1.00  0.00     0.000 C 
BRANCH  10  11
ATOM     11  C   UNL     1       5.522 -37.601  19.821  1.00  0.00     0.000 C 
BRANCH  11  12
ATOM     12  C   UNL     1       4.640 -37.049  20.952  1.00  0.00     0.000 C 
BRANCH  12  13
ATOM     13  C   UNL     1       3.154 -36.981  20.567  1.00  0.00     0.006 C 
BRANCH  13  14
ATOM     14  C   UNL     1       2.930 -37.511  19.145  1.00  0.00     0.053 C 
BRANCH  14  15
ATOM     15  C   UNL     1       1.515 -37.961  18.930  1.00  0.00     0.041 C 
ATOM     16  O   UNL     1       0.629 -37.144  18.557  1.00  0.00    -0.550 OA
ATOM     17  O   UNL     1       1.159 -39.275  19.211  1.00  0.00    -0.550 OA
ENDBRANCH  14  15
ENDBRANCH  13  14
ENDBRANCH  12  13
ENDBRANCH  11  12
ENDBRANCH  10  11
ENDBRANCH   9  10
ENDBRANCH   8   9
ENDBRANCH   7   8
ENDBRANCH   6   7
ENDBRANCH   5   6
ENDBRANCH   4   5
ENDBRANCH   3   4
ENDBRANCH   2   3
ENDBRANCH   1   2
BRANCH   1  18
ATOM     18  C   UNL     1       5.948 -35.869  23.842  1.00  0.00     0.000 C 
BRANCH  18  19
ATOM     19  C   UNL     1       6.116 -34.363  23.549  1.00  0.00     0.000 C 
BRANCH  19  20
ATOM     20  C   UNL     1       5.254 -33.811  22.399  1.00  0.00     0.000 C 
BRANCH  20  21
ATOM     21  C   UNL     1       6.077 -33.446  21.152  1.00  0.00     0.000 C 
BRANCH  21  22
ATOM     22  C   UNL     1       6.045 -34.547  20.078  1.00  0.00     0.000 C 
BRANCH  22  23
ATOM     23  C   UNL     1       6.104 -34.044  18.623  1.00  0.00     0.000 C 
BRANCH  23  24
ATOM     24  C   UNL     1       5.431 -34.965  17.584  1.00  0.00    -0.000 C 
BRANCH  24  25
ATOM     25  C   UNL     1       3.892 -34.975  17.621  1.00  0.00    -0.000 C 
BRANCH  25  26
ATOM     26  C   UNL     1       3.210 -35.088  16.245  1.00  0.00    -0.000 C 
BRANCH  26  27
ATOM     27  C   UNL     1       1.784 -35.681  16.299  1.00  0.00    -0.000 C 
BRANCH  27  28
ATOM     28  C   UNL     1       1.592 -36.857  15.326  1.00  0.00    -0.000 C 
BRANCH  28  29
ATOM     29  C   UNL     1       2.237 -36.590  13.948  1.00  0.00    -0.000 C 
BRANCH  29  30
ATOM     30  C   UNL     1       3.725 -36.982  13.877  1.00  0.00    -0.000 C 
BRANCH  30  31
ATOM     31  C   UNL     1       4.189 -37.943  14.984  1.00  0.00    -0.003 C 
ATOM     32  C   UNL     1       4.667 -39.289  14.440  1.00  0.00     0.004 C 
ENDBRANCH  30  31
ENDBRANCH  29  30
ENDBRANCH  28  29
ENDBRANCH  27  28
ENDBRANCH  26  27
ENDBRANCH  25  26
ENDBRANCH  24  25
ENDBRANCH  23  24
ENDBRANCH  22  23
ENDBRANCH  21  22
ENDBRANCH  20  21
ENDBRANCH  19  20
ENDBRANCH  18  19
ENDBRANCH   1  18
TORSDOF 28
ENDMDL
MODEL 3
REMARK VINA RESULT:     6.498      4.148      9.018
REMARK INTER + INTRA:          16.166
REMARK INTER:                  17.657
REMARK INTRA:                  -1.492
REMARK UNBOUND:                -0.968
REMARK SMILES CCCCCCCCCCCCCCCCCCCCCCCCCCCCCC(=O)[O-]
REMARK SMILES IDX 16 1 17 2 18 3 19 4 20 5 21 6 22 7 23 8 24 9 25 10 26 11
REMARK SMILES IDX 27 12 28 13 29 14 30 15 31 16 32 17 15 18 14 19 13 20 12 21
REMARK SMILES IDX 11 22 10 23 9 24 8 25 7 26 6 27 5 28 4 29 3 30 2 31 1 32
REMARK H PARENT
REMARK Flexibility Score: inf
ROOT
ATOM      1  C   UNL     1       2.070 -38.208  19.020  1.00  0.00     0.000 C 
ENDROOT
BRANCH   1   2
ATOM      2  C   UNL     1       1.300 -37.106  19.768  1.00  0.00     0.000 C 
BRANCH   2   3
ATOM      3  C   UNL     1       2.006 -36.674  21.064  1.00  0.00     0.000 C 
BRANCH   3   4
ATOM      4  C   UNL     1       2.272 -35.160  21.120  1.00  0.00     0.000 C 
BRANCH   4   5
ATOM      5  C   UNL     1       3.747 -34.823  21.407  1.00  0.00     0.000 C 
BRANCH   5   6
ATOM      6  C   UNL     1       4.769 -35.674  20.633  1.00  0.00     0.000 C 
BRANCH   6   7
ATOM      7  C   UNL     1       6.054 -34.902  20.285  1.00  0.00     0.000 C 
BRANCH   7   8
ATOM      8  C   UNL     1       5.978 -34.235  18.896  1.00  0.00     0.000 C 
BRANCH   8   9
ATOM      9  C   UNL     1       5.407 -35.151  17.801  1.00  0.00     0.000 C 
BRANCH   9  10
ATOM     10  C   UNL     1       3.956 -34.813  17.434  1.00  0.00     0.000 C 
BRANCH  10  11
ATOM     11  C   UNL     1       3.238 -36.040  16.853  1.00  0.00     0.000 C 
BRANCH  11  12
ATOM     12  C   UNL     1       2.111 -35.664  15.878  1.00  0.00     0.000 C 
BRANCH  12  13
ATOM     13  C   UNL     1       2.018 -36.621  14.680  1.00  0.00     0.006 C 
BRANCH  13  14
ATOM     14  C   UNL     1       3.346 -36.671  13.912  1.00  0.00     0.053 C 
BRANCH  14  15
ATOM     15  C   UNL     1       4.217 -37.803  14.370  1.00  0.00     0.041 C 
ATOM     16  O   UNL     1       3.810 -38.616  15.245  1.00  0.00    -0.550 OA
ATOM     17  O   UNL     1       5.512 -37.919  13.879  1.00  0.00    -0.550 OA
ENDBRANCH  14  15
ENDBRANCH  13  14
ENDBRANCH  12  13
ENDBRANCH  11  12
ENDBRANCH  10  11
ENDBRANCH   9  10
ENDBRANCH   8   9
ENDBRANCH   7   8
ENDBRANCH   6   7
ENDBRANCH   5   6
ENDBRANCH   4   5
ENDBRANCH   3   4
ENDBRANCH   2   3
ENDBRANCH   1   2
BRANCH   1  18
ATOM     18  C   UNL     1       3.212 -38.814  19.854  1.00  0.00     0.000 C 
BRANCH  18  19
ATOM     19  C   UNL     1       4.580 -38.112  19.720  1.00  0.00     0.000 C 
BRANCH  19  20
ATOM     20  C   UNL     1       5.727 -38.732  20.541  1.00  0.00     0.000 C 
BRANCH  20  21
ATOM     21  C   UNL     1       5.265 -39.277  21.903  1.00  0.00     0.000 C 
BRANCH  21  22
ATOM     22  C   UNL     1       6.016 -38.635  23.083  1.00  0.00     0.000 C 
BRANCH  22  23
ATOM     23  C   UNL     1       6.025 -37.094  23.092  1.00  0.00     0.000 C 
BRANCH  23  24
ATOM     24  C   UNL     1       5.030 -36.440  24.072  1.00  0.00    -0.000 C 
BRANCH  24  25
ATOM     25  C   UNL     1       5.467 -36.450  25.548  1.00  0.00    -0.000 C 
BRANCH  25  26
ATOM     26  C   UNL     1       4.602 -37.324  26.476  1.00  0.00    -0.000 C 
BRANCH  26  27
ATOM     27  C   UNL     1       3.306 -37.845  25.816  1.00  0.00    -0.000 C 
BRANCH  27  28
ATOM     28  C   UNL     1       2.108 -37.852  26.783  1.00  0.00    -0.000 C 
BRANCH  28  29
ATOM     29  C   UNL     1       2.347 -36.959  28.019  1.00  0.00    -0.000 C 
BRANCH  29  30
ATOM     30  C   UNL     1       1.691 -35.569  27.912  1.00  0.00    -0.000 C 
BRANCH  30  31
ATOM     31  C   UNL     1       1.899 -34.665  29.139  1.00  0.00    -0.003 C 
ATOM     32  C   UNL     1       0.617 -33.958  29.578  1.00  0.00     0.004 C 
ENDBRANCH  30  31
ENDBRANCH  29  30
ENDBRANCH  28  29
ENDBRANCH  27  28
ENDBRANCH  26  27
ENDBRANCH  25  26
ENDBRANCH  24  25
ENDBRANCH  23  24
ENDBRANCH  22  23
ENDBRANCH  21  22
ENDBRANCH  20  21
ENDBRANCH  19  20
ENDBRANCH  18  19
ENDBRANCH   1  18
TORSDOF 28
ENDMDL
MODEL 4
REMARK VINA RESULT:     6.900      0.961      2.383
REMARK INTER + INTRA:          17.227
REMARK INTER:                  17.456
REMARK INTRA:                  -0.229
REMARK UNBOUND:                -0.968
REMARK SMILES CCCCCCCCCCCCCCCCCCCCCCCCCCCCCC(=O)[O-]
REMARK SMILES IDX 16 1 17 2 18 3 19 4 20 5 21 6 22 7 23 8 24 9 25 10 26 11
REMARK SMILES IDX 27 12 28 13 29 14 30 15 31 16 32 17 15 18 14 19 13 20 12 21
REMARK SMILES IDX 11 22 10 23 9 24 8 25 7 26 6 27 5 28 4 29 3 30 2 31 1 32
REMARK H PARENT
REMARK Flexibility Score: inf
ROOT
ATOM      1  C   UNL     1       1.905 -35.845  21.004  1.00  0.00     0.000 C 
ENDROOT
BRANCH   1   2
ATOM      2  C   UNL     1       3.055 -35.136  21.740  1.00  0.00     0.000 C 
BRANCH   2   3
ATOM      3  C   UNL     1       4.421 -35.399  21.085  1.00  0.00     0.000 C 
BRANCH   3   4
ATOM      4  C   UNL     1       5.599 -34.964  21.971  1.00  0.00     0.000 C 
BRANCH   4   5
ATOM      5  C   UNL     1       5.153 -34.153  23.202  1.00  0.00     0.000 C 
BRANCH   5   6
ATOM      6  C   UNL     1       5.769 -34.610  24.537  1.00  0.00     0.000 C 
BRANCH   6   7
ATOM      7  C   UNL     1       6.124 -36.107  24.554  1.00  0.00     0.000 C 
BRANCH   7   8
ATOM      8  C   UNL     1       5.635 -36.810  25.837  1.00  0.00     0.000 C 
BRANCH   8   9
ATOM      9  C   UNL     1       4.969 -38.172  25.581  1.00  0.00     0.000 C 
BRANCH   9  10
ATOM     10  C   UNL     1       3.684 -38.373  26.396  1.00  0.00     0.000 C 
BRANCH  10  11
ATOM     11  C   UNL     1       3.032 -37.023  26.733  1.00  0.00     0.000 C 
BRANCH  11  12
ATOM     12  C   UNL     1       1.920 -37.146  27.786  1.00  0.00     0.000 C 
BRANCH  12  13
ATOM     13  C   UNL     1       1.195 -35.816  28.041  1.00  0.00     0.006 C 
BRANCH  13  14
ATOM     14  C   UNL     1       1.981 -34.941  29.027  1.00  0.00     0.053 C 
BRANCH  14  15
ATOM     15  C   UNL     1       1.087 -33.996  29.775  1.00  0.00     0.041 C 
ATOM     16  O   UNL     1       1.382 -33.619  30.941  1.00  0.00    -0.550 OA
ATOM     17  O   UNL     1      -0.114 -33.587  29.206  1.00  0.00    -0.550 OA
ENDBRANCH  14  15
ENDBRANCH  13  14
ENDBRANCH  12  13
ENDBRANCH  11  12
ENDBRANCH  10  11
ENDBRANCH   9  10
ENDBRANCH   8   9
ENDBRANCH   7   8
ENDBRANCH   6   7
ENDBRANCH   5   6
ENDBRANCH   4   5
ENDBRANCH   3   4
ENDBRANCH   2   3
ENDBRANCH   1   2
BRANCH   1  18
ATOM     18  C   UNL     1       2.373 -37.067  20.195  1.00  0.00     0.000 C 
BRANCH  18  19
ATOM     19  C   UNL     1       1.250 -37.920  19.566  1.00  0.00     0.000 C 
BRANCH  19  20
ATOM     20  C   UNL     1       1.163 -37.871  18.029  1.00  0.00     0.000 C 
BRANCH  20  21
ATOM     21  C   UNL     1       0.933 -36.451  17.485  1.00  0.00     0.000 C 
BRANCH  21  22
ATOM     22  C   UNL     1       1.374 -36.300  16.018  1.00  0.00     0.000 C 
BRANCH  22  23
ATOM     23  C   UNL     1       2.579 -37.168  15.606  1.00  0.00     0.000 C 
BRANCH  23  24
ATOM     24  C   UNL     1       3.924 -36.764  16.245  1.00  0.00    -0.000 C 
BRANCH  24  25
ATOM     25  C   UNL     1       3.938 -35.379  16.916  1.00  0.00    -0.000 C 
BRANCH  25  26
ATOM     26  C   UNL     1       4.374 -35.377  18.393  1.00  0.00    -0.000 C 
BRANCH  26  27
ATOM     27  C   UNL     1       5.652 -36.199  18.670  1.00  0.00    -0.000 C 
BRANCH  27  28
ATOM     28  C   UNL     1       5.350 -37.666  19.024  1.00  0.00    -0.000 C 
BRANCH  28  29
ATOM     29  C   UNL     1       5.758 -38.015  20.472  1.00  0.00    -0.000 C 
BRANCH  29  30
ATOM     30  C   UNL     1       5.558 -39.501  20.827  1.00  0.00    -0.000 C 
BRANCH  30  31
ATOM     31  C   UNL     1       5.393 -39.785  22.329  1.00  0.00    -0.003 C 
ATOM     32  C   UNL     1       6.125 -41.051  22.777  1.00  0.00     0.004 C 
ENDBRANCH  30  31
ENDBRANCH  29  30
ENDBRANCH  28  29
ENDBRANCH  27  28
ENDBRANCH  26  27
ENDBRANCH  25  26
ENDBRANCH  24  25
ENDBRANCH  23  24
ENDBRANCH  22  23
ENDBRANCH  21  22
ENDBRANCH  20  21
ENDBRANCH  19  20
ENDBRANCH  18  19
ENDBRANCH   1  18
TORSDOF 28
ENDMDL
MODEL 5
REMARK VINA RESULT:     7.183      1.067      2.923
REMARK INTER + INTRA:          17.973
REMARK INTER:                  18.552
REMARK INTRA:                  -0.579
REMARK UNBOUND:                -0.968
REMARK SMILES CCCCCCCCCCCCCCCCCCCCCCCCCCCCCC(=O)[O-]
REMARK SMILES IDX 16 1 17 2 18 3 19 4 20 5 21 6 22 7 23 8 24 9 25 10 26 11
REMARK SMILES IDX 27 12 28 13 29 14 30 15 31 16 32 17 15 18 14 19 13 20 12 21
REMARK SMILES IDX 11 22 10 23 9 24 8 25 7 26 6 27 5 28 4 29 3 30 2 31 1 32
REMARK H PARENT
REMARK Flexibility Score: inf
ROOT
ATOM      1  C   UNL     1       5.724 -34.542  20.025  1.00  0.00     0.000 C 
ENDROOT
BRANCH   1   2
ATOM      2  C   UNL     1       5.953 -35.987  20.499  1.00  0.00     0.000 C 
BRANCH   2   3
ATOM      3  C   UNL     1       5.377 -37.024  19.519  1.00  0.00     0.000 C 
BRANCH   3   4
ATOM      4  C   UNL     1       5.459 -38.461  20.058  1.00  0.00     0.000 C 
BRANCH   4   5
ATOM      5  C   UNL     1       5.965 -38.527  21.511  1.00  0.00     0.000 C 
BRANCH   5   6
ATOM      6  C   UNL     1       5.384 -39.681  22.348  1.00  0.00     0.000 C 
BRANCH   6   7
ATOM      7  C   UNL     1       5.316 -39.359  23.851  1.00  0.00     0.000 C 
BRANCH   7   8
ATOM      8  C   UNL     1       6.038 -38.041  24.200  1.00  0.00     0.000 C 
BRANCH   8   9
ATOM      9  C   UNL     1       5.268 -37.159  25.196  1.00  0.00     0.000 C 
BRANCH   9  10
ATOM     10  C   UNL     1       4.011 -37.840  25.752  1.00  0.00     0.000 C 
BRANCH  10  11
ATOM     11  C   UNL     1       3.480 -37.091  26.983  1.00  0.00     0.000 C 
BRANCH  11  12
ATOM     12  C   UNL     1       1.992 -37.364  27.250  1.00  0.00     0.000 C 
BRANCH  12  13
ATOM     13  C   UNL     1       1.229 -36.108  27.698  1.00  0.00     0.006 C 
BRANCH  13  14
ATOM     14  C   UNL     1       2.136 -35.175  28.512  1.00  0.00     0.053 C 
BRANCH  14  15
ATOM     15  C   UNL     1       1.361 -34.377  29.518  1.00  0.00     0.041 C 
ATOM     16  O   UNL     1       1.913 -33.964  30.575  1.00  0.00    -0.550 OA
ATOM     17  O   UNL     1       0.004 -34.149  29.321  1.00  0.00    -0.550 OA
ENDBRANCH  14  15
ENDBRANCH  13  14
ENDBRANCH  12  13
ENDBRANCH  11  12
ENDBRANCH  10  11
ENDBRANCH   9  10
ENDBRANCH   8   9
ENDBRANCH   7   8
ENDBRANCH   6   7
ENDBRANCH   5   6
ENDBRANCH   4   5
ENDBRANCH   3   4
ENDBRANCH   2   3
ENDBRANCH   1   2
BRANCH   1  18
ATOM     18  C   UNL     1       5.600 -34.423  18.496  1.00  0.00     0.000 C 
BRANCH  18  19
ATOM     19  C   UNL     1       4.203 -34.733  17.916  1.00  0.00     0.000 C 
BRANCH  19  20
ATOM     20  C   UNL     1       4.180 -35.162  16.437  1.00  0.00     0.000 C 
BRANCH  20  21
ATOM     21  C   UNL     1       2.768 -35.140  15.825  1.00  0.00     0.000 C 
BRANCH  21  22
ATOM     22  C   UNL     1       2.686 -35.916  14.499  1.00  0.00     0.000 C 
BRANCH  22  23
ATOM     23  C   UNL     1       3.706 -37.059  14.346  1.00  0.00     0.000 C 
BRANCH  23  24
ATOM     24  C   UNL     1       3.536 -38.224  15.342  1.00  0.00    -0.000 C 
BRANCH  24  25
ATOM     25  C   UNL     1       2.355 -38.081  16.318  1.00  0.00    -0.000 C 
BRANCH  25  26
ATOM     26  C   UNL     1       2.748 -37.749  17.770  1.00  0.00    -0.000 C 
BRANCH  26  27
ATOM     27  C   UNL     1       1.736 -38.251  18.824  1.00  0.00    -0.000 C 
BRANCH  27  28
ATOM     28  C   UNL     1       0.982 -37.102  19.518  1.00  0.00    -0.000 C 
BRANCH  28  29
ATOM     29  C   UNL     1       1.497 -36.844  20.950  1.00  0.00    -0.000 C 
BRANCH  29  30
ATOM     30  C   UNL     1       2.806 -36.034  20.998  1.00  0.00    -0.000 C 
BRANCH  30  31
ATOM     31  C   UNL     1       2.703 -34.691  21.741  1.00  0.00    -0.003 C 
ATOM     32  C   UNL     1       3.905 -34.421  22.647  1.00  0.00     0.004 C 
ENDBRANCH  30  31
ENDBRANCH  29  30
ENDBRANCH  28  29
ENDBRANCH  27  28
ENDBRANCH  26  27
ENDBRANCH  25  26
ENDBRANCH  24  25
ENDBRANCH  23  24
ENDBRANCH  22  23
ENDBRANCH  21  22
ENDBRANCH  20  21
ENDBRANCH  19  20
ENDBRANCH  18  19
ENDBRANCH   1  18
TORSDOF 28
ENDMDL
MODEL 6
REMARK VINA RESULT:     7.236      1.138      4.413
REMARK INTER + INTRA:          18.112
REMARK INTER:                  18.310
REMARK INTRA:                  -0.198
REMARK UNBOUND:                -0.968
REMARK SMILES CCCCCCCCCCCCCCCCCCCCCCCCCCCCCC(=O)[O-]
REMARK SMILES IDX 16 1 17 2 18 3 19 4 20 5 21 6 22 7 23 8 24 9 25 10 26 11
REMARK SMILES IDX 27 12 28 13 29 14 30 15 31 16 32 17 15 18 14 19 13 20 12 21
REMARK SMILES IDX 11 22 10 23 9 24 8 25 7 26 6 27 5 28 4 29 3 30 2 31 1 32
REMARK H PARENT
REMARK Flexibility Score: inf
ROOT
ATOM      1  C   UNL     1       5.635 -37.042  22.283  1.00  0.00     0.000 C 
ENDROOT
BRANCH   1   2
ATOM      2  C   UNL     1       6.104 -37.045  20.818  1.00  0.00     0.000 C 
BRANCH   2   3
ATOM      3  C   UNL     1       5.723 -38.341  20.083  1.00  0.00     0.000 C 
BRANCH   3   4
ATOM      4  C   UNL     1       5.083 -39.386  21.012  1.00  0.00     0.000 C 
BRANCH   4   5
ATOM      5  C   UNL     1       6.123 -40.269  21.726  1.00  0.00     0.000 C 
BRANCH   5   6
ATOM      6  C   UNL     1       5.560 -41.149  22.857  1.00  0.00     0.000 C 
BRANCH   6   7
ATOM      7  C   UNL     1       5.678 -40.494  24.244  1.00  0.00     0.000 C 
BRANCH   7   8
ATOM      8  C   UNL     1       4.761 -39.262  24.389  1.00  0.00     0.000 C 
BRANCH   8   9
ATOM      9  C   UNL     1       5.252 -38.246  25.433  1.00  0.00     0.000 C 
BRANCH   9  10
ATOM     10  C   UNL     1       4.116 -37.399  26.024  1.00  0.00     0.000 C 
BRANCH  10  11
ATOM     11  C   UNL     1       3.049 -38.291  26.675  1.00  0.00     0.000 C 
BRANCH  11  12
ATOM     12  C   UNL     1       1.858 -37.489  27.223  1.00  0.00     0.000 C 
BRANCH  12  13
ATOM     13  C   UNL     1       2.279 -36.146  27.839  1.00  0.00     0.006 C 
BRANCH  13  14
ATOM     14  C   UNL     1       1.069 -35.219  28.016  1.00  0.00     0.053 C 
BRANCH  14  15
ATOM     15  C   UNL     1       1.210 -34.336  29.221  1.00  0.00     0.041 C 
ATOM     16  O   UNL     1       2.320 -34.220  29.808  1.00  0.00    -0.550 OA
ATOM     17  O   UNL     1       0.092 -33.694  29.739  1.00  0.00    -0.550 OA
ENDBRANCH  14  15
ENDBRANCH  13  14
ENDBRANCH  12  13
ENDBRANCH  11  12
ENDBRANCH  10  11
ENDBRANCH   9  10
ENDBRANCH   8   9
ENDBRANCH   7   8
ENDBRANCH   6   7
ENDBRANCH   5   6
ENDBRANCH   4   5
ENDBRANCH   3   4
ENDBRANCH   2   3
ENDBRANCH   1   2
BRANCH   1  18
ATOM     18  C   UNL     1       5.977 -35.734  23.019  1.00  0.00     0.000 C 
BRANCH  18  19
ATOM     19  C   UNL     1       5.041 -34.542  22.726  1.00  0.00     0.000 C 
BRANCH  19  20
ATOM     20  C   UNL     1       3.903 -34.822  21.726  1.00  0.00     0.000 C 
BRANCH  20  21
ATOM     21  C   UNL     1       4.131 -34.161  20.355  1.00  0.00     0.000 C 
BRANCH  21  22
ATOM     22  C   UNL     1       5.410 -34.663  19.661  1.00  0.00     0.000 C 
BRANCH  22  23
ATOM     23  C   UNL     1       5.463 -34.428  18.140  1.00  0.00     0.000 C 
BRANCH  23  24
ATOM     24  C   UNL     1       4.216 -34.897  17.362  1.00  0.00    -0.000 C 
BRANCH  24  25
ATOM     25  C   UNL     1       3.896 -36.397  17.485  1.00  0.00    -0.000 C 
BRANCH  25  26
ATOM     26  C   UNL     1       3.825 -37.158  16.148  1.00  0.00    -0.000 C 
BRANCH  26  27
ATOM     27  C   UNL     1       2.448 -37.073  15.451  1.00  0.00    -0.000 C 
BRANCH  27  28
ATOM     28  C   UNL     1       1.568 -35.941  16.011  1.00  0.00    -0.000 C 
BRANCH  28  29
ATOM     29  C   UNL     1       1.048 -36.250  17.432  1.00  0.00    -0.000 C 
BRANCH  29  30
ATOM     30  C   UNL     1       0.720 -37.738  17.658  1.00  0.00    -0.000 C 
BRANCH  30  31
ATOM     31  C   UNL     1       1.105 -38.275  19.047  1.00  0.00    -0.003 C 
ATOM     32  C   UNL     1       2.268 -37.509  19.678  1.00  0.00     0.004 C 
ENDBRANCH  30  31
ENDBRANCH  29  30
ENDBRANCH  28  29
ENDBRANCH  27  28
ENDBRANCH  26  27
ENDBRANCH  25  26
ENDBRANCH  24  25
ENDBRANCH  23  24
ENDBRANCH  22  23
ENDBRANCH  21  22
ENDBRANCH  20  21
ENDBRANCH  19  20
ENDBRANCH  18  19
ENDBRANCH   1  18
TORSDOF 28
ENDMDL
MODEL 7
REMARK VINA RESULT:     7.297      2.929      8.823
REMARK INTER + INTRA:          18.272
REMARK INTER:                  18.345
REMARK INTRA:                  -0.073
REMARK UNBOUND:                -0.968
REMARK SMILES CCCCCCCCCCCCCCCCCCCCCCCCCCCCCC(=O)[O-]
REMARK SMILES IDX 16 1 17 2 18 3 19 4 20 5 21 6 22 7 23 8 24 9 25 10 26 11
REMARK SMILES IDX 27 12 28 13 29 14 30 15 31 16 32 17 15 18 14 19 13 20 12 21
REMARK SMILES IDX 11 22 10 23 9 24 8 25 7 26 6 27 5 28 4 29 3 30 2 31 1 32
REMARK H PARENT
REMARK Flexibility Score: inf
ROOT
ATOM      1  C   UNL     1       4.029 -36.601  21.131  1.00  0.00     0.000 C 
ENDROOT
BRANCH   1   2
ATOM      2  C   UNL     1       4.808 -36.685  19.807  1.00  0.00     0.000 C 
BRANCH   2   3
ATOM      3  C   UNL     1       6.006 -35.721  19.769  1.00  0.00     0.000 C 
BRANCH   3   4
ATOM      4  C   UNL     1       5.823 -34.585  18.749  1.00  0.00     0.000 C 
BRANCH   4   5
ATOM      5  C   UNL     1       4.377 -34.474  18.232  1.00  0.00     0.000 C 
BRANCH   5   6
ATOM      6  C   UNL     1       4.155 -35.012  16.806  1.00  0.00     0.000 C 
BRANCH   6   7
ATOM      7  C   UNL     1       2.707 -34.838  16.316  1.00  0.00     0.000 C 
BRANCH   7   8
ATOM      8  C   UNL     1       2.267 -35.977  15.374  1.00  0.00     0.000 C 
BRANCH   8   9
ATOM      9  C   UNL     1       3.253 -36.246  14.226  1.00  0.00     0.000 C 
BRANCH   9  10
ATOM     10  C   UNL     1       4.007 -37.574  14.383  1.00  0.00     0.000 C 
BRANCH  10  11
ATOM     11  C   UNL     1       3.435 -38.394  15.549  1.00  0.00     0.000 C 
BRANCH  11  12
ATOM     12  C   UNL     1       3.920 -37.897  16.920  1.00  0.00     0.000 C 
BRANCH  12  13
ATOM     13  C   UNL     1       2.930 -38.217  18.051  1.00  0.00     0.006 C 
BRANCH  13  14
ATOM     14  C   UNL     1       1.758 -37.227  18.053  1.00  0.00     0.053 C 
BRANCH  14  15
ATOM     15  C   UNL     1       0.661 -37.658  18.980  1.00  0.00     0.041 C 
ATOM     16  O   UNL     1      -0.258 -38.424  18.578  1.00  0.00    -0.550 OA
ATOM     17  O   UNL     1       0.614 -37.155  20.275  1.00  0.00    -0.550 OA
ENDBRANCH  14  15
ENDBRANCH  13  14
ENDBRANCH  12  13
ENDBRANCH  11  12
ENDBRANCH  10  11
ENDBRANCH   9  10
ENDBRANCH   8   9
ENDBRANCH   7   8
ENDBRANCH   6   7
ENDBRANCH   5   6
ENDBRANCH   4   5
ENDBRANCH   3   4
ENDBRANCH   2   3
ENDBRANCH   1   2
BRANCH   1  18
ATOM     18  C   UNL     1       3.303 -35.256  21.315  1.00  0.00     0.000 C 
BRANCH  18  19
ATOM     19  C   UNL     1       3.791 -34.393  22.497  1.00  0.00     0.000 C 
BRANCH  19  20
ATOM     20  C   UNL     1       5.169 -33.731  22.310  1.00  0.00     0.000 C 
BRANCH  20  21
ATOM     21  C   UNL     1       6.125 -33.987  23.488  1.00  0.00     0.000 C 
BRANCH  21  22
ATOM     22  C   UNL     1       5.951 -35.390  24.097  1.00  0.00     0.000 C 
BRANCH  22  23
ATOM     23  C   UNL     1       6.046 -35.452  25.633  1.00  0.00     0.000 C 
BRANCH  23  24
ATOM     24  C   UNL     1       5.538 -36.763  26.267  1.00  0.00    -0.000 C 
BRANCH  24  25
ATOM     25  C   UNL     1       4.437 -37.488  25.473  1.00  0.00    -0.000 C 
BRANCH  25  26
ATOM     26  C   UNL     1       3.623 -38.516  26.281  1.00  0.00    -0.000 C 
BRANCH  26  27
ATOM     27  C   UNL     1       2.562 -37.884  27.210  1.00  0.00    -0.000 C 
BRANCH  27  28
ATOM     28  C   UNL     1       2.501 -36.351  27.086  1.00  0.00    -0.000 C 
BRANCH  28  29
ATOM     29  C   UNL     1       1.410 -35.732  27.986  1.00  0.00    -0.000 C 
BRANCH  29  30
ATOM     30  C   UNL     1       1.971 -34.852  29.120  1.00  0.00    -0.000 C 
BRANCH  30  31
ATOM     31  C   UNL     1       1.042 -33.710  29.565  1.00  0.00    -0.003 C 
ATOM     32  C   UNL     1      -0.418 -33.947  29.175  1.00  0.00     0.004 C 
ENDBRANCH  30  31
ENDBRANCH  29  30
ENDBRANCH  28  29
ENDBRANCH  27  28
ENDBRANCH  26  27
ENDBRANCH  25  26
ENDBRANCH  24  25
ENDBRANCH  23  24
ENDBRANCH  22  23
ENDBRANCH  21  22
ENDBRANCH  20  21
ENDBRANCH  19  20
ENDBRANCH  18  19
ENDBRANCH   1  18
TORSDOF 28
ENDMDL
MODEL 8
REMARK VINA RESULT:     7.323      1.294      4.707
REMARK INTER + INTRA:          18.342
REMARK INTER:                  19.157
REMARK INTRA:                  -0.815
REMARK UNBOUND:                -0.968
REMARK SMILES CCCCCCCCCCCCCCCCCCCCCCCCCCCCCC(=O)[O-]
REMARK SMILES IDX 16 1 17 2 18 3 19 4 20 5 21 6 22 7 23 8 24 9 25 10 26 11
REMARK SMILES IDX 27 12 28 13 29 14 30 15 31 16 32 17 15 18 14 19 13 20 12 21
REMARK SMILES IDX 11 22 10 23 9 24 8 25 7 26 6 27 5 28 4 29 3 30 2 31 1 32
REMARK H PARENT
REMARK Flexibility Score: inf
ROOT
ATOM      1  C   UNL     1       5.191 -36.477  22.647  1.00  0.00     0.000 C 
ENDROOT
BRANCH   1   2
ATOM      2  C   UNL     1       6.063 -36.780  21.416  1.00  0.00     0.000 C 
BRANCH   2   3
ATOM      3  C   UNL     1       5.556 -37.996  20.623  1.00  0.00     0.000 C 
BRANCH   3   4
ATOM      4  C   UNL     1       5.090 -39.146  21.530  1.00  0.00     0.000 C 
BRANCH   4   5
ATOM      5  C   UNL     1       6.125 -40.281  21.636  1.00  0.00     0.000 C 
BRANCH   5   6
ATOM      6  C   UNL     1       5.749 -41.412  22.611  1.00  0.00     0.000 C 
BRANCH   6   7
ATOM      7  C   UNL     1       5.686 -40.947  24.076  1.00  0.00     0.000 C 
BRANCH   7   8
ATOM      8  C   UNL     1       5.097 -39.527  24.214  1.00  0.00     0.000 C 
BRANCH   8   9
ATOM      9  C   UNL     1       5.190 -38.955  25.637  1.00  0.00     0.000 C 
BRANCH   9  10
ATOM     10  C   UNL     1       4.719 -37.497  25.727  1.00  0.00     0.000 C 
BRANCH  10  11
ATOM     11  C   UNL     1       3.462 -37.380  26.602  1.00  0.00     0.000 C 
BRANCH  11  12
ATOM     12  C   UNL     1       2.978 -35.930  26.758  1.00  0.00     0.000 C 
BRANCH  12  13
ATOM     13  C   UNL     1       1.837 -35.791  27.778  1.00  0.00     0.006 C 
BRANCH  13  14
ATOM     14  C   UNL     1       2.272 -34.934  28.974  1.00  0.00     0.053 C 
BRANCH  14  15
ATOM     15  C   UNL     1       1.101 -34.299  29.665  1.00  0.00     0.041 C 
ATOM     16  O   UNL     1       1.216 -33.834  30.831  1.00  0.00    -0.550 OA
ATOM     17  O   UNL     1      -0.143 -34.286  29.043  1.00  0.00    -0.550 OA
ENDBRANCH  14  15
ENDBRANCH  13  14
ENDBRANCH  12  13
ENDBRANCH  11  12
ENDBRANCH  10  11
ENDBRANCH   9  10
ENDBRANCH   8   9
ENDBRANCH   7   8
ENDBRANCH   6   7
ENDBRANCH   5   6
ENDBRANCH   4   5
ENDBRANCH   3   4
ENDBRANCH   2   3
ENDBRANCH   1   2
BRANCH   1  18
ATOM     18  C   UNL     1       5.317 -35.021  23.128  1.00  0.00     0.000 C 
BRANCH  18  19
ATOM     19  C   UNL     1       4.203 -34.064  22.652  1.00  0.00     0.000 C 
BRANCH  19  20
ATOM     20  C   UNL     1       3.395 -34.542  21.431  1.00  0.00     0.000 C 
BRANCH  20  21
ATOM     21  C   UNL     1       3.874 -33.915  20.110  1.00  0.00     0.000 C 
BRANCH  21  22
ATOM     22  C   UNL     1       5.354 -34.217  19.813  1.00  0.00     0.000 C 
BRANCH  22  23
ATOM     23  C   UNL     1       5.657 -34.633  18.361  1.00  0.00     0.000 C 
BRANCH  23  24
ATOM     24  C   UNL     1       4.556 -35.470  17.677  1.00  0.00    -0.000 C 
BRANCH  24  25
ATOM     25  C   UNL     1       3.969 -36.603  18.538  1.00  0.00    -0.000 C 
BRANCH  25  26
ATOM     26  C   UNL     1       2.999 -37.545  17.799  1.00  0.00    -0.000 C 
BRANCH  26  27
ATOM     27  C   UNL     1       1.618 -36.917  17.506  1.00  0.00    -0.000 C 
BRANCH  27  28
ATOM     28  C   UNL     1       1.630 -36.007  16.265  1.00  0.00    -0.000 C 
BRANCH  28  29
ATOM     29  C   UNL     1       2.102 -36.750  14.996  1.00  0.00    -0.000 C 
BRANCH  29  30
ATOM     30  C   UNL     1       3.462 -36.261  14.463  1.00  0.00    -0.000 C 
BRANCH  30  31
ATOM     31  C   UNL     1       4.356 -37.365  13.875  1.00  0.00    -0.003 C 
ATOM     32  C   UNL     1       4.067 -38.742  14.472  1.00  0.00     0.004 C 
ENDBRANCH  30  31
ENDBRANCH  29  30
ENDBRANCH  28  29
ENDBRANCH  27  28
ENDBRANCH  26  27
ENDBRANCH  25  26
ENDBRANCH  24  25
ENDBRANCH  23  24
ENDBRANCH  22  23
ENDBRANCH  21  22
ENDBRANCH  20  21
ENDBRANCH  19  20
ENDBRANCH  18  19
ENDBRANCH   1  18
TORSDOF 28
ENDMDL
