MODEL 1
REMARK VINA RESULT:    -6.549      0.000      0.000
REMARK INTER + INTRA:          -8.942
REMARK INTER:                  -8.272
REMARK INTRA:                  -0.669
REMARK UNBOUND:                -0.669
REMARK SMILES Oc1cc(O)cc(CCc2ccccc2O)c1
REMARK SMILES IDX 9 1 10 2 12 3 13 4 11 5 14 6 15 7 16 8 8 10 7 11 6 12 17 13
REMARK SMILES IDX 4 14 2 15 3 16 5 17 1 19
REMARK H PARENT 16 9 5 18 1 20
REMARK Flexibility Score: inf
ROOT
ATOM      1  C   UNL     1     -15.818  44.706  30.462  1.00  0.00     0.044 C 
ENDROOT
BRANCH   1   2
ATOM      2  C   UNL     1     -14.424  44.590  31.031  1.00  0.00    -0.006 A 
ATOM      3  C   UNL     1     -12.051  44.201  30.645  1.00  0.00     0.001 A 
ATOM      4  C   UNL     1     -11.801  44.324  32.011  1.00  0.00     0.004 A 
ATOM      5  C   UNL     1     -13.354  44.328  30.157  1.00  0.00     0.007 A 
ATOM      6  C   UNL     1     -12.855  44.567  32.894  1.00  0.00     0.046 A 
ATOM      7  C   UNL     1     -14.167  44.694  32.422  1.00  0.00     0.118 A 
BRANCH   7   8
ATOM      8  O   UNL     1     -15.181  44.913  33.357  1.00  0.00    -0.508 OA
ATOM      9  H   UNL     1     -15.730  45.761  33.399  1.00  0.00     0.293 HD
ENDBRANCH   7   8
ENDBRANCH   1   2
BRANCH   1  10
ATOM     10  C   UNL     1     -16.464  43.324  30.321  1.00  0.00     0.040 C 
BRANCH  10  11
ATOM     11  C   UNL     1     -17.333  43.023  31.513  1.00  0.00    -0.040 A 
ATOM     12  C   UNL     1     -18.326  43.931  31.914  1.00  0.00     0.050 A 
ATOM     13  C   UNL     1     -17.117  41.859  32.269  1.00  0.00     0.050 A 
ATOM     14  C   UNL     1     -19.112  43.667  33.044  1.00  0.00     0.119 A 
ATOM     15  C   UNL     1     -17.903  41.594  33.399  1.00  0.00     0.119 A 
ATOM     16  C   UNL     1     -18.900  42.498  33.781  1.00  0.00     0.092 A 
BRANCH  14  17
ATOM     17  O   UNL     1     -20.104  44.560  33.443  1.00  0.00    -0.508 OA
ATOM     18  H   UNL     1     -20.534  44.501  34.358  1.00  0.00     0.293 HD
ENDBRANCH  14  17
BRANCH  15  19
ATOM     19  O   UNL     1     -17.698  40.439  34.150  1.00  0.00    -0.508 OA
ATOM     20  H   UNL     1     -17.985  39.528  33.810  1.00  0.00     0.293 HD
ENDBRANCH  15  19
ENDBRANCH  10  11
ENDBRANCH   1  10
TORSDOF 6
ENDMDL
MODEL 2
REMARK VINA RESULT:    -6.491      0.082      2.031
REMARK INTER + INTRA:          -8.867
REMARK INTER:                  -8.213
REMARK INTRA:                  -0.654
REMARK UNBOUND:                -0.669
REMARK SMILES Oc1cc(O)cc(CCc2ccccc2O)c1
REMARK SMILES IDX 9 1 10 2 12 3 13 4 11 5 14 6 15 7 16 8 8 10 7 11 6 12 17 13
REMARK SMILES IDX 4 14 2 15 3 16 5 17 1 19
REMARK H PARENT 16 9 5 18 1 20
REMARK Flexibility Score: inf
ROOT
ATOM      1  C   UNL     1     -15.816  44.748  30.461  1.00  0.00     0.044 C 
ENDROOT
BRANCH   1   2
ATOM      2  C   UNL     1     -14.427  44.584  31.030  1.00  0.00    -0.006 A 
ATOM      3  C   UNL     1     -12.070  44.107  30.643  1.00  0.00     0.001 A 
ATOM      4  C   UNL     1     -11.815  44.226  32.009  1.00  0.00     0.004 A 
ATOM      5  C   UNL     1     -13.368  44.280  30.156  1.00  0.00     0.007 A 
ATOM      6  C   UNL     1     -12.858  44.510  32.892  1.00  0.00     0.046 A 
ATOM      7  C   UNL     1     -14.165  44.683  32.420  1.00  0.00     0.118 A 
BRANCH   7   8
ATOM      8  O   UNL     1     -15.169  44.943  33.355  1.00  0.00    -0.508 OA
ATOM      9  H   UNL     1     -15.696  45.806  33.387  1.00  0.00     0.293 HD
ENDBRANCH   7   8
ENDBRANCH   1   2
BRANCH   1  10
ATOM     10  C   UNL     1     -16.503  43.389  30.301  1.00  0.00     0.040 C 
BRANCH  10  11
ATOM     11  C   UNL     1     -17.320  43.061  31.522  1.00  0.00    -0.040 A 
ATOM     12  C   UNL     1     -17.127  41.845  32.197  1.00  0.00     0.050 A 
ATOM     13  C   UNL     1     -18.323  43.940  31.959  1.00  0.00     0.050 A 
ATOM     14  C   UNL     1     -17.911  41.524  33.314  1.00  0.00     0.119 A 
ATOM     15  C   UNL     1     -19.108  43.620  33.075  1.00  0.00     0.119 A 
ATOM     16  C   UNL     1     -18.897  42.414  33.751  1.00  0.00     0.092 A 
BRANCH  14  17
ATOM     17  O   UNL     1     -17.720  40.323  33.994  1.00  0.00    -0.508 OA
ATOM     18  H   UNL     1     -17.246  39.539  33.561  1.00  0.00     0.293 HD
ENDBRANCH  14  17
BRANCH  15  19
ATOM     19  O   UNL     1     -20.101  44.491  33.517  1.00  0.00    -0.508 OA
ATOM     20  H   UNL     1     -20.999  44.151  33.841  1.00  0.00     0.293 HD
ENDBRANCH  15  19
ENDBRANCH  10  11
ENDBRANCH   1  10
TORSDOF 6
ENDMDL
MODEL 3
REMARK VINA RESULT:    -6.369      1.608      5.682
REMARK INTER + INTRA:          -8.714
REMARK INTER:                  -8.180
REMARK INTRA:                  -0.534
REMARK UNBOUND:                -0.669
REMARK SMILES Oc1cc(O)cc(CCc2ccccc2O)c1
REMARK SMILES IDX 9 1 10 2 12 3 13 4 11 5 14 6 15 7 16 8 8 10 7 11 6 12 17 13
REMARK SMILES IDX 4 14 2 15 3 16 5 17 1 19
REMARK H PARENT 16 9 5 18 1 20
REMARK Flexibility Score: inf
ROOT
ATOM      1  C   UNL     1     -16.594  43.255  30.671  1.00  0.00     0.044 C 
ENDROOT
BRANCH   1   2
ATOM      2  C   UNL     1     -17.287  42.789  31.929  1.00  0.00    -0.006 A 
ATOM      3  C   UNL     1     -17.220  41.439  33.955  1.00  0.00     0.001 A 
ATOM      4  C   UNL     1     -18.516  41.841  34.274  1.00  0.00     0.004 A 
ATOM      5  C   UNL     1     -16.609  41.905  32.788  1.00  0.00     0.007 A 
ATOM      6  C   UNL     1     -19.209  42.704  33.423  1.00  0.00     0.046 A 
ATOM      7  C   UNL     1     -18.613  43.178  32.248  1.00  0.00     0.118 A 
BRANCH   7   8
ATOM      8  O   UNL     1     -19.364  44.020  31.426  1.00  0.00    -0.508 OA
ATOM      9  H   UNL     1     -19.546  43.833  30.449  1.00  0.00     0.293 HD
ENDBRANCH   7   8
ENDBRANCH   1   2
BRANCH   1  10
ATOM     10  C   UNL     1     -15.997  44.653  30.865  1.00  0.00     0.040 C 
BRANCH  10  11
ATOM     11  C   UNL     1     -14.607  44.561  31.434  1.00  0.00    -0.040 A 
ATOM     12  C   UNL     1     -13.515  44.284  30.595  1.00  0.00     0.050 A 
ATOM     13  C   UNL     1     -14.399  44.691  32.816  1.00  0.00     0.050 A 
ATOM     14  C   UNL     1     -12.224  44.165  31.130  1.00  0.00     0.119 A 
ATOM     15  C   UNL     1     -13.109  44.571  33.352  1.00  0.00     0.119 A 
ATOM     16  C   UNL     1     -12.026  44.312  32.506  1.00  0.00     0.092 A 
BRANCH  14  17
ATOM     17  O   UNL     1     -11.136  43.898  30.303  1.00  0.00    -0.508 OA
ATOM     18  H   UNL     1     -11.228  43.321  29.476  1.00  0.00     0.293 HD
ENDBRANCH  14  17
BRANCH  15  19
ATOM     19  O   UNL     1     -12.895  44.705  34.722  1.00  0.00    -0.508 OA
ATOM     20  H   UNL     1     -12.372  45.485  35.103  1.00  0.00     0.293 HD
ENDBRANCH  15  19
ENDBRANCH  10  11
ENDBRANCH   1  10
TORSDOF 6
ENDMDL
MODEL 4
REMARK VINA RESULT:    -6.347      1.610      5.636
REMARK INTER + INTRA:          -8.687
REMARK INTER:                  -8.148
REMARK INTRA:                  -0.539
REMARK UNBOUND:                -0.669
REMARK SMILES Oc1cc(O)cc(CCc2ccccc2O)c1
REMARK SMILES IDX 9 1 10 2 12 3 13 4 11 5 14 6 15 7 16 8 8 10 7 11 6 12 17 13
REMARK SMILES IDX 4 14 2 15 3 16 5 17 1 19
REMARK H PARENT 16 9 5 18 1 20
REMARK Flexibility Score: inf
ROOT
ATOM      1  C   UNL     1     -16.611  43.210  30.718  1.00  0.00     0.044 C 
ENDROOT
BRANCH   1   2
ATOM      2  C   UNL     1     -17.307  42.750  31.976  1.00  0.00    -0.006 A 
ATOM      3  C   UNL     1     -17.263  41.378  33.988  1.00  0.00     0.001 A 
ATOM      4  C   UNL     1     -18.545  41.813  34.321  1.00  0.00     0.004 A 
ATOM      5  C   UNL     1     -16.648  41.838  32.821  1.00  0.00     0.007 A 
ATOM      6  C   UNL     1     -19.219  42.704  33.485  1.00  0.00     0.046 A 
ATOM      7  C   UNL     1     -18.619  43.173  32.310  1.00  0.00     0.118 A 
BRANCH   7   8
ATOM      8  O   UNL     1     -19.353  44.045  31.503  1.00  0.00    -0.508 OA
ATOM      9  H   UNL     1     -19.013  44.417  30.626  1.00  0.00     0.293 HD
ENDBRANCH   7   8
ENDBRANCH   1   2
BRANCH   1  10
ATOM     10  C   UNL     1     -15.995  44.599  30.913  1.00  0.00     0.040 C 
BRANCH  10  11
ATOM     11  C   UNL     1     -14.608  44.487  31.486  1.00  0.00    -0.040 A 
ATOM     12  C   UNL     1     -14.397  44.638  32.866  1.00  0.00     0.050 A 
ATOM     13  C   UNL     1     -13.506  44.292  30.637  1.00  0.00     0.050 A 
ATOM     14  C   UNL     1     -13.101  44.568  33.395  1.00  0.00     0.119 A 
ATOM     15  C   UNL     1     -12.210  44.223  31.166  1.00  0.00     0.119 A 
ATOM     16  C   UNL     1     -12.012  44.357  32.543  1.00  0.00     0.092 A 
BRANCH  14  17
ATOM     17  O   UNL     1     -12.885  44.709  34.764  1.00  0.00    -0.508 OA
ATOM     18  H   UNL     1     -12.581  45.588  35.165  1.00  0.00     0.293 HD
ENDBRANCH  14  17
BRANCH  15  19
ATOM     19  O   UNL     1     -11.113  44.023  30.330  1.00  0.00    -0.508 OA
ATOM     20  H   UNL     1     -10.831  43.094  30.039  1.00  0.00     0.293 HD
ENDBRANCH  15  19
ENDBRANCH  10  11
ENDBRANCH   1  10
TORSDOF 6
ENDMDL
MODEL 5
REMARK VINA RESULT:    -6.330      1.861      2.337
REMARK INTER + INTRA:          -8.665
REMARK INTER:                  -8.102
REMARK INTRA:                  -0.563
REMARK UNBOUND:                -0.669
REMARK SMILES Oc1cc(O)cc(CCc2ccccc2O)c1
REMARK SMILES IDX 9 1 10 2 12 3 13 4 11 5 14 6 15 7 16 8 8 10 7 11 6 12 17 13
REMARK SMILES IDX 4 14 2 15 3 16 5 17 1 19
REMARK H PARENT 16 9 5 18 1 20
REMARK Flexibility Score: inf
ROOT
ATOM      1  C   UNL     1     -14.026  43.804  33.770  1.00  0.00     0.044 C 
ENDROOT
BRANCH   1   2
ATOM      2  C   UNL     1     -13.306  43.632  32.454  1.00  0.00    -0.006 A 
ATOM      3  C   UNL     1     -12.905  44.432  30.189  1.00  0.00     0.001 A 
ATOM      4  C   UNL     1     -12.037  43.365  29.959  1.00  0.00     0.004 A 
ATOM      5  C   UNL     1     -13.540  44.563  31.426  1.00  0.00     0.007 A 
ATOM      6  C   UNL     1     -11.808  42.422  30.962  1.00  0.00     0.046 A 
ATOM      7  C   UNL     1     -12.439  42.537  32.207  1.00  0.00     0.118 A 
BRANCH   7   8
ATOM      8  O   UNL     1     -12.187  41.550  33.162  1.00  0.00    -0.508 OA
ATOM      9  H   UNL     1     -12.861  40.845  33.430  1.00  0.00     0.293 HD
ENDBRANCH   7   8
ENDBRANCH   1   2
BRANCH   1  10
ATOM     10  C   UNL     1     -15.221  44.750  33.617  1.00  0.00     0.040 C 
BRANCH  10  11
ATOM     11  C   UNL     1     -16.514  43.981  33.653  1.00  0.00    -0.040 A 
ATOM     12  C   UNL     1     -17.740  44.649  33.507  1.00  0.00     0.050 A 
ATOM     13  C   UNL     1     -16.507  42.597  33.892  1.00  0.00     0.050 A 
ATOM     14  C   UNL     1     -18.946  43.937  33.574  1.00  0.00     0.119 A 
ATOM     15  C   UNL     1     -17.712  41.885  33.960  1.00  0.00     0.119 A 
ATOM     16  C   UNL     1     -18.927  42.557  33.797  1.00  0.00     0.092 A 
BRANCH  14  17
ATOM     17  O   UNL     1     -20.166  44.593  33.423  1.00  0.00    -0.508 OA
ATOM     18  H   UNL     1     -20.512  44.864  32.511  1.00  0.00     0.293 HD
ENDBRANCH  14  17
BRANCH  15  19
ATOM     19  O   UNL     1     -17.712  40.511  34.191  1.00  0.00    -0.508 OA
ATOM     20  H   UNL     1     -17.880  40.129  35.114  1.00  0.00     0.293 HD
ENDBRANCH  15  19
ENDBRANCH  10  11
ENDBRANCH   1  10
TORSDOF 6
ENDMDL
MODEL 6
REMARK VINA RESULT:    -6.265      1.427      2.628
REMARK INTER + INTRA:          -8.583
REMARK INTER:                  -8.178
REMARK INTRA:                  -0.404
REMARK UNBOUND:                -0.669
REMARK SMILES Oc1cc(O)cc(CCc2ccccc2O)c1
REMARK SMILES IDX 9 1 10 2 12 3 13 4 11 5 14 6 15 7 16 8 8 10 7 11 6 12 17 13
REMARK SMILES IDX 4 14 2 15 3 16 5 17 1 19
REMARK H PARENT 16 9 5 18 1 20
REMARK Flexibility Score: inf
ROOT
ATOM      1  C   UNL     1     -14.621  43.559  31.378  1.00  0.00     0.044 C 
ENDROOT
BRANCH   1   2
ATOM      2  C   UNL     1     -13.132  43.812  31.356  1.00  0.00    -0.006 A 
ATOM      3  C   UNL     1     -11.210  44.785  30.220  1.00  0.00     0.001 A 
ATOM      4  C   UNL     1     -10.366  44.298  31.218  1.00  0.00     0.004 A 
ATOM      5  C   UNL     1     -12.584  44.540  30.285  1.00  0.00     0.007 A 
ATOM      6  C   UNL     1     -10.892  43.559  32.279  1.00  0.00     0.046 A 
ATOM      7  C   UNL     1     -12.266  43.302  32.357  1.00  0.00     0.118 A 
BRANCH   7   8
ATOM      8  O   UNL     1     -12.729  42.538  33.430  1.00  0.00    -0.508 OA
ATOM      9  H   UNL     1     -13.609  42.038  33.424  1.00  0.00     0.293 HD
ENDBRANCH   7   8
ENDBRANCH   1   2
BRANCH   1  10
ATOM     10  C   UNL     1     -15.312  44.464  32.402  1.00  0.00     0.040 C 
BRANCH  10  11
ATOM     11  C   UNL     1     -16.556  43.807  32.936  1.00  0.00    -0.040 A 
ATOM     12  C   UNL     1     -16.536  42.456  33.318  1.00  0.00     0.050 A 
ATOM     13  C   UNL     1     -17.763  44.522  32.998  1.00  0.00     0.050 A 
ATOM     14  C   UNL     1     -17.703  41.834  33.783  1.00  0.00     0.119 A 
ATOM     15  C   UNL     1     -18.931  43.901  33.462  1.00  0.00     0.119 A 
ATOM     16  C   UNL     1     -18.896  42.560  33.856  1.00  0.00     0.092 A 
BRANCH  14  17
ATOM     17  O   UNL     1     -17.687  40.496  34.171  1.00  0.00    -0.508 OA
ATOM     18  H   UNL     1     -17.806  40.223  35.139  1.00  0.00     0.293 HD
ENDBRANCH  14  17
BRANCH  15  19
ATOM     19  O   UNL     1     -20.130  44.607  33.533  1.00  0.00    -0.508 OA
ATOM     20  H   UNL     1     -20.849  44.364  34.204  1.00  0.00     0.293 HD
ENDBRANCH  15  19
ENDBRANCH  10  11
ENDBRANCH   1  10
TORSDOF 6
ENDMDL
MODEL 7
REMARK VINA RESULT:    -6.263      1.504      2.261
REMARK INTER + INTRA:          -8.580
REMARK INTER:                  -7.889
REMARK INTRA:                  -0.691
REMARK UNBOUND:                -0.669
REMARK SMILES Oc1cc(O)cc(CCc2ccccc2O)c1
REMARK SMILES IDX 9 1 10 2 12 3 13 4 11 5 14 6 15 7 16 8 8 10 7 11 6 12 17 13
REMARK SMILES IDX 4 14 2 15 3 16 5 17 1 19
REMARK H PARENT 16 9 5 18 1 20
REMARK Flexibility Score: inf
ROOT
ATOM      1  C   UNL     1     -14.445  45.176  33.278  1.00  0.00     0.044 C 
ENDROOT
BRANCH   1   2
ATOM      2  C   UNL     1     -13.455  44.609  32.289  1.00  0.00    -0.006 A 
ATOM      3  C   UNL     1     -11.301  43.545  31.888  1.00  0.00     0.001 A 
ATOM      4  C   UNL     1     -11.540  43.566  30.514  1.00  0.00     0.004 A 
ATOM      5  C   UNL     1     -12.250  44.068  32.771  1.00  0.00     0.007 A 
ATOM      6  C   UNL     1     -12.723  44.116  30.019  1.00  0.00     0.046 A 
ATOM      7  C   UNL     1     -13.682  44.647  30.889  1.00  0.00     0.118 A 
BRANCH   7   8
ATOM      8  O   UNL     1     -14.836  45.203  30.332  1.00  0.00    -0.508 OA
ATOM      9  H   UNL     1     -15.693  45.349  30.848  1.00  0.00     0.293 HD
ENDBRANCH   7   8
ENDBRANCH   1   2
BRANCH   1  10
ATOM     10  C   UNL     1     -14.986  44.077  34.198  1.00  0.00     0.040 C 
BRANCH  10  11
ATOM     11  C   UNL     1     -16.114  43.336  33.531  1.00  0.00    -0.040 A 
ATOM     12  C   UNL     1     -17.051  44.029  32.748  1.00  0.00     0.050 A 
ATOM     13  C   UNL     1     -16.272  41.956  33.736  1.00  0.00     0.050 A 
ATOM     14  C   UNL     1     -18.122  43.344  32.155  1.00  0.00     0.119 A 
ATOM     15  C   UNL     1     -17.342  41.271  33.144  1.00  0.00     0.119 A 
ATOM     16  C   UNL     1     -18.261  41.967  32.353  1.00  0.00     0.092 A 
BRANCH  14  17
ATOM     17  O   UNL     1     -19.051  44.024  31.372  1.00  0.00    -0.508 OA
ATOM     18  H   UNL     1     -19.348  44.966  31.598  1.00  0.00     0.293 HD
ENDBRANCH  14  17
BRANCH  15  19
ATOM     19  O   UNL     1     -17.501  39.901  33.338  1.00  0.00    -0.508 OA
ATOM     20  H   UNL     1     -17.187  39.228  32.649  1.00  0.00     0.293 HD
ENDBRANCH  15  19
ENDBRANCH  10  11
ENDBRANCH   1  10
TORSDOF 6
ENDMDL
MODEL 8
REMARK VINA RESULT:    -6.238      1.778      3.366
REMARK INTER + INTRA:          -8.549
REMARK INTER:                  -7.778
REMARK INTRA:                  -0.771
REMARK UNBOUND:                -0.669
REMARK SMILES Oc1cc(O)cc(CCc2ccccc2O)c1
REMARK SMILES IDX 9 1 10 2 12 3 13 4 11 5 14 6 15 7 16 8 8 10 7 11 6 12 17 13
REMARK SMILES IDX 4 14 2 15 3 16 5 17 1 19
REMARK H PARENT 16 9 5 18 1 20
REMARK Flexibility Score: inf
ROOT
ATOM      1  C   UNL     1     -14.947  44.876  31.837  1.00  0.00     0.044 C 
ENDROOT
BRANCH   1   2
ATOM      2  C   UNL     1     -15.125  44.105  30.550  1.00  0.00    -0.006 A 
ATOM      3  C   UNL     1     -14.303  42.390  29.030  1.00  0.00     0.001 A 
ATOM      4  C   UNL     1     -15.360  42.647  28.157  1.00  0.00     0.004 A 
ATOM      5  C   UNL     1     -14.182  43.116  30.217  1.00  0.00     0.007 A 
ATOM      6  C   UNL     1     -16.294  43.638  28.465  1.00  0.00     0.046 A 
ATOM      7  C   UNL     1     -16.185  44.377  29.649  1.00  0.00     0.118 A 
BRANCH   7   8
ATOM      8  O   UNL     1     -17.138  45.370  29.891  1.00  0.00    -0.508 OA
ATOM      9  H   UNL     1     -17.270  45.812  30.790  1.00  0.00     0.293 HD
ENDBRANCH   7   8
ENDBRANCH   1   2
BRANCH   1  10
ATOM     10  C   UNL     1     -15.107  43.955  33.050  1.00  0.00     0.040 C 
BRANCH  10  11
ATOM     11  C   UNL     1     -16.504  43.398  33.110  1.00  0.00    -0.040 A 
ATOM     12  C   UNL     1     -16.729  42.027  32.909  1.00  0.00     0.050 A 
ATOM     13  C   UNL     1     -17.600  44.254  33.308  1.00  0.00     0.050 A 
ATOM     14  C   UNL     1     -18.033  41.512  32.931  1.00  0.00     0.119 A 
ATOM     15  C   UNL     1     -18.904  43.741  33.330  1.00  0.00     0.119 A 
ATOM     16  C   UNL     1     -19.115  42.371  33.144  1.00  0.00     0.092 A 
BRANCH  14  17
ATOM     17  O   UNL     1     -18.262  40.151  32.739  1.00  0.00    -0.508 OA
ATOM     18  H   UNL     1     -18.712  39.584  33.447  1.00  0.00     0.293 HD
ENDBRANCH  14  17
BRANCH  15  19
ATOM     19  O   UNL     1     -19.994  44.583  33.532  1.00  0.00    -0.508 OA
ATOM     20  H   UNL     1     -20.936  44.220  33.621  1.00  0.00     0.293 HD
ENDBRANCH  15  19
ENDBRANCH  10  11
ENDBRANCH   1  10
TORSDOF 6
ENDMDL
MODEL 9
REMARK VINA RESULT:    -6.207      1.747      5.663
REMARK INTER + INTRA:          -8.510
REMARK INTER:                  -7.878
REMARK INTRA:                  -0.632
REMARK UNBOUND:                -0.669
REMARK SMILES Oc1cc(O)cc(CCc2ccccc2O)c1
REMARK SMILES IDX 9 1 10 2 12 3 13 4 11 5 14 6 15 7 16 8 8 10 7 11 6 12 17 13
REMARK SMILES IDX 4 14 2 15 3 16 5 17 1 19
REMARK H PARENT 16 9 5 18 1 20
REMARK Flexibility Score: inf
ROOT
ATOM      1  C   UNL     1     -16.485  43.575  30.239  1.00  0.00     0.044 C 
ENDROOT
BRANCH   1   2
ATOM      2  C   UNL     1     -17.381  43.088  31.353  1.00  0.00    -0.006 A 
ATOM      3  C   UNL     1     -18.980  43.618  33.112  1.00  0.00     0.001 A 
ATOM      4  C   UNL     1     -19.048  42.271  33.465  1.00  0.00     0.004 A 
ATOM      5  C   UNL     1     -18.148  44.026  32.066  1.00  0.00     0.007 A 
ATOM      6  C   UNL     1     -18.279  41.329  32.779  1.00  0.00     0.046 A 
ATOM      7  C   UNL     1     -17.438  41.722  31.730  1.00  0.00     0.118 A 
BRANCH   7   8
ATOM      8  O   UNL     1     -16.677  40.737  31.098  1.00  0.00    -0.508 OA
ATOM      9  H   UNL     1     -15.871  40.936  30.520  1.00  0.00     0.293 HD
ENDBRANCH   7   8
ENDBRANCH   1   2
BRANCH   1  10
ATOM     10  C   UNL     1     -15.781  44.876  30.637  1.00  0.00     0.040 C 
BRANCH  10  11
ATOM     11  C   UNL     1     -14.473  44.582  31.321  1.00  0.00    -0.040 A 
ATOM     12  C   UNL     1     -14.371  44.660  32.719  1.00  0.00     0.050 A 
ATOM     13  C   UNL     1     -13.328  44.288  30.562  1.00  0.00     0.050 A 
ATOM     14  C   UNL     1     -13.144  44.420  33.354  1.00  0.00     0.119 A 
ATOM     15  C   UNL     1     -12.101  44.049  31.195  1.00  0.00     0.119 A 
ATOM     16  C   UNL     1     -12.014  44.112  32.589  1.00  0.00     0.092 A 
BRANCH  14  17
ATOM     17  O   UNL     1     -13.038  44.487  34.741  1.00  0.00    -0.508 OA
ATOM     18  H   UNL     1     -13.633  45.096  35.289  1.00  0.00     0.293 HD
ENDBRANCH  14  17
BRANCH  15  19
ATOM     19  O   UNL     1     -10.964  43.750  30.448  1.00  0.00    -0.508 OA
ATOM     20  H   UNL     1     -11.026  43.280  29.553  1.00  0.00     0.293 HD
ENDBRANCH  15  19
ENDBRANCH  10  11
ENDBRANCH   1  10
TORSDOF 6
ENDMDL
