MODEL 1
REMARK VINA RESULT:    -1.894      0.000      0.000
REMARK INTER + INTRA:          -3.191
REMARK INTER:                  -2.779
REMARK INTRA:                  -0.412
REMARK UNBOUND:                -0.412
REMARK SMILES O=C([O-])CCCCCCCC(=O)[O-]
REMARK SMILES IDX 7 1 6 2 5 3 4 4 2 5 1 6 3 7 8 8 9 9 10 10 11 11 12 12 13 13
REMARK H PARENT
REMARK Flexibility Score: inf
ROOT
ATOM      1  C   UNL     1     173.105 178.588 195.187  1.00  0.00     0.000 C 
ENDROOT
BRANCH   1   2
ATOM      2  C   UNL     1     173.227 178.701 196.711  1.00  0.00     0.000 C 
BRANCH   2   3
ATOM      3  C   UNL     1     173.054 177.329 197.381  1.00  0.00     0.006 C 
BRANCH   3   4
ATOM      4  C   UNL     1     173.380 177.368 198.879  1.00  0.00     0.053 C 
BRANCH   4   5
ATOM      5  C   UNL     1     172.228 177.886 199.686  1.00  0.00     0.041 C 
ATOM      6  O   UNL     1     171.269 177.124 199.982  1.00  0.00    -0.550 OA
ATOM      7  O   UNL     1     172.228 179.199 200.139  1.00  0.00    -0.550 OA
ENDBRANCH   4   5
ENDBRANCH   3   4
ENDBRANCH   2   3
ENDBRANCH   1   2
BRANCH   1   8
ATOM      8  C   UNL     1     172.553 177.217 194.778  1.00  0.00     0.000 C 
BRANCH   8   9
ATOM      9  C   UNL     1     172.943 176.876 193.333  1.00  0.00     0.006 C 
BRANCH   9  10
ATOM     10  C   UNL     1     173.099 178.130 192.463  1.00  0.00     0.053 C 
BRANCH  10  11
ATOM     11  C   UNL     1     171.919 178.330 191.562  1.00  0.00     0.041 C 
ATOM     12  O   UNL     1     171.056 179.206 191.832  1.00  0.00    -0.550 OA
ATOM     13  O   UNL     1     171.790 177.570 190.406  1.00  0.00    -0.550 OA
ENDBRANCH  10  11
ENDBRANCH   9  10
ENDBRANCH   8   9
ENDBRANCH   1   8
TORSDOF 8
ENDMDL
MODEL 2
REMARK VINA RESULT:    -1.791      1.937      2.604
REMARK INTER + INTRA:          -3.041
REMARK INTER:                  -2.623
REMARK INTRA:                  -0.418
REMARK UNBOUND:                -0.412
REMARK SMILES O=C([O-])CCCCCCCC(=O)[O-]
REMARK SMILES IDX 7 1 6 2 5 3 4 4 2 5 1 6 3 7 8 8 9 9 10 10 11 11 12 12 13 13
REMARK H PARENT
REMARK Flexibility Score: inf
ROOT
ATOM      1  C   UNL     1     173.133 178.191 195.919  1.00  0.00     0.000 C 
ENDROOT
BRANCH   1   2
ATOM      2  C   UNL     1     173.040 176.935 196.793  1.00  0.00     0.000 C 
BRANCH   2   3
ATOM      3  C   UNL     1     173.122 177.294 198.285  1.00  0.00     0.006 C 
BRANCH   3   4
ATOM      4  C   UNL     1     172.900 178.791 198.536  1.00  0.00     0.053 C 
BRANCH   4   5
ATOM      5  C   UNL     1     171.974 179.031 199.690  1.00  0.00     0.041 C 
ATOM      6  O   UNL     1     171.835 180.192 200.160  1.00  0.00    -0.550 OA
ATOM      7  O   UNL     1     171.239 177.980 200.224  1.00  0.00    -0.550 OA
ENDBRANCH   4   5
ENDBRANCH   3   4
ENDBRANCH   2   3
ENDBRANCH   1   2
BRANCH   1   8
ATOM      8  C   UNL     1     172.806 177.869 194.456  1.00  0.00     0.000 C 
BRANCH   8   9
ATOM      9  C   UNL     1     172.864 179.134 193.588  1.00  0.00     0.006 C 
BRANCH   9  10
ATOM     10  C   UNL     1     172.868 180.416 194.431  1.00  0.00     0.053 C 
BRANCH  10  11
ATOM     11  C   UNL     1     171.925 181.443 193.883  1.00  0.00     0.041 C 
ATOM     12  O   UNL     1     171.853 182.584 194.409  1.00  0.00    -0.550 OA
ATOM     13  O   UNL     1     171.149 181.149 192.769  1.00  0.00    -0.550 OA
ENDBRANCH  10  11
ENDBRANCH   9  10
ENDBRANCH   8   9
ENDBRANCH   1   8
TORSDOF 8
ENDMDL
MODEL 3
REMARK VINA RESULT:    -1.772      1.770      6.142
REMARK INTER + INTRA:          -3.013
REMARK INTER:                  -2.203
REMARK INTRA:                  -0.810
REMARK UNBOUND:                -0.412
REMARK SMILES O=C([O-])CCCCCCCC(=O)[O-]
REMARK SMILES IDX 7 1 6 2 5 3 4 4 2 5 1 6 3 7 8 8 9 9 10 10 11 11 12 12 13 13
REMARK H PARENT
REMARK Flexibility Score: inf
ROOT
ATOM      1  C   UNL     1     174.813 178.527 197.043  1.00  0.00     0.000 C 
ENDROOT
BRANCH   1   2
ATOM      2  C   UNL     1     174.252 177.156 196.649  1.00  0.00     0.000 C 
BRANCH   2   3
ATOM      3  C   UNL     1     172.782 177.266 196.217  1.00  0.00     0.006 C 
BRANCH   3   4
ATOM      4  C   UNL     1     172.577 176.875 194.748  1.00  0.00     0.053 C 
BRANCH   4   5
ATOM      5  C   UNL     1     173.140 177.903 193.814  1.00  0.00     0.041 C 
ATOM      6  O   UNL     1     172.681 179.077 193.812  1.00  0.00    -0.550 OA
ATOM      7  O   UNL     1     174.195 177.577 192.972  1.00  0.00    -0.550 OA
ENDBRANCH   4   5
ENDBRANCH   3   4
ENDBRANCH   2   3
ENDBRANCH   1   2
BRANCH   1   8
ATOM      8  C   UNL     1     173.687 179.555 197.214  1.00  0.00     0.000 C 
BRANCH   8   9
ATOM      9  C   UNL     1     173.769 180.236 198.588  1.00  0.00     0.006 C 
BRANCH   9  10
ATOM     10  C   UNL     1     173.549 179.247 199.740  1.00  0.00     0.053 C 
BRANCH  10  11
ATOM     11  C   UNL     1     172.145 178.727 199.764  1.00  0.00     0.041 C 
ATOM     12  O   UNL     1     171.175 179.521 199.887  1.00  0.00    -0.550 OA
ATOM     13  O   UNL     1     171.905 177.366 199.619  1.00  0.00    -0.550 OA
ENDBRANCH  10  11
ENDBRANCH   9  10
ENDBRANCH   8   9
ENDBRANCH   1   8
TORSDOF 8
ENDMDL
MODEL 4
REMARK VINA RESULT:    -1.706      1.861      6.284
REMARK INTER + INTRA:          -2.915
REMARK INTER:                  -2.502
REMARK INTRA:                  -0.413
REMARK UNBOUND:                -0.412
REMARK SMILES O=C([O-])CCCCCCCC(=O)[O-]
REMARK SMILES IDX 7 1 6 2 5 3 4 4 2 5 1 6 3 7 8 8 9 9 10 10 11 11 12 12 13 13
REMARK H PARENT
REMARK Flexibility Score: inf
ROOT
ATOM      1  C   UNL     1     173.047 177.338 193.702  1.00  0.00     0.000 C 
ENDROOT
BRANCH   1   2
ATOM      2  C   UNL     1     171.847 177.301 192.750  1.00  0.00     0.000 C 
BRANCH   2   3
ATOM      3  C   UNL     1     171.996 178.346 191.633  1.00  0.00     0.006 C 
BRANCH   3   4
ATOM      4  C   UNL     1     171.114 179.578 191.868  1.00  0.00     0.053 C 
BRANCH   4   5
ATOM      5  C   UNL     1     171.896 180.722 192.440  1.00  0.00     0.041 C 
ATOM      6  O   UNL     1     172.163 180.753 193.671  1.00  0.00    -0.550 OA
ATOM      7  O   UNL     1     172.358 181.735 191.610  1.00  0.00    -0.550 OA
ENDBRANCH   4   5
ENDBRANCH   3   4
ENDBRANCH   2   3
ENDBRANCH   1   2
BRANCH   1   8
ATOM      8  C   UNL     1     172.596 177.217 195.163  1.00  0.00     0.000 C 
BRANCH   8   9
ATOM      9  C   UNL     1     173.590 177.911 196.105  1.00  0.00     0.006 C 
BRANCH   9  10
ATOM     10  C   UNL     1     173.155 177.824 197.574  1.00  0.00     0.053 C 
BRANCH  10  11
ATOM     11  C   UNL     1     172.866 179.178 198.147  1.00  0.00     0.041 C 
ATOM     12  O   UNL     1     172.915 180.201 197.415  1.00  0.00    -0.550 OA
ATOM     13  O   UNL     1     172.510 179.305 199.484  1.00  0.00    -0.550 OA
ENDBRANCH  10  11
ENDBRANCH   9  10
ENDBRANCH   8   9
ENDBRANCH   1   8
TORSDOF 8
ENDMDL
MODEL 5
REMARK VINA RESULT:    -1.686      2.019      2.963
REMARK INTER + INTRA:          -2.886
REMARK INTER:                  -2.297
REMARK INTRA:                  -0.589
REMARK UNBOUND:                -0.412
REMARK SMILES O=C([O-])CCCCCCCC(=O)[O-]
REMARK SMILES IDX 7 1 6 2 5 3 4 4 2 5 1 6 3 7 8 8 9 9 10 10 11 11 12 12 13 13
REMARK H PARENT
REMARK Flexibility Score: inf
ROOT
ATOM      1  C   UNL     1     174.223 177.805 197.574  1.00  0.00     0.000 C 
ENDROOT
BRANCH   1   2
ATOM      2  C   UNL     1     173.933 178.003 199.066  1.00  0.00     0.000 C 
BRANCH   2   3
ATOM      3  C   UNL     1     172.509 178.534 199.285  1.00  0.00     0.006 C 
BRANCH   3   4
ATOM      4  C   UNL     1     172.367 180.005 198.873  1.00  0.00     0.053 C 
BRANCH   4   5
ATOM      5  C   UNL     1     171.432 180.749 199.778  1.00  0.00     0.041 C 
ATOM      6  O   UNL     1     170.979 180.195 200.815  1.00  0.00    -0.550 OA
ATOM      7  O   UNL     1     171.087 182.064 199.495  1.00  0.00    -0.550 OA
ENDBRANCH   4   5
ENDBRANCH   3   4
ENDBRANCH   2   3
ENDBRANCH   1   2
BRANCH   1   8
ATOM      8  C   UNL     1     173.188 176.875 196.929  1.00  0.00     0.000 C 
BRANCH   8   9
ATOM      9  C   UNL     1     172.765 177.396 195.548  1.00  0.00     0.006 C 
BRANCH   9  10
ATOM     10  C   UNL     1     173.129 178.873 195.348  1.00  0.00     0.053 C 
BRANCH  10  11
ATOM     11  C   UNL     1     173.447 179.176 193.916  1.00  0.00     0.041 C 
ATOM     12  O   UNL     1     173.314 178.288 193.034  1.00  0.00    -0.550 OA
ATOM     13  O   UNL     1     173.860 180.451 193.551  1.00  0.00    -0.550 OA
ENDBRANCH  10  11
ENDBRANCH   9  10
ENDBRANCH   8   9
ENDBRANCH   1   8
TORSDOF 8
ENDMDL
MODEL 6
REMARK VINA RESULT:    -1.677      2.346      6.360
REMARK INTER + INTRA:          -2.874
REMARK INTER:                  -2.277
REMARK INTRA:                  -0.597
REMARK UNBOUND:                -0.412
REMARK SMILES O=C([O-])CCCCCCCC(=O)[O-]
REMARK SMILES IDX 7 1 6 2 5 3 4 4 2 5 1 6 3 7 8 8 9 9 10 10 11 11 12 12 13 13
REMARK H PARENT
REMARK Flexibility Score: inf
ROOT
ATOM      1  C   UNL     1     173.087 180.767 193.577  1.00  0.00     0.000 C 
ENDROOT
BRANCH   1   2
ATOM      2  C   UNL     1     172.095 181.380 192.582  1.00  0.00     0.000 C 
BRANCH   2   3
ATOM      3  C   UNL     1     171.096 180.326 192.081  1.00  0.00     0.006 C 
BRANCH   3   4
ATOM      4  C   UNL     1     171.655 178.901 192.180  1.00  0.00     0.053 C 
BRANCH   4   5
ATOM      5  C   UNL     1     171.826 178.275 190.829  1.00  0.00     0.041 C 
ATOM      6  O   UNL     1     171.276 178.788 189.819  1.00  0.00    -0.550 OA
ATOM      7  O   UNL     1     172.622 177.146 190.680  1.00  0.00    -0.550 OA
ENDBRANCH   4   5
ENDBRANCH   3   4
ENDBRANCH   2   3
ENDBRANCH   1   2
BRANCH   1   8
ATOM      8  C   UNL     1     172.761 181.193 195.014  1.00  0.00     0.000 C 
BRANCH   8   9
ATOM      9  C   UNL     1     173.138 180.090 196.013  1.00  0.00     0.006 C 
BRANCH   9  10
ATOM     10  C   UNL     1     173.636 178.819 195.314  1.00  0.00     0.053 C 
BRANCH  10  11
ATOM     11  C   UNL     1     172.862 177.610 195.742  1.00  0.00     0.041 C 
ATOM     12  O   UNL     1     172.306 176.875 194.884  1.00  0.00    -0.550 OA
ATOM     13  O   UNL     1     172.780 177.278 197.088  1.00  0.00    -0.550 OA
ENDBRANCH  10  11
ENDBRANCH   9  10
ENDBRANCH   8   9
ENDBRANCH   1   8
TORSDOF 8
ENDMDL
MODEL 7
REMARK VINA RESULT:    -1.677      2.352      3.389
REMARK INTER + INTRA:          -2.873
REMARK INTER:                  -2.272
REMARK INTRA:                  -0.601
REMARK UNBOUND:                -0.412
REMARK SMILES O=C([O-])CCCCCCCC(=O)[O-]
REMARK SMILES IDX 7 1 6 2 5 3 4 4 2 5 1 6 3 7 8 8 9 9 10 10 11 11 12 12 13 13
REMARK H PARENT
REMARK Flexibility Score: inf
ROOT
ATOM      1  C   UNL     1     173.353 177.768 192.903  1.00  0.00     0.000 C 
ENDROOT
BRANCH   1   2
ATOM      2  C   UNL     1     172.301 177.155 193.833  1.00  0.00     0.000 C 
BRANCH   2   3
ATOM      3  C   UNL     1     172.676 177.368 195.307  1.00  0.00     0.006 C 
BRANCH   3   4
ATOM      4  C   UNL     1     173.204 178.783 195.574  1.00  0.00     0.053 C 
BRANCH   4   5
ATOM      5  C   UNL     1     173.587 178.972 197.011  1.00  0.00     0.041 C 
ATOM      6  O   UNL     1     174.750 178.682 197.400  1.00  0.00    -0.550 OA
ATOM      7  O   UNL     1     172.673 179.501 197.912  1.00  0.00    -0.550 OA
ENDBRANCH   4   5
ENDBRANCH   3   4
ENDBRANCH   2   3
ENDBRANCH   1   2
BRANCH   1   8
ATOM      8  C   UNL     1     172.702 178.358 191.646  1.00  0.00     0.000 C 
BRANCH   8   9
ATOM      9  C   UNL     1     171.328 178.962 191.970  1.00  0.00     0.006 C 
BRANCH   9  10
ATOM     10  C   UNL     1     171.249 180.451 191.610  1.00  0.00     0.053 C 
BRANCH  10  11
ATOM     11  C   UNL     1     172.054 181.293 192.552  1.00  0.00     0.041 C 
ATOM     12  O   UNL     1     173.103 181.865 192.154  1.00  0.00    -0.550 OA
ATOM     13  O   UNL     1     171.628 181.472 193.862  1.00  0.00    -0.550 OA
ENDBRANCH  10  11
ENDBRANCH   9  10
ENDBRANCH   8   9
ENDBRANCH   1   8
TORSDOF 8
ENDMDL
MODEL 8
REMARK VINA RESULT:    -1.662      1.155      6.466
REMARK INTER + INTRA:          -2.851
REMARK INTER:                  -2.390
REMARK INTRA:                  -0.461
REMARK UNBOUND:                -0.412
REMARK SMILES O=C([O-])CCCCCCCC(=O)[O-]
REMARK SMILES IDX 7 1 6 2 5 3 4 4 2 5 1 6 3 7 8 8 9 9 10 10 11 11 12 12 13 13
REMARK H PARENT
REMARK Flexibility Score: inf
ROOT
ATOM      1  C   UNL     1     174.130 177.635 194.979  1.00  0.00     0.000 C 
ENDROOT
BRANCH   1   2
ATOM      2  C   UNL     1     172.759 176.980 195.177  1.00  0.00     0.000 C 
BRANCH   2   3
ATOM      3  C   UNL     1     172.000 176.875 193.846  1.00  0.00     0.006 C 
BRANCH   3   4
ATOM      4  C   UNL     1     172.837 177.367 192.659  1.00  0.00     0.053 C 
BRANCH   4   5
ATOM      5  C   UNL     1     172.007 178.129 191.670  1.00  0.00     0.041 C 
ATOM      6  O   UNL     1     171.942 177.747 190.471  1.00  0.00    -0.550 OA
ATOM      7  O   UNL     1     171.280 179.239 192.079  1.00  0.00    -0.550 OA
ENDBRANCH   4   5
ENDBRANCH   3   4
ENDBRANCH   2   3
ENDBRANCH   1   2
BRANCH   1   8
ATOM      8  C   UNL     1     174.551 178.422 196.227  1.00  0.00     0.000 C 
BRANCH   8   9
ATOM      9  C   UNL     1     173.428 179.362 196.689  1.00  0.00     0.006 C 
BRANCH   9  10
ATOM     10  C   UNL     1     173.498 179.653 198.194  1.00  0.00     0.053 C 
BRANCH  10  11
ATOM     11  C   UNL     1     172.467 178.878 198.956  1.00  0.00     0.041 C 
ATOM     12  O   UNL     1     172.448 177.621 198.899  1.00  0.00    -0.550 OA
ATOM     13  O   UNL     1     171.548 179.545 199.756  1.00  0.00    -0.550 OA
ENDBRANCH  10  11
ENDBRANCH   9  10
ENDBRANCH   8   9
ENDBRANCH   1   8
TORSDOF 8
ENDMDL
