MODEL 1
REMARK VINA RESULT:    -5.500      0.000      0.000
REMARK INTER + INTRA:          -9.295
REMARK INTER:                  -8.716
REMARK INTRA:                  -0.580
REMARK UNBOUND:                -0.580
REMARK SMILES CCCCCCCCCCCC(=O)[O-]
REMARK SMILES IDX 7 1 8 2 9 3 10 4 11 5 12 6 13 7 14 8 6 9 5 10 4 11 3 12 2 13
REMARK SMILES IDX 1 14
REMARK H PARENT
REMARK Flexibility Score: inf
ROOT
ATOM      1  C   UNL     1      24.164 -12.314  16.229  1.00  0.00     0.000 C 
ENDROOT
BRANCH   1   2
ATOM      2  C   UNL     1      24.870 -10.979  15.958  1.00  0.00     0.000 C 
BRANCH   2   3
ATOM      3  C   UNL     1      25.774 -11.078  14.721  1.00  0.00     0.000 C 
BRANCH   3   4
ATOM      4  C   UNL     1      27.273 -11.009  15.069  1.00  0.00     0.006 C 
BRANCH   4   5
ATOM      5  C   UNL     1      27.565 -10.776  16.560  1.00  0.00     0.053 C 
BRANCH   5   6
ATOM      6  C   UNL     1      28.137  -9.414  16.814  1.00  0.00     0.041 C 
ATOM      7  O   UNL     1      28.688  -8.775  15.881  1.00  0.00    -0.550 OA
ATOM      8  O   UNL     1      28.092  -8.868  18.091  1.00  0.00    -0.550 OA
ENDBRANCH   5   6
ENDBRANCH   4   5
ENDBRANCH   3   4
ENDBRANCH   2   3
ENDBRANCH   1   2
BRANCH   1   9
ATOM      9  C   UNL     1      24.251 -12.691  17.714  1.00  0.00     0.000 C 
BRANCH   9  10
ATOM     10  C   UNL     1      22.897 -12.490  18.411  1.00  0.00    -0.000 C 
BRANCH  10  11
ATOM     11  C   UNL     1      22.697 -13.435  19.607  1.00  0.00    -0.000 C 
BRANCH  11  12
ATOM     12  C   UNL     1      22.634 -12.685  20.948  1.00  0.00    -0.000 C 
BRANCH  12  13
ATOM     13  C   UNL     1      23.040 -11.208  20.816  1.00  0.00    -0.003 C 
ATOM     14  C   UNL     1      23.176 -10.508  22.168  1.00  0.00     0.004 C 
ENDBRANCH  12  13
ENDBRANCH  11  12
ENDBRANCH  10  11
ENDBRANCH   9  10
ENDBRANCH   1   9
TORSDOF 10
ENDMDL
MODEL 2
REMARK VINA RESULT:    -5.472      1.105      1.394
REMARK INTER + INTRA:          -9.250
REMARK INTER:                  -8.525
REMARK INTRA:                  -0.725
REMARK UNBOUND:                -0.580
REMARK SMILES CCCCCCCCCCCC(=O)[O-]
REMARK SMILES IDX 7 1 8 2 9 3 10 4 11 5 12 6 13 7 14 8 6 9 5 10 4 11 3 12 2 13
REMARK SMILES IDX 1 14
REMARK H PARENT
REMARK Flexibility Score: inf
ROOT
ATOM      1  C   UNL     1      24.376 -11.695  15.716  1.00  0.00     0.000 C 
ENDROOT
BRANCH   1   2
ATOM      2  C   UNL     1      25.232 -10.741  16.558  1.00  0.00     0.000 C 
BRANCH   2   3
ATOM      3  C   UNL     1      26.725 -10.930  16.256  1.00  0.00     0.000 C 
BRANCH   3   4
ATOM      4  C   UNL     1      27.568 -11.157  17.524  1.00  0.00     0.006 C 
BRANCH   4   5
ATOM      5  C   UNL     1      27.531  -9.991  18.525  1.00  0.00     0.053 C 
BRANCH   5   6
ATOM      6  C   UNL     1      28.306  -8.805  18.035  1.00  0.00     0.041 C 
ATOM      7  O   UNL     1      29.514  -8.931  17.708  1.00  0.00    -0.550 OA
ATOM      8  O   UNL     1      27.701  -7.556  17.975  1.00  0.00    -0.550 OA
ENDBRANCH   5   6
ENDBRANCH   4   5
ENDBRANCH   3   4
ENDBRANCH   2   3
ENDBRANCH   1   2
BRANCH   1   9
ATOM      9  C   UNL     1      23.748 -12.789  16.589  1.00  0.00     0.000 C 
BRANCH   9  10
ATOM     10  C   UNL     1      23.867 -12.437  18.080  1.00  0.00    -0.000 C 
BRANCH  10  11
ATOM     11  C   UNL     1      22.562 -12.681  18.855  1.00  0.00    -0.000 C 
BRANCH  11  12
ATOM     12  C   UNL     1      22.718 -12.432  20.365  1.00  0.00    -0.000 C 
BRANCH  12  13
ATOM     13  C   UNL     1      23.113 -10.981  20.684  1.00  0.00    -0.003 C 
ATOM     14  C   UNL     1      23.127 -10.687  22.185  1.00  0.00     0.004 C 
ENDBRANCH  12  13
ENDBRANCH  11  12
ENDBRANCH  10  11
ENDBRANCH   9  10
ENDBRANCH   1   9
TORSDOF 10
ENDMDL
MODEL 3
REMARK VINA RESULT:    -5.461      2.416      6.242
REMARK INTER + INTRA:          -9.233
REMARK INTER:                  -8.708
REMARK INTRA:                  -0.524
REMARK UNBOUND:                -0.580
REMARK SMILES CCCCCCCCCCCC(=O)[O-]
REMARK SMILES IDX 7 1 8 2 9 3 10 4 11 5 12 6 13 7 14 8 6 9 5 10 4 11 3 12 2 13
REMARK SMILES IDX 1 14
REMARK H PARENT
REMARK Flexibility Score: inf
ROOT
ATOM      1  C   UNL     1      23.800 -12.654  16.213  1.00  0.00     0.000 C 
ENDROOT
BRANCH   1   2
ATOM      2  C   UNL     1      24.066 -12.641  17.724  1.00  0.00     0.000 C 
BRANCH   2   3
ATOM      3  C   UNL     1      22.752 -12.551  18.513  1.00  0.00     0.000 C 
BRANCH   3   4
ATOM      4  C   UNL     1      22.948 -12.763  20.025  1.00  0.00     0.006 C 
BRANCH   4   5
ATOM      5  C   UNL     1      22.321 -11.668  20.903  1.00  0.00     0.053 C 
BRANCH   5   6
ATOM      6  C   UNL     1      23.333 -10.658  21.351  1.00  0.00     0.041 C 
ATOM      7  O   UNL     1      23.462 -10.391  22.574  1.00  0.00    -0.550 OA
ATOM      8  O   UNL     1      24.109  -9.987  20.413  1.00  0.00    -0.550 OA
ENDBRANCH   5   6
ENDBRANCH   4   5
ENDBRANCH   3   4
ENDBRANCH   2   3
ENDBRANCH   1   2
BRANCH   1   9
ATOM      9  C   UNL     1      24.642 -11.591  15.496  1.00  0.00     0.000 C 
BRANCH   9  10
ATOM     10  C   UNL     1      25.703 -11.003  16.439  1.00  0.00    -0.000 C 
BRANCH  10  11
ATOM     11  C   UNL     1      27.085 -10.881  15.777  1.00  0.00    -0.000 C 
BRANCH  11  12
ATOM     12  C   UNL     1      28.228 -11.304  16.715  1.00  0.00    -0.000 C 
BRANCH  12  13
ATOM     13  C   UNL     1      29.611 -11.162  16.058  1.00  0.00    -0.003 C 
ATOM     14  C   UNL     1      29.547 -11.187  14.531  1.00  0.00     0.004 C 
ENDBRANCH  12  13
ENDBRANCH  11  12
ENDBRANCH  10  11
ENDBRANCH   9  10
ENDBRANCH   1   9
TORSDOF 10
ENDMDL
MODEL 4
REMARK VINA RESULT:    -5.459      0.973      1.139
REMARK INTER + INTRA:          -9.230
REMARK INTER:                  -8.603
REMARK INTRA:                  -0.627
REMARK UNBOUND:                -0.580
REMARK SMILES CCCCCCCCCCCC(=O)[O-]
REMARK SMILES IDX 7 1 8 2 9 3 10 4 11 5 12 6 13 7 14 8 6 9 5 10 4 11 3 12 2 13
REMARK SMILES IDX 1 14
REMARK H PARENT
REMARK Flexibility Score: inf
ROOT
ATOM      1  C   UNL     1      24.412 -12.438  15.723  1.00  0.00     0.000 C 
ENDROOT
BRANCH   1   2
ATOM      2  C   UNL     1      24.879 -10.992  15.513  1.00  0.00     0.000 C 
BRANCH   2   3
ATOM      3  C   UNL     1      26.275 -10.952  14.877  1.00  0.00     0.000 C 
BRANCH   3   4
ATOM      4  C   UNL     1      27.322 -10.266  15.775  1.00  0.00     0.006 C 
BRANCH   4   5
ATOM      5  C   UNL     1      27.231 -10.653  17.259  1.00  0.00     0.053 C 
BRANCH   5   6
ATOM      6  C   UNL     1      27.296  -9.455  18.158  1.00  0.00     0.041 C 
ATOM      7  O   UNL     1      27.812  -8.383  17.747  1.00  0.00    -0.550 OA
ATOM      8  O   UNL     1      26.818  -9.535  19.460  1.00  0.00    -0.550 OA
ENDBRANCH   5   6
ENDBRANCH   4   5
ENDBRANCH   3   4
ENDBRANCH   2   3
ENDBRANCH   1   2
BRANCH   1   9
ATOM      9  C   UNL     1      23.298 -12.510  16.775  1.00  0.00     0.000 C 
BRANCH   9  10
ATOM     10  C   UNL     1      23.861 -12.290  18.187  1.00  0.00    -0.000 C 
BRANCH  10  11
ATOM     11  C   UNL     1      22.993 -12.933  19.281  1.00  0.00    -0.000 C 
BRANCH  11  12
ATOM     12  C   UNL     1      22.316 -11.890  20.187  1.00  0.00    -0.000 C 
BRANCH  12  13
ATOM     13  C   UNL     1      23.318 -10.886  20.779  1.00  0.00    -0.003 C 
ATOM     14  C   UNL     1      23.112 -10.657  22.277  1.00  0.00     0.004 C 
ENDBRANCH  12  13
ENDBRANCH  11  12
ENDBRANCH  10  11
ENDBRANCH   9  10
ENDBRANCH   1   9
TORSDOF 10
ENDMDL
MODEL 5
REMARK VINA RESULT:    -5.326      2.589      5.585
REMARK INTER + INTRA:          -9.019
REMARK INTER:                  -8.063
REMARK INTRA:                  -0.956
REMARK UNBOUND:                -0.580
REMARK SMILES CCCCCCCCCCCC(=O)[O-]
REMARK SMILES IDX 7 1 8 2 9 3 10 4 11 5 12 6 13 7 14 8 6 9 5 10 4 11 3 12 2 13
REMARK SMILES IDX 1 14
REMARK H PARENT
REMARK Flexibility Score: inf
ROOT
ATOM      1  C   UNL     1      25.060 -11.137  16.048  1.00  0.00     0.000 C 
ENDROOT
BRANCH   1   2
ATOM      2  C   UNL     1      24.070 -12.307  15.976  1.00  0.00     0.000 C 
BRANCH   2   3
ATOM      3  C   UNL     1      23.845 -12.922  17.365  1.00  0.00     0.000 C 
BRANCH   3   4
ATOM      4  C   UNL     1      23.757 -11.864  18.480  1.00  0.00     0.006 C 
BRANCH   4   5
ATOM      5  C   UNL     1      22.919 -12.294  19.695  1.00  0.00     0.053 C 
BRANCH   5   6
ATOM      6  C   UNL     1      22.970 -11.283  20.799  1.00  0.00     0.041 C 
ATOM      7  O   UNL     1      22.338 -11.481  21.869  1.00  0.00    -0.550 OA
ATOM      8  O   UNL     1      23.689 -10.105  20.632  1.00  0.00    -0.550 OA
ENDBRANCH   5   6
ENDBRANCH   4   5
ENDBRANCH   3   4
ENDBRANCH   2   3
ENDBRANCH   1   2
BRANCH   1   9
ATOM      9  C   UNL     1      25.912 -11.057  14.775  1.00  0.00     0.000 C 
BRANCH   9  10
ATOM     10  C   UNL     1      27.404 -10.939  15.119  1.00  0.00    -0.000 C 
BRANCH  10  11
ATOM     11  C   UNL     1      27.690 -11.165  16.612  1.00  0.00    -0.000 C 
BRANCH  11  12
ATOM     12  C   UNL     1      28.593 -10.075  17.212  1.00  0.00    -0.000 C 
BRANCH  12  13
ATOM     13  C   UNL     1      27.798  -9.016  17.993  1.00  0.00    -0.003 C 
ATOM     14  C   UNL     1      26.837  -9.629  19.012  1.00  0.00     0.004 C 
ENDBRANCH  12  13
ENDBRANCH  11  12
ENDBRANCH  10  11
ENDBRANCH   9  10
ENDBRANCH   1   9
TORSDOF 10
ENDMDL
MODEL 6
REMARK VINA RESULT:    -5.313      1.319      1.666
REMARK INTER + INTRA:          -8.999
REMARK INTER:                  -8.548
REMARK INTRA:                  -0.450
REMARK UNBOUND:                -0.580
REMARK SMILES CCCCCCCCCCCC(=O)[O-]
REMARK SMILES IDX 7 1 8 2 9 3 10 4 11 5 12 6 13 7 14 8 6 9 5 10 4 11 3 12 2 13
REMARK SMILES IDX 1 14
REMARK H PARENT
REMARK Flexibility Score: inf
ROOT
ATOM      1  C   UNL     1      24.814 -12.166  16.823  1.00  0.00     0.000 C 
ENDROOT
BRANCH   1   2
ATOM      2  C   UNL     1      24.787 -11.148  15.676  1.00  0.00     0.000 C 
BRANCH   2   3
ATOM      3  C   UNL     1      26.139 -11.103  14.950  1.00  0.00     0.000 C 
BRANCH   3   4
ATOM      4  C   UNL     1      27.335 -11.049  15.918  1.00  0.00     0.006 C 
BRANCH   4   5
ATOM      5  C   UNL     1      28.123  -9.730  15.876  1.00  0.00     0.053 C 
BRANCH   5   6
ATOM      6  C   UNL     1      29.517  -9.924  15.361  1.00  0.00     0.041 C 
ATOM      7  O   UNL     1      30.410  -9.074  15.614  1.00  0.00    -0.550 OA
ATOM      8  O   UNL     1      29.820 -11.027  14.572  1.00  0.00    -0.550 OA
ENDBRANCH   5   6
ENDBRANCH   4   5
ENDBRANCH   3   4
ENDBRANCH   2   3
ENDBRANCH   1   2
BRANCH   1   9
ATOM      9  C   UNL     1      23.392 -12.529  17.272  1.00  0.00     0.000 C 
BRANCH   9  10
ATOM     10  C   UNL     1      23.364 -12.899  18.763  1.00  0.00    -0.000 C 
BRANCH  10  11
ATOM     11  C   UNL     1      22.434 -11.991  19.583  1.00  0.00    -0.000 C 
BRANCH  11  12
ATOM     12  C   UNL     1      22.646 -12.144  21.099  1.00  0.00    -0.000 C 
BRANCH  12  13
ATOM     13  C   UNL     1      23.143 -10.848  21.758  1.00  0.00    -0.003 C 
ATOM     14  C   UNL     1      23.924  -9.955  20.793  1.00  0.00     0.004 C 
ENDBRANCH  12  13
ENDBRANCH  11  12
ENDBRANCH  10  11
ENDBRANCH   9  10
ENDBRANCH   1   9
TORSDOF 10
ENDMDL
MODEL 7
REMARK VINA RESULT:    -5.081      1.720      3.526
REMARK INTER + INTRA:          -8.632
REMARK INTER:                  -7.685
REMARK INTRA:                  -0.947
REMARK UNBOUND:                -0.580
REMARK SMILES CCCCCCCCCCCC(=O)[O-]
REMARK SMILES IDX 7 1 8 2 9 3 10 4 11 5 12 6 13 7 14 8 6 9 5 10 4 11 3 12 2 13
REMARK SMILES IDX 1 14
REMARK H PARENT
REMARK Flexibility Score: inf
ROOT
ATOM      1  C   UNL     1      24.484 -10.030  20.473  1.00  0.00     0.000 C 
ENDROOT
BRANCH   1   2
ATOM      2  C   UNL     1      25.101  -9.826  19.083  1.00  0.00     0.000 C 
BRANCH   2   3
ATOM      3  C   UNL     1      26.629  -9.711  19.172  1.00  0.00     0.000 C 
BRANCH   3   4
ATOM      4  C   UNL     1      27.315  -9.776  17.795  1.00  0.00     0.006 C 
BRANCH   4   5
ATOM      5  C   UNL     1      27.044 -11.073  17.015  1.00  0.00     0.053 C 
BRANCH   5   6
ATOM      6  C   UNL     1      27.308 -10.912  15.548  1.00  0.00     0.041 C 
ATOM      7  O   UNL     1      26.349 -10.797  14.741  1.00  0.00    -0.550 OA
ATOM      8  O   UNL     1      28.613 -10.924  15.071  1.00  0.00    -0.550 OA
ENDBRANCH   5   6
ENDBRANCH   4   5
ENDBRANCH   3   4
ENDBRANCH   2   3
ENDBRANCH   1   2
BRANCH   1   9
ATOM      9  C   UNL     1      23.070 -10.616  20.368  1.00  0.00     0.000 C 
BRANCH   9  10
ATOM     10  C   UNL     1      23.002 -12.007  21.016  1.00  0.00    -0.000 C 
BRANCH  10  11
ATOM     11  C   UNL     1      22.703 -13.122  20.000  1.00  0.00    -0.000 C 
BRANCH  11  12
ATOM     12  C   UNL     1      22.621 -12.599  18.556  1.00  0.00    -0.000 C 
BRANCH  12  13
ATOM     13  C   UNL     1      23.883 -12.921  17.741  1.00  0.00    -0.003 C 
ATOM     14  C   UNL     1      23.716 -12.626  16.250  1.00  0.00     0.004 C 
ENDBRANCH  12  13
ENDBRANCH  11  12
ENDBRANCH  10  11
ENDBRANCH   9  10
ENDBRANCH   1   9
TORSDOF 10
ENDMDL
MODEL 8
REMARK VINA RESULT:    -5.025      3.130      6.102
REMARK INTER + INTRA:          -8.543
REMARK INTER:                  -7.525
REMARK INTRA:                  -1.018
REMARK UNBOUND:                -0.580
REMARK SMILES CCCCCCCCCCCC(=O)[O-]
REMARK SMILES IDX 7 1 8 2 9 3 10 4 11 5 12 6 13 7 14 8 6 9 5 10 4 11 3 12 2 13
REMARK SMILES IDX 1 14
REMARK H PARENT
REMARK Flexibility Score: inf
ROOT
ATOM      1  C   UNL     1      28.039  -9.639  18.159  1.00  0.00     0.000 C 
ENDROOT
BRANCH   1   2
ATOM      2  C   UNL     1      26.906  -9.232  19.109  1.00  0.00     0.000 C 
BRANCH   2   3
ATOM      3  C   UNL     1      25.620 -10.010  18.795  1.00  0.00     0.000 C 
BRANCH   3   4
ATOM      4  C   UNL     1      24.548  -9.861  19.891  1.00  0.00     0.006 C 
BRANCH   4   5
ATOM      5  C   UNL     1      23.541 -11.021  19.952  1.00  0.00     0.053 C 
BRANCH   5   6
ATOM      6  C   UNL     1      23.040 -11.257  21.345  1.00  0.00     0.041 C 
ATOM      7  O   UNL     1      22.259 -12.214  21.582  1.00  0.00    -0.550 OA
ATOM      8  O   UNL     1      23.410 -10.398  22.372  1.00  0.00    -0.550 OA
ENDBRANCH   5   6
ENDBRANCH   4   5
ENDBRANCH   3   4
ENDBRANCH   2   3
ENDBRANCH   1   2
BRANCH   1   9
ATOM      9  C   UNL     1      27.851 -11.078  17.661  1.00  0.00     0.000 C 
BRANCH   9  10
ATOM     10  C   UNL     1      28.123 -11.176  16.152  1.00  0.00    -0.000 C 
BRANCH  10  11
ATOM     11  C   UNL     1      27.141 -10.340  15.315  1.00  0.00    -0.000 C 
BRANCH  11  12
ATOM     12  C   UNL     1      25.994 -11.183  14.734  1.00  0.00    -0.000 C 
BRANCH  12  13
ATOM     13  C   UNL     1      24.688 -11.026  15.528  1.00  0.00    -0.003 C 
ATOM     14  C   UNL     1      24.123 -12.363  16.010  1.00  0.00     0.004 C 
ENDBRANCH  12  13
ENDBRANCH  11  12
ENDBRANCH  10  11
ENDBRANCH   9  10
ENDBRANCH   1   9
TORSDOF 10
ENDMDL
MODEL 9
REMARK VINA RESULT:    -4.932      2.756      6.425
REMARK INTER + INTRA:          -8.395
REMARK INTER:                  -7.952
REMARK INTRA:                  -0.443
REMARK UNBOUND:                -0.580
REMARK SMILES CCCCCCCCCCCC(=O)[O-]
REMARK SMILES IDX 7 1 8 2 9 3 10 4 11 5 12 6 13 7 14 8 6 9 5 10 4 11 3 12 2 13
REMARK SMILES IDX 1 14
REMARK H PARENT
REMARK Flexibility Score: inf
ROOT
ATOM      1  C   UNL     1      25.433 -11.117  16.370  1.00  0.00     0.000 C 
ENDROOT
BRANCH   1   2
ATOM      2  C   UNL     1      24.231 -11.804  15.709  1.00  0.00     0.000 C 
BRANCH   2   3
ATOM      3  C   UNL     1      23.438 -12.629  16.733  1.00  0.00     0.000 C 
BRANCH   3   4
ATOM      4  C   UNL     1      23.844 -12.327  18.187  1.00  0.00     0.006 C 
BRANCH   4   5
ATOM      5  C   UNL     1      22.671 -12.303  19.179  1.00  0.00     0.053 C 
BRANCH   5   6
ATOM      6  C   UNL     1      22.962 -11.447  20.374  1.00  0.00     0.041 C 
ATOM      7  O   UNL     1      23.562 -10.350  20.235  1.00  0.00    -0.550 OA
ATOM      8  O   UNL     1      22.600 -11.879  21.644  1.00  0.00    -0.550 OA
ENDBRANCH   5   6
ENDBRANCH   4   5
ENDBRANCH   3   4
ENDBRANCH   2   3
ENDBRANCH   1   2
BRANCH   1   9
ATOM      9  C   UNL     1      26.554 -10.870  15.353  1.00  0.00     0.000 C 
BRANCH   9  10
ATOM     10  C   UNL     1      27.935 -11.062  15.999  1.00  0.00    -0.000 C 
BRANCH  10  11
ATOM     11  C   UNL     1      29.084 -10.996  14.979  1.00  0.00    -0.000 C 
BRANCH  11  12
ATOM     12  C   UNL     1      30.124  -9.919  15.331  1.00  0.00    -0.000 C 
BRANCH  12  13
ATOM     13  C   UNL     1      30.671 -10.074  16.759  1.00  0.00    -0.003 C 
ATOM     14  C   UNL     1      30.394  -8.852  17.636  1.00  0.00     0.004 C 
ENDBRANCH  12  13
ENDBRANCH  11  12
ENDBRANCH  10  11
ENDBRANCH   9  10
ENDBRANCH   1   9
TORSDOF 10
ENDMDL
