MODEL 1
REMARK VINA RESULT:    -5.325      0.000      0.000
REMARK INTER + INTRA:          -7.279
REMARK INTER:                  -6.881
REMARK INTRA:                  -0.398
REMARK UNBOUND:                -0.398
REMARK SMILES CCO[C@H]1O[C@@H](CO)[C@H](O)[C@H](O)[C@H]1O
REMARK SMILES IDX 4 1 13 2 11 3 9 4 6 5 5 6 3 7 2 8 1 9 14 10 12 12 7 14 8 15
REMARK SMILES IDX 10 17
REMARK H PARENT 14 11 12 13 8 16 10 18
REMARK Flexibility Score: inf
ROOT
ATOM      1  C   UNL     1     -23.394   6.566 -39.654  1.00  0.00     0.281 C 
ATOM      2  C   UNL     1     -22.541   7.475 -40.565  1.00  0.00     0.202 C 
ATOM      3  C   UNL     1     -21.145   7.722 -39.946  1.00  0.00     0.179 C 
ATOM      4  C   UNL     1     -21.189   7.643 -38.395  1.00  0.00     0.177 C 
ATOM      5  C   UNL     1     -22.607   7.997 -37.874  1.00  0.00     0.178 C 
ATOM      6  O   UNL     1     -23.635   7.138 -38.368  1.00  0.00    -0.341 OA
ENDROOT
BRANCH   1   7
ATOM      7  O   UNL     1     -22.764   5.305 -39.510  1.00  0.00    -0.350 OA
BRANCH   7   8
ATOM      8  C   UNL     1     -23.730   4.288 -39.341  1.00  0.00     0.160 C 
ATOM      9  C   UNL     1     -24.815   4.454 -40.394  1.00  0.00     0.035 C 
ENDBRANCH   7   8
ENDBRANCH   1   7
BRANCH   2  10
ATOM     10  O   UNL     1     -22.437   6.948 -41.866  1.00  0.00    -0.385 OA
ATOM     11  H   UNL     1     -22.775   6.016 -41.846  1.00  0.00     0.211 HD
ENDBRANCH   2  10
BRANCH   3  12
ATOM     12  O   UNL     1     -20.626   8.952 -40.394  1.00  0.00    -0.387 OA
ATOM     13  H   UNL     1     -20.162   8.788 -41.257  1.00  0.00     0.211 HD
ENDBRANCH   3  12
BRANCH   5  14
ATOM     14  C   UNL     1     -22.647   7.950 -36.338  1.00  0.00     0.191 C 
BRANCH  14  15
ATOM     15  O   UNL     1     -22.625   9.247 -35.806  1.00  0.00    -0.394 OA
ATOM     16  H   UNL     1     -23.062   9.197 -34.916  1.00  0.00     0.210 HD
ENDBRANCH  14  15
ENDBRANCH   5  14
BRANCH   4  17
ATOM     17  O   UNL     1     -20.232   8.503 -37.829  1.00  0.00    -0.387 OA
ATOM     18  H   UNL     1     -19.427   8.451 -38.406  1.00  0.00     0.211 HD
ENDBRANCH   4  17
TORSDOF 7
ENDMDL
MODEL 2
REMARK VINA RESULT:    -5.230      2.216      4.405
REMARK INTER + INTRA:          -7.157
REMARK INTER:                  -6.699
REMARK INTRA:                  -0.457
REMARK UNBOUND:                -0.398
REMARK SMILES CCO[C@H]1O[C@@H](CO)[C@H](O)[C@H](O)[C@H]1O
REMARK SMILES IDX 4 1 13 2 11 3 9 4 6 5 5 6 3 7 2 8 1 9 14 10 12 12 7 14 8 15
REMARK SMILES IDX 10 17
REMARK H PARENT 14 11 12 13 8 16 10 18
REMARK Flexibility Score: inf
ROOT
ATOM      1  C   UNL     1     -23.198   7.774 -40.291  1.00  0.00     0.281 C 
ATOM      2  C   UNL     1     -23.965   7.601 -41.619  1.00  0.00     0.202 C 
ATOM      3  C   UNL     1     -24.309   6.113 -41.867  1.00  0.00     0.179 C 
ATOM      4  C   UNL     1     -23.271   5.171 -41.198  1.00  0.00     0.177 C 
ATOM      5  C   UNL     1     -21.901   5.886 -41.056  1.00  0.00     0.178 C 
ATOM      6  O   UNL     1     -21.951   7.080 -40.275  1.00  0.00    -0.341 OA
ENDROOT
BRANCH   1   7
ATOM      7  O   UNL     1     -24.006   7.339 -39.210  1.00  0.00    -0.350 OA
BRANCH   7   8
ATOM      8  C   UNL     1     -23.264   7.343 -38.008  1.00  0.00     0.160 C 
ATOM      9  C   UNL     1     -23.661   6.132 -37.177  1.00  0.00     0.035 C 
ENDBRANCH   7   8
ENDBRANCH   1   7
BRANCH   2  10
ATOM     10  O   UNL     1     -25.120   8.405 -41.656  1.00  0.00    -0.385 OA
ATOM     11  H   UNL     1     -25.902   7.811 -41.794  1.00  0.00     0.211 HD
ENDBRANCH   2  10
BRANCH   3  12
ATOM     12  O   UNL     1     -24.427   5.866 -43.248  1.00  0.00    -0.387 OA
ATOM     13  H   UNL     1     -23.601   6.201 -43.687  1.00  0.00     0.211 HD
ENDBRANCH   3  12
BRANCH   5  14
ATOM     14  C   UNL     1     -20.863   4.946 -40.422  1.00  0.00     0.191 C 
BRANCH  14  15
ATOM     15  O   UNL     1     -20.230   4.177 -41.408  1.00  0.00    -0.394 OA
ATOM     16  H   UNL     1     -20.222   4.725 -42.236  1.00  0.00     0.210 HD
ENDBRANCH  14  15
ENDBRANCH   5  14
BRANCH   4  17
ATOM     17  O   UNL     1     -23.129   3.986 -41.940  1.00  0.00    -0.387 OA
ATOM     18  H   UNL     1     -22.155   3.848 -42.073  1.00  0.00     0.211 HD
ENDBRANCH   4  17
TORSDOF 7
ENDMDL
MODEL 3
REMARK VINA RESULT:    -5.223      2.271      3.235
REMARK INTER + INTRA:          -7.147
REMARK INTER:                  -6.686
REMARK INTRA:                  -0.461
REMARK UNBOUND:                -0.398
REMARK SMILES CCO[C@H]1O[C@@H](CO)[C@H](O)[C@H](O)[C@H]1O
REMARK SMILES IDX 4 1 13 2 11 3 9 4 6 5 5 6 3 7 2 8 1 9 14 10 12 12 7 14 8 15
REMARK SMILES IDX 10 17
REMARK H PARENT 14 11 12 13 8 16 10 18
REMARK Flexibility Score: inf
ROOT
ATOM      1  C   UNL     1     -22.531   6.385 -38.297  1.00  0.00     0.281 C 
ATOM      2  C   UNL     1     -22.995   7.782 -37.833  1.00  0.00     0.202 C 
ATOM      3  C   UNL     1     -22.025   8.362 -36.775  1.00  0.00     0.179 C 
ATOM      4  C   UNL     1     -21.328   7.234 -35.966  1.00  0.00     0.177 C 
ATOM      5  C   UNL     1     -22.210   5.958 -35.942  1.00  0.00     0.178 C 
ATOM      6  O   UNL     1     -22.497   5.430 -37.237  1.00  0.00    -0.341 OA
ENDROOT
BRANCH   1   7
ATOM      7  O   UNL     1     -21.253   6.481 -38.902  1.00  0.00    -0.350 OA
BRANCH   7   8
ATOM      8  C   UNL     1     -21.124   5.528 -39.936  1.00  0.00     0.160 C 
ATOM      9  C   UNL     1     -22.179   5.802 -40.997  1.00  0.00     0.035 C 
ENDBRANCH   7   8
ENDBRANCH   1   7
BRANCH   2  10
ATOM     10  O   UNL     1     -23.150   8.662 -38.921  1.00  0.00    -0.385 OA
ATOM     11  H   UNL     1     -22.270   9.080 -39.103  1.00  0.00     0.211 HD
ENDBRANCH   2  10
BRANCH   3  12
ATOM     12  O   UNL     1     -22.705   9.266 -35.937  1.00  0.00    -0.387 OA
ATOM     13  H   UNL     1     -22.078   9.541 -35.218  1.00  0.00     0.211 HD
ENDBRANCH   3  12
BRANCH   5  14
ATOM     14  C   UNL     1     -21.537   4.850 -35.116  1.00  0.00     0.191 C 
BRANCH  14  15
ATOM     15  O   UNL     1     -21.922   4.938 -33.771  1.00  0.00    -0.394 OA
ATOM     16  H   UNL     1     -21.868   5.898 -33.522  1.00  0.00     0.210 HD
ENDBRANCH  14  15
ENDBRANCH   5  14
BRANCH   4  17
ATOM     17  O   UNL     1     -21.055   7.664 -34.656  1.00  0.00    -0.387 OA
ATOM     18  H   UNL     1     -21.533   7.043 -34.047  1.00  0.00     0.211 HD
ENDBRANCH   4  17
TORSDOF 7
ENDMDL
MODEL 4
REMARK VINA RESULT:    -5.182      1.682      3.393
REMARK INTER + INTRA:          -7.095
REMARK INTER:                  -6.828
REMARK INTRA:                  -0.267
REMARK UNBOUND:                -0.398
REMARK SMILES CCO[C@H]1O[C@@H](CO)[C@H](O)[C@H](O)[C@H]1O
REMARK SMILES IDX 4 1 13 2 11 3 9 4 6 5 5 6 3 7 2 8 1 9 14 10 12 12 7 14 8 15
REMARK SMILES IDX 10 17
REMARK H PARENT 14 11 12 13 8 16 10 18
REMARK Flexibility Score: inf
ROOT
ATOM      1  C   UNL     1     -22.241   5.163 -40.319  1.00  0.00     0.281 C 
ATOM      2  C   UNL     1     -21.157   5.977 -39.579  1.00  0.00     0.202 C 
ATOM      3  C   UNL     1     -21.790   7.150 -38.794  1.00  0.00     0.179 C 
ATOM      4  C   UNL     1     -23.104   7.638 -39.462  1.00  0.00     0.177 C 
ATOM      5  C   UNL     1     -23.089   7.324 -40.982  1.00  0.00     0.178 C 
ATOM      6  O   UNL     1     -22.953   5.936 -41.284  1.00  0.00    -0.341 OA
ENDROOT
BRANCH   1   7
ATOM      7  O   UNL     1     -23.147   4.607 -39.381  1.00  0.00    -0.350 OA
BRANCH   7   8
ATOM      8  C   UNL     1     -24.226   3.986 -40.048  1.00  0.00     0.160 C 
ATOM      9  C   UNL     1     -25.533   4.489 -39.453  1.00  0.00     0.035 C 
ENDBRANCH   7   8
ENDBRANCH   1   7
BRANCH   2  10
ATOM     10  O   UNL     1     -20.383   5.157 -38.736  1.00  0.00    -0.385 OA
ATOM     11  H   UNL     1     -19.529   5.627 -38.552  1.00  0.00     0.211 HD
ENDBRANCH   2  10
BRANCH   3  12
ATOM     12  O   UNL     1     -20.857   8.195 -38.648  1.00  0.00    -0.387 OA
ATOM     13  H   UNL     1     -21.297   8.923 -38.135  1.00  0.00     0.211 HD
ENDBRANCH   3  12
BRANCH   5  14
ATOM     14  C   UNL     1     -24.375   7.833 -41.653  1.00  0.00     0.191 C 
BRANCH  14  15
ATOM     15  O   UNL     1     -24.369   7.530 -43.021  1.00  0.00    -0.394 OA
ATOM     16  H   UNL     1     -23.643   6.868 -43.163  1.00  0.00     0.210 HD
ENDBRANCH  14  15
ENDBRANCH   5  14
BRANCH   4  17
ATOM     17  O   UNL     1     -23.286   9.015 -39.249  1.00  0.00    -0.387 OA
ATOM     18  H   UNL     1     -24.051   9.108 -38.625  1.00  0.00     0.211 HD
ENDBRANCH   4  17
TORSDOF 7
ENDMDL
MODEL 5
REMARK VINA RESULT:    -5.072      2.084      2.723
REMARK INTER + INTRA:          -6.953
REMARK INTER:                  -6.525
REMARK INTRA:                  -0.427
REMARK UNBOUND:                -0.398
REMARK SMILES CCO[C@H]1O[C@@H](CO)[C@H](O)[C@H](O)[C@H]1O
REMARK SMILES IDX 4 1 13 2 11 3 9 4 6 5 5 6 3 7 2 8 1 9 14 10 12 12 7 14 8 15
REMARK SMILES IDX 10 17
REMARK H PARENT 14 11 12 13 8 16 10 18
REMARK Flexibility Score: inf
ROOT
ATOM      1  C   UNL     1     -22.759   5.162 -40.504  1.00  0.00     0.281 C 
ATOM      2  C   UNL     1     -23.836   5.930 -41.302  1.00  0.00     0.202 C 
ATOM      3  C   UNL     1     -23.525   7.445 -41.330  1.00  0.00     0.179 C 
ATOM      4  C   UNL     1     -22.729   7.885 -40.070  1.00  0.00     0.177 C 
ATOM      5  C   UNL     1     -23.023   6.931 -38.882  1.00  0.00     0.178 C 
ATOM      6  O   UNL     1     -22.685   5.568 -39.138  1.00  0.00    -0.341 OA
ENDROOT
BRANCH   1   7
ATOM      7  O   UNL     1     -21.496   5.324 -41.125  1.00  0.00    -0.350 OA
BRANCH   7   8
ATOM      8  C   UNL     1     -20.526   4.519 -40.488  1.00  0.00     0.160 C 
ATOM      9  C   UNL     1     -20.491   3.156 -41.163  1.00  0.00     0.035 C 
ENDBRANCH   7   8
ENDBRANCH   1   7
BRANCH   2  10
ATOM     10  O   UNL     1     -23.979   5.413 -42.603  1.00  0.00    -0.385 OA
ATOM     11  H   UNL     1     -23.571   4.509 -42.620  1.00  0.00     0.211 HD
ENDBRANCH   2  10
BRANCH   3  12
ATOM     12  O   UNL     1     -24.714   8.182 -41.482  1.00  0.00    -0.387 OA
ATOM     13  H   UNL     1     -24.472   9.145 -41.512  1.00  0.00     0.211 HD
ENDBRANCH   3  12
BRANCH   5  14
ATOM     14  C   UNL     1     -22.262   7.382 -37.625  1.00  0.00     0.191 C 
BRANCH  14  15
ATOM     15  O   UNL     1     -22.959   8.406 -36.969  1.00  0.00    -0.394 OA
ATOM     16  H   UNL     1     -22.314   8.838 -36.350  1.00  0.00     0.210 HD
ENDBRANCH  14  15
ENDBRANCH   5  14
BRANCH   4  17
ATOM     17  O   UNL     1     -23.046   9.210 -39.723  1.00  0.00    -0.387 OA
ATOM     18  H   UNL     1     -24.027   9.237 -39.574  1.00  0.00     0.211 HD
ENDBRANCH   4  17
TORSDOF 7
ENDMDL
MODEL 6
REMARK VINA RESULT:    -4.919     15.717     17.221
REMARK INTER + INTRA:          -6.755
REMARK INTER:                  -6.416
REMARK INTRA:                  -0.339
REMARK UNBOUND:                -0.398
REMARK SMILES CCO[C@H]1O[C@@H](CO)[C@H](O)[C@H](O)[C@H]1O
REMARK SMILES IDX 4 1 13 2 11 3 9 4 6 5 5 6 3 7 2 8 1 9 14 10 12 12 7 14 8 15
REMARK SMILES IDX 10 17
REMARK H PARENT 14 11 12 13 8 16 10 18
REMARK Flexibility Score: inf
ROOT
ATOM      1  C   UNL     1     -38.774   5.195 -47.278  1.00  0.00     0.281 C 
ATOM      2  C   UNL     1     -37.554   5.963 -47.831  1.00  0.00     0.202 C 
ATOM      3  C   UNL     1     -36.481   6.156 -46.733  1.00  0.00     0.179 C 
ATOM      4  C   UNL     1     -37.119   6.205 -45.317  1.00  0.00     0.177 C 
ATOM      5  C   UNL     1     -38.587   6.702 -45.401  1.00  0.00     0.178 C 
ATOM      6  O   UNL     1     -39.428   5.884 -46.213  1.00  0.00    -0.341 OA
ENDROOT
BRANCH   1   7
ATOM      7  O   UNL     1     -38.373   3.906 -46.845  1.00  0.00    -0.350 OA
BRANCH   7   8
ATOM      8  C   UNL     1     -39.461   3.007 -46.902  1.00  0.00     0.160 C 
ATOM      9  C   UNL     1     -39.006   1.720 -47.575  1.00  0.00     0.035 C 
ENDBRANCH   7   8
ENDBRANCH   1   7
BRANCH   2  10
ATOM     10  O   UNL     1     -37.015   5.327 -48.965  1.00  0.00    -0.385 OA
ATOM     11  H   UNL     1     -37.768   5.057 -49.551  1.00  0.00     0.211 HD
ENDBRANCH   2  10
BRANCH   3  12
ATOM     12  O   UNL     1     -35.713   7.305 -47.001  1.00  0.00    -0.387 OA
ATOM     13  H   UNL     1     -34.756   7.035 -47.001  1.00  0.00     0.211 HD
ENDBRANCH   3  12
BRANCH   5  14
ATOM     14  C   UNL     1     -39.212   6.782 -43.998  1.00  0.00     0.191 C 
BRANCH  14  15
ATOM     15  O   UNL     1     -38.654   7.842 -43.271  1.00  0.00    -0.394 OA
ATOM     16  H   UNL     1     -37.804   8.083 -43.726  1.00  0.00     0.210 HD
ENDBRANCH  14  15
ENDBRANCH   5  14
BRANCH   4  17
ATOM     17  O   UNL     1     -36.370   7.035 -44.466  1.00  0.00    -0.387 OA
ATOM     18  H   UNL     1     -36.229   7.888 -44.953  1.00  0.00     0.211 HD
ENDBRANCH   4  17
TORSDOF 7
ENDMDL
MODEL 7
REMARK VINA RESULT:    -4.838     15.806     18.070
REMARK INTER + INTRA:          -6.650
REMARK INTER:                  -6.119
REMARK INTRA:                  -0.531
REMARK UNBOUND:                -0.398
REMARK SMILES CCO[C@H]1O[C@@H](CO)[C@H](O)[C@H](O)[C@H]1O
REMARK SMILES IDX 4 1 13 2 11 3 9 4 6 5 5 6 3 7 2 8 1 9 14 10 12 12 7 14 8 15
REMARK SMILES IDX 10 17
REMARK H PARENT 14 11 12 13 8 16 10 18
REMARK Flexibility Score: inf
ROOT
ATOM      1  C   UNL     1     -37.541   4.432 -45.303  1.00  0.00     0.281 C 
ATOM      2  C   UNL     1     -38.115   3.203 -46.042  1.00  0.00     0.202 C 
ATOM      3  C   UNL     1     -38.622   3.595 -47.451  1.00  0.00     0.179 C 
ATOM      4  C   UNL     1     -39.081   5.078 -47.497  1.00  0.00     0.177 C 
ATOM      5  C   UNL     1     -39.531   5.551 -46.089  1.00  0.00     0.178 C 
ATOM      6  O   UNL     1     -38.510   5.459 -45.096  1.00  0.00    -0.341 OA
ENDROOT
BRANCH   1   7
ATOM      7  O   UNL     1     -36.435   4.950 -46.023  1.00  0.00    -0.350 OA
BRANCH   7   8
ATOM      8  C   UNL     1     -36.012   6.175 -45.461  1.00  0.00     0.160 C 
ATOM      9  C   UNL     1     -35.704   7.156 -46.582  1.00  0.00     0.035 C 
ENDBRANCH   7   8
ENDBRANCH   1   7
BRANCH   2  10
ATOM     10  O   UNL     1     -37.176   2.157 -46.109  1.00  0.00    -0.385 OA
ATOM     11  H   UNL     1     -36.946   2.014 -47.063  1.00  0.00     0.211 HD
ENDBRANCH   2  10
BRANCH   3  12
ATOM     12  O   UNL     1     -39.642   2.717 -47.861  1.00  0.00    -0.387 OA
ATOM     13  H   UNL     1     -39.980   3.035 -48.740  1.00  0.00     0.211 HD
ENDBRANCH   3  12
BRANCH   5  14
ATOM     14  C   UNL     1     -40.016   7.009 -46.138  1.00  0.00     0.191 C 
BRANCH  14  15
ATOM     15  O   UNL     1     -39.325   7.725 -47.125  1.00  0.00    -0.394 OA
ATOM     16  H   UNL     1     -38.758   7.068 -47.608  1.00  0.00     0.210 HD
ENDBRANCH  14  15
ENDBRANCH   5  14
BRANCH   4  17
ATOM     17  O   UNL     1     -40.125   5.243 -48.424  1.00  0.00    -0.387 OA
ATOM     18  H   UNL     1     -39.706   5.531 -49.276  1.00  0.00     0.211 HD
ENDBRANCH   4  17
TORSDOF 7
ENDMDL
MODEL 8
REMARK VINA RESULT:    -4.765     15.792     17.871
REMARK INTER + INTRA:          -6.556
REMARK INTER:                  -6.012
REMARK INTRA:                  -0.544
REMARK UNBOUND:                -0.398
REMARK SMILES CCO[C@H]1O[C@@H](CO)[C@H](O)[C@H](O)[C@H]1O
REMARK SMILES IDX 4 1 13 2 11 3 9 4 6 5 5 6 3 7 2 8 1 9 14 10 12 12 7 14 8 15
REMARK SMILES IDX 10 17
REMARK H PARENT 14 11 12 13 8 16 10 18
REMARK Flexibility Score: inf
ROOT
ATOM      1  C   UNL     1     -38.538   3.574 -45.926  1.00  0.00     0.281 C 
ATOM      2  C   UNL     1     -39.145   3.764 -47.333  1.00  0.00     0.202 C 
ATOM      3  C   UNL     1     -38.859   5.188 -47.868  1.00  0.00     0.179 C 
ATOM      4  C   UNL     1     -38.714   6.212 -46.709  1.00  0.00     0.177 C 
ATOM      5  C   UNL     1     -39.507   5.737 -45.463  1.00  0.00     0.178 C 
ATOM      6  O   UNL     1     -39.085   4.470 -44.959  1.00  0.00    -0.341 OA
ENDROOT
BRANCH   1   7
ATOM      7  O   UNL     1     -37.131   3.730 -45.986  1.00  0.00    -0.350 OA
BRANCH   7   8
ATOM      8  C   UNL     1     -36.579   3.729 -44.685  1.00  0.00     0.160 C 
ATOM      9  C   UNL     1     -35.599   4.886 -44.561  1.00  0.00     0.035 C 
ENDBRANCH   7   8
ENDBRANCH   1   7
BRANCH   2  10
ATOM     10  O   UNL     1     -38.687   2.780 -48.229  1.00  0.00    -0.385 OA
ATOM     11  H   UNL     1     -39.301   2.003 -48.169  1.00  0.00     0.211 HD
ENDBRANCH   2  10
BRANCH   3  12
ATOM     12  O   UNL     1     -39.856   5.571 -48.785  1.00  0.00    -0.387 OA
ATOM     13  H   UNL     1     -40.389   6.297 -48.366  1.00  0.00     0.211 HD
ENDBRANCH   3  12
BRANCH   5  14
ATOM     14  C   UNL     1     -39.391   6.764 -44.324  1.00  0.00     0.191 C 
BRANCH  14  15
ATOM     15  O   UNL     1     -38.123   7.359 -44.326  1.00  0.00    -0.394 OA
ATOM     16  H   UNL     1     -38.264   8.330 -44.173  1.00  0.00     0.210 HD
ENDBRANCH  14  15
ENDBRANCH   5  14
BRANCH   4  17
ATOM     17  O   UNL     1     -39.157   7.483 -47.115  1.00  0.00    -0.387 OA
ATOM     18  H   UNL     1     -39.809   7.788 -46.433  1.00  0.00     0.211 HD
ENDBRANCH   4  17
TORSDOF 7
ENDMDL
MODEL 9
REMARK VINA RESULT:    -4.694      2.069      2.810
REMARK INTER + INTRA:          -6.464
REMARK INTER:                  -5.951
REMARK INTRA:                  -0.513
REMARK UNBOUND:                -0.398
REMARK SMILES CCO[C@H]1O[C@@H](CO)[C@H](O)[C@H](O)[C@H]1O
REMARK SMILES IDX 4 1 13 2 11 3 9 4 6 5 5 6 3 7 2 8 1 9 14 10 12 12 7 14 8 15
REMARK SMILES IDX 10 17
REMARK H PARENT 14 11 12 13 8 16 10 18
REMARK Flexibility Score: inf
ROOT
ATOM      1  C   UNL     1     -23.651   7.057 -39.058  1.00  0.00     0.281 C 
ATOM      2  C   UNL     1     -23.074   7.716 -40.330  1.00  0.00     0.202 C 
ATOM      3  C   UNL     1     -22.218   6.708 -41.133  1.00  0.00     0.179 C 
ATOM      4  C   UNL     1     -21.586   5.634 -40.205  1.00  0.00     0.177 C 
ATOM      5  C   UNL     1     -21.416   6.191 -38.767  1.00  0.00     0.178 C 
ATOM      6  O   UNL     1     -22.639   6.605 -38.159  1.00  0.00    -0.341 OA
ENDROOT
BRANCH   1   7
ATOM      7  O   UNL     1     -24.494   5.976 -39.419  1.00  0.00    -0.350 OA
BRANCH   7   8
ATOM      8  C   UNL     1     -25.052   5.381 -38.266  1.00  0.00     0.160 C 
ATOM      9  C   UNL     1     -24.988   3.867 -38.408  1.00  0.00     0.035 C 
ENDBRANCH   7   8
ENDBRANCH   1   7
BRANCH   2  10
ATOM     10  O   UNL     1     -24.091   8.272 -41.129  1.00  0.00    -0.385 OA
ATOM     11  H   UNL     1     -23.756   9.129 -41.498  1.00  0.00     0.211 HD
ENDBRANCH   2  10
BRANCH   3  12
ATOM     12  O   UNL     1     -21.242   7.390 -41.884  1.00  0.00    -0.387 OA
ATOM     13  H   UNL     1     -20.698   6.710 -42.362  1.00  0.00     0.211 HD
ENDBRANCH   3  12
BRANCH   5  14
ATOM     14  C   UNL     1     -20.762   5.142 -37.853  1.00  0.00     0.191 C 
BRANCH  14  15
ATOM     15  O   UNL     1     -21.201   3.854 -38.191  1.00  0.00    -0.394 OA
ATOM     16  H   UNL     1     -22.194   3.873 -38.154  1.00  0.00     0.210 HD
ENDBRANCH  14  15
ENDBRANCH   5  14
BRANCH   4  17
ATOM     17  O   UNL     1     -20.347   5.209 -40.714  1.00  0.00    -0.387 OA
ATOM     18  H   UNL     1     -19.728   5.147 -39.941  1.00  0.00     0.211 HD
ENDBRANCH   4  17
TORSDOF 7
ENDMDL
