MODEL 1
REMARK VINA RESULT:    -4.273      0.000      0.000
REMARK INTER + INTRA:          -4.974
REMARK INTER:                  -4.772
REMARK INTRA:                  -0.202
REMARK UNBOUND:                -0.202
REMARK SMILES O=C([O-])c1ccccc1C(=O)[O-]
REMARK SMILES IDX 4 1 9 2 5 3 8 4 6 5 7 6 2 7 1 8 3 9 10 10 11 11 12 12
REMARK H PARENT
REMARK Flexibility Score: inf
ROOT
ATOM      1  C   UNL     1     -20.178  -5.572   5.710  1.00  0.00     0.006 A 
ATOM      2  C   UNL     1     -20.410  -5.179   4.362  1.00  0.00     0.006 A 
ATOM      3  C   UNL     1     -20.869  -6.684   6.226  1.00  0.00     0.010 A 
ATOM      4  C   UNL     1     -21.372  -5.871   3.603  1.00  0.00     0.010 A 
ATOM      5  C   UNL     1     -21.802  -7.370   5.448  1.00  0.00     0.001 A 
ATOM      6  C   UNL     1     -22.062  -6.957   4.144  1.00  0.00     0.001 A 
ENDROOT
BRANCH   1   7
ATOM      7  C   UNL     1     -19.289  -4.821   6.627  1.00  0.00     0.072 C 
ATOM      8  O   UNL     1     -18.083  -5.154   6.771  1.00  0.00    -0.545 OA
ATOM      9  O   UNL     1     -19.763  -3.697   7.291  1.00  0.00    -0.545 OA
ENDBRANCH   1   7
BRANCH   2  10
ATOM     10  C   UNL     1     -19.630  -4.112   3.695  1.00  0.00     0.072 C 
ATOM     11  O   UNL     1     -20.185  -3.026   3.375  1.00  0.00    -0.545 OA
ATOM     12  O   UNL     1     -18.299  -4.315   3.351  1.00  0.00    -0.545 OA
ENDBRANCH   2  10
TORSDOF 2
ENDMDL
MODEL 2
REMARK VINA RESULT:    -4.258      0.085      3.151
REMARK INTER + INTRA:          -4.958
REMARK INTER:                  -4.754
REMARK INTRA:                  -0.204
REMARK UNBOUND:                -0.202
REMARK SMILES O=C([O-])c1ccccc1C(=O)[O-]
REMARK SMILES IDX 4 1 9 2 5 3 8 4 6 5 7 6 2 7 1 8 3 9 10 10 11 11 12 12
REMARK H PARENT
REMARK Flexibility Score: inf
ROOT
ATOM      1  C   UNL     1     -20.440  -5.173   4.367  1.00  0.00     0.006 A 
ATOM      2  C   UNL     1     -20.201  -5.584   5.708  1.00  0.00     0.006 A 
ATOM      3  C   UNL     1     -21.380  -5.878   3.593  1.00  0.00     0.010 A 
ATOM      4  C   UNL     1     -20.862  -6.725   6.203  1.00  0.00     0.010 A 
ATOM      5  C   UNL     1     -22.040  -6.992   4.111  1.00  0.00     0.001 A 
ATOM      6  C   UNL     1     -21.773  -7.422   5.408  1.00  0.00     0.001 A 
ENDROOT
BRANCH   1   7
ATOM      7  C   UNL     1     -19.692  -4.072   3.717  1.00  0.00     0.072 C 
ATOM      8  O   UNL     1     -20.233  -2.951   3.524  1.00  0.00    -0.545 OA
ATOM      9  O   UNL     1     -18.358  -4.245   3.370  1.00  0.00    -0.545 OA
ENDBRANCH   1   7
BRANCH   2  10
ATOM     10  C   UNL     1     -19.336  -4.821   6.637  1.00  0.00     0.072 C 
ATOM     11  O   UNL     1     -18.131  -5.154   6.800  1.00  0.00    -0.545 OA
ATOM     12  O   UNL     1     -19.854  -3.775   7.391  1.00  0.00    -0.545 OA
ENDBRANCH   2  10
TORSDOF 2
ENDMDL
MODEL 3
REMARK VINA RESULT:    -4.256     15.042     16.131
REMARK INTER + INTRA:          -4.956
REMARK INTER:                  -4.723
REMARK INTRA:                  -0.233
REMARK UNBOUND:                -0.202
REMARK SMILES O=C([O-])c1ccccc1C(=O)[O-]
REMARK SMILES IDX 4 1 9 2 5 3 8 4 6 5 7 6 2 7 1 8 3 9 10 10 11 11 12 12
REMARK H PARENT
REMARK Flexibility Score: inf
ROOT
ATOM      1  C   UNL     1     -13.580 -15.815  -5.128  1.00  0.00     0.006 A 
ATOM      2  C   UNL     1     -13.649 -16.170  -3.752  1.00  0.00     0.006 A 
ATOM      3  C   UNL     1     -14.742 -15.910  -5.917  1.00  0.00     0.010 A 
ATOM      4  C   UNL     1     -14.858 -16.669  -3.233  1.00  0.00     0.010 A 
ATOM      5  C   UNL     1     -15.936 -16.387  -5.376  1.00  0.00     0.001 A 
ATOM      6  C   UNL     1     -15.991 -16.776  -4.040  1.00  0.00     0.001 A 
ENDROOT
BRANCH   1   7
ATOM      7  C   UNL     1     -12.321 -15.411  -5.795  1.00  0.00     0.072 C 
ATOM      8  O   UNL     1     -12.029 -14.195  -5.939  1.00  0.00    -0.545 OA
ATOM      9  O   UNL     1     -11.412 -16.376  -6.212  1.00  0.00    -0.545 OA
ENDBRANCH   1   7
BRANCH   2  10
ATOM     10  C   UNL     1     -12.517 -15.970  -2.817  1.00  0.00     0.072 C 
ATOM     11  O   UNL     1     -12.388 -14.877  -2.202  1.00  0.00    -0.545 OA
ATOM     12  O   UNL     1     -11.548 -16.953  -2.656  1.00  0.00    -0.545 OA
ENDBRANCH   2  10
TORSDOF 2
ENDMDL
MODEL 4
REMARK VINA RESULT:    -4.231     14.975     15.811
REMARK INTER + INTRA:          -4.928
REMARK INTER:                  -4.695
REMARK INTRA:                  -0.233
REMARK UNBOUND:                -0.202
REMARK SMILES O=C([O-])c1ccccc1C(=O)[O-]
REMARK SMILES IDX 4 1 9 2 5 3 8 4 6 5 7 6 2 7 1 8 3 9 10 10 11 11 12 12
REMARK H PARENT
REMARK Flexibility Score: inf
ROOT
ATOM      1  C   UNL     1     -13.711 -16.199  -3.734  1.00  0.00     0.006 A 
ATOM      2  C   UNL     1     -13.591 -15.788  -5.091  1.00  0.00     0.006 A 
ATOM      3  C   UNL     1     -14.940 -16.714  -3.283  1.00  0.00     0.010 A 
ATOM      4  C   UNL     1     -14.722 -15.845  -5.927  1.00  0.00     0.010 A 
ATOM      5  C   UNL     1     -16.043 -16.783  -4.135  1.00  0.00     0.001 A 
ATOM      6  C   UNL     1     -15.938 -16.338  -5.450  1.00  0.00     0.001 A 
ENDROOT
BRANCH   1   7
ATOM      7  C   UNL     1     -12.618 -16.048  -2.746  1.00  0.00     0.072 C 
ATOM      8  O   UNL     1     -11.815 -16.992  -2.525  1.00  0.00    -0.545 OA
ATOM      9  O   UNL     1     -12.427 -14.834  -2.098  1.00  0.00    -0.545 OA
ENDBRANCH   1   7
BRANCH   2  10
ATOM     10  C   UNL     1     -12.303 -15.365  -5.688  1.00  0.00     0.072 C 
ATOM     11  O   UNL     1     -11.521 -16.222  -6.181  1.00  0.00    -0.545 OA
ATOM     12  O   UNL     1     -11.908 -14.033  -5.653  1.00  0.00    -0.545 OA
ENDBRANCH   2  10
TORSDOF 2
ENDMDL
MODEL 5
REMARK VINA RESULT:    -4.228      2.382      3.795
REMARK INTER + INTRA:          -4.924
REMARK INTER:                  -4.699
REMARK INTRA:                  -0.225
REMARK UNBOUND:                -0.202
REMARK SMILES O=C([O-])c1ccccc1C(=O)[O-]
REMARK SMILES IDX 4 1 9 2 5 3 8 4 6 5 7 6 2 7 1 8 3 9 10 10 11 11 12 12
REMARK H PARENT
REMARK Flexibility Score: inf
ROOT
ATOM      1  C   UNL     1     -21.459  -7.171   6.096  1.00  0.00     0.006 A 
ATOM      2  C   UNL     1     -20.468  -6.156   6.206  1.00  0.00     0.006 A 
ATOM      3  C   UNL     1     -22.061  -7.406   4.847  1.00  0.00     0.010 A 
ATOM      4  C   UNL     1     -20.164  -5.371   5.078  1.00  0.00     0.010 A 
ATOM      5  C   UNL     1     -21.729  -6.630   3.736  1.00  0.00     0.001 A 
ATOM      6  C   UNL     1     -20.791  -5.608   3.854  1.00  0.00     0.001 A 
ENDROOT
BRANCH   1   7
ATOM      7  C   UNL     1     -21.943  -7.954   7.257  1.00  0.00     0.072 C 
ATOM      8  O   UNL     1     -21.536  -9.128   7.457  1.00  0.00    -0.545 OA
ATOM      9  O   UNL     1     -22.806  -7.373   8.178  1.00  0.00    -0.545 OA
ENDBRANCH   1   7
BRANCH   2  10
ATOM     10  C   UNL     1     -19.685  -5.933   7.443  1.00  0.00     0.072 C 
ATOM     11  O   UNL     1     -18.636  -6.599   7.658  1.00  0.00    -0.545 OA
ATOM     12  O   UNL     1     -20.128  -5.040   8.412  1.00  0.00    -0.545 OA
ENDBRANCH   2  10
TORSDOF 2
ENDMDL
MODEL 6
REMARK VINA RESULT:    -4.220      2.409      3.828
REMARK INTER + INTRA:          -4.915
REMARK INTER:                  -4.712
REMARK INTRA:                  -0.204
REMARK UNBOUND:                -0.202
REMARK SMILES O=C([O-])c1ccccc1C(=O)[O-]
REMARK SMILES IDX 4 1 9 2 5 3 8 4 6 5 7 6 2 7 1 8 3 9 10 10 11 11 12 12
REMARK H PARENT
REMARK Flexibility Score: inf
ROOT
ATOM      1  C   UNL     1     -20.503  -6.184   6.249  1.00  0.00     0.006 A 
ATOM      2  C   UNL     1     -21.488  -7.198   6.091  1.00  0.00     0.006 A 
ATOM      3  C   UNL     1     -20.152  -5.393   5.139  1.00  0.00     0.010 A 
ATOM      4  C   UNL     1     -22.037  -7.427   4.815  1.00  0.00     0.010 A 
ATOM      5  C   UNL     1     -20.725  -5.622   3.889  1.00  0.00     0.001 A 
ATOM      6  C   UNL     1     -21.657  -6.644   3.724  1.00  0.00     0.001 A 
ENDROOT
BRANCH   1   7
ATOM      7  C   UNL     1     -19.771  -5.962   7.518  1.00  0.00     0.072 C 
ATOM      8  O   UNL     1     -18.650  -6.501   7.718  1.00  0.00    -0.545 OA
ATOM      9  O   UNL     1     -20.286  -5.100   8.478  1.00  0.00    -0.545 OA
ENDBRANCH   1   7
BRANCH   2  10
ATOM     10  C   UNL     1     -22.019  -7.983   7.230  1.00  0.00     0.072 C 
ATOM     11  O   UNL     1     -21.746  -9.209   7.336  1.00  0.00    -0.545 OA
ATOM     12  O   UNL     1     -22.875  -7.399   8.156  1.00  0.00    -0.545 OA
ENDBRANCH   2  10
TORSDOF 2
ENDMDL
MODEL 7
REMARK VINA RESULT:    -4.203      4.410      5.894
REMARK INTER + INTRA:          -4.897
REMARK INTER:                  -4.671
REMARK INTRA:                  -0.225
REMARK UNBOUND:                -0.202
REMARK SMILES O=C([O-])c1ccccc1C(=O)[O-]
REMARK SMILES IDX 4 1 9 2 5 3 8 4 6 5 7 6 2 7 1 8 3 9 10 10 11 11 12 12
REMARK H PARENT
REMARK Flexibility Score: inf
ROOT
ATOM      1  C   UNL     1     -21.799  -9.362   6.899  1.00  0.00     0.006 A 
ATOM      2  C   UNL     1     -22.165  -8.125   7.498  1.00  0.00     0.006 A 
ATOM      3  C   UNL     1     -21.390  -9.375   5.552  1.00  0.00     0.010 A 
ATOM      4  C   UNL     1     -22.171  -6.958   6.710  1.00  0.00     0.010 A 
ATOM      5  C   UNL     1     -21.383  -8.203   4.796  1.00  0.00     0.001 A 
ATOM      6  C   UNL     1     -21.783  -6.999   5.370  1.00  0.00     0.001 A 
ENDROOT
BRANCH   1   7
ATOM      7  C   UNL     1     -21.894 -10.660   7.607  1.00  0.00     0.072 C 
ATOM      8  O   UNL     1     -20.870 -11.199   8.104  1.00  0.00    -0.545 OA
ATOM      9  O   UNL     1     -23.130 -11.267   7.788  1.00  0.00    -0.545 OA
ENDBRANCH   1   7
BRANCH   2  10
ATOM     10  C   UNL     1     -22.473  -7.995   8.941  1.00  0.00     0.072 C 
ATOM     11  O   UNL     1     -21.541  -7.876   9.780  1.00  0.00    -0.545 OA
ATOM     12  O   UNL     1     -23.785  -8.069   9.395  1.00  0.00    -0.545 OA
ENDBRANCH   2  10
TORSDOF 2
ENDMDL
MODEL 8
REMARK VINA RESULT:    -4.196      4.421      5.767
REMARK INTER + INTRA:          -4.889
REMARK INTER:                  -4.677
REMARK INTRA:                  -0.212
REMARK UNBOUND:                -0.202
REMARK SMILES O=C([O-])c1ccccc1C(=O)[O-]
REMARK SMILES IDX 4 1 9 2 5 3 8 4 6 5 7 6 2 7 1 8 3 9 10 10 11 11 12 12
REMARK H PARENT
REMARK Flexibility Score: inf
ROOT
ATOM      1  C   UNL     1     -22.168  -8.135   7.539  1.00  0.00     0.006 A 
ATOM      2  C   UNL     1     -21.800  -9.362   6.919  1.00  0.00     0.006 A 
ATOM      3  C   UNL     1     -22.187  -6.958   6.768  1.00  0.00     0.010 A 
ATOM      4  C   UNL     1     -21.402  -9.354   5.569  1.00  0.00     0.010 A 
ATOM      5  C   UNL     1     -21.810  -6.978   5.425  1.00  0.00     0.001 A 
ATOM      6  C   UNL     1     -21.407  -8.170   4.830  1.00  0.00     0.001 A 
ENDROOT
BRANCH   1   7
ATOM      7  C   UNL     1     -22.468  -8.021   8.985  1.00  0.00     0.072 C 
ATOM      8  O   UNL     1     -21.544  -7.846   9.823  1.00  0.00    -0.545 OA
ATOM      9  O   UNL     1     -23.785  -8.041   9.428  1.00  0.00    -0.545 OA
ENDBRANCH   1   7
BRANCH   2  10
ATOM     10  C   UNL     1     -21.886 -10.667   7.614  1.00  0.00     0.072 C 
ATOM     11  O   UNL     1     -20.835 -11.260   7.981  1.00  0.00    -0.545 OA
ATOM     12  O   UNL     1     -23.114 -11.287   7.811  1.00  0.00    -0.545 OA
ENDBRANCH   2  10
TORSDOF 2
ENDMDL
MODEL 9
REMARK VINA RESULT:    -4.119     15.608     16.680
REMARK INTER + INTRA:          -4.803
REMARK INTER:                  -4.577
REMARK INTRA:                  -0.225
REMARK UNBOUND:                -0.202
REMARK SMILES O=C([O-])c1ccccc1C(=O)[O-]
REMARK SMILES IDX 4 1 9 2 5 3 8 4 6 5 7 6 2 7 1 8 3 9 10 10 11 11 12 12
REMARK H PARENT
REMARK Flexibility Score: inf
ROOT
ATOM      1  C   UNL     1     -14.196 -15.910  -5.810  1.00  0.00     0.006 A 
ATOM      2  C   UNL     1     -15.553 -16.331  -5.734  1.00  0.00     0.006 A 
ATOM      3  C   UNL     1     -13.410 -15.925  -4.643  1.00  0.00     0.010 A 
ATOM      4  C   UNL     1     -16.090 -16.689  -4.483  1.00  0.00     0.010 A 
ATOM      5  C   UNL     1     -13.957 -16.304  -3.417  1.00  0.00     0.001 A 
ATOM      6  C   UNL     1     -15.297 -16.674  -3.335  1.00  0.00     0.001 A 
ENDROOT
BRANCH   1   7
ATOM      7  C   UNL     1     -13.583 -15.386  -7.052  1.00  0.00     0.072 C 
ATOM      8  O   UNL     1     -13.603 -14.153  -7.311  1.00  0.00    -0.545 OA
ATOM      9  O   UNL     1     -12.917 -16.245  -7.917  1.00  0.00    -0.545 OA
ENDBRANCH   1   7
BRANCH   2  10
ATOM     10  C   UNL     1     -16.412 -16.480  -6.931  1.00  0.00     0.072 C 
ATOM     11  O   UNL     1     -16.388 -17.548  -7.600  1.00  0.00    -0.545 OA
ATOM     12  O   UNL     1     -17.204 -15.426  -7.371  1.00  0.00    -0.545 OA
ENDBRANCH   2  10
TORSDOF 2
ENDMDL
