MODEL 1
REMARK VINA RESULT:    -6.265      0.000      0.000
REMARK INTER + INTRA:          -6.730
REMARK INTER:                  -6.631
REMARK INTRA:                  -0.099
REMARK UNBOUND:                -0.099
REMARK SMILES C=C(C)[C@@H]1CC=C(C)C(=O)C1
REMARK SMILES IDX 8 1 7 2 6 3 5 4 4 5 11 6 9 7 10 8 2 9 1 10 3 11
REMARK H PARENT
REMARK Flexibility Score: inf
ROOT
ATOM      1  C   UNL     1      17.007 -24.173  13.675  1.00  0.00     0.048 C 
ATOM      2  C   UNL     1      18.301 -24.006  14.422  1.00  0.00    -0.012 C 
ATOM      3  C   UNL     1      18.481 -22.938  15.219  1.00  0.00    -0.019 C 
ATOM      4  C   UNL     1      19.749 -22.732  16.003  1.00  0.00     0.036 C 
ATOM      5  C   UNL     1      20.967 -23.298  15.248  1.00  0.00     0.025 C 
ATOM      6  C   UNL     1      20.735 -24.778  14.893  1.00  0.00     0.089 C 
ATOM      7  C   UNL     1      19.421 -24.952  14.184  1.00  0.00     0.158 C 
ATOM      8  O   UNL     1      19.266 -25.934  13.410  1.00  0.00    -0.295 OA
ENDROOT
BRANCH   5   9
ATOM      9  C   UNL     1      22.252 -23.111  16.043  1.00  0.00    -0.077 C 
ATOM     10  C   UNL     1      22.973 -24.179  16.419  1.00  0.00     0.008 C 
ATOM     11  C   UNL     1      22.745 -21.737  16.429  1.00  0.00     0.039 C 
ENDBRANCH   5   9
TORSDOF 1
ENDMDL
MODEL 2
REMARK VINA RESULT:    -6.167      4.198      6.357
REMARK INTER + INTRA:          -6.627
REMARK INTER:                  -6.529
REMARK INTRA:                  -0.098
REMARK UNBOUND:                -0.099
REMARK SMILES C=C(C)[C@@H]1CC=C(C)C(=O)C1
REMARK SMILES IDX 8 1 7 2 6 3 5 4 4 5 11 6 9 7 10 8 2 9 1 10 3 11
REMARK H PARENT
REMARK Flexibility Score: inf
ROOT
ATOM      1  C   UNL     1      23.381 -24.245  22.246  1.00  0.00     0.048 C 
ATOM      2  C   UNL     1      23.109 -23.766  20.846  1.00  0.00    -0.012 C 
ATOM      3  C   UNL     1      23.680 -24.393  19.803  1.00  0.00    -0.019 C 
ATOM      4  C   UNL     1      23.427 -23.968  18.381  1.00  0.00     0.036 C 
ATOM      5  C   UNL     1      23.200 -22.447  18.289  1.00  0.00     0.025 C 
ATOM      6  C   UNL     1      22.064 -22.018  19.236  1.00  0.00     0.089 C 
ATOM      7  C   UNL     1      22.314 -22.532  20.627  1.00  0.00     0.158 C 
ATOM      8  O   UNL     1      21.807 -21.923  21.607  1.00  0.00    -0.295 OA
ENDROOT
BRANCH   5   9
ATOM      9  C   UNL     1      22.925 -22.010  16.857  1.00  0.00    -0.077 C 
ATOM     10  C   UNL     1      22.242 -22.814  16.026  1.00  0.00     0.008 C 
ATOM     11  C   UNL     1      23.407 -20.679  16.335  1.00  0.00     0.039 C 
ENDBRANCH   5   9
TORSDOF 1
ENDMDL
MODEL 3
REMARK VINA RESULT:    -6.121      5.965      6.468
REMARK INTER + INTRA:          -6.577
REMARK INTER:                  -6.480
REMARK INTRA:                  -0.097
REMARK UNBOUND:                -0.099
REMARK SMILES C=C(C)[C@@H]1CC=C(C)C(=O)C1
REMARK SMILES IDX 8 1 7 2 6 3 5 4 4 5 11 6 9 7 10 8 2 9 1 10 3 11
REMARK H PARENT
REMARK Flexibility Score: inf
ROOT
ATOM      1  C   UNL     1      22.242 -24.776  21.517  1.00  0.00     0.048 C 
ATOM      2  C   UNL     1      22.871 -23.613  20.800  1.00  0.00    -0.012 C 
ATOM      3  C   UNL     1      22.425 -22.366  21.029  1.00  0.00    -0.019 C 
ATOM      4  C   UNL     1      23.030 -21.165  20.353  1.00  0.00     0.036 C 
ATOM      5  C   UNL     1      23.530 -21.518  18.939  1.00  0.00     0.025 C 
ATOM      6  C   UNL     1      24.507 -22.707  18.999  1.00  0.00     0.089 C 
ATOM      7  C   UNL     1      23.895 -23.855  19.753  1.00  0.00     0.158 C 
ATOM      8  O   UNL     1      24.289 -25.027  19.512  1.00  0.00    -0.295 OA
ENDROOT
BRANCH   5   9
ATOM      9  C   UNL     1      24.162 -20.313  18.255  1.00  0.00    -0.077 C 
ATOM     10  C   UNL     1      24.976 -19.497  18.943  1.00  0.00     0.008 C 
ATOM     11  C   UNL     1      23.893 -20.004  16.802  1.00  0.00     0.039 C 
ENDBRANCH   5   9
TORSDOF 1
ENDMDL
MODEL 4
REMARK VINA RESULT:    -6.095      5.095      6.322
REMARK INTER + INTRA:          -6.550
REMARK INTER:                  -6.453
REMARK INTRA:                  -0.097
REMARK UNBOUND:                -0.099
REMARK SMILES C=C(C)[C@@H]1CC=C(C)C(=O)C1
REMARK SMILES IDX 8 1 7 2 6 3 5 4 4 5 11 6 9 7 10 8 2 9 1 10 3 11
REMARK H PARENT
REMARK Flexibility Score: inf
ROOT
ATOM      1  C   UNL     1      23.782 -19.030  15.692  1.00  0.00     0.048 C 
ATOM      2  C   UNL     1      23.742 -20.176  16.666  1.00  0.00    -0.012 C 
ATOM      3  C   UNL     1      22.989 -21.257  16.395  1.00  0.00    -0.019 C 
ATOM      4  C   UNL     1      22.928 -22.439  17.325  1.00  0.00     0.036 C 
ATOM      5  C   UNL     1      23.079 -21.998  18.794  1.00  0.00     0.025 C 
ATOM      6  C   UNL     1      24.370 -21.180  18.976  1.00  0.00     0.089 C 
ATOM      7  C   UNL     1      24.432 -20.060  17.974  1.00  0.00     0.158 C 
ATOM      8  O   UNL     1      25.109 -19.032  18.244  1.00  0.00    -0.295 OA
ENDROOT
BRANCH   5   9
ATOM      9  C   UNL     1      23.036 -23.189  19.741  1.00  0.00    -0.077 C 
ATOM     10  C   UNL     1      23.724 -24.305  19.451  1.00  0.00     0.008 C 
ATOM     11  C   UNL     1      22.229 -23.152  21.016  1.00  0.00     0.039 C 
ENDBRANCH   5   9
TORSDOF 1
ENDMDL
MODEL 5
REMARK VINA RESULT:    -6.086      5.308      8.302
REMARK INTER + INTRA:          -6.541
REMARK INTER:                  -6.448
REMARK INTRA:                  -0.092
REMARK UNBOUND:                -0.099
REMARK SMILES C=C(C)[C@@H]1CC=C(C)C(=O)C1
REMARK SMILES IDX 8 1 7 2 6 3 5 4 4 5 11 6 9 7 10 8 2 9 1 10 3 11
REMARK H PARENT
REMARK Flexibility Score: inf
ROOT
ATOM      1  C   UNL     1      29.735 -27.223  18.111  1.00  0.00     0.048 C 
ATOM      2  C   UNL     1      28.435 -26.468  18.082  1.00  0.00    -0.012 C 
ATOM      3  C   UNL     1      28.248 -25.427  18.913  1.00  0.00    -0.019 C 
ATOM      4  C   UNL     1      26.974 -24.626  18.913  1.00  0.00     0.036 C 
ATOM      5  C   UNL     1      25.762 -25.509  18.559  1.00  0.00     0.025 C 
ATOM      6  C   UNL     1      25.999 -26.227  17.218  1.00  0.00     0.089 C 
ATOM      7  C   UNL     1      27.319 -26.948  17.229  1.00  0.00     0.158 C 
ATOM      8  O   UNL     1      27.480 -27.945  16.476  1.00  0.00    -0.295 OA
ENDROOT
BRANCH   5   9
ATOM      9  C   UNL     1      24.471 -24.703  18.538  1.00  0.00    -0.077 C 
ATOM     10  C   UNL     1      24.039 -24.093  19.654  1.00  0.00     0.008 C 
ATOM     11  C   UNL     1      23.649 -24.567  17.280  1.00  0.00     0.039 C 
ENDBRANCH   5   9
TORSDOF 1
ENDMDL
MODEL 6
REMARK VINA RESULT:    -6.045      7.243     10.353
REMARK INTER + INTRA:          -6.497
REMARK INTER:                  -6.399
REMARK INTRA:                  -0.098
REMARK UNBOUND:                -0.099
REMARK SMILES C=C(C)[C@@H]1CC=C(C)C(=O)C1
REMARK SMILES IDX 8 1 7 2 6 3 5 4 4 5 11 6 9 7 10 8 2 9 1 10 3 11
REMARK H PARENT
REMARK Flexibility Score: inf
ROOT
ATOM      1  C   UNL     1      29.757 -17.959  20.607  1.00  0.00     0.048 C 
ATOM      2  C   UNL     1      28.430 -18.584  20.275  1.00  0.00    -0.012 C 
ATOM      3  C   UNL     1      28.364 -19.568  19.360  1.00  0.00    -0.019 C 
ATOM      4  C   UNL     1      27.066 -20.240  19.004  1.00  0.00     0.036 C 
ATOM      5  C   UNL     1      25.884 -19.257  19.111  1.00  0.00     0.025 C 
ATOM      6  C   UNL     1      25.845 -18.620  20.512  1.00  0.00     0.089 C 
ATOM      7  C   UNL     1      27.184 -18.032  20.863  1.00  0.00     0.158 C 
ATOM      8  O   UNL     1      27.240 -17.086  21.693  1.00  0.00    -0.295 OA
ENDROOT
BRANCH   5   9
ATOM      9  C   UNL     1      24.564 -19.934  18.770  1.00  0.00    -0.077 C 
ATOM     10  C   UNL     1      23.756 -20.368  19.751  1.00  0.00     0.008 C 
ATOM     11  C   UNL     1      24.130 -20.136  17.338  1.00  0.00     0.039 C 
ENDBRANCH   5   9
TORSDOF 1
ENDMDL
MODEL 7
REMARK VINA RESULT:    -6.020      4.452      5.901
REMARK INTER + INTRA:          -6.471
REMARK INTER:                  -6.373
REMARK INTRA:                  -0.098
REMARK UNBOUND:                -0.099
REMARK SMILES C=C(C)[C@@H]1CC=C(C)C(=O)C1
REMARK SMILES IDX 8 1 7 2 6 3 5 4 4 5 11 6 9 7 10 8 2 9 1 10 3 11
REMARK H PARENT
REMARK Flexibility Score: inf
ROOT
ATOM      1  C   UNL     1      24.322 -19.677  15.658  1.00  0.00     0.048 C 
ATOM      2  C   UNL     1      23.826 -20.403  16.879  1.00  0.00    -0.012 C 
ATOM      3  C   UNL     1      24.237 -20.016  18.099  1.00  0.00    -0.019 C 
ATOM      4  C   UNL     1      23.758 -20.695  19.354  1.00  0.00     0.036 C 
ATOM      5  C   UNL     1      23.494 -22.193  19.109  1.00  0.00     0.025 C 
ATOM      6  C   UNL     1      22.513 -22.376  17.936  1.00  0.00     0.089 C 
ATOM      7  C   UNL     1      22.985 -21.616  16.728  1.00  0.00     0.158 C 
ATOM      8  O   UNL     1      22.628 -22.001  15.582  1.00  0.00    -0.295 OA
ENDROOT
BRANCH   5   9
ATOM      9  C   UNL     1      22.991 -22.884  20.369  1.00  0.00    -0.077 C 
ATOM     10  C   UNL     1      22.182 -22.231  21.218  1.00  0.00     0.008 C 
ATOM     11  C   UNL     1      23.383 -24.304  20.696  1.00  0.00     0.039 C 
ENDBRANCH   5   9
TORSDOF 1
ENDMDL
MODEL 8
REMARK VINA RESULT:    -5.859      8.659     11.353
REMARK INTER + INTRA:          -6.301
REMARK INTER:                  -6.205
REMARK INTRA:                  -0.096
REMARK UNBOUND:                -0.099
REMARK SMILES C=C(C)[C@@H]1CC=C(C)C(=O)C1
REMARK SMILES IDX 8 1 7 2 6 3 5 4 4 5 11 6 9 7 10 8 2 9 1 10 3 11
REMARK H PARENT
REMARK Flexibility Score: inf
ROOT
ATOM      1  C   UNL     1      25.787 -20.093  19.056  1.00  0.00     0.048 C 
ATOM      2  C   UNL     1      26.853 -19.274  19.731  1.00  0.00    -0.012 C 
ATOM      3  C   UNL     1      26.504 -18.264  20.547  1.00  0.00    -0.019 C 
ATOM      4  C   UNL     1      27.528 -17.426  21.263  1.00  0.00     0.036 C 
ATOM      5  C   UNL     1      28.811 -17.280  20.423  1.00  0.00     0.025 C 
ATOM      6  C   UNL     1      29.358 -18.667  20.039  1.00  0.00     0.089 C 
ATOM      7  C   UNL     1      28.282 -19.502  19.401  1.00  0.00     0.158 C 
ATOM      8  O   UNL     1      28.610 -20.426  18.609  1.00  0.00    -0.295 OA
ENDROOT
BRANCH   5   9
ATOM      9  C   UNL     1      29.861 -16.449  21.147  1.00  0.00    -0.077 C 
ATOM     10  C   UNL     1      29.492 -15.379  21.870  1.00  0.00     0.008 C 
ATOM     11  C   UNL     1      31.328 -16.797  21.074  1.00  0.00     0.039 C 
ENDBRANCH   5   9
TORSDOF 1
ENDMDL
MODEL 9
REMARK VINA RESULT:    -5.744      5.734      6.565
REMARK INTER + INTRA:          -6.179
REMARK INTER:                  -6.091
REMARK INTRA:                  -0.087
REMARK UNBOUND:                -0.099
REMARK SMILES C=C(C)[C@@H]1CC=C(C)C(=O)C1
REMARK SMILES IDX 8 1 7 2 6 3 5 4 4 5 11 6 9 7 10 8 2 9 1 10 3 11
REMARK H PARENT
REMARK Flexibility Score: inf
ROOT
ATOM      1  C   UNL     1      21.491 -21.297  21.250  1.00  0.00     0.048 C 
ATOM      2  C   UNL     1      22.475 -22.180  20.534  1.00  0.00    -0.012 C 
ATOM      3  C   UNL     1      22.836 -21.891  19.271  1.00  0.00    -0.019 C 
ATOM      4  C   UNL     1      23.831 -22.729  18.514  1.00  0.00     0.036 C 
ATOM      5  C   UNL     1      23.742 -24.209  18.932  1.00  0.00     0.025 C 
ATOM      6  C   UNL     1      23.907 -24.344  20.457  1.00  0.00     0.089 C 
ATOM      7  C   UNL     1      22.952 -23.431  21.175  1.00  0.00     0.158 C 
ATOM      8  O   UNL     1      22.587 -23.721  22.345  1.00  0.00    -0.295 OA
ENDROOT
BRANCH   5   9
ATOM      9  C   UNL     1      24.758 -25.062  18.185  1.00  0.00    -0.077 C 
ATOM     10  C   UNL     1      24.382 -25.771  17.109  1.00  0.00     0.008 C 
ATOM     11  C   UNL     1      26.199 -25.136  18.627  1.00  0.00     0.039 C 
ENDBRANCH   5   9
TORSDOF 1
ENDMDL
