MODEL 1
REMARK VINA RESULT:    -4.178      0.000      0.000
REMARK INTER + INTRA:         -12.360
REMARK INTER:                  -9.064
REMARK INTRA:                  -3.297
REMARK UNBOUND:                -3.297
REMARK SMILES CCCCCCCCCCCCCCCCCCCCCC(=O)[O-]
REMARK SMILES IDX 12 1 11 2 10 3 9 4 8 5 7 6 6 7 5 8 4 9 3 10 2 11 1 12 13 13
REMARK SMILES IDX 14 14 15 15 16 16 17 17 18 18 19 19 20 20 21 21 22 22 23 23
REMARK SMILES IDX 24 24
REMARK H PARENT
REMARK Flexibility Score: inf
ROOT
ATOM      1  C   UNL     1      29.078  11.667 -16.126  1.00  0.00     0.000 C 
ENDROOT
BRANCH   1   2
ATOM      2  C   UNL     1      29.342  11.151 -14.701  1.00  0.00     0.000 C 
BRANCH   2   3
ATOM      3  C   UNL     1      30.541  11.844 -14.031  1.00  0.00     0.000 C 
BRANCH   3   4
ATOM      4  C   UNL     1      30.362  12.025 -12.515  1.00  0.00    -0.000 C 
BRANCH   4   5
ATOM      5  C   UNL     1      29.149  11.263 -11.940  1.00  0.00    -0.000 C 
BRANCH   5   6
ATOM      6  C   UNL     1      29.424  10.715 -10.531  1.00  0.00    -0.000 C 
BRANCH   6   7
ATOM      7  C   UNL     1      30.643   9.779 -10.530  1.00  0.00    -0.000 C 
BRANCH   7   8
ATOM      8  C   UNL     1      30.389   8.482 -11.323  1.00  0.00    -0.000 C 
BRANCH   8   9
ATOM      9  C   UNL     1      31.117   8.423 -12.679  1.00  0.00    -0.000 C 
BRANCH   9  10
ATOM     10  C   UNL     1      30.338   7.619 -13.735  1.00  0.00    -0.000 C 
BRANCH  10  11
ATOM     11  C   UNL     1      28.822   7.640 -13.482  1.00  0.00    -0.003 C 
ATOM     12  C   UNL     1      28.190   6.251 -13.588  1.00  0.00     0.004 C 
ENDBRANCH  10  11
ENDBRANCH   9  10
ENDBRANCH   8   9
ENDBRANCH   7   8
ENDBRANCH   6   7
ENDBRANCH   5   6
ENDBRANCH   4   5
ENDBRANCH   3   4
ENDBRANCH   2   3
ENDBRANCH   1   2
BRANCH   1  13
ATOM     13  C   UNL     1      30.307  11.553 -17.040  1.00  0.00     0.000 C 
BRANCH  13  14
ATOM     14  C   UNL     1      30.402  12.761 -17.983  1.00  0.00     0.000 C 
BRANCH  14  15
ATOM     15  C   UNL     1      29.254  13.772 -17.787  1.00  0.00     0.000 C 
BRANCH  15  16
ATOM     16  C   UNL     1      29.679  15.150 -17.242  1.00  0.00     0.000 C 
BRANCH  16  17
ATOM     17  C   UNL     1      30.646  15.115 -16.043  1.00  0.00     0.000 C 
BRANCH  17  18
ATOM     18  C   UNL     1      30.053  15.700 -14.744  1.00  0.00     0.000 C 
BRANCH  18  19
ATOM     19  C   UNL     1      28.878  14.869 -14.200  1.00  0.00     0.000 C 
BRANCH  19  20
ATOM     20  C   UNL     1      28.090  15.602 -13.103  1.00  0.00     0.006 C 
BRANCH  20  21
ATOM     21  C   UNL     1      27.823  14.719 -11.876  1.00  0.00     0.053 C 
BRANCH  21  22
ATOM     22  C   UNL     1      26.353  14.505 -11.693  1.00  0.00     0.041 C 
ATOM     23  O   UNL     1      25.528  15.162 -12.382  1.00  0.00    -0.550 OA
ATOM     24  O   UNL     1      25.893  13.620 -10.727  1.00  0.00    -0.550 OA
ENDBRANCH  21  22
ENDBRANCH  20  21
ENDBRANCH  19  20
ENDBRANCH  18  19
ENDBRANCH  17  18
ENDBRANCH  16  17
ENDBRANCH  15  16
ENDBRANCH  14  15
ENDBRANCH  13  14
ENDBRANCH   1  13
TORSDOF 20
ENDMDL
MODEL 2
REMARK VINA RESULT:    -4.095      3.363      5.998
REMARK INTER + INTRA:         -12.180
REMARK INTER:                  -9.195
REMARK INTRA:                  -2.985
REMARK UNBOUND:                -3.297
REMARK SMILES CCCCCCCCCCCCCCCCCCCCCC(=O)[O-]
REMARK SMILES IDX 12 1 11 2 10 3 9 4 8 5 7 6 6 7 5 8 4 9 3 10 2 11 1 12 13 13
REMARK SMILES IDX 14 14 15 15 16 16 17 17 18 18 19 19 20 20 21 21 22 22 23 23
REMARK SMILES IDX 24 24
REMARK H PARENT
REMARK Flexibility Score: inf
ROOT
ATOM      1  C   UNL     1      28.650  12.442 -15.092  1.00  0.00     0.000 C 
ENDROOT
BRANCH   1   2
ATOM      2  C   UNL     1      29.913  13.198 -14.642  1.00  0.00     0.000 C 
BRANCH   2   3
ATOM      3  C   UNL     1      31.083  12.257 -14.310  1.00  0.00     0.000 C 
BRANCH   3   4
ATOM      4  C   UNL     1      30.631  10.928 -13.684  1.00  0.00    -0.000 C 
BRANCH   4   5
ATOM      5  C   UNL     1      30.618  10.945 -12.140  1.00  0.00    -0.000 C 
BRANCH   5   6
ATOM      6  C   UNL     1      29.369  10.261 -11.564  1.00  0.00    -0.000 C 
BRANCH   6   7
ATOM      7  C   UNL     1      28.480  11.269 -10.818  1.00  0.00    -0.000 C 
BRANCH   7   8
ATOM      8  C   UNL     1      28.810  12.729 -11.186  1.00  0.00    -0.000 C 
BRANCH   8   9
ATOM      9  C   UNL     1      27.594  13.548 -11.658  1.00  0.00    -0.000 C 
BRANCH   9  10
ATOM     10  C   UNL     1      26.294  13.144 -10.940  1.00  0.00    -0.000 C 
BRANCH  10  11
ATOM     11  C   UNL     1      25.273  14.293 -10.894  1.00  0.00    -0.003 C 
ATOM     12  C   UNL     1      25.121  14.997 -12.244  1.00  0.00     0.004 C 
ENDBRANCH  10  11
ENDBRANCH   9  10
ENDBRANCH   8   9
ENDBRANCH   7   8
ENDBRANCH   6   7
ENDBRANCH   5   6
ENDBRANCH   4   5
ENDBRANCH   3   4
ENDBRANCH   2   3
ENDBRANCH   1   2
BRANCH   1  13
ATOM     13  C   UNL     1      28.225  12.791 -16.526  1.00  0.00     0.000 C 
BRANCH  13  14
ATOM     14  C   UNL     1      29.216  13.775 -17.165  1.00  0.00     0.000 C 
BRANCH  14  15
ATOM     15  C   UNL     1      29.946  13.188 -18.388  1.00  0.00     0.000 C 
BRANCH  15  16
ATOM     16  C   UNL     1      30.902  12.017 -18.083  1.00  0.00     0.000 C 
BRANCH  16  17
ATOM     17  C   UNL     1      30.848  10.844 -19.081  1.00  0.00     0.000 C 
BRANCH  17  18
ATOM     18  C   UNL     1      30.803   9.455 -18.412  1.00  0.00     0.000 C 
BRANCH  18  19
ATOM     19  C   UNL     1      30.609   9.534 -16.887  1.00  0.00     0.000 C 
BRANCH  19  20
ATOM     20  C   UNL     1      29.288   8.903 -16.423  1.00  0.00     0.006 C 
BRANCH  20  21
ATOM     21  C   UNL     1      28.898   7.669 -17.249  1.00  0.00     0.053 C 
BRANCH  21  22
ATOM     22  C   UNL     1      28.862   6.448 -16.384  1.00  0.00     0.041 C 
ATOM     23  O   UNL     1      28.057   5.516 -16.641  1.00  0.00    -0.550 OA
ATOM     24  O   UNL     1      29.680   6.363 -15.265  1.00  0.00    -0.550 OA
ENDBRANCH  21  22
ENDBRANCH  20  21
ENDBRANCH  19  20
ENDBRANCH  18  19
ENDBRANCH  17  18
ENDBRANCH  16  17
ENDBRANCH  15  16
ENDBRANCH  14  15
ENDBRANCH  13  14
ENDBRANCH   1  13
TORSDOF 20
ENDMDL
MODEL 3
REMARK VINA RESULT:    -3.961      3.696      5.941
REMARK INTER + INTRA:         -11.889
REMARK INTER:                  -8.935
REMARK INTRA:                  -2.954
REMARK UNBOUND:                -3.297
REMARK SMILES CCCCCCCCCCCCCCCCCCCCCC(=O)[O-]
REMARK SMILES IDX 12 1 11 2 10 3 9 4 8 5 7 6 6 7 5 8 4 9 3 10 2 11 1 12 13 13
REMARK SMILES IDX 14 14 15 15 16 16 17 17 18 18 19 19 20 20 21 21 22 22 23 23
REMARK SMILES IDX 24 24
REMARK H PARENT
REMARK Flexibility Score: inf
ROOT
ATOM      1  C   UNL     1      28.593  12.464 -14.896  1.00  0.00     0.000 C 
ENDROOT
BRANCH   1   2
ATOM      2  C   UNL     1      29.792  13.378 -14.589  1.00  0.00     0.000 C 
BRANCH   2   3
ATOM      3  C   UNL     1      31.087  12.592 -14.324  1.00  0.00     0.000 C 
BRANCH   3   4
ATOM      4  C   UNL     1      30.988  11.112 -14.728  1.00  0.00    -0.000 C 
BRANCH   4   5
ATOM      5  C   UNL     1      31.109  10.137 -13.537  1.00  0.00    -0.000 C 
BRANCH   5   6
ATOM      6  C   UNL     1      29.913   9.176 -13.452  1.00  0.00    -0.000 C 
BRANCH   6   7
ATOM      7  C   UNL     1      29.923   8.395 -12.128  1.00  0.00    -0.000 C 
BRANCH   7   8
ATOM      8  C   UNL     1      30.776   9.085 -11.045  1.00  0.00    -0.000 C 
BRANCH   8   9
ATOM      9  C   UNL     1      29.955   9.870 -10.006  1.00  0.00    -0.000 C 
BRANCH   9  10
ATOM     10  C   UNL     1      30.167  11.390 -10.109  1.00  0.00    -0.000 C 
BRANCH  10  11
ATOM     11  C   UNL     1      29.229  12.040 -11.139  1.00  0.00    -0.003 C 
ATOM     12  C   UNL     1      27.757  11.712 -10.882  1.00  0.00     0.004 C 
ENDBRANCH  10  11
ENDBRANCH   9  10
ENDBRANCH   8   9
ENDBRANCH   7   8
ENDBRANCH   6   7
ENDBRANCH   5   6
ENDBRANCH   4   5
ENDBRANCH   3   4
ENDBRANCH   2   3
ENDBRANCH   1   2
BRANCH   1  13
ATOM     13  C   UNL     1      28.165  12.514 -16.370  1.00  0.00     0.000 C 
BRANCH  13  14
ATOM     14  C   UNL     1      28.894  13.645 -17.112  1.00  0.00     0.000 C 
BRANCH  14  15
ATOM     15  C   UNL     1      29.633  13.160 -18.374  1.00  0.00     0.000 C 
BRANCH  15  16
ATOM     16  C   UNL     1      30.961  12.422 -18.115  1.00  0.00     0.000 C 
BRANCH  16  17
ATOM     17  C   UNL     1      31.044  10.994 -18.689  1.00  0.00     0.000 C 
BRANCH  17  18
ATOM     18  C   UNL     1      30.323   9.933 -17.832  1.00  0.00     0.000 C 
BRANCH  18  19
ATOM     19  C   UNL     1      30.417   8.519 -18.433  1.00  0.00     0.000 C 
BRANCH  19  20
ATOM     20  C   UNL     1      29.690   7.464 -17.585  1.00  0.00     0.006 C 
BRANCH  20  21
ATOM     21  C   UNL     1      28.930   6.440 -18.438  1.00  0.00     0.053 C 
BRANCH  21  22
ATOM     22  C   UNL     1      27.951   5.680 -17.599  1.00  0.00     0.041 C 
ATOM     23  O   UNL     1      28.264   4.557 -17.123  1.00  0.00    -0.550 OA
ATOM     24  O   UNL     1      26.676   6.187 -17.385  1.00  0.00    -0.550 OA
ENDBRANCH  21  22
ENDBRANCH  20  21
ENDBRANCH  19  20
ENDBRANCH  18  19
ENDBRANCH  17  18
ENDBRANCH  16  17
ENDBRANCH  15  16
ENDBRANCH  14  15
ENDBRANCH  13  14
ENDBRANCH   1  13
TORSDOF 20
ENDMDL
MODEL 4
REMARK VINA RESULT:    -3.907      1.904      5.690
REMARK INTER + INTRA:         -11.772
REMARK INTER:                  -9.691
REMARK INTRA:                  -2.082
REMARK UNBOUND:                -3.297
REMARK SMILES CCCCCCCCCCCCCCCCCCCCCC(=O)[O-]
REMARK SMILES IDX 12 1 11 2 10 3 9 4 8 5 7 6 6 7 5 8 4 9 3 10 2 11 1 12 13 13
REMARK SMILES IDX 14 14 15 15 16 16 17 17 18 18 19 19 20 20 21 21 22 22 23 23
REMARK SMILES IDX 24 24
REMARK H PARENT
REMARK Flexibility Score: inf
ROOT
ATOM      1  C   UNL     1      30.674   9.050 -11.892  1.00  0.00     0.000 C 
ENDROOT
BRANCH   1   2
ATOM      2  C   UNL     1      30.037   7.738 -12.382  1.00  0.00     0.000 C 
BRANCH   2   3
ATOM      3  C   UNL     1      28.957   7.964 -13.453  1.00  0.00     0.000 C 
BRANCH   3   4
ATOM      4  C   UNL     1      29.457   7.687 -14.880  1.00  0.00    -0.000 C 
BRANCH   4   5
ATOM      5  C   UNL     1      30.167   8.893 -15.532  1.00  0.00    -0.000 C 
BRANCH   5   6
ATOM      6  C   UNL     1      29.235  10.108 -15.671  1.00  0.00    -0.000 C 
BRANCH   6   7
ATOM      7  C   UNL     1      29.708  11.272 -14.787  1.00  0.00    -0.000 C 
BRANCH   7   8
ATOM      8  C   UNL     1      28.768  12.491 -14.865  1.00  0.00    -0.000 C 
BRANCH   8   9
ATOM      9  C   UNL     1      29.175  13.530 -15.926  1.00  0.00    -0.000 C 
BRANCH   9  10
ATOM     10  C   UNL     1      28.518  13.270 -17.293  1.00  0.00    -0.000 C 
BRANCH  10  11
ATOM     11  C   UNL     1      29.545  13.243 -18.437  1.00  0.00    -0.003 C 
ATOM     12  C   UNL     1      30.757  12.367 -18.117  1.00  0.00     0.004 C 
ENDBRANCH  10  11
ENDBRANCH   9  10
ENDBRANCH   8   9
ENDBRANCH   7   8
ENDBRANCH   6   7
ENDBRANCH   5   6
ENDBRANCH   4   5
ENDBRANCH   3   4
ENDBRANCH   2   3
ENDBRANCH   1   2
BRANCH   1  13
ATOM     13  C   UNL     1      30.438   9.307 -10.397  1.00  0.00     0.000 C 
BRANCH  13  14
ATOM     14  C   UNL     1      29.280  10.293 -10.187  1.00  0.00     0.000 C 
BRANCH  14  15
ATOM     15  C   UNL     1      28.918  11.079 -11.463  1.00  0.00     0.000 C 
BRANCH  15  16
ATOM     16  C   UNL     1      28.223  12.434 -11.223  1.00  0.00     0.000 C 
BRANCH  16  17
ATOM     17  C   UNL     1      26.736  12.351 -10.826  1.00  0.00     0.000 C 
BRANCH  17  18
ATOM     18  C   UNL     1      25.831  13.350 -11.578  1.00  0.00     0.000 C 
BRANCH  18  19
ATOM     19  C   UNL     1      26.476  14.739 -11.731  1.00  0.00     0.000 C 
BRANCH  19  20
ATOM     20  C   UNL     1      25.615  15.705 -12.559  1.00  0.00     0.006 C 
BRANCH  20  21
ATOM     21  C   UNL     1      24.112  15.440 -12.403  1.00  0.00     0.053 C 
BRANCH  21  22
ATOM     22  C   UNL     1      23.317  16.507 -13.090  1.00  0.00     0.041 C 
ATOM     23  O   UNL     1      23.102  16.436 -14.329  1.00  0.00    -0.550 OA
ATOM     24  O   UNL     1      22.860  17.605 -12.374  1.00  0.00    -0.550 OA
ENDBRANCH  21  22
ENDBRANCH  20  21
ENDBRANCH  19  20
ENDBRANCH  18  19
ENDBRANCH  17  18
ENDBRANCH  16  17
ENDBRANCH  15  16
ENDBRANCH  14  15
ENDBRANCH  13  14
ENDBRANCH   1  13
TORSDOF 20
ENDMDL
MODEL 5
REMARK VINA RESULT:    -3.907      3.265      6.012
REMARK INTER + INTRA:         -11.772
REMARK INTER:                  -9.426
REMARK INTRA:                  -2.345
REMARK UNBOUND:                -3.297
REMARK SMILES CCCCCCCCCCCCCCCCCCCCCC(=O)[O-]
REMARK SMILES IDX 12 1 11 2 10 3 9 4 8 5 7 6 6 7 5 8 4 9 3 10 2 11 1 12 13 13
REMARK SMILES IDX 14 14 15 15 16 16 17 17 18 18 19 19 20 20 21 21 22 22 23 23
REMARK SMILES IDX 24 24
REMARK H PARENT
REMARK Flexibility Score: inf
ROOT
ATOM      1  C   UNL     1      29.245  10.489 -14.534  1.00  0.00     0.000 C 
ENDROOT
BRANCH   1   2
ATOM      2  C   UNL     1      29.982   9.203 -14.122  1.00  0.00     0.000 C 
BRANCH   2   3
ATOM      3  C   UNL     1      29.779   8.849 -12.639  1.00  0.00     0.000 C 
BRANCH   3   4
ATOM      4  C   UNL     1      30.701   9.641 -11.699  1.00  0.00    -0.000 C 
BRANCH   4   5
ATOM      5  C   UNL     1      30.393   9.423 -10.202  1.00  0.00    -0.000 C 
BRANCH   5   6
ATOM      6  C   UNL     1      29.470  10.514  -9.636  1.00  0.00    -0.000 C 
BRANCH   6   7
ATOM      7  C   UNL     1      29.204  11.610 -10.679  1.00  0.00    -0.000 C 
BRANCH   7   8
ATOM      8  C   UNL     1      27.704  11.778 -10.988  1.00  0.00    -0.000 C 
BRANCH   8   9
ATOM      9  C   UNL     1      27.293  13.221 -11.336  1.00  0.00    -0.000 C 
BRANCH   9  10
ATOM     10  C   UNL     1      25.895  13.584 -10.803  1.00  0.00    -0.000 C 
BRANCH  10  11
ATOM     11  C   UNL     1      25.169  14.589 -11.712  1.00  0.00    -0.003 C 
ATOM     12  C   UNL     1      23.857  15.088 -11.104  1.00  0.00     0.004 C 
ENDBRANCH  10  11
ENDBRANCH   9  10
ENDBRANCH   8   9
ENDBRANCH   7   8
ENDBRANCH   6   7
ENDBRANCH   5   6
ENDBRANCH   4   5
ENDBRANCH   3   4
ENDBRANCH   2   3
ENDBRANCH   1   2
BRANCH   1  13
ATOM     13  C   UNL     1      30.146  11.731 -14.495  1.00  0.00     0.000 C 
BRANCH  13  14
ATOM     14  C   UNL     1      29.305  13.015 -14.455  1.00  0.00     0.000 C 
BRANCH  14  15
ATOM     15  C   UNL     1      29.523  13.918 -15.685  1.00  0.00     0.000 C 
BRANCH  15  16
ATOM     16  C   UNL     1      28.746  13.503 -16.951  1.00  0.00     0.000 C 
BRANCH  16  17
ATOM     17  C   UNL     1      29.602  13.321 -18.219  1.00  0.00     0.000 C 
BRANCH  17  18
ATOM     18  C   UNL     1      30.823  12.399 -18.023  1.00  0.00     0.000 C 
BRANCH  18  19
ATOM     19  C   UNL     1      30.686  11.062 -18.772  1.00  0.00     0.000 C 
BRANCH  19  20
ATOM     20  C   UNL     1      30.891   9.845 -17.857  1.00  0.00     0.006 C 
BRANCH  20  21
ATOM     21  C   UNL     1      30.446   8.530 -18.511  1.00  0.00     0.053 C 
BRANCH  21  22
ATOM     22  C   UNL     1      29.790   7.638 -17.504  1.00  0.00     0.041 C 
ATOM     23  O   UNL     1      28.535   7.603 -17.414  1.00  0.00    -0.550 OA
ATOM     24  O   UNL     1      30.565   6.887 -16.631  1.00  0.00    -0.550 OA
ENDBRANCH  21  22
ENDBRANCH  20  21
ENDBRANCH  19  20
ENDBRANCH  18  19
ENDBRANCH  17  18
ENDBRANCH  16  17
ENDBRANCH  15  16
ENDBRANCH  14  15
ENDBRANCH  13  14
ENDBRANCH   1  13
TORSDOF 20
ENDMDL
MODEL 6
REMARK VINA RESULT:    -3.833     14.849     17.695
REMARK INTER + INTRA:         -11.612
REMARK INTER:                  -8.492
REMARK INTRA:                  -3.121
REMARK UNBOUND:                -3.297
REMARK SMILES CCCCCCCCCCCCCCCCCCCCCC(=O)[O-]
REMARK SMILES IDX 12 1 11 2 10 3 9 4 8 5 7 6 6 7 5 8 4 9 3 10 2 11 1 12 13 13
REMARK SMILES IDX 14 14 15 15 16 16 17 17 18 18 19 19 20 20 21 21 22 22 23 23
REMARK SMILES IDX 24 24
REMARK H PARENT
REMARK Flexibility Score: inf
ROOT
ATOM      1  C   UNL     1      18.549  -1.615 -11.808  1.00  0.00     0.000 C 
ENDROOT
BRANCH   1   2
ATOM      2  C   UNL     1      19.125  -1.423 -13.222  1.00  0.00     0.000 C 
BRANCH   2   3
ATOM      3  C   UNL     1      20.577  -0.917 -13.209  1.00  0.00     0.000 C 
BRANCH   3   4
ATOM      4  C   UNL     1      21.576  -1.936 -13.779  1.00  0.00    -0.000 C 
BRANCH   4   5
ATOM      5  C   UNL     1      22.325  -1.435 -15.032  1.00  0.00    -0.000 C 
BRANCH   5   6
ATOM      6  C   UNL     1      21.791  -0.080 -15.523  1.00  0.00    -0.000 C 
BRANCH   6   7
ATOM      7  C   UNL     1      20.657  -0.269 -16.543  1.00  0.00    -0.000 C 
BRANCH   7   8
ATOM      8  C   UNL     1      20.947  -1.407 -17.541  1.00  0.00    -0.000 C 
BRANCH   8   9
ATOM      9  C   UNL     1      19.684  -2.079 -18.110  1.00  0.00    -0.000 C 
BRANCH   9  10
ATOM     10  C   UNL     1      19.479  -1.785 -19.607  1.00  0.00    -0.000 C 
BRANCH  10  11
ATOM     11  C   UNL     1      18.491  -0.631 -19.843  1.00  0.00    -0.003 C 
ATOM     12  C   UNL     1      17.035  -1.054 -19.640  1.00  0.00     0.004 C 
ENDBRANCH  10  11
ENDBRANCH   9  10
ENDBRANCH   8   9
ENDBRANCH   7   8
ENDBRANCH   6   7
ENDBRANCH   5   6
ENDBRANCH   4   5
ENDBRANCH   3   4
ENDBRANCH   2   3
ENDBRANCH   1   2
BRANCH   1  13
ATOM     13  C   UNL     1      17.027  -1.820 -11.806  1.00  0.00     0.000 C 
BRANCH  13  14
ATOM     14  C   UNL     1      16.309  -0.577 -11.261  1.00  0.00     0.000 C 
BRANCH  14  15
ATOM     15  C   UNL     1      15.534   0.198 -12.345  1.00  0.00     0.000 C 
BRANCH  15  16
ATOM     16  C   UNL     1      14.542  -0.645 -13.171  1.00  0.00     0.000 C 
BRANCH  16  17
ATOM     17  C   UNL     1      14.728  -0.571 -14.699  1.00  0.00     0.000 C 
BRANCH  17  18
ATOM     18  C   UNL     1      15.834  -1.502 -15.240  1.00  0.00     0.000 C 
BRANCH  18  19
ATOM     19  C   UNL     1      16.949  -0.737 -15.975  1.00  0.00     0.000 C 
BRANCH  19  20
ATOM     20  C   UNL     1      16.820   0.787 -15.827  1.00  0.00     0.006 C 
BRANCH  20  21
ATOM     21  C   UNL     1      17.537   1.554 -16.947  1.00  0.00     0.053 C 
BRANCH  21  22
ATOM     22  C   UNL     1      16.547   2.288 -17.796  1.00  0.00     0.041 C 
ATOM     23  O   UNL     1      15.410   1.793 -18.013  1.00  0.00    -0.550 OA
ATOM     24  O   UNL     1      16.899   3.492 -18.391  1.00  0.00    -0.550 OA
ENDBRANCH  21  22
ENDBRANCH  20  21
ENDBRANCH  19  20
ENDBRANCH  18  19
ENDBRANCH  17  18
ENDBRANCH  16  17
ENDBRANCH  15  16
ENDBRANCH  14  15
ENDBRANCH  13  14
ENDBRANCH   1  13
TORSDOF 20
ENDMDL
MODEL 7
REMARK VINA RESULT:    -3.787      2.518      4.843
REMARK INTER + INTRA:         -11.512
REMARK INTER:                  -8.528
REMARK INTRA:                  -2.985
REMARK UNBOUND:                -3.297
REMARK SMILES CCCCCCCCCCCCCCCCCCCCCC(=O)[O-]
REMARK SMILES IDX 12 1 11 2 10 3 9 4 8 5 7 6 6 7 5 8 4 9 3 10 2 11 1 12 13 13
REMARK SMILES IDX 14 14 15 15 16 16 17 17 18 18 19 19 20 20 21 21 22 22 23 23
REMARK SMILES IDX 24 24
REMARK H PARENT
REMARK Flexibility Score: inf
ROOT
ATOM      1  C   UNL     1      25.631  14.246 -11.961  1.00  0.00     0.000 C 
ENDROOT
BRANCH   1   2
ATOM      2  C   UNL     1      26.486  13.532 -10.899  1.00  0.00     0.000 C 
BRANCH   2   3
ATOM      3  C   UNL     1      26.735  12.051 -11.232  1.00  0.00     0.000 C 
BRANCH   3   4
ATOM      4  C   UNL     1      27.822  11.411 -10.355  1.00  0.00    -0.000 C 
BRANCH   4   5
ATOM      5  C   UNL     1      29.255  11.845 -10.730  1.00  0.00    -0.000 C 
BRANCH   5   6
ATOM      6  C   UNL     1      30.321  11.072  -9.937  1.00  0.00    -0.000 C 
BRANCH   6   7
ATOM      7  C   UNL     1      30.354   9.593 -10.351  1.00  0.00    -0.000 C 
BRANCH   7   8
ATOM      8  C   UNL     1      30.887   9.395 -11.784  1.00  0.00    -0.000 C 
BRANCH   8   9
ATOM      9  C   UNL     1      30.729   7.959 -12.319  1.00  0.00    -0.000 C 
BRANCH   9  10
ATOM     10  C   UNL     1      30.499   7.916 -13.840  1.00  0.00    -0.000 C 
BRANCH  10  11
ATOM     11  C   UNL     1      29.528   6.797 -14.251  1.00  0.00    -0.003 C 
ATOM     12  C   UNL     1      28.204   6.859 -13.488  1.00  0.00     0.004 C 
ENDBRANCH  10  11
ENDBRANCH   9  10
ENDBRANCH   8   9
ENDBRANCH   7   8
ENDBRANCH   6   7
ENDBRANCH   5   6
ENDBRANCH   4   5
ENDBRANCH   3   4
ENDBRANCH   2   3
ENDBRANCH   1   2
BRANCH   1  13
ATOM     13  C   UNL     1      26.239  15.579 -12.419  1.00  0.00     0.000 C 
BRANCH  13  14
ATOM     14  C   UNL     1      27.765  15.570 -12.252  1.00  0.00     0.000 C 
BRANCH  14  15
ATOM     15  C   UNL     1      28.515  15.278 -13.566  1.00  0.00     0.000 C 
BRANCH  15  16
ATOM     16  C   UNL     1      29.213  13.905 -13.633  1.00  0.00     0.000 C 
BRANCH  16  17
ATOM     17  C   UNL     1      28.494  12.841 -14.485  1.00  0.00     0.000 C 
BRANCH  17  18
ATOM     18  C   UNL     1      29.179  11.458 -14.466  1.00  0.00     0.000 C 
BRANCH  18  19
ATOM     19  C   UNL     1      29.203  10.788 -15.851  1.00  0.00     0.000 C 
BRANCH  19  20
ATOM     20  C   UNL     1      30.534  10.999 -16.589  1.00  0.00     0.006 C 
BRANCH  20  21
ATOM     21  C   UNL     1      30.357  11.706 -17.940  1.00  0.00     0.053 C 
BRANCH  21  22
ATOM     22  C   UNL     1      30.285  13.189 -17.750  1.00  0.00     0.041 C 
ATOM     23  O   UNL     1      31.108  13.770 -16.995  1.00  0.00    -0.550 OA
ATOM     24  O   UNL     1      29.278  13.922 -18.364  1.00  0.00    -0.550 OA
ENDBRANCH  21  22
ENDBRANCH  20  21
ENDBRANCH  19  20
ENDBRANCH  18  19
ENDBRANCH  17  18
ENDBRANCH  16  17
ENDBRANCH  15  16
ENDBRANCH  14  15
ENDBRANCH  13  14
ENDBRANCH   1  13
TORSDOF 20
ENDMDL
MODEL 8
REMARK VINA RESULT:    -3.776      3.450      5.294
REMARK INTER + INTRA:         -11.487
REMARK INTER:                  -8.810
REMARK INTRA:                  -2.678
REMARK UNBOUND:                -3.297
REMARK SMILES CCCCCCCCCCCCCCCCCCCCCC(=O)[O-]
REMARK SMILES IDX 12 1 11 2 10 3 9 4 8 5 7 6 6 7 5 8 4 9 3 10 2 11 1 12 13 13
REMARK SMILES IDX 14 14 15 15 16 16 17 17 18 18 19 19 20 20 21 21 22 22 23 23
REMARK SMILES IDX 24 24
REMARK H PARENT
REMARK Flexibility Score: inf
ROOT
ATOM      1  C   UNL     1      27.652  13.447 -12.791  1.00  0.00     0.000 C 
ENDROOT
BRANCH   1   2
ATOM      2  C   UNL     1      28.003  13.176 -11.318  1.00  0.00     0.000 C 
BRANCH   2   3
ATOM      3  C   UNL     1      27.649  11.746 -10.875  1.00  0.00     0.000 C 
BRANCH   3   4
ATOM      4  C   UNL     1      28.838  10.996 -10.255  1.00  0.00    -0.000 C 
BRANCH   4   5
ATOM      5  C   UNL     1      30.209  11.448 -10.803  1.00  0.00    -0.000 C 
BRANCH   5   6
ATOM      6  C   UNL     1      30.870  10.367 -11.672  1.00  0.00    -0.000 C 
BRANCH   6   7
ATOM      7  C   UNL     1      30.013   9.091 -11.715  1.00  0.00    -0.000 C 
BRANCH   7   8
ATOM      8  C   UNL     1      29.447   8.809 -13.121  1.00  0.00    -0.000 C 
BRANCH   8   9
ATOM      9  C   UNL     1      30.195   7.703 -13.888  1.00  0.00    -0.000 C 
BRANCH   9  10
ATOM     10  C   UNL     1      29.608   6.304 -13.633  1.00  0.00    -0.000 C 
BRANCH  10  11
ATOM     11  C   UNL     1      28.079   6.277 -13.789  1.00  0.00    -0.003 C 
ATOM     12  C   UNL     1      27.635   5.637 -15.106  1.00  0.00     0.004 C 
ENDBRANCH  10  11
ENDBRANCH   9  10
ENDBRANCH   8   9
ENDBRANCH   7   8
ENDBRANCH   6   7
ENDBRANCH   5   6
ENDBRANCH   4   5
ENDBRANCH   3   4
ENDBRANCH   2   3
ENDBRANCH   1   2
BRANCH   1  13
ATOM     13  C   UNL     1      28.779  14.161 -13.551  1.00  0.00     0.000 C 
BRANCH  13  14
ATOM     14  C   UNL     1      29.815  13.152 -14.067  1.00  0.00     0.000 C 
BRANCH  14  15
ATOM     15  C   UNL     1      29.193  12.033 -14.927  1.00  0.00     0.000 C 
BRANCH  15  16
ATOM     16  C   UNL     1      28.455  12.512 -16.193  1.00  0.00     0.000 C 
BRANCH  16  17
ATOM     17  C   UNL     1      29.234  13.507 -17.074  1.00  0.00     0.000 C 
BRANCH  17  18
ATOM     18  C   UNL     1      29.823  12.881 -18.355  1.00  0.00     0.000 C 
BRANCH  18  19
ATOM     19  C   UNL     1      31.013  11.948 -18.069  1.00  0.00     0.000 C 
BRANCH  19  20
ATOM     20  C   UNL     1      30.831  10.550 -18.680  1.00  0.00     0.006 C 
BRANCH  20  21
ATOM     21  C   UNL     1      30.258   9.536 -17.680  1.00  0.00     0.053 C 
BRANCH  21  22
ATOM     22  C   UNL     1      30.484   8.138 -18.162  1.00  0.00     0.041 C 
ATOM     23  O   UNL     1      30.485   7.180 -17.345  1.00  0.00    -0.550 OA
ATOM     24  O   UNL     1      30.747   7.898 -19.504  1.00  0.00    -0.550 OA
ENDBRANCH  21  22
ENDBRANCH  20  21
ENDBRANCH  19  20
ENDBRANCH  18  19
ENDBRANCH  17  18
ENDBRANCH  16  17
ENDBRANCH  15  16
ENDBRANCH  14  15
ENDBRANCH  13  14
ENDBRANCH   1  13
TORSDOF 20
ENDMDL
MODEL 9
REMARK VINA RESULT:    -3.774      1.805      3.579
REMARK INTER + INTRA:         -11.484
REMARK INTER:                  -8.547
REMARK INTRA:                  -2.937
REMARK UNBOUND:                -3.297
REMARK SMILES CCCCCCCCCCCCCCCCCCCCCC(=O)[O-]
REMARK SMILES IDX 12 1 11 2 10 3 9 4 8 5 7 6 6 7 5 8 4 9 3 10 2 11 1 12 13 13
REMARK SMILES IDX 14 14 15 15 16 16 17 17 18 18 19 19 20 20 21 21 22 22 23 23
REMARK SMILES IDX 24 24
REMARK H PARENT
REMARK Flexibility Score: inf
ROOT
ATOM      1  C   UNL     1      31.101  10.006 -17.625  1.00  0.00     0.000 C 
ENDROOT
BRANCH   1   2
ATOM      2  C   UNL     1      29.863   9.238 -17.132  1.00  0.00     0.000 C 
BRANCH   2   3
ATOM      3  C   UNL     1      29.810   7.793 -17.658  1.00  0.00     0.000 C 
BRANCH   3   4
ATOM      4  C   UNL     1      28.465   7.101 -17.384  1.00  0.00    -0.000 C 
BRANCH   4   5
ATOM      5  C   UNL     1      28.444   6.288 -16.072  1.00  0.00    -0.000 C 
BRANCH   5   6
ATOM      6  C   UNL     1      29.858   5.935 -15.587  1.00  0.00    -0.000 C 
BRANCH   6   7
ATOM      7  C   UNL     1      30.202   6.687 -14.291  1.00  0.00    -0.000 C 
BRANCH   7   8
ATOM      8  C   UNL     1      28.946   7.110 -13.505  1.00  0.00    -0.000 C 
BRANCH   8   9
ATOM      9  C   UNL     1      28.909   8.606 -13.140  1.00  0.00    -0.000 C 
BRANCH   9  10
ATOM     10  C   UNL     1      30.256   9.309 -13.384  1.00  0.00    -0.000 C 
BRANCH  10  11
ATOM     11  C   UNL     1      30.934   9.740 -12.074  1.00  0.00    -0.003 C 
ATOM     12  C   UNL     1      30.036   9.534 -10.853  1.00  0.00     0.004 C 
ENDBRANCH  10  11
ENDBRANCH   9  10
ENDBRANCH   8   9
ENDBRANCH   7   8
ENDBRANCH   6   7
ENDBRANCH   5   6
ENDBRANCH   4   5
ENDBRANCH   3   4
ENDBRANCH   2   3
ENDBRANCH   1   2
BRANCH   1  13
ATOM     13  C   UNL     1      30.750  11.148 -18.590  1.00  0.00     0.000 C 
BRANCH  13  14
ATOM     14  C   UNL     1      30.952  12.513 -17.917  1.00  0.00     0.000 C 
BRANCH  14  15
ATOM     15  C   UNL     1      29.752  13.462 -18.104  1.00  0.00     0.000 C 
BRANCH  15  16
ATOM     16  C   UNL     1      28.517  13.136 -17.242  1.00  0.00     0.000 C 
BRANCH  16  17
ATOM     17  C   UNL     1      28.821  12.642 -15.815  1.00  0.00     0.000 C 
BRANCH  17  18
ATOM     18  C   UNL     1      29.374  13.736 -14.878  1.00  0.00     0.000 C 
BRANCH  18  19
ATOM     19  C   UNL     1      29.717  13.203 -13.476  1.00  0.00     0.000 C 
BRANCH  19  20
ATOM     20  C   UNL     1      28.527  12.506 -12.799  1.00  0.00     0.006 C 
BRANCH  20  21
ATOM     21  C   UNL     1      28.058  13.232 -11.531  1.00  0.00     0.053 C 
BRANCH  21  22
ATOM     22  C   UNL     1      26.866  14.088 -11.828  1.00  0.00     0.041 C 
ATOM     23  O   UNL     1      27.022  15.270 -12.233  1.00  0.00    -0.550 OA
ATOM     24  O   UNL     1      25.586  13.599 -11.607  1.00  0.00    -0.550 OA
ENDBRANCH  21  22
ENDBRANCH  20  21
ENDBRANCH  19  20
ENDBRANCH  18  19
ENDBRANCH  17  18
ENDBRANCH  16  17
ENDBRANCH  15  16
ENDBRANCH  14  15
ENDBRANCH  13  14
ENDBRANCH   1  13
TORSDOF 20
ENDMDL
