MODEL 1
REMARK VINA RESULT:    -5.045      0.000      0.000
REMARK INTER + INTRA:         -10.170
REMARK INTER:                  -9.174
REMARK INTRA:                  -0.996
REMARK UNBOUND:                -0.996
REMARK SMILES CCCCCCCCCCCCCC[C@@H](C)C(=O)[O-]
REMARK SMILES IDX 9 1 10 2 11 3 12 4 13 5 14 6 15 7 16 8 17 9 18 10 19 11 8 12
REMARK SMILES IDX 7 13 6 14 5 15 4 16 3 17 2 18 1 19
REMARK H PARENT
REMARK Flexibility Score: inf
ROOT
ATOM      1  C   UNL     1      -5.370  -5.357  28.023  1.00  0.00     0.000 C 
ENDROOT
BRANCH   1   2
ATOM      2  C   UNL     1      -5.100  -4.739  29.407  1.00  0.00     0.000 C 
BRANCH   2   3
ATOM      3  C   UNL     1      -5.461  -3.245  29.536  1.00  0.00     0.000 C 
BRANCH   3   4
ATOM      4  C   UNL     1      -5.298  -2.421  28.243  1.00  0.00     0.000 C 
BRANCH   4   5
ATOM      5  C   UNL     1      -4.884  -0.952  28.458  1.00  0.00     0.001 C 
BRANCH   5   6
ATOM      6  C   UNL     1      -3.440  -0.743  28.961  1.00  0.00     0.009 C 
BRANCH   6   7
ATOM      7  C   UNL     1      -2.336  -1.016  27.913  1.00  0.00     0.032 C 
ATOM      8  C   UNL     1      -1.544   0.249  27.553  1.00  0.00     0.014 C 
BRANCH   7   9
ATOM      9  C   UNL     1      -1.400  -2.075  28.428  1.00  0.00     0.044 C 
ATOM     10  O   UNL     1      -0.168  -1.838  28.548  1.00  0.00    -0.550 OA
ATOM     11  O   UNL     1      -1.896  -3.323  28.788  1.00  0.00    -0.550 OA
ENDBRANCH   7   9
ENDBRANCH   6   7
ENDBRANCH   5   6
ENDBRANCH   4   5
ENDBRANCH   3   4
ENDBRANCH   2   3
ENDBRANCH   1   2
BRANCH   1  12
ATOM     12  C   UNL     1      -6.103  -6.703  28.104  1.00  0.00     0.000 C 
BRANCH  12  13
ATOM     13  C   UNL     1      -5.774  -7.429  29.418  1.00  0.00    -0.000 C 
BRANCH  13  14
ATOM     14  C   UNL     1      -6.237  -8.894  29.421  1.00  0.00    -0.000 C 
BRANCH  14  15
ATOM     15  C   UNL     1      -5.233  -9.830  30.116  1.00  0.00    -0.000 C 
BRANCH  15  16
ATOM     16  C   UNL     1      -4.588 -10.831  29.143  1.00  0.00    -0.000 C 
BRANCH  16  17
ATOM     17  C   UNL     1      -4.926 -10.533  27.673  1.00  0.00    -0.000 C 
BRANCH  17  18
ATOM     18  C   UNL     1      -4.669 -11.761  26.793  1.00  0.00    -0.003 C 
ATOM     19  C   UNL     1      -3.174 -12.000  26.603  1.00  0.00     0.004 C 
ENDBRANCH  17  18
ENDBRANCH  16  17
ENDBRANCH  15  16
ENDBRANCH  14  15
ENDBRANCH  13  14
ENDBRANCH  12  13
ENDBRANCH   1  12
TORSDOF 14
ENDMDL
MODEL 2
REMARK VINA RESULT:    -5.025      1.475      2.552
REMARK INTER + INTRA:         -10.133
REMARK INTER:                  -9.375
REMARK INTRA:                  -0.758
REMARK UNBOUND:                -0.996
REMARK SMILES CCCCCCCCCCCCCC[C@@H](C)C(=O)[O-]
REMARK SMILES IDX 9 1 10 2 11 3 12 4 13 5 14 6 15 7 16 8 17 9 18 10 19 11 8 12
REMARK SMILES IDX 7 13 6 14 5 15 4 16 3 17 2 18 1 19
REMARK H PARENT
REMARK Flexibility Score: inf
ROOT
ATOM      1  C   UNL     1      -5.997  -7.779  28.683  1.00  0.00     0.000 C 
ENDROOT
BRANCH   1   2
ATOM      2  C   UNL     1      -5.650  -6.339  29.103  1.00  0.00     0.000 C 
BRANCH   2   3
ATOM      3  C   UNL     1      -5.429  -5.356  27.936  1.00  0.00     0.000 C 
BRANCH   3   4
ATOM      4  C   UNL     1      -5.871  -3.905  28.214  1.00  0.00     0.000 C 
BRANCH   4   5
ATOM      5  C   UNL     1      -5.314  -3.295  29.515  1.00  0.00     0.001 C 
BRANCH   5   6
ATOM      6  C   UNL     1      -4.078  -2.388  29.340  1.00  0.00     0.009 C 
BRANCH   6   7
ATOM      7  C   UNL     1      -4.303  -1.140  28.453  1.00  0.00     0.032 C 
ATOM      8  C   UNL     1      -5.352  -0.185  29.041  1.00  0.00     0.014 C 
BRANCH   7   9
ATOM      9  C   UNL     1      -3.000  -0.413  28.263  1.00  0.00     0.044 C 
ATOM     10  O   UNL     1      -2.318  -0.582  27.217  1.00  0.00    -0.550 OA
ATOM     11  O   UNL     1      -2.547   0.465  29.241  1.00  0.00    -0.550 OA
ENDBRANCH   7   9
ENDBRANCH   6   7
ENDBRANCH   5   6
ENDBRANCH   4   5
ENDBRANCH   3   4
ENDBRANCH   2   3
ENDBRANCH   1   2
BRANCH   1  12
ATOM     12  C   UNL     1      -6.278  -8.698  29.880  1.00  0.00     0.000 C 
BRANCH  12  13
ATOM     13  C   UNL     1      -5.307  -9.890  29.895  1.00  0.00    -0.000 C 
BRANCH  13  14
ATOM     14  C   UNL     1      -4.931 -10.369  28.484  1.00  0.00    -0.000 C 
BRANCH  14  15
ATOM     15  C   UNL     1      -3.793 -11.404  28.496  1.00  0.00    -0.000 C 
BRANCH  15  16
ATOM     16  C   UNL     1      -3.664 -12.155  27.161  1.00  0.00    -0.000 C 
BRANCH  16  17
ATOM     17  C   UNL     1      -4.765 -11.775  26.157  1.00  0.00    -0.000 C 
BRANCH  17  18
ATOM     18  C   UNL     1      -4.157 -11.334  24.820  1.00  0.00    -0.003 C 
ATOM     19  C   UNL     1      -2.980 -12.223  24.429  1.00  0.00     0.004 C 
ENDBRANCH  17  18
ENDBRANCH  16  17
ENDBRANCH  15  16
ENDBRANCH  14  15
ENDBRANCH  13  14
ENDBRANCH  12  13
ENDBRANCH   1  12
TORSDOF 14
ENDMDL
MODEL 3
REMARK VINA RESULT:    -4.915      3.401      8.841
REMARK INTER + INTRA:          -9.933
REMARK INTER:                  -9.176
REMARK INTRA:                  -0.756
REMARK UNBOUND:                -0.996
REMARK SMILES CCCCCCCCCCCCCC[C@@H](C)C(=O)[O-]
REMARK SMILES IDX 9 1 10 2 11 3 12 4 13 5 14 6 15 7 16 8 17 9 18 10 19 11 8 12
REMARK SMILES IDX 7 13 6 14 5 15 4 16 3 17 2 18 1 19
REMARK H PARENT
REMARK Flexibility Score: inf
ROOT
ATOM      1  C   UNL     1      -5.177  -5.284  28.024  1.00  0.00     0.000 C 
ENDROOT
BRANCH   1   2
ATOM      2  C   UNL     1      -6.047  -6.535  28.239  1.00  0.00     0.000 C 
BRANCH   2   3
ATOM      3  C   UNL     1      -5.749  -7.322  29.531  1.00  0.00     0.000 C 
BRANCH   3   4
ATOM      4  C   UNL     1      -6.336  -8.747  29.575  1.00  0.00     0.000 C 
BRANCH   4   5
ATOM      5  C   UNL     1      -5.328  -9.874  29.277  1.00  0.00     0.001 C 
BRANCH   5   6
ATOM      6  C   UNL     1      -5.182 -10.248  27.787  1.00  0.00     0.009 C 
BRANCH   6   7
ATOM      7  C   UNL     1      -4.076 -11.285  27.479  1.00  0.00     0.032 C 
ATOM      8  C   UNL     1      -3.879 -12.289  28.624  1.00  0.00     0.014 C 
BRANCH   7   9
ATOM      9  C   UNL     1      -4.410 -12.018  26.208  1.00  0.00     0.044 C 
ATOM     10  O   UNL     1      -4.842 -13.201  26.245  1.00  0.00    -0.550 OA
ATOM     11  O   UNL     1      -4.255 -11.384  24.981  1.00  0.00    -0.550 OA
ENDBRANCH   7   9
ENDBRANCH   6   7
ENDBRANCH   5   6
ENDBRANCH   4   5
ENDBRANCH   3   4
ENDBRANCH   2   3
ENDBRANCH   1   2
BRANCH   1  12
ATOM     12  C   UNL     1      -5.897  -3.982  28.403  1.00  0.00     0.000 C 
BRANCH  12  13
ATOM     13  C   UNL     1      -5.443  -3.487  29.786  1.00  0.00    -0.000 C 
BRANCH  13  14
ATOM     14  C   UNL     1      -4.416  -2.347  29.701  1.00  0.00    -0.000 C 
BRANCH  14  15
ATOM     15  C   UNL     1      -4.880  -1.200  28.787  1.00  0.00    -0.000 C 
BRANCH  15  16
ATOM     16  C   UNL     1      -3.862  -0.878  27.681  1.00  0.00    -0.000 C 
BRANCH  16  17
ATOM     17  C   UNL     1      -2.493  -0.455  28.238  1.00  0.00    -0.000 C 
BRANCH  17  18
ATOM     18  C   UNL     1      -1.441  -0.407  27.124  1.00  0.00    -0.003 C 
ATOM     19  C   UNL     1      -0.258  -1.317  27.444  1.00  0.00     0.004 C 
ENDBRANCH  17  18
ENDBRANCH  16  17
ENDBRANCH  15  16
ENDBRANCH  14  15
ENDBRANCH  13  14
ENDBRANCH  12  13
ENDBRANCH   1  12
TORSDOF 14
ENDMDL
MODEL 4
REMARK VINA RESULT:    -4.847      3.915      9.116
REMARK INTER + INTRA:          -9.809
REMARK INTER:                  -7.902
REMARK INTRA:                  -1.907
REMARK UNBOUND:                -0.996
REMARK SMILES CCCCCCCCCCCCCC[C@@H](C)C(=O)[O-]
REMARK SMILES IDX 9 1 10 2 11 3 12 4 13 5 14 6 15 7 16 8 17 9 18 10 19 11 8 12
REMARK SMILES IDX 7 13 6 14 5 15 4 16 3 17 2 18 1 19
REMARK H PARENT
REMARK Flexibility Score: inf
ROOT
ATOM      1  C   UNL     1      -0.645  -1.541  27.537  1.00  0.00     0.000 C 
ENDROOT
BRANCH   1   2
ATOM      2  C   UNL     1      -1.842  -0.627  27.219  1.00  0.00     0.000 C 
BRANCH   2   3
ATOM      3  C   UNL     1      -2.929  -0.574  28.311  1.00  0.00     0.000 C 
BRANCH   3   4
ATOM      4  C   UNL     1      -4.324  -1.056  27.865  1.00  0.00     0.000 C 
BRANCH   4   5
ATOM      5  C   UNL     1      -5.268  -1.463  29.014  1.00  0.00     0.001 C 
BRANCH   5   6
ATOM      6  C   UNL     1      -4.949  -2.820  29.677  1.00  0.00     0.009 C 
BRANCH   6   7
ATOM      7  C   UNL     1      -4.426  -3.911  28.714  1.00  0.00     0.032 C 
ATOM      8  C   UNL     1      -2.958  -4.274  28.982  1.00  0.00     0.014 C 
BRANCH   7   9
ATOM      9  C   UNL     1      -5.285  -5.141  28.827  1.00  0.00     0.044 C 
ATOM     10  O   UNL     1      -5.658  -5.560  29.956  1.00  0.00    -0.550 OA
ATOM     11  O   UNL     1      -5.685  -5.815  27.680  1.00  0.00    -0.550 OA
ENDBRANCH   7   9
ENDBRANCH   6   7
ENDBRANCH   5   6
ENDBRANCH   4   5
ENDBRANCH   3   4
ENDBRANCH   2   3
ENDBRANCH   1   2
BRANCH   1  12
ATOM     12  C   UNL     1       0.643  -0.759  27.829  1.00  0.00     0.000 C 
BRANCH  12  13
ATOM     13  C   UNL     1       0.933  -0.725  29.339  1.00  0.00    -0.000 C 
BRANCH  13  14
ATOM     14  C   UNL     1       0.308   0.494  30.037  1.00  0.00    -0.000 C 
BRANCH  14  15
ATOM     15  C   UNL     1       0.517   1.798  29.247  1.00  0.00    -0.000 C 
BRANCH  15  16
ATOM     16  C   UNL     1      -0.810   2.459  28.839  1.00  0.00    -0.000 C 
BRANCH  16  17
ATOM     17  C   UNL     1      -0.836   2.875  27.360  1.00  0.00    -0.000 C 
BRANCH  17  18
ATOM     18  C   UNL     1       0.566   2.800  26.745  1.00  0.00    -0.003 C 
ATOM     19  C   UNL     1       0.606   3.474  25.377  1.00  0.00     0.004 C 
ENDBRANCH  17  18
ENDBRANCH  16  17
ENDBRANCH  15  16
ENDBRANCH  14  15
ENDBRANCH  13  14
ENDBRANCH  12  13
ENDBRANCH   1  12
TORSDOF 14
ENDMDL
MODEL 5
REMARK VINA RESULT:    -4.845      3.974      8.001
REMARK INTER + INTRA:          -9.807
REMARK INTER:                  -7.979
REMARK INTRA:                  -1.828
REMARK UNBOUND:                -0.996
REMARK SMILES CCCCCCCCCCCCCC[C@@H](C)C(=O)[O-]
REMARK SMILES IDX 9 1 10 2 11 3 12 4 13 5 14 6 15 7 16 8 17 9 18 10 19 11 8 12
REMARK SMILES IDX 7 13 6 14 5 15 4 16 3 17 2 18 1 19
REMARK H PARENT
REMARK Flexibility Score: inf
ROOT
ATOM      1  C   UNL     1      -5.318  -2.263  28.191  1.00  0.00     0.000 C 
ENDROOT
BRANCH   1   2
ATOM      2  C   UNL     1      -5.365  -3.733  28.646  1.00  0.00     0.000 C 
BRANCH   2   3
ATOM      3  C   UNL     1      -4.075  -4.537  28.386  1.00  0.00     0.000 C 
BRANCH   3   4
ATOM      4  C   UNL     1      -2.903  -4.214  29.335  1.00  0.00     0.000 C 
BRANCH   4   5
ATOM      5  C   UNL     1      -1.627  -3.703  28.638  1.00  0.00     0.001 C 
BRANCH   5   6
ATOM      6  C   UNL     1      -1.476  -2.169  28.586  1.00  0.00     0.009 C 
BRANCH   6   7
ATOM      7  C   UNL     1      -0.620  -1.636  27.413  1.00  0.00     0.032 C 
ATOM      8  C   UNL     1      -1.276  -0.443  26.703  1.00  0.00     0.014 C 
BRANCH   7   9
ATOM      9  C   UNL     1       0.742  -1.244  27.918  1.00  0.00     0.044 C 
ATOM     10  O   UNL     1       0.896  -0.850  29.105  1.00  0.00    -0.550 OA
ATOM     11  O   UNL     1       1.844  -1.329  27.076  1.00  0.00    -0.550 OA
ENDBRANCH   7   9
ENDBRANCH   6   7
ENDBRANCH   5   6
ENDBRANCH   4   5
ENDBRANCH   3   4
ENDBRANCH   2   3
ENDBRANCH   1   2
BRANCH   1  12
ATOM     12  C   UNL     1      -5.026  -1.291  29.343  1.00  0.00     0.000 C 
BRANCH  12  13
ATOM     13  C   UNL     1      -5.598   0.104  29.040  1.00  0.00    -0.000 C 
BRANCH  13  14
ATOM     14  C   UNL     1      -4.824   1.230  29.744  1.00  0.00    -0.000 C 
BRANCH  14  15
ATOM     15  C   UNL     1      -3.302   1.007  29.716  1.00  0.00    -0.000 C 
BRANCH  15  16
ATOM     16  C   UNL     1      -2.516   2.321  29.581  1.00  0.00    -0.000 C 
BRANCH  16  17
ATOM     17  C   UNL     1      -1.032   2.094  29.248  1.00  0.00    -0.000 C 
BRANCH  17  18
ATOM     18  C   UNL     1      -0.604   2.947  28.049  1.00  0.00    -0.003 C 
ATOM     19  C   UNL     1       0.785   2.549  27.556  1.00  0.00     0.004 C 
ENDBRANCH  17  18
ENDBRANCH  16  17
ENDBRANCH  15  16
ENDBRANCH  14  15
ENDBRANCH  13  14
ENDBRANCH  12  13
ENDBRANCH   1  12
TORSDOF 14
ENDMDL
MODEL 6
REMARK VINA RESULT:    -4.807      1.970      3.798
REMARK INTER + INTRA:          -9.737
REMARK INTER:                  -8.855
REMARK INTRA:                  -0.883
REMARK UNBOUND:                -0.996
REMARK SMILES CCCCCCCCCCCCCC[C@@H](C)C(=O)[O-]
REMARK SMILES IDX 9 1 10 2 11 3 12 4 13 5 14 6 15 7 16 8 17 9 18 10 19 11 8 12
REMARK SMILES IDX 7 13 6 14 5 15 4 16 3 17 2 18 1 19
REMARK H PARENT
REMARK Flexibility Score: inf
ROOT
ATOM      1  C   UNL     1      -6.128  -9.075  30.083  1.00  0.00     0.000 C 
ENDROOT
BRANCH   1   2
ATOM      2  C   UNL     1      -6.152  -8.143  28.859  1.00  0.00     0.000 C 
BRANCH   2   3
ATOM      3  C   UNL     1      -5.769  -6.678  29.146  1.00  0.00     0.000 C 
BRANCH   3   4
ATOM      4  C   UNL     1      -5.717  -5.762  27.907  1.00  0.00     0.000 C 
BRANCH   4   5
ATOM      5  C   UNL     1      -5.980  -4.270  28.191  1.00  0.00     0.001 C 
BRANCH   5   6
ATOM      6  C   UNL     1      -5.616  -3.797  29.614  1.00  0.00     0.009 C 
BRANCH   6   7
ATOM      7  C   UNL     1      -4.448  -2.786  29.687  1.00  0.00     0.032 C 
ATOM      8  C   UNL     1      -3.124  -3.383  29.188  1.00  0.00     0.014 C 
BRANCH   7   9
ATOM      9  C   UNL     1      -4.789  -1.560  28.886  1.00  0.00     0.044 C 
ATOM     10  O   UNL     1      -5.686  -0.766  29.278  1.00  0.00    -0.550 OA
ATOM     11  O   UNL     1      -4.102  -1.287  27.709  1.00  0.00    -0.550 OA
ENDBRANCH   7   9
ENDBRANCH   6   7
ENDBRANCH   5   6
ENDBRANCH   4   5
ENDBRANCH   3   4
ENDBRANCH   2   3
ENDBRANCH   1   2
BRANCH   1  12
ATOM     12  C   UNL     1      -5.025 -10.140  30.002  1.00  0.00     0.000 C 
BRANCH  12  13
ATOM     13  C   UNL     1      -4.793 -10.579  28.547  1.00  0.00    -0.000 C 
BRANCH  13  14
ATOM     14  C   UNL     1      -3.950 -11.859  28.439  1.00  0.00    -0.000 C 
BRANCH  14  15
ATOM     15  C   UNL     1      -3.979 -12.467  27.026  1.00  0.00    -0.000 C 
BRANCH  15  16
ATOM     16  C   UNL     1      -4.495 -11.479  25.968  1.00  0.00    -0.000 C 
BRANCH  16  17
ATOM     17  C   UNL     1      -3.794 -11.641  24.610  1.00  0.00    -0.000 C 
BRANCH  17  18
ATOM     18  C   UNL     1      -3.461 -13.113  24.339  1.00  0.00    -0.003 C 
ATOM     19  C   UNL     1      -3.141 -13.343  22.864  1.00  0.00     0.004 C 
ENDBRANCH  17  18
ENDBRANCH  16  17
ENDBRANCH  15  16
ENDBRANCH  14  15
ENDBRANCH  13  14
ENDBRANCH  12  13
ENDBRANCH   1  12
TORSDOF 14
ENDMDL
MODEL 7
REMARK VINA RESULT:    -4.803      4.609      6.483
REMARK INTER + INTRA:          -9.731
REMARK INTER:                  -7.664
REMARK INTRA:                  -2.067
REMARK UNBOUND:                -0.996
REMARK SMILES CCCCCCCCCCCCCC[C@@H](C)C(=O)[O-]
REMARK SMILES IDX 9 1 10 2 11 3 12 4 13 5 14 6 15 7 16 8 17 9 18 10 19 11 8 12
REMARK SMILES IDX 7 13 6 14 5 15 4 16 3 17 2 18 1 19
REMARK H PARENT
REMARK Flexibility Score: inf
ROOT
ATOM      1  C   UNL     1      -5.002  -1.139  28.277  1.00  0.00     0.000 C 
ENDROOT
BRANCH   1   2
ATOM      2  C   UNL     1      -5.578   0.067  29.040  1.00  0.00     0.000 C 
BRANCH   2   3
ATOM      3  C   UNL     1      -4.527   1.009  29.661  1.00  0.00     0.000 C 
BRANCH   3   4
ATOM      4  C   UNL     1      -3.067   0.530  29.536  1.00  0.00     0.000 C 
BRANCH   4   5
ATOM      5  C   UNL     1      -2.006   1.564  29.960  1.00  0.00     0.001 C 
BRANCH   5   6
ATOM      6  C   UNL     1      -1.601   2.576  28.869  1.00  0.00     0.009 C 
BRANCH   6   7
ATOM      7  C   UNL     1      -0.079   2.809  28.726  1.00  0.00     0.032 C 
ATOM      8  C   UNL     1       0.745   1.860  29.609  1.00  0.00     0.014 C 
BRANCH   7   9
ATOM      9  C   UNL     1       0.325   2.646  27.286  1.00  0.00     0.044 C 
ATOM     10  O   UNL     1      -0.490   2.900  26.359  1.00  0.00    -0.550 OA
ATOM     11  O   UNL     1       1.611   2.224  26.970  1.00  0.00    -0.550 OA
ENDBRANCH   7   9
ENDBRANCH   6   7
ENDBRANCH   5   6
ENDBRANCH   4   5
ENDBRANCH   3   4
ENDBRANCH   2   3
ENDBRANCH   1   2
BRANCH   1  12
ATOM     12  C   UNL     1      -5.467  -2.485  28.849  1.00  0.00     0.000 C 
BRANCH  12  13
ATOM     13  C   UNL     1      -4.387  -3.098  29.755  1.00  0.00    -0.000 C 
BRANCH  13  14
ATOM     14  C   UNL     1      -3.537  -4.157  29.035  1.00  0.00    -0.000 C 
BRANCH  14  15
ATOM     15  C   UNL     1      -2.031  -3.851  29.103  1.00  0.00    -0.000 C 
BRANCH  15  16
ATOM     16  C   UNL     1      -1.660  -2.545  28.381  1.00  0.00    -0.000 C 
BRANCH  16  17
ATOM     17  C   UNL     1      -0.163  -2.211  28.489  1.00  0.00    -0.000 C 
BRANCH  17  18
ATOM     18  C   UNL     1       0.233  -1.141  27.465  1.00  0.00    -0.003 C 
ATOM     19  C   UNL     1      -0.990  -0.607  26.724  1.00  0.00     0.004 C 
ENDBRANCH  17  18
ENDBRANCH  16  17
ENDBRANCH  15  16
ENDBRANCH  14  15
ENDBRANCH  13  14
ENDBRANCH  12  13
ENDBRANCH   1  12
TORSDOF 14
ENDMDL
MODEL 8
REMARK VINA RESULT:    -4.788      4.325      6.117
REMARK INTER + INTRA:          -9.702
REMARK INTER:                  -7.702
REMARK INTRA:                  -1.999
REMARK UNBOUND:                -0.996
REMARK SMILES CCCCCCCCCCCCCC[C@@H](C)C(=O)[O-]
REMARK SMILES IDX 9 1 10 2 11 3 12 4 13 5 14 6 15 7 16 8 17 9 18 10 19 11 8 12
REMARK SMILES IDX 7 13 6 14 5 15 4 16 3 17 2 18 1 19
REMARK H PARENT
REMARK Flexibility Score: inf
ROOT
ATOM      1  C   UNL     1      -5.163  -2.095  28.136  1.00  0.00     0.000 C 
ENDROOT
BRANCH   1   2
ATOM      2  C   UNL     1      -4.622  -0.941  28.999  1.00  0.00     0.000 C 
BRANCH   2   3
ATOM      3  C   UNL     1      -3.155  -0.554  28.724  1.00  0.00     0.000 C 
BRANCH   3   4
ATOM      4  C   UNL     1      -2.710  -0.688  27.254  1.00  0.00     0.000 C 
BRANCH   4   5
ATOM      5  C   UNL     1      -1.291  -0.166  26.956  1.00  0.00     0.001 C 
BRANCH   5   6
ATOM      6  C   UNL     1      -0.747   0.870  27.961  1.00  0.00     0.009 C 
BRANCH   6   7
ATOM      7  C   UNL     1      -0.801   2.339  27.480  1.00  0.00     0.032 C 
ATOM      8  C   UNL     1      -0.875   3.336  28.646  1.00  0.00     0.014 C 
BRANCH   7   9
ATOM      9  C   UNL     1       0.404   2.638  26.630  1.00  0.00     0.044 C 
ATOM     10  O   UNL     1       1.551   2.258  26.988  1.00  0.00    -0.550 OA
ATOM     11  O   UNL     1       0.253   3.325  25.431  1.00  0.00    -0.550 OA
ENDBRANCH   7   9
ENDBRANCH   6   7
ENDBRANCH   5   6
ENDBRANCH   4   5
ENDBRANCH   3   4
ENDBRANCH   2   3
ENDBRANCH   1   2
BRANCH   1  12
ATOM     12  C   UNL     1      -5.883  -3.171  28.960  1.00  0.00     0.000 C 
BRANCH  12  13
ATOM     13  C   UNL     1      -4.915  -4.300  29.352  1.00  0.00    -0.000 C 
BRANCH  13  14
ATOM     14  C   UNL     1      -3.652  -4.330  28.478  1.00  0.00    -0.000 C 
BRANCH  14  15
ATOM     15  C   UNL     1      -2.359  -4.224  29.304  1.00  0.00    -0.000 C 
BRANCH  15  16
ATOM     16  C   UNL     1      -1.153  -3.780  28.460  1.00  0.00    -0.000 C 
BRANCH  16  17
ATOM     17  C   UNL     1      -0.215  -2.828  29.217  1.00  0.00    -0.000 C 
BRANCH  17  18
ATOM     18  C   UNL     1       1.019  -2.488  28.373  1.00  0.00    -0.003 C 
ATOM     19  C   UNL     1       2.052  -1.719  29.191  1.00  0.00     0.004 C 
ENDBRANCH  17  18
ENDBRANCH  16  17
ENDBRANCH  15  16
ENDBRANCH  14  15
ENDBRANCH  13  14
ENDBRANCH  12  13
ENDBRANCH   1  12
TORSDOF 14
ENDMDL
MODEL 9
REMARK VINA RESULT:    -4.697      4.164      7.191
REMARK INTER + INTRA:          -9.536
REMARK INTER:                  -7.484
REMARK INTRA:                  -2.052
REMARK UNBOUND:                -0.996
REMARK SMILES CCCCCCCCCCCCCC[C@@H](C)C(=O)[O-]
REMARK SMILES IDX 9 1 10 2 11 3 12 4 13 5 14 6 15 7 16 8 17 9 18 10 19 11 8 12
REMARK SMILES IDX 7 13 6 14 5 15 4 16 3 17 2 18 1 19
REMARK H PARENT
REMARK Flexibility Score: inf
ROOT
ATOM      1  C   UNL     1      -0.612  -2.177  28.467  1.00  0.00     0.000 C 
ENDROOT
BRANCH   1   2
ATOM      2  C   UNL     1       0.883  -2.299  28.811  1.00  0.00     0.000 C 
BRANCH   2   3
ATOM      3  C   UNL     1       1.676  -0.979  28.748  1.00  0.00     0.000 C 
BRANCH   3   4
ATOM      4  C   UNL     1       1.136   0.150  29.648  1.00  0.00     0.000 C 
BRANCH   4   5
ATOM      5  C   UNL     1       1.290   1.571  29.071  1.00  0.00     0.001 C 
BRANCH   5   6
ATOM      6  C   UNL     1       1.080   1.687  27.546  1.00  0.00     0.009 C 
BRANCH   6   7
ATOM      7  C   UNL     1      -0.182   2.472  27.118  1.00  0.00     0.032 C 
ATOM      8  C   UNL     1      -1.051   2.882  28.315  1.00  0.00     0.014 C 
BRANCH   7   9
ATOM      9  C   UNL     1       0.223   3.693  26.338  1.00  0.00     0.044 C 
ATOM     10  O   UNL     1       0.658   4.717  26.930  1.00  0.00    -0.550 OA
ATOM     11  O   UNL     1       0.131   3.692  24.951  1.00  0.00    -0.550 OA
ENDBRANCH   7   9
ENDBRANCH   6   7
ENDBRANCH   5   6
ENDBRANCH   4   5
ENDBRANCH   3   4
ENDBRANCH   2   3
ENDBRANCH   1   2
BRANCH   1  12
ATOM     12  C   UNL     1      -0.864  -1.413  27.160  1.00  0.00     0.000 C 
BRANCH  12  13
ATOM     13  C   UNL     1      -2.130  -0.547  27.267  1.00  0.00    -0.000 C 
BRANCH  13  14
ATOM     14  C   UNL     1      -2.655  -0.436  28.707  1.00  0.00    -0.000 C 
BRANCH  14  15
ATOM     15  C   UNL     1      -4.185  -0.574  28.790  1.00  0.00    -0.000 C 
BRANCH  15  16
ATOM     16  C   UNL     1      -4.687  -1.917  28.235  1.00  0.00    -0.000 C 
BRANCH  16  17
ATOM     17  C   UNL     1      -4.828  -2.994  29.323  1.00  0.00    -0.000 C 
BRANCH  17  18
ATOM     18  C   UNL     1      -4.258  -4.334  28.844  1.00  0.00    -0.003 C 
ATOM     19  C   UNL     1      -5.342  -5.198  28.205  1.00  0.00     0.004 C 
ENDBRANCH  17  18
ENDBRANCH  16  17
ENDBRANCH  15  16
ENDBRANCH  14  15
ENDBRANCH  13  14
ENDBRANCH  12  13
ENDBRANCH   1  12
TORSDOF 14
ENDMDL
