MODEL 1
REMARK VINA RESULT:    -4.616      0.000      0.000
REMARK INTER + INTRA:          -6.638
REMARK INTER:                  -6.235
REMARK INTRA:                  -0.402
REMARK UNBOUND:                -0.402
REMARK SMILES CCCCCCC=CC(=O)[O-]
REMARK SMILES IDX 5 1 6 2 7 3 8 4 9 5 10 6 11 7 4 8 3 9 2 10 1 11
REMARK H PARENT
REMARK Flexibility Score: inf
ROOT
ATOM      1  C   UNL     1      39.834  51.199  32.805  1.00  0.00     0.004 C 
ENDROOT
BRANCH   1   2
ATOM      2  C   UNL     1      40.915  52.033  33.512  1.00  0.00     0.027 C 
BRANCH   2   3
ATOM      3  C   UNL     1      41.432  51.325  34.734  1.00  0.00    -0.025 C 
ATOM      4  C   UNL     1      42.492  51.698  35.472  1.00  0.00     0.020 C 
BRANCH   4   5
ATOM      5  C   UNL     1      43.337  52.892  35.260  1.00  0.00     0.064 C 
ATOM      6  O   UNL     1      43.116  53.982  35.849  1.00  0.00    -0.545 OA
ATOM      7  O   UNL     1      44.424  52.801  34.401  1.00  0.00    -0.545 OA
ENDBRANCH   4   5
ENDBRANCH   2   3
ENDBRANCH   1   2
BRANCH   1   8
ATOM      8  C   UNL     1      40.428  50.126  31.881  1.00  0.00     0.000 C 
BRANCH   8   9
ATOM      9  C   UNL     1      39.907  48.714  32.206  1.00  0.00    -0.000 C 
BRANCH   9  10
ATOM     10  C   UNL     1      38.415  48.707  32.571  1.00  0.00    -0.003 C 
ATOM     11  C   UNL     1      37.507  48.640  31.342  1.00  0.00     0.004 C 
ENDBRANCH   9  10
ENDBRANCH   8   9
ENDBRANCH   1   8
TORSDOF 6
ENDMDL
MODEL 2
REMARK VINA RESULT:    -4.595      2.208      3.699
REMARK INTER + INTRA:          -6.609
REMARK INTER:                  -6.065
REMARK INTRA:                  -0.544
REMARK UNBOUND:                -0.402
REMARK SMILES CCCCCCC=CC(=O)[O-]
REMARK SMILES IDX 5 1 6 2 7 3 8 4 9 5 10 6 11 7 4 8 3 9 2 10 1 11
REMARK H PARENT
REMARK Flexibility Score: inf
ROOT
ATOM      1  C   UNL     1      38.385  48.360  32.432  1.00  0.00     0.004 C 
ENDROOT
BRANCH   1   2
ATOM      2  C   UNL     1      39.914  48.488  32.323  1.00  0.00     0.027 C 
BRANCH   2   3
ATOM      3  C   UNL     1      40.304  49.791  31.682  1.00  0.00    -0.025 C 
ATOM      4  C   UNL     1      40.546  50.945  32.328  1.00  0.00     0.020 C 
BRANCH   4   5
ATOM      5  C   UNL     1      40.518  51.161  33.790  1.00  0.00     0.064 C 
ATOM      6  O   UNL     1      41.570  51.225  34.478  1.00  0.00    -0.545 OA
ATOM      7  O   UNL     1      39.291  51.321  34.420  1.00  0.00    -0.545 OA
ENDBRANCH   4   5
ENDBRANCH   2   3
ENDBRANCH   1   2
BRANCH   1   8
ATOM      8  C   UNL     1      37.645  49.391  31.567  1.00  0.00     0.000 C 
BRANCH   8   9
ATOM      9  C   UNL     1      36.878  48.739  30.402  1.00  0.00    -0.000 C 
BRANCH   9  10
ATOM     10  C   UNL     1      37.092  49.475  29.071  1.00  0.00    -0.003 C 
ATOM     11  C   UNL     1      37.882  50.774  29.236  1.00  0.00     0.004 C 
ENDBRANCH   9  10
ENDBRANCH   8   9
ENDBRANCH   1   8
TORSDOF 6
ENDMDL
MODEL 3
REMARK VINA RESULT:    -4.540      6.681      7.312
REMARK INTER + INTRA:          -6.535
REMARK INTER:                  -6.216
REMARK INTRA:                  -0.319
REMARK UNBOUND:                -0.402
REMARK SMILES CCCCCCC=CC(=O)[O-]
REMARK SMILES IDX 5 1 6 2 7 3 8 4 9 5 10 6 11 7 4 8 3 9 2 10 1 11
REMARK H PARENT
REMARK Flexibility Score: inf
ROOT
ATOM      1  C   UNL     1      45.449  48.127  35.770  1.00  0.00     0.004 C 
ENDROOT
BRANCH   1   2
ATOM      2  C   UNL     1      46.958  48.383  35.626  1.00  0.00     0.027 C 
BRANCH   2   3
ATOM      3  C   UNL     1      47.222  49.720  34.988  1.00  0.00    -0.025 C 
ATOM      4  C   UNL     1      48.410  50.347  34.935  1.00  0.00     0.020 C 
BRANCH   4   5
ATOM      5  C   UNL     1      49.699  49.842  35.454  1.00  0.00     0.064 C 
ATOM      6  O   UNL     1      50.147  50.181  36.579  1.00  0.00    -0.545 OA
ATOM      7  O   UNL     1      50.426  48.945  34.682  1.00  0.00    -0.545 OA
ENDBRANCH   4   5
ENDBRANCH   2   3
ENDBRANCH   1   2
BRANCH   1   8
ATOM      8  C   UNL     1      45.051  46.703  35.354  1.00  0.00     0.000 C 
BRANCH   8   9
ATOM      9  C   UNL     1      46.028  46.094  34.332  1.00  0.00    -0.000 C 
BRANCH   9  10
ATOM     10  C   UNL     1      45.822  44.583  34.149  1.00  0.00    -0.003 C 
ATOM     11  C   UNL     1      44.946  44.249  32.941  1.00  0.00     0.004 C 
ENDBRANCH   9  10
ENDBRANCH   8   9
ENDBRANCH   1   8
TORSDOF 6
ENDMDL
MODEL 4
REMARK VINA RESULT:    -4.501      6.967      9.397
REMARK INTER + INTRA:          -6.483
REMARK INTER:                  -6.113
REMARK INTRA:                  -0.370
REMARK UNBOUND:                -0.402
REMARK SMILES CCCCCCC=CC(=O)[O-]
REMARK SMILES IDX 5 1 6 2 7 3 8 4 9 5 10 6 11 7 4 8 3 9 2 10 1 11
REMARK H PARENT
REMARK Flexibility Score: inf
ROOT
ATOM      1  C   UNL     1      47.924  50.365  34.585  1.00  0.00     0.004 C 
ENDROOT
BRANCH   1   2
ATOM      2  C   UNL     1      47.508  48.895  34.765  1.00  0.00     0.027 C 
BRANCH   2   3
ATOM      3  C   UNL     1      46.197  48.788  35.495  1.00  0.00    -0.025 C 
ATOM      4  C   UNL     1      45.492  47.660  35.687  1.00  0.00     0.020 C 
BRANCH   4   5
ATOM      5  C   UNL     1      45.874  46.297  35.260  1.00  0.00     0.064 C 
ATOM      6  O   UNL     1      45.318  45.719  34.290  1.00  0.00    -0.545 OA
ATOM      7  O   UNL     1      46.895  45.644  35.938  1.00  0.00    -0.545 OA
ENDBRANCH   4   5
ENDBRANCH   2   3
ENDBRANCH   1   2
BRANCH   1   8
ATOM      8  C   UNL     1      49.176  50.726  35.398  1.00  0.00     0.000 C 
BRANCH   8   9
ATOM      9  C   UNL     1      49.913  49.483  35.927  1.00  0.00    -0.000 C 
BRANCH   9  10
ATOM     10  C   UNL     1      50.730  49.778  37.194  1.00  0.00    -0.003 C 
ATOM     11  C   UNL     1      51.173  51.239  37.283  1.00  0.00     0.004 C 
ENDBRANCH   9  10
ENDBRANCH   8   9
ENDBRANCH   1   8
TORSDOF 6
ENDMDL
MODEL 5
REMARK VINA RESULT:    -4.465      7.497      9.073
REMARK INTER + INTRA:          -6.434
REMARK INTER:                  -6.094
REMARK INTRA:                  -0.339
REMARK UNBOUND:                -0.402
REMARK SMILES CCCCCCC=CC(=O)[O-]
REMARK SMILES IDX 5 1 6 2 7 3 8 4 9 5 10 6 11 7 4 8 3 9 2 10 1 11
REMARK H PARENT
REMARK Flexibility Score: inf
ROOT
ATOM      1  C   UNL     1      45.632  47.414  35.900  1.00  0.00     0.004 C 
ENDROOT
BRANCH   1   2
ATOM      2  C   UNL     1      45.315  46.311  34.877  1.00  0.00     0.027 C 
BRANCH   2   3
ATOM      3  C   UNL     1      46.522  45.984  34.041  1.00  0.00    -0.025 C 
ATOM      4  C   UNL     1      46.612  44.989  33.142  1.00  0.00     0.020 C 
BRANCH   4   5
ATOM      5  C   UNL     1      45.542  44.042  32.764  1.00  0.00     0.064 C 
ATOM      6  O   UNL     1      45.170  43.112  33.525  1.00  0.00    -0.545 OA
ATOM      7  O   UNL     1      44.911  44.199  31.537  1.00  0.00    -0.545 OA
ENDBRANCH   4   5
ENDBRANCH   2   3
ENDBRANCH   1   2
BRANCH   1   8
ATOM      8  C   UNL     1      46.518  48.524  35.314  1.00  0.00     0.000 C 
BRANCH   8   9
ATOM      9  C   UNL     1      47.824  48.715  36.107  1.00  0.00    -0.000 C 
BRANCH   9  10
ATOM     10  C   UNL     1      48.761  49.745  35.459  1.00  0.00    -0.003 C 
ATOM     11  C   UNL     1      48.005  50.836  34.700  1.00  0.00     0.004 C 
ENDBRANCH   9  10
ENDBRANCH   8   9
ENDBRANCH   1   8
TORSDOF 6
ENDMDL
MODEL 6
REMARK VINA RESULT:    -4.461      7.044      9.069
REMARK INTER + INTRA:          -6.428
REMARK INTER:                  -5.961
REMARK INTRA:                  -0.467
REMARK UNBOUND:                -0.402
REMARK SMILES CCCCCCC=CC(=O)[O-]
REMARK SMILES IDX 5 1 6 2 7 3 8 4 9 5 10 6 11 7 4 8 3 9 2 10 1 11
REMARK H PARENT
REMARK Flexibility Score: inf
ROOT
ATOM      1  C   UNL     1      46.622  49.088  35.117  1.00  0.00     0.004 C 
ENDROOT
BRANCH   1   2
ATOM      2  C   UNL     1      46.341  47.879  36.024  1.00  0.00     0.027 C 
BRANCH   2   3
ATOM      3  C   UNL     1      45.147  47.103  35.538  1.00  0.00    -0.025 C 
ATOM      4  C   UNL     1      45.181  46.025  34.735  1.00  0.00     0.020 C 
BRANCH   4   5
ATOM      5  C   UNL     1      46.389  45.361  34.201  1.00  0.00     0.064 C 
ATOM      6  O   UNL     1      46.926  45.718  33.120  1.00  0.00    -0.545 OA
ATOM      7  O   UNL     1      46.961  44.325  34.927  1.00  0.00    -0.545 OA
ENDBRANCH   4   5
ENDBRANCH   2   3
ENDBRANCH   1   2
BRANCH   1   8
ATOM      8  C   UNL     1      48.100  49.190  34.713  1.00  0.00     0.000 C 
BRANCH   8   9
ATOM      9  C   UNL     1      48.702  50.572  35.029  1.00  0.00    -0.000 C 
BRANCH   9  10
ATOM     10  C   UNL     1      49.910  50.485  35.974  1.00  0.00    -0.003 C 
ATOM     11  C   UNL     1      49.923  49.198  36.799  1.00  0.00     0.004 C 
ENDBRANCH   9  10
ENDBRANCH   8   9
ENDBRANCH   1   8
TORSDOF 6
ENDMDL
MODEL 7
REMARK VINA RESULT:    -4.458      3.754      6.035
REMARK INTER + INTRA:          -6.424
REMARK INTER:                  -6.023
REMARK INTRA:                  -0.401
REMARK UNBOUND:                -0.402
REMARK SMILES CCCCCCC=CC(=O)[O-]
REMARK SMILES IDX 5 1 6 2 7 3 8 4 9 5 10 6 11 7 4 8 3 9 2 10 1 11
REMARK H PARENT
REMARK Flexibility Score: inf
ROOT
ATOM      1  C   UNL     1      39.938  51.431  33.514  1.00  0.00     0.004 C 
ENDROOT
BRANCH   1   2
ATOM      2  C   UNL     1      40.319  50.693  32.220  1.00  0.00     0.027 C 
BRANCH   2   3
ATOM      3  C   UNL     1      40.135  49.208  32.369  1.00  0.00    -0.025 C 
ATOM      4  C   UNL     1      39.012  48.521  32.096  1.00  0.00     0.020 C 
BRANCH   4   5
ATOM      5  C   UNL     1      37.750  49.072  31.561  1.00  0.00     0.064 C 
ATOM      6  O   UNL     1      36.875  49.587  32.304  1.00  0.00    -0.545 OA
ATOM      7  O   UNL     1      37.533  49.039  30.190  1.00  0.00    -0.545 OA
ENDBRANCH   4   5
ENDBRANCH   2   3
ENDBRANCH   1   2
BRANCH   1   8
ATOM      8  C   UNL     1      41.091  52.282  34.067  1.00  0.00     0.000 C 
BRANCH   8   9
ATOM      9  C   UNL     1      41.915  51.536  35.132  1.00  0.00    -0.000 C 
BRANCH   9  10
ATOM     10  C   UNL     1      43.281  52.192  35.384  1.00  0.00    -0.003 C 
ATOM     11  C   UNL     1      43.701  53.135  34.256  1.00  0.00     0.004 C 
ENDBRANCH   9  10
ENDBRANCH   8   9
ENDBRANCH   1   8
TORSDOF 6
ENDMDL
MODEL 8
REMARK VINA RESULT:    -4.434      1.924      2.327
REMARK INTER + INTRA:          -6.391
REMARK INTER:                  -6.012
REMARK INTRA:                  -0.379
REMARK UNBOUND:                -0.402
REMARK SMILES CCCCCCC=CC(=O)[O-]
REMARK SMILES IDX 5 1 6 2 7 3 8 4 9 5 10 6 11 7 4 8 3 9 2 10 1 11
REMARK H PARENT
REMARK Flexibility Score: inf
ROOT
ATOM      1  C   UNL     1      39.770  50.962  33.115  1.00  0.00     0.004 C 
ENDROOT
BRANCH   1   2
ATOM      2  C   UNL     1      40.771  52.069  33.482  1.00  0.00     0.027 C 
BRANCH   2   3
ATOM      3  C   UNL     1      41.698  51.620  34.579  1.00  0.00    -0.025 C 
ATOM      4  C   UNL     1      41.468  51.730  35.898  1.00  0.00     0.020 C 
BRANCH   4   5
ATOM      5  C   UNL     1      40.253  52.273  36.540  1.00  0.00     0.064 C 
ATOM      6  O   UNL     1      39.276  51.543  36.851  1.00  0.00    -0.545 OA
ATOM      7  O   UNL     1      40.197  53.630  36.829  1.00  0.00    -0.545 OA
ENDBRANCH   4   5
ENDBRANCH   2   3
ENDBRANCH   1   2
BRANCH   1   8
ATOM      8  C   UNL     1      40.274  50.065  31.974  1.00  0.00     0.000 C 
BRANCH   8   9
ATOM      9  C   UNL     1      39.948  48.579  32.206  1.00  0.00    -0.000 C 
BRANCH   9  10
ATOM     10  C   UNL     1      38.443  48.328  32.390  1.00  0.00    -0.003 C 
ATOM     11  C   UNL     1      37.617  48.793  31.190  1.00  0.00     0.004 C 
ENDBRANCH   9  10
ENDBRANCH   8   9
ENDBRANCH   1   8
TORSDOF 6
ENDMDL
MODEL 9
REMARK VINA RESULT:    -4.415      6.887      8.233
REMARK INTER + INTRA:          -6.366
REMARK INTER:                  -6.040
REMARK INTRA:                  -0.326
REMARK UNBOUND:                -0.402
REMARK SMILES CCCCCCC=CC(=O)[O-]
REMARK SMILES IDX 5 1 6 2 7 3 8 4 9 5 10 6 11 7 4 8 3 9 2 10 1 11
REMARK H PARENT
REMARK Flexibility Score: inf
ROOT
ATOM      1  C   UNL     1      47.317  49.882  34.981  1.00  0.00     0.004 C 
ENDROOT
BRANCH   1   2
ATOM      2  C   UNL     1      48.802  50.139  35.285  1.00  0.00     0.027 C 
BRANCH   2   3
ATOM      3  C   UNL     1      49.291  49.246  36.392  1.00  0.00    -0.025 C 
ATOM      4  C   UNL     1      50.422  49.413  37.098  1.00  0.00     0.020 C 
BRANCH   4   5
ATOM      5  C   UNL     1      51.392  50.520  36.962  1.00  0.00     0.064 C 
ATOM      6  O   UNL     1      52.447  50.407  36.287  1.00  0.00    -0.545 OA
ATOM      7  O   UNL     1      51.117  51.732  37.583  1.00  0.00    -0.545 OA
ENDBRANCH   4   5
ENDBRANCH   2   3
ENDBRANCH   1   2
BRANCH   1   8
ATOM      8  C   UNL     1      46.989  48.385  34.871  1.00  0.00     0.000 C 
BRANCH   8   9
ATOM      9  C   UNL     1      45.880  47.953  35.846  1.00  0.00    -0.000 C 
BRANCH   9  10
ATOM     10  C   UNL     1      45.005  46.824  35.279  1.00  0.00    -0.003 C 
ATOM     11  C   UNL     1      45.802  45.826  34.439  1.00  0.00     0.004 C 
ENDBRANCH   9  10
ENDBRANCH   8   9
ENDBRANCH   1   8
TORSDOF 6
ENDMDL
