MODEL 1
REMARK VINA RESULT:     4.061      0.000      0.000
REMARK INTER + INTRA:           4.366
REMARK INTER:                   4.417
REMARK INTRA:                  -0.051
REMARK UNBOUND:                -0.051
REMARK SMILES CCc1cccc(O)c1
REMARK SMILES IDX 3 1 9 2 7 3 6 4 5 5 4 6 2 7 1 8 8 9
REMARK H PARENT 8 10
REMARK Flexibility Score: inf
ROOT
ATOM      1  C   UNL     1      -3.600  -2.073  40.567  1.00  0.00    -0.045 A 
ATOM      2  C   UNL     1      -3.036  -0.961  39.919  1.00  0.00     0.049 A 
ATOM      3  C   UNL     1      -3.018  -0.892  38.517  1.00  0.00     0.115 A 
ATOM      4  C   UNL     1      -3.556  -1.940  37.763  1.00  0.00     0.046 A 
ATOM      5  C   UNL     1      -4.106  -3.054  38.403  1.00  0.00     0.004 A 
ATOM      6  C   UNL     1      -4.125  -3.125  39.798  1.00  0.00     0.004 A 
ENDROOT
BRANCH   1   7
ATOM      7  C   UNL     1      -3.590  -2.161  42.069  1.00  0.00     0.032 C 
ATOM      8  C   UNL     1      -2.381  -1.430  42.645  1.00  0.00     0.009 C 
ENDBRANCH   1   7
BRANCH   3   9
ATOM      9  O   UNL     1      -2.466   0.209  37.868  1.00  0.00    -0.508 OA
ATOM     10  H   UNL     1      -1.584   0.613  38.165  1.00  0.00     0.293 HD
ENDBRANCH   3   9
TORSDOF 2
ENDMDL
MODEL 2
REMARK VINA RESULT:     5.144     21.288     22.786
REMARK INTER + INTRA:           5.544
REMARK INTER:                   5.619
REMARK INTRA:                  -0.076
REMARK UNBOUND:                -0.051
REMARK SMILES CCc1cccc(O)c1
REMARK SMILES IDX 3 1 9 2 7 3 6 4 5 5 4 6 2 7 1 8 8 9
REMARK H PARENT 8 10
REMARK Flexibility Score: inf
ROOT
ATOM      1  C   UNL     1      12.452  12.243  29.658  1.00  0.00    -0.045 A 
ATOM      2  C   UNL     1      12.280  10.935  30.144  1.00  0.00     0.049 A 
ATOM      3  C   UNL     1      11.045  10.535  30.677  1.00  0.00     0.115 A 
ATOM      4  C   UNL     1       9.985  11.445  30.732  1.00  0.00     0.046 A 
ATOM      5  C   UNL     1      10.154  12.750  30.262  1.00  0.00     0.004 A 
ATOM      6  C   UNL     1      11.383  13.151  29.732  1.00  0.00     0.004 A 
ENDROOT
BRANCH   1   7
ATOM      7  C   UNL     1      13.786  12.682  29.117  1.00  0.00     0.032 C 
ATOM      8  C   UNL     1      13.735  14.141  28.674  1.00  0.00     0.009 C 
ENDBRANCH   1   7
BRANCH   3   9
ATOM      9  O   UNL     1      10.865   9.240  31.155  1.00  0.00    -0.508 OA
ATOM     10  H   UNL     1      11.580   8.772  31.702  1.00  0.00     0.293 HD
ENDBRANCH   3   9
TORSDOF 2
ENDMDL
MODEL 3
REMARK VINA RESULT:     5.152     21.556     23.017
REMARK INTER + INTRA:           5.553
REMARK INTER:                   5.604
REMARK INTRA:                  -0.052
REMARK UNBOUND:                -0.051
REMARK SMILES CCc1cccc(O)c1
REMARK SMILES IDX 3 1 9 2 7 3 6 4 5 5 4 6 2 7 1 8 8 9
REMARK H PARENT 8 10
REMARK Flexibility Score: inf
ROOT
ATOM      1  C   UNL     1      12.658  12.366  29.662  1.00  0.00    -0.045 A 
ATOM      2  C   UNL     1      11.459  13.079  29.830  1.00  0.00     0.049 A 
ATOM      3  C   UNL     1      10.327  12.445  30.367  1.00  0.00     0.115 A 
ATOM      4  C   UNL     1      10.392  11.096  30.726  1.00  0.00     0.046 A 
ATOM      5  C   UNL     1      11.578  10.378  30.549  1.00  0.00     0.004 A 
ATOM      6  C   UNL     1      12.706  11.007  30.015  1.00  0.00     0.004 A 
ENDROOT
BRANCH   1   7
ATOM      7  C   UNL     1      13.861  13.036  29.056  1.00  0.00     0.032 C 
ATOM      8  C   UNL     1      13.456  14.307  28.316  1.00  0.00     0.009 C 
ENDBRANCH   1   7
BRANCH   3   9
ATOM      9  O   UNL     1       9.137  13.147  30.541  1.00  0.00    -0.508 OA
ATOM     10  H   UNL     1       8.438  13.195  29.809  1.00  0.00     0.293 HD
ENDBRANCH   3   9
TORSDOF 2
ENDMDL
MODEL 4
REMARK VINA RESULT:     5.368     22.906     24.305
REMARK INTER + INTRA:           5.787
REMARK INTER:                   5.861
REMARK INTRA:                  -0.073
REMARK UNBOUND:                -0.051
REMARK SMILES CCc1cccc(O)c1
REMARK SMILES IDX 3 1 9 2 7 3 6 4 5 5 4 6 2 7 1 8 8 9
REMARK H PARENT 8 10
REMARK Flexibility Score: inf
ROOT
ATOM      1  C   UNL     1      11.662  12.800  29.246  1.00  0.00    -0.045 A 
ATOM      2  C   UNL     1      11.524  13.370  27.969  1.00  0.00     0.049 A 
ATOM      3  C   UNL     1      12.554  14.155  27.430  1.00  0.00     0.115 A 
ATOM      4  C   UNL     1      13.718  14.379  28.171  1.00  0.00     0.046 A 
ATOM      5  C   UNL     1      13.855  13.825  29.447  1.00  0.00     0.004 A 
ATOM      6  C   UNL     1      12.830  13.043  29.987  1.00  0.00     0.004 A 
ENDROOT
BRANCH   1   7
ATOM      7  C   UNL     1      10.543  11.985  29.838  1.00  0.00     0.032 C 
ATOM      8  C   UNL     1      11.063  11.085  30.954  1.00  0.00     0.009 C 
ENDBRANCH   1   7
BRANCH   3   9
ATOM      9  O   UNL     1      12.428  14.719  26.163  1.00  0.00    -0.508 OA
ATOM     10  H   UNL     1      11.790  15.486  25.985  1.00  0.00     0.293 HD
ENDBRANCH   3   9
TORSDOF 2
ENDMDL
MODEL 5
REMARK VINA RESULT:     5.718     19.379     20.375
REMARK INTER + INTRA:           6.169
REMARK INTER:                   6.236
REMARK INTRA:                  -0.068
REMARK UNBOUND:                -0.051
REMARK SMILES CCc1cccc(O)c1
REMARK SMILES IDX 3 1 9 2 7 3 6 4 5 5 4 6 2 7 1 8 8 9
REMARK H PARENT 8 10
REMARK Flexibility Score: inf
ROOT
ATOM      1  C   UNL     1      13.700   1.240  29.923  1.00  0.00    -0.045 A 
ATOM      2  C   UNL     1      14.891   1.983  29.867  1.00  0.00     0.049 A 
ATOM      3  C   UNL     1      14.855   3.383  29.945  1.00  0.00     0.115 A 
ATOM      4  C   UNL     1      13.628   4.042  30.069  1.00  0.00     0.046 A 
ATOM      5  C   UNL     1      12.439   3.308  30.112  1.00  0.00     0.004 A 
ATOM      6  C   UNL     1      12.472   1.913  30.034  1.00  0.00     0.004 A 
ENDROOT
BRANCH   1   7
ATOM      7  C   UNL     1      13.735  -0.261  29.807  1.00  0.00     0.032 C 
ATOM      8  C   UNL     1      12.809  -0.738  28.692  1.00  0.00     0.009 C 
ENDBRANCH   1   7
BRANCH   3   9
ATOM      9  O   UNL     1      16.032   4.127  29.895  1.00  0.00    -0.508 OA
ATOM     10  H   UNL     1      16.078   5.071  30.262  1.00  0.00     0.293 HD
ENDBRANCH   3   9
TORSDOF 2
ENDMDL
MODEL 6
REMARK VINA RESULT:     5.798     22.338     23.685
REMARK INTER + INTRA:           6.256
REMARK INTER:                   6.331
REMARK INTRA:                  -0.076
REMARK UNBOUND:                -0.051
REMARK SMILES CCc1cccc(O)c1
REMARK SMILES IDX 3 1 9 2 7 3 6 4 5 5 4 6 2 7 1 8 8 9
REMARK H PARENT 8 10
REMARK Flexibility Score: inf
ROOT
ATOM      1  C   UNL     1      11.902  12.333  30.034  1.00  0.00    -0.045 A 
ATOM      2  C   UNL     1      13.151  12.941  29.827  1.00  0.00     0.049 A 
ATOM      3  C   UNL     1      13.375  13.728  28.688  1.00  0.00     0.115 A 
ATOM      4  C   UNL     1      12.352  13.901  27.750  1.00  0.00     0.046 A 
ATOM      5  C   UNL     1      11.111  13.287  27.945  1.00  0.00     0.004 A 
ATOM      6  C   UNL     1      10.886  12.502  29.079  1.00  0.00     0.004 A 
ENDROOT
BRANCH   1   7
ATOM      7  C   UNL     1      11.672  11.461  31.240  1.00  0.00     0.032 C 
ATOM      8  C   UNL     1      10.327  10.748  31.143  1.00  0.00     0.009 C 
ENDBRANCH   1   7
BRANCH   3   9
ATOM      9  O   UNL     1      14.608  14.339  28.478  1.00  0.00    -0.508 OA
ATOM     10  H   UNL     1      15.384  14.200  29.116  1.00  0.00     0.293 HD
ENDBRANCH   3   9
TORSDOF 2
ENDMDL
MODEL 7
REMARK VINA RESULT:     5.901     19.198     20.403
REMARK INTER + INTRA:           6.367
REMARK INTER:                   6.415
REMARK INTRA:                  -0.047
REMARK UNBOUND:                -0.051
REMARK SMILES CCc1cccc(O)c1
REMARK SMILES IDX 3 1 9 2 7 3 6 4 5 5 4 6 2 7 1 8 8 9
REMARK H PARENT 8 10
REMARK Flexibility Score: inf
ROOT
ATOM      1  C   UNL     1      13.125   1.729  29.673  1.00  0.00    -0.045 A 
ATOM      2  C   UNL     1      12.853   2.534  28.554  1.00  0.00     0.049 A 
ATOM      3  C   UNL     1      13.492   3.774  28.403  1.00  0.00     0.115 A 
ATOM      4  C   UNL     1      14.397   4.213  29.374  1.00  0.00     0.046 A 
ATOM      5  C   UNL     1      14.662   3.422  30.495  1.00  0.00     0.004 A 
ATOM      6  C   UNL     1      14.026   2.187  30.649  1.00  0.00     0.004 A 
ENDROOT
BRANCH   1   7
ATOM      7  C   UNL     1      12.415   0.414  29.853  1.00  0.00     0.032 C 
ATOM      8  C   UNL     1      13.054  -0.668  28.988  1.00  0.00     0.009 C 
ENDBRANCH   1   7
BRANCH   3   9
ATOM      9  O   UNL     1      13.232   4.576  27.294  1.00  0.00    -0.508 OA
ATOM     10  H   UNL     1      13.789   4.510  26.450  1.00  0.00     0.293 HD
ENDBRANCH   3   9
TORSDOF 2
ENDMDL
MODEL 8
REMARK VINA RESULT:     6.433     18.721     19.901
REMARK INTER + INTRA:           6.947
REMARK INTER:                   7.022
REMARK INTRA:                  -0.075
REMARK UNBOUND:                -0.051
REMARK SMILES CCc1cccc(O)c1
REMARK SMILES IDX 3 1 9 2 7 3 6 4 5 5 4 6 2 7 1 8 8 9
REMARK H PARENT 8 10
REMARK Flexibility Score: inf
ROOT
ATOM      1  C   UNL     1      13.996   2.917  30.248  1.00  0.00    -0.045 A 
ATOM      2  C   UNL     1      12.639   2.928  30.610  1.00  0.00     0.049 A 
ATOM      3  C   UNL     1      11.896   1.738  30.606  1.00  0.00     0.115 A 
ATOM      4  C   UNL     1      12.508   0.537  30.231  1.00  0.00     0.046 A 
ATOM      5  C   UNL     1      13.854   0.523  29.857  1.00  0.00     0.004 A 
ATOM      6  C   UNL     1      14.596   1.708  29.859  1.00  0.00     0.004 A 
ENDROOT
BRANCH   1   7
ATOM      7  C   UNL     1      14.785   4.199  30.220  1.00  0.00     0.032 C 
ATOM      8  C   UNL     1      16.125   3.994  29.521  1.00  0.00     0.009 C 
ENDBRANCH   1   7
BRANCH   3   9
ATOM      9  O   UNL     1      10.551   1.739  30.969  1.00  0.00    -0.508 OA
ATOM     10  H   UNL     1      10.070   0.883  31.222  1.00  0.00     0.293 HD
ENDBRANCH   3   9
TORSDOF 2
ENDMDL
MODEL 9
REMARK VINA RESULT:     6.508     18.880     20.247
REMARK INTER + INTRA:           7.027
REMARK INTER:                   7.077
REMARK INTRA:                  -0.050
REMARK UNBOUND:                -0.051
REMARK SMILES CCc1cccc(O)c1
REMARK SMILES IDX 3 1 9 2 7 3 6 4 5 5 4 6 2 7 1 8 8 9
REMARK H PARENT 8 10
REMARK Flexibility Score: inf
ROOT
ATOM      1  C   UNL     1      13.646   3.609  29.186  1.00  0.00    -0.045 A 
ATOM      2  C   UNL     1      12.357   3.156  29.517  1.00  0.00     0.049 A 
ATOM      3  C   UNL     1      12.176   2.246  30.569  1.00  0.00     0.115 A 
ATOM      4  C   UNL     1      13.283   1.781  31.285  1.00  0.00     0.046 A 
ATOM      5  C   UNL     1      14.568   2.218  30.952  1.00  0.00     0.004 A 
ATOM      6  C   UNL     1      14.752   3.124  29.904  1.00  0.00     0.004 A 
ENDROOT
BRANCH   1   7
ATOM      7  C   UNL     1      13.844   4.561  28.037  1.00  0.00     0.032 C 
ATOM      8  C   UNL     1      13.175   4.028  26.774  1.00  0.00     0.009 C 
ENDBRANCH   1   7
BRANCH   3   9
ATOM      9  O   UNL     1      10.902   1.796  30.906  1.00  0.00    -0.508 OA
ATOM     10  H   UNL     1      10.604   0.847  30.707  1.00  0.00     0.293 HD
ENDBRANCH   3   9
TORSDOF 2
ENDMDL
