MODEL 1
REMARK VINA RESULT:    -0.418      0.000      0.000
REMARK INTER + INTRA:          -0.540
REMARK INTER:                  -0.443
REMARK INTRA:                  -0.098
REMARK UNBOUND:                -0.098
REMARK SMILES C=C(C)[C@H]1CC=C(C)C(=O)C1
REMARK SMILES IDX 8 1 7 2 6 3 5 4 4 5 11 6 9 7 10 8 2 9 1 10 3 11
REMARK H PARENT
REMARK Flexibility Score: inf
ROOT
ATOM      1  C   UNL     1      23.104  21.677  45.595  1.00  0.00     0.048 C 
ATOM      2  C   UNL     1      21.742  22.315  45.640  1.00  0.00    -0.012 C 
ATOM      3  C   UNL     1      21.480  23.387  44.873  1.00  0.00    -0.019 C 
ATOM      4  C   UNL     1      20.140  24.075  44.893  1.00  0.00     0.036 C 
ATOM      5  C   UNL     1      19.006  23.069  45.161  1.00  0.00     0.025 C 
ATOM      6  C   UNL     1      19.279  22.288  46.458  1.00  0.00     0.089 C 
ATOM      7  C   UNL     1      20.657  21.686  46.433  1.00  0.00     0.158 C 
ATOM      8  O   UNL     1      20.891  20.658  47.125  1.00  0.00    -0.295 OA
ENDROOT
BRANCH   5   9
ATOM      9  C   UNL     1      17.648  23.759  45.201  1.00  0.00    -0.077 C 
ATOM     10  C   UNL     1      17.087  24.072  46.380  1.00  0.00     0.008 C 
ATOM     11  C   UNL     1      16.907  24.110  43.934  1.00  0.00     0.039 C 
ENDBRANCH   5   9
TORSDOF 1
ENDMDL
