MODEL 1
REMARK VINA RESULT:    -3.285      0.000      0.000
REMARK INTER + INTRA:          -4.170
REMARK INTER:                  -3.957
REMARK INTRA:                  -0.212
REMARK UNBOUND:                -0.212
REMARK SMILES OCC(O)CO
REMARK SMILES IDX 3 1 5 2 6 3 2 5 1 6 4 8
REMARK H PARENT 6 4 1 7 4 9
REMARK Flexibility Score: inf
ROOT
ATOM      1  C   UNL     1      -5.978 -12.377   0.232  1.00  0.00     0.165 C 
ENDROOT
BRANCH   1   2
ATOM      2  C   UNL     1      -5.194 -13.462  -0.522  1.00  0.00     0.190 C 
BRANCH   2   3
ATOM      3  O   UNL     1      -5.811 -14.712  -0.366  1.00  0.00    -0.394 OA
ATOM      4  H   UNL     1      -6.464 -14.619   0.377  1.00  0.00     0.210 HD
ENDBRANCH   2   3
ENDBRANCH   1   2
BRANCH   1   5
ATOM      5  C   UNL     1      -6.948 -11.660  -0.717  1.00  0.00     0.190 C 
BRANCH   5   6
ATOM      6  O   UNL     1      -7.761 -12.589  -1.381  1.00  0.00    -0.394 OA
ATOM      7  H   UNL     1      -7.515 -13.484  -1.029  1.00  0.00     0.210 HD
ENDBRANCH   5   6
ENDBRANCH   1   5
BRANCH   1   8
ATOM      8  O   UNL     1      -6.709 -12.956   1.282  1.00  0.00    -0.388 OA
ATOM      9  H   UNL     1      -7.499 -12.376   1.440  1.00  0.00     0.211 HD
ENDBRANCH   1   8
TORSDOF 5
ENDMDL
MODEL 2
REMARK VINA RESULT:    -3.256      1.374      2.740
REMARK INTER + INTRA:          -4.135
REMARK INTER:                  -4.132
REMARK INTRA:                  -0.003
REMARK UNBOUND:                -0.212
REMARK SMILES OCC(O)CO
REMARK SMILES IDX 3 1 5 2 6 3 2 5 1 6 4 8
REMARK H PARENT 6 4 1 7 4 9
REMARK Flexibility Score: inf
ROOT
ATOM      1  C   UNL     1      -5.669 -13.313  -0.593  1.00  0.00     0.165 C 
ENDROOT
BRANCH   1   2
ATOM      2  C   UNL     1      -6.446 -12.107  -0.044  1.00  0.00     0.190 C 
BRANCH   2   3
ATOM      3  O   UNL     1      -6.718 -12.278   1.322  1.00  0.00    -0.394 OA
ATOM      4  H   UNL     1      -7.573 -11.808   1.506  1.00  0.00     0.210 HD
ENDBRANCH   2   3
ENDBRANCH   1   2
BRANCH   1   5
ATOM      5  C   UNL     1      -4.252 -12.895  -1.007  1.00  0.00     0.190 C 
BRANCH   5   6
ATOM      6  O   UNL     1      -3.800 -13.685  -2.074  1.00  0.00    -0.394 OA
ATOM      7  H   UNL     1      -3.074 -13.174  -2.518  1.00  0.00     0.210 HD
ENDBRANCH   5   6
ENDBRANCH   1   5
BRANCH   1   8
ATOM      8  O   UNL     1      -5.583 -14.315   0.389  1.00  0.00    -0.388 OA
ATOM      9  H   UNL     1      -5.916 -15.155  -0.024  1.00  0.00     0.211 HD
ENDBRANCH   1   8
TORSDOF 5
ENDMDL
MODEL 3
REMARK VINA RESULT:    -3.230      1.439      2.869
REMARK INTER + INTRA:          -4.104
REMARK INTER:                  -3.885
REMARK INTRA:                  -0.219
REMARK UNBOUND:                -0.212
REMARK SMILES OCC(O)CO
REMARK SMILES IDX 3 1 5 2 6 3 2 5 1 6 4 8
REMARK H PARENT 6 4 1 7 4 9
REMARK Flexibility Score: inf
ROOT
ATOM      1  C   UNL     1      -5.001 -12.501  -0.563  1.00  0.00     0.165 C 
ENDROOT
BRANCH   1   2
ATOM      2  C   UNL     1      -6.465 -12.232  -0.180  1.00  0.00     0.190 C 
BRANCH   2   3
ATOM      3  O   UNL     1      -6.627 -12.293   1.212  1.00  0.00    -0.394 OA
ATOM      4  H   UNL     1      -5.719 -12.392   1.603  1.00  0.00     0.210 HD
ENDBRANCH   2   3
ENDBRANCH   1   2
BRANCH   1   5
ATOM      5  C   UNL     1      -4.739 -14.010  -0.652  1.00  0.00     0.190 C 
BRANCH   5   6
ATOM      6  O   UNL     1      -5.751 -14.723   0.007  1.00  0.00    -0.394 OA
ATOM      7  H   UNL     1      -5.539 -14.688   0.976  1.00  0.00     0.210 HD
ENDBRANCH   5   6
ENDBRANCH   1   5
BRANCH   1   8
ATOM      8  O   UNL     1      -4.714 -11.912  -1.805  1.00  0.00    -0.388 OA
ATOM      9  H   UNL     1      -3.933 -11.314  -1.670  1.00  0.00     0.211 HD
ENDBRANCH   1   8
TORSDOF 5
ENDMDL
MODEL 4
REMARK VINA RESULT:    -3.067      1.691      2.650
REMARK INTER + INTRA:          -3.907
REMARK INTER:                  -3.692
REMARK INTRA:                  -0.215
REMARK UNBOUND:                -0.212
REMARK SMILES OCC(O)CO
REMARK SMILES IDX 3 1 5 2 6 3 2 5 1 6 4 8
REMARK H PARENT 6 4 1 7 4 9
REMARK Flexibility Score: inf
ROOT
ATOM      1  C   UNL     1      -5.874 -13.188  -0.489  1.00  0.00     0.165 C 
ENDROOT
BRANCH   1   2
ATOM      2  C   UNL     1      -6.648 -11.904  -0.152  1.00  0.00     0.190 C 
BRANCH   2   3
ATOM      3  O   UNL     1      -7.297 -11.409  -1.294  1.00  0.00    -0.394 OA
ATOM      4  H   UNL     1      -8.212 -11.145  -1.012  1.00  0.00     0.210 HD
ENDBRANCH   2   3
ENDBRANCH   1   2
BRANCH   1   5
ATOM      5  C   UNL     1      -4.422 -12.858  -0.858  1.00  0.00     0.190 C 
BRANCH   5   6
ATOM      6  O   UNL     1      -4.381 -11.969  -1.941  1.00  0.00    -0.394 OA
ATOM      7  H   UNL     1      -3.506 -11.503  -1.893  1.00  0.00     0.210 HD
ENDBRANCH   5   6
ENDBRANCH   1   5
BRANCH   1   8
ATOM      8  O   UNL     1      -5.881 -14.055   0.617  1.00  0.00    -0.388 OA
ATOM      9  H   UNL     1      -6.832 -14.240   0.834  1.00  0.00     0.211 HD
ENDBRANCH   1   8
TORSDOF 5
ENDMDL
MODEL 5
REMARK VINA RESULT:    -3.056      1.424      2.217
REMARK INTER + INTRA:          -3.893
REMARK INTER:                  -3.890
REMARK INTRA:                  -0.003
REMARK UNBOUND:                -0.212
REMARK SMILES OCC(O)CO
REMARK SMILES IDX 3 1 5 2 6 3 2 5 1 6 4 8
REMARK H PARENT 6 4 1 7 4 9
REMARK Flexibility Score: inf
ROOT
ATOM      1  C   UNL     1      -5.178 -13.229  -0.298  1.00  0.00     0.165 C 
ENDROOT
BRANCH   1   2
ATOM      2  C   UNL     1      -4.158 -12.664  -1.299  1.00  0.00     0.190 C 
BRANCH   2   3
ATOM      3  O   UNL     1      -3.661 -13.687  -2.121  1.00  0.00    -0.394 OA
ATOM      4  H   UNL     1      -4.380 -13.911  -2.769  1.00  0.00     0.210 HD
ENDBRANCH   2   3
ENDBRANCH   1   2
BRANCH   1   5
ATOM      5  C   UNL     1      -6.316 -12.226  -0.068  1.00  0.00     0.190 C 
BRANCH   5   6
ATOM      6  O   UNL     1      -6.732 -12.255   1.270  1.00  0.00    -0.394 OA
ATOM      7  H   UNL     1      -6.959 -13.200   1.476  1.00  0.00     0.210 HD
ENDBRANCH   5   6
ENDBRANCH   1   5
BRANCH   1   8
ATOM      8  O   UNL     1      -5.717 -14.430  -0.788  1.00  0.00    -0.388 OA
ATOM      9  H   UNL     1      -6.372 -14.750  -0.114  1.00  0.00     0.211 HD
ENDBRANCH   1   8
TORSDOF 5
ENDMDL
MODEL 6
REMARK VINA RESULT:    -2.822      8.327      8.978
REMARK INTER + INTRA:          -3.612
REMARK INTER:                  -3.410
REMARK INTRA:                  -0.201
REMARK UNBOUND:                -0.212
REMARK SMILES OCC(O)CO
REMARK SMILES IDX 3 1 5 2 6 3 2 5 1 6 4 8
REMARK H PARENT 6 4 1 7 4 9
REMARK Flexibility Score: inf
ROOT
ATOM      1  C   UNL     1       0.210  -8.801   1.741  1.00  0.00     0.165 C 
ENDROOT
BRANCH   1   2
ATOM      2  C   UNL     1       0.295  -7.836   0.549  1.00  0.00     0.190 C 
BRANCH   2   3
ATOM      3  O   UNL     1       0.278  -6.505   0.994  1.00  0.00    -0.394 OA
ATOM      4  H   UNL     1       0.858  -5.988   0.376  1.00  0.00     0.210 HD
ENDBRANCH   2   3
ENDBRANCH   1   2
BRANCH   1   5
ATOM      5  C   UNL     1       1.219  -8.404   2.826  1.00  0.00     0.190 C 
BRANCH   5   6
ATOM      6  O   UNL     1       0.585  -7.679   3.845  1.00  0.00    -0.394 OA
ATOM      7  H   UNL     1       1.272  -7.504   4.539  1.00  0.00     0.210 HD
ENDBRANCH   5   6
ENDBRANCH   1   5
BRANCH   1   8
ATOM      8  O   UNL     1      -1.084  -8.776   2.288  1.00  0.00    -0.388 OA
ATOM      9  H   UNL     1      -1.643  -9.387   1.739  1.00  0.00     0.211 HD
ENDBRANCH   1   8
TORSDOF 5
ENDMDL
MODEL 7
REMARK VINA RESULT:    -2.806      7.765      8.272
REMARK INTER + INTRA:          -3.592
REMARK INTER:                  -3.369
REMARK INTRA:                  -0.222
REMARK UNBOUND:                -0.212
REMARK SMILES OCC(O)CO
REMARK SMILES IDX 3 1 5 2 6 3 2 5 1 6 4 8
REMARK H PARENT 6 4 1 7 4 9
REMARK Flexibility Score: inf
ROOT
ATOM      1  C   UNL     1       0.298  -8.264   1.035  1.00  0.00     0.165 C 
ENDROOT
BRANCH   1   2
ATOM      2  C   UNL     1       0.837  -8.766   2.384  1.00  0.00     0.190 C 
BRANCH   2   3
ATOM      3  O   UNL     1       0.446  -7.903   3.419  1.00  0.00    -0.394 OA
ATOM      4  H   UNL     1      -0.359  -7.417   3.100  1.00  0.00     0.210 HD
ENDBRANCH   2   3
ENDBRANCH   1   2
BRANCH   1   5
ATOM      5  C   UNL     1      -1.064  -8.902   0.731  1.00  0.00     0.190 C 
BRANCH   5   6
ATOM      6  O   UNL     1      -1.657  -9.377   1.910  1.00  0.00    -0.394 OA
ATOM      7  H   UNL     1      -1.974  -8.579   2.409  1.00  0.00     0.210 HD
ENDBRANCH   5   6
ENDBRANCH   1   5
BRANCH   1   8
ATOM      8  O   UNL     1       0.154  -6.868   1.066  1.00  0.00    -0.388 OA
ATOM      9  H   UNL     1      -0.442  -6.654   1.832  1.00  0.00     0.211 HD
ENDBRANCH   1   8
TORSDOF 5
ENDMDL
MODEL 8
REMARK VINA RESULT:    -2.759      2.540      3.713
REMARK INTER + INTRA:          -3.535
REMARK INTER:                  -3.317
REMARK INTRA:                  -0.218
REMARK UNBOUND:                -0.212
REMARK SMILES OCC(O)CO
REMARK SMILES IDX 3 1 5 2 6 3 2 5 1 6 4 8
REMARK H PARENT 6 4 1 7 4 9
REMARK Flexibility Score: inf
ROOT
ATOM      1  C   UNL     1      -3.696 -14.329  -1.852  1.00  0.00     0.165 C 
ENDROOT
BRANCH   1   2
ATOM      2  C   UNL     1      -4.363 -14.559  -0.488  1.00  0.00     0.190 C 
BRANCH   2   3
ATOM      3  O   UNL     1      -5.729 -14.242  -0.550  1.00  0.00    -0.394 OA
ATOM      4  H   UNL     1      -6.145 -14.605   0.276  1.00  0.00     0.210 HD
ENDBRANCH   2   3
ENDBRANCH   1   2
BRANCH   1   5
ATOM      5  C   UNL     1      -3.267 -12.863  -2.000  1.00  0.00     0.190 C 
BRANCH   5   6
ATOM      6  O   UNL     1      -3.584 -12.141  -0.841  1.00  0.00    -0.394 OA
ATOM      7  H   UNL     1      -3.241 -12.669  -0.074  1.00  0.00     0.210 HD
ENDBRANCH   5   6
ENDBRANCH   1   5
BRANCH   1   8
ATOM      8  O   UNL     1      -2.566 -15.153  -1.979  1.00  0.00    -0.388 OA
ATOM      9  H   UNL     1      -1.931 -14.684  -2.582  1.00  0.00     0.211 HD
ENDBRANCH   1   8
TORSDOF 5
ENDMDL
MODEL 9
REMARK VINA RESULT:    -2.756      2.241      3.530
REMARK INTER + INTRA:          -3.532
REMARK INTER:                  -3.529
REMARK INTRA:                  -0.002
REMARK UNBOUND:                -0.212
REMARK SMILES OCC(O)CO
REMARK SMILES IDX 3 1 5 2 6 3 2 5 1 6 4 8
REMARK H PARENT 6 4 1 7 4 9
REMARK Flexibility Score: inf
ROOT
ATOM      1  C   UNL     1      -4.150 -13.611  -0.890  1.00  0.00     0.165 C 
ENDROOT
BRANCH   1   2
ATOM      2  C   UNL     1      -5.228 -14.463  -0.203  1.00  0.00     0.190 C 
BRANCH   2   3
ATOM      3  O   UNL     1      -6.109 -13.647   0.524  1.00  0.00    -0.394 OA
ATOM      4  H   UNL     1      -6.687 -14.253   1.058  1.00  0.00     0.210 HD
ENDBRANCH   2   3
ENDBRANCH   1   2
BRANCH   1   5
ATOM      5  C   UNL     1      -3.599 -14.336  -2.124  1.00  0.00     0.190 C 
BRANCH   5   6
ATOM      6  O   UNL     1      -2.526 -15.165  -1.768  1.00  0.00    -0.394 OA
ATOM      7  H   UNL     1      -1.830 -14.575  -1.377  1.00  0.00     0.210 HD
ENDBRANCH   5   6
ENDBRANCH   1   5
BRANCH   1   8
ATOM      8  O   UNL     1      -4.695 -12.378  -1.287  1.00  0.00    -0.388 OA
ATOM      9  H   UNL     1      -5.342 -12.107  -0.585  1.00  0.00     0.211 HD
ENDBRANCH   1   8
TORSDOF 5
ENDMDL
