MODEL 1
REMARK VINA RESULT:    -4.633      0.000      0.000
REMARK INTER + INTRA:          -5.667
REMARK INTER:                  -5.580
REMARK INTRA:                  -0.086
REMARK UNBOUND:                -0.086
REMARK SMILES OCCc1ccc(O)c(O)c1
REMARK SMILES IDX 3 1 4 2 5 3 6 4 7 5 11 6 9 7 8 8 10 10 2 12 1 13
REMARK H PARENT 8 9 10 11 1 14
REMARK Flexibility Score: inf
ROOT
ATOM      1  C   UNL     1     126.842 129.923 117.357  1.00  0.00     0.064 C 
ENDROOT
BRANCH   1   2
ATOM      2  C   UNL     1     128.147 129.629 118.050  1.00  0.00    -0.042 A 
ATOM      3  C   UNL     1     128.223 129.635 119.451  1.00  0.00     0.008 A 
ATOM      4  C   UNL     1     129.427 129.335 120.092  1.00  0.00     0.050 A 
ATOM      5  C   UNL     1     130.566 129.017 119.345  1.00  0.00     0.157 A 
ATOM      6  C   UNL     1     129.286 129.299 117.300  1.00  0.00     0.054 A 
ATOM      7  C   UNL     1     130.497 128.996 117.941  1.00  0.00     0.157 A 
BRANCH   5   8
ATOM      8  O   UNL     1     131.754 128.721 120.013  1.00  0.00    -0.504 OA
ATOM      9  H   UNL     1     131.787 128.073 120.791  1.00  0.00     0.293 HD
ENDBRANCH   5   8
BRANCH   7  10
ATOM     10  O   UNL     1     131.626 128.674 117.190  1.00  0.00    -0.504 OA
ATOM     11  H   UNL     1     132.113 129.371 116.638  1.00  0.00     0.293 HD
ENDBRANCH   7  10
ENDBRANCH   1   2
BRANCH   1  12
ATOM     12  C   UNL     1     126.749 129.193 116.014  1.00  0.00     0.161 C 
BRANCH  12  13
ATOM     13  O   UNL     1     126.369 130.073 114.990  1.00  0.00    -0.396 OA
ATOM     14  H   UNL     1     126.861 130.921 115.148  1.00  0.00     0.210 HD
ENDBRANCH  12  13
ENDBRANCH   1  12
TORSDOF 5
ENDMDL
MODEL 2
REMARK VINA RESULT:    -4.593      2.084      3.804
REMARK INTER + INTRA:          -5.619
REMARK INTER:                  -5.547
REMARK INTRA:                  -0.072
REMARK UNBOUND:                -0.086
REMARK SMILES OCCc1ccc(O)c(O)c1
REMARK SMILES IDX 3 1 4 2 5 3 6 4 7 5 11 6 9 7 8 8 10 10 2 12 1 13
REMARK H PARENT 8 9 10 11 1 14
REMARK Flexibility Score: inf
ROOT
ATOM      1  C   UNL     1     131.989 128.976 116.690  1.00  0.00     0.064 C 
ENDROOT
BRANCH   1   2
ATOM      2  C   UNL     1     130.771 129.111 117.566  1.00  0.00    -0.042 A 
ATOM      3  C   UNL     1     130.865 128.899 118.950  1.00  0.00     0.008 A 
ATOM      4  C   UNL     1     129.740 129.052 119.765  1.00  0.00     0.050 A 
ATOM      5  C   UNL     1     128.511 129.425 119.210  1.00  0.00     0.157 A 
ATOM      6  C   UNL     1     129.540 129.496 117.011  1.00  0.00     0.054 A 
ATOM      7  C   UNL     1     128.410 129.651 117.826  1.00  0.00     0.157 A 
BRANCH   5   8
ATOM      8  O   UNL     1     127.406 129.569 120.048  1.00  0.00    -0.504 OA
ATOM      9  H   UNL     1     126.538 129.982 119.727  1.00  0.00     0.293 HD
ENDBRANCH   5   8
BRANCH   7  10
ATOM     10  O   UNL     1     127.189 130.028 117.268  1.00  0.00    -0.504 OA
ATOM     11  H   UNL     1     127.051 130.948 116.867  1.00  0.00     0.293 HD
ENDBRANCH   7  10
ENDBRANCH   1   2
BRANCH   1  12
ATOM     12  C   UNL     1     131.616 129.036 115.206  1.00  0.00     0.161 C 
BRANCH  12  13
ATOM     13  O   UNL     1     132.480 128.242 114.439  1.00  0.00    -0.396 OA
ATOM     14  H   UNL     1     132.717 127.457 115.000  1.00  0.00     0.210 HD
ENDBRANCH  12  13
ENDBRANCH   1  12
TORSDOF 5
ENDMDL
MODEL 3
REMARK VINA RESULT:    -4.569      1.400      4.232
REMARK INTER + INTRA:          -5.590
REMARK INTER:                  -5.530
REMARK INTRA:                  -0.059
REMARK UNBOUND:                -0.086
REMARK SMILES OCCc1ccc(O)c(O)c1
REMARK SMILES IDX 3 1 4 2 5 3 6 4 7 5 11 6 9 7 8 8 10 10 2 12 1 13
REMARK H PARENT 8 9 10 11 1 14
REMARK Flexibility Score: inf
ROOT
ATOM      1  C   UNL     1     128.757 129.638 119.456  1.00  0.00     0.064 C 
ENDROOT
BRANCH   1   2
ATOM      2  C   UNL     1     128.527 129.497 117.973  1.00  0.00    -0.042 A 
ATOM      3  C   UNL     1     127.224 129.493 117.455  1.00  0.00     0.008 A 
ATOM      4  C   UNL     1     127.013 129.390 116.078  1.00  0.00     0.050 A 
ATOM      5  C   UNL     1     128.100 129.297 115.202  1.00  0.00     0.157 A 
ATOM      6  C   UNL     1     129.618 129.415 117.093  1.00  0.00     0.054 A 
ATOM      7  C   UNL     1     129.410 129.312 115.710  1.00  0.00     0.157 A 
BRANCH   5   8
ATOM      8  O   UNL     1     127.859 129.195 113.832  1.00  0.00    -0.504 OA
ATOM      9  H   UNL     1     128.611 129.111 113.158  1.00  0.00     0.293 HD
ENDBRANCH   5   8
BRANCH   7  10
ATOM     10  O   UNL     1     130.498 129.226 114.843  1.00  0.00    -0.504 OA
ATOM     11  H   UNL     1     131.329 128.699 115.084  1.00  0.00     0.293 HD
ENDBRANCH   7  10
ENDBRANCH   1   2
BRANCH   1  12
ATOM     12  C   UNL     1     130.146 129.130 119.854  1.00  0.00     0.161 C 
BRANCH  12  13
ATOM     13  O   UNL     1     130.143 127.738 120.019  1.00  0.00    -0.396 OA
ATOM     14  H   UNL     1     130.018 127.568 120.990  1.00  0.00     0.210 HD
ENDBRANCH  12  13
ENDBRANCH   1  12
TORSDOF 5
ENDMDL
MODEL 4
REMARK VINA RESULT:    -4.488      2.004      4.070
REMARK INTER + INTRA:          -5.493
REMARK INTER:                  -5.525
REMARK INTRA:                   0.032
REMARK UNBOUND:                -0.086
REMARK SMILES OCCc1ccc(O)c(O)c1
REMARK SMILES IDX 3 1 4 2 5 3 6 4 7 5 11 6 9 7 8 8 10 10 2 12 1 13
REMARK H PARENT 8 9 10 11 1 14
REMARK Flexibility Score: inf
ROOT
ATOM      1  C   UNL     1     129.915 128.881 119.630  1.00  0.00     0.064 C 
ENDROOT
BRANCH   1   2
ATOM      2  C   UNL     1     130.096 129.053 118.144  1.00  0.00    -0.042 A 
ATOM      3  C   UNL     1     131.379 129.029 117.578  1.00  0.00     0.008 A 
ATOM      4  C   UNL     1     131.543 129.160 116.197  1.00  0.00     0.050 A 
ATOM      5  C   UNL     1     130.429 129.310 115.364  1.00  0.00     0.157 A 
ATOM      6  C   UNL     1     128.978 129.191 117.307  1.00  0.00     0.054 A 
ATOM      7  C   UNL     1     129.138 129.323 115.920  1.00  0.00     0.157 A 
BRANCH   5   8
ATOM      8  O   UNL     1     130.624 129.439 113.989  1.00  0.00    -0.504 OA
ATOM      9  H   UNL     1     130.503 130.324 113.510  1.00  0.00     0.293 HD
ENDBRANCH   5   8
BRANCH   7  10
ATOM     10  O   UNL     1     128.023 129.466 115.096  1.00  0.00    -0.504 OA
ATOM     11  H   UNL     1     127.682 130.378 114.818  1.00  0.00     0.293 HD
ENDBRANCH   7  10
ENDBRANCH   1   2
BRANCH   1  12
ATOM     12  C   UNL     1     128.542 129.384 120.085  1.00  0.00     0.161 C 
BRANCH  12  13
ATOM     13  O   UNL     1     128.493 130.785 120.075  1.00  0.00    -0.396 OA
ATOM     14  H   UNL     1     127.550 131.037 120.263  1.00  0.00     0.210 HD
ENDBRANCH  12  13
ENDBRANCH   1  12
TORSDOF 5
ENDMDL
MODEL 5
REMARK VINA RESULT:    -4.296      1.365      4.671
REMARK INTER + INTRA:          -5.262
REMARK INTER:                  -5.183
REMARK INTRA:                  -0.078
REMARK UNBOUND:                -0.086
REMARK SMILES OCCc1ccc(O)c(O)c1
REMARK SMILES IDX 3 1 4 2 5 3 6 4 7 5 11 6 9 7 8 8 10 10 2 12 1 13
REMARK H PARENT 8 9 10 11 1 14
REMARK Flexibility Score: inf
ROOT
ATOM      1  C   UNL     1     128.798 129.616 119.488  1.00  0.00     0.064 C 
ENDROOT
BRANCH   1   2
ATOM      2  C   UNL     1     128.579 129.512 118.001  1.00  0.00    -0.042 A 
ATOM      3  C   UNL     1     129.670 129.353 117.133  1.00  0.00     0.008 A 
ATOM      4  C   UNL     1     129.464 129.229 115.757  1.00  0.00     0.050 A 
ATOM      5  C   UNL     1     128.168 129.255 115.232  1.00  0.00     0.157 A 
ATOM      6  C   UNL     1     127.278 129.527 117.475  1.00  0.00     0.054 A 
ATOM      7  C   UNL     1     127.068 129.402 116.094  1.00  0.00     0.157 A 
BRANCH   5   8
ATOM      8  O   UNL     1     127.993 129.129 113.854  1.00  0.00    -0.504 OA
ATOM      9  H   UNL     1     127.086 129.236 113.415  1.00  0.00     0.293 HD
ENDBRANCH   5   8
BRANCH   7  10
ATOM     10  O   UNL     1     125.773 129.423 115.578  1.00  0.00    -0.504 OA
ATOM     11  H   UNL     1     125.298 130.293 115.371  1.00  0.00     0.293 HD
ENDBRANCH   7  10
ENDBRANCH   1   2
BRANCH   1  12
ATOM     12  C   UNL     1     130.179 129.086 119.886  1.00  0.00     0.161 C 
BRANCH  12  13
ATOM     13  O   UNL     1     130.132 127.709 120.146  1.00  0.00    -0.396 OA
ATOM     14  H   UNL     1     129.209 127.411 119.931  1.00  0.00     0.210 HD
ENDBRANCH  12  13
ENDBRANCH   1  12
TORSDOF 5
ENDMDL
MODEL 6
REMARK VINA RESULT:    -4.137      7.295     10.950
REMARK INTER + INTRA:          -5.070
REMARK INTER:                  -4.989
REMARK INTRA:                  -0.081
REMARK UNBOUND:                -0.086
REMARK SMILES OCCc1ccc(O)c(O)c1
REMARK SMILES IDX 3 1 4 2 5 3 6 4 7 5 11 6 9 7 8 8 10 10 2 12 1 13
REMARK H PARENT 8 9 10 11 1 14
REMARK Flexibility Score: inf
ROOT
ATOM      1  C   UNL     1     123.706 132.718 112.931  1.00  0.00     0.064 C 
ENDROOT
BRANCH   1   2
ATOM      2  C   UNL     1     122.497 132.352 112.110  1.00  0.00    -0.042 A 
ATOM      3  C   UNL     1     122.622 132.106 110.734  1.00  0.00     0.008 A 
ATOM      4  C   UNL     1     121.504 131.740 109.980  1.00  0.00     0.050 A 
ATOM      5  C   UNL     1     120.252 131.608 110.589  1.00  0.00     0.157 A 
ATOM      6  C   UNL     1     121.242 132.209 112.723  1.00  0.00     0.054 A 
ATOM      7  C   UNL     1     120.119 131.841 111.969  1.00  0.00     0.157 A 
BRANCH   5   8
ATOM      8  O   UNL     1     119.155 131.242 109.810  1.00  0.00    -0.504 OA
ATOM      9  H   UNL     1     119.100 130.342 109.347  1.00  0.00     0.293 HD
ENDBRANCH   5   8
BRANCH   7  10
ATOM     10  O   UNL     1     118.875 131.706 112.583  1.00  0.00    -0.504 OA
ATOM     11  H   UNL     1     118.774 131.742 113.591  1.00  0.00     0.293 HD
ENDBRANCH   7  10
ENDBRANCH   1   2
BRANCH   1  12
ATOM     12  C   UNL     1     124.629 131.512 113.128  1.00  0.00     0.161 C 
BRANCH  12  13
ATOM     13  O   UNL     1     123.991 130.507 113.869  1.00  0.00    -0.396 OA
ATOM     14  H   UNL     1     123.079 130.409 113.486  1.00  0.00     0.210 HD
ENDBRANCH  12  13
ENDBRANCH   1  12
TORSDOF 5
ENDMDL
MODEL 7
REMARK VINA RESULT:    -3.978      8.504     11.775
REMARK INTER + INTRA:          -4.878
REMARK INTER:                  -4.784
REMARK INTRA:                  -0.095
REMARK UNBOUND:                -0.086
REMARK SMILES OCCc1ccc(O)c(O)c1
REMARK SMILES IDX 3 1 4 2 5 3 6 4 7 5 11 6 9 7 8 8 10 10 2 12 1 13
REMARK H PARENT 8 9 10 11 1 14
REMARK Flexibility Score: inf
ROOT
ATOM      1  C   UNL     1     123.091 132.763 112.048  1.00  0.00     0.064 C 
ENDROOT
BRANCH   1   2
ATOM      2  C   UNL     1     122.407 132.289 110.792  1.00  0.00    -0.042 A 
ATOM      3  C   UNL     1     123.137 132.126 109.605  1.00  0.00     0.008 A 
ATOM      4  C   UNL     1     122.507 131.660 108.449  1.00  0.00     0.050 A 
ATOM      5  C   UNL     1     121.144 131.345 108.464  1.00  0.00     0.157 A 
ATOM      6  C   UNL     1     121.042 131.962 110.811  1.00  0.00     0.054 A 
ATOM      7  C   UNL     1     120.407 131.494 109.652  1.00  0.00     0.157 A 
BRANCH   5   8
ATOM      8  O   UNL     1     120.543 130.882 107.294  1.00  0.00    -0.504 OA
ATOM      9  H   UNL     1     120.711 129.949 106.936  1.00  0.00     0.293 HD
ENDBRANCH   5   8
BRANCH   7  10
ATOM     10  O   UNL     1     119.050 131.176 109.675  1.00  0.00    -0.504 OA
ATOM     11  H   UNL     1     118.660 130.468 109.064  1.00  0.00     0.293 HD
ENDBRANCH   7  10
ENDBRANCH   1   2
BRANCH   1  12
ATOM     12  C   UNL     1     122.570 132.017 113.280  1.00  0.00     0.161 C 
BRANCH  12  13
ATOM     13  O   UNL     1     123.354 130.887 113.551  1.00  0.00    -0.396 OA
ATOM     14  H   UNL     1     122.849 130.343 114.211  1.00  0.00     0.210 HD
ENDBRANCH  12  13
ENDBRANCH   1  12
TORSDOF 5
ENDMDL
MODEL 8
REMARK VINA RESULT:    -3.958      7.422     10.942
REMARK INTER + INTRA:          -4.855
REMARK INTER:                  -4.743
REMARK INTRA:                  -0.112
REMARK UNBOUND:                -0.086
REMARK SMILES OCCc1ccc(O)c(O)c1
REMARK SMILES IDX 3 1 4 2 5 3 6 4 7 5 11 6 9 7 8 8 10 10 2 12 1 13
REMARK H PARENT 8 9 10 11 1 14
REMARK Flexibility Score: inf
ROOT
ATOM      1  C   UNL     1     123.267 132.716 113.136  1.00  0.00     0.064 C 
ENDROOT
BRANCH   1   2
ATOM      2  C   UNL     1     122.149 132.295 112.218  1.00  0.00    -0.042 A 
ATOM      3  C   UNL     1     120.825 132.265 112.679  1.00  0.00     0.008 A 
ATOM      4  C   UNL     1     119.787 131.901 111.819  1.00  0.00     0.050 A 
ATOM      5  C   UNL     1     120.056 131.571 110.486  1.00  0.00     0.157 A 
ATOM      6  C   UNL     1     122.418 131.974 110.878  1.00  0.00     0.054 A 
ATOM      7  C   UNL     1     121.378 131.609 110.011  1.00  0.00     0.157 A 
BRANCH   5   8
ATOM      8  O   UNL     1     118.999 131.212 109.651  1.00  0.00    -0.504 OA
ATOM      9  H   UNL     1     118.148 130.795 110.009  1.00  0.00     0.293 HD
ENDBRANCH   5   8
BRANCH   7  10
ATOM     10  O   UNL     1     121.653 131.287 108.683  1.00  0.00    -0.504 OA
ATOM     11  H   UNL     1     121.208 131.775 107.915  1.00  0.00     0.293 HD
ENDBRANCH   7  10
ENDBRANCH   1   2
BRANCH   1  12
ATOM     12  C   UNL     1     124.368 131.652 113.196  1.00  0.00     0.161 C 
BRANCH  12  13
ATOM     13  O   UNL     1     123.909 130.492 113.836  1.00  0.00    -0.396 OA
ATOM     14  H   UNL     1     123.669 130.755 114.763  1.00  0.00     0.210 HD
ENDBRANCH  12  13
ENDBRANCH   1  12
TORSDOF 5
ENDMDL
MODEL 9
REMARK VINA RESULT:    -3.856      8.032      9.666
REMARK INTER + INTRA:          -4.731
REMARK INTER:                  -4.649
REMARK INTRA:                  -0.082
REMARK UNBOUND:                -0.086
REMARK SMILES OCCc1ccc(O)c(O)c1
REMARK SMILES IDX 3 1 4 2 5 3 6 4 7 5 11 6 9 7 8 8 10 10 2 12 1 13
REMARK H PARENT 8 9 10 11 1 14
REMARK Flexibility Score: inf
ROOT
ATOM      1  C   UNL     1     120.135 132.577 111.057  1.00  0.00     0.064 C 
ENDROOT
BRANCH   1   2
ATOM      2  C   UNL     1     121.579 132.545 111.488  1.00  0.00    -0.042 A 
ATOM      3  C   UNL     1     122.499 133.459 110.952  1.00  0.00     0.008 A 
ATOM      4  C   UNL     1     123.831 133.446 111.373  1.00  0.00     0.050 A 
ATOM      5  C   UNL     1     124.259 132.527 112.337  1.00  0.00     0.157 A 
ATOM      6  C   UNL     1     122.006 131.630 112.463  1.00  0.00     0.054 A 
ATOM      7  C   UNL     1     123.342 131.615 112.888  1.00  0.00     0.157 A 
BRANCH   5   8
ATOM      8  O   UNL     1     125.595 132.537 112.737  1.00  0.00    -0.504 OA
ATOM      9  H   UNL     1     125.892 132.964 113.606  1.00  0.00     0.293 HD
ENDBRANCH   5   8
BRANCH   7  10
ATOM     10  O   UNL     1     123.760 130.700 113.853  1.00  0.00    -0.504 OA
ATOM     11  H   UNL     1     123.961 129.736 113.618  1.00  0.00     0.293 HD
ENDBRANCH   7  10
ENDBRANCH   1   2
BRANCH   1  12
ATOM     12  C   UNL     1     119.208 132.123 112.189  1.00  0.00     0.161 C 
BRANCH  12  13
ATOM     13  O   UNL     1     118.956 133.174 113.082  1.00  0.00    -0.396 OA
ATOM     14  H   UNL     1     119.764 133.751 113.077  1.00  0.00     0.210 HD
ENDBRANCH  12  13
ENDBRANCH   1  12
TORSDOF 5
ENDMDL
