MODEL 1
REMARK VINA RESULT:    -1.464      0.000      0.000
REMARK INTER + INTRA:          -1.725
REMARK INTER:                  -1.635
REMARK INTRA:                  -0.090
REMARK UNBOUND:                -0.090
REMARK SMILES CCc1ccc(O)cc1O
REMARK SMILES IDX 3 1 9 2 8 3 6 4 5 5 4 6 2 7 1 8 10 9 7 11
REMARK H PARENT 10 10 7 12
REMARK Flexibility Score: inf
ROOT
ATOM      1  C   UNL     1      -9.176   0.924  -6.730  1.00  0.00    -0.006 A 
ATOM      2  C   UNL     1      -9.128   2.213  -6.162  1.00  0.00     0.122 A 
ATOM      3  C   UNL     1     -10.321   2.896  -5.877  1.00  0.00     0.092 A 
ATOM      4  C   UNL     1     -11.559   2.308  -6.165  1.00  0.00     0.119 A 
ATOM      5  C   UNL     1     -11.606   1.036  -6.741  1.00  0.00     0.047 A 
ATOM      6  C   UNL     1     -10.424   0.349  -7.028  1.00  0.00     0.011 A 
ENDROOT
BRANCH   1   7
ATOM      7  C   UNL     1      -7.911   0.180  -7.075  1.00  0.00     0.036 C 
ATOM      8  C   UNL     1      -7.921  -1.216  -6.463  1.00  0.00     0.009 C 
ENDBRANCH   1   7
BRANCH   2   9
ATOM      9  O   UNL     1      -7.900   2.812  -5.885  1.00  0.00    -0.508 OA
ATOM     10  H   UNL     1      -7.533   2.861  -4.942  1.00  0.00     0.293 HD
ENDBRANCH   2   9
BRANCH   4  11
ATOM     11  O   UNL     1     -12.746   2.980  -5.884  1.00  0.00    -0.508 OA
ATOM     12  H   UNL     1     -13.150   3.639  -6.540  1.00  0.00     0.293 HD
ENDBRANCH   4  11
TORSDOF 3
ENDMDL
MODEL 2
REMARK VINA RESULT:     1.355      1.581      3.521
REMARK INTER + INTRA:           1.423
REMARK INTER:                   1.521
REMARK INTRA:                  -0.098
REMARK UNBOUND:                -0.090
REMARK SMILES CCc1ccc(O)cc1O
REMARK SMILES IDX 3 1 9 2 8 3 6 4 5 5 4 6 2 7 1 8 10 9 7 11
REMARK H PARENT 10 10 7 12
REMARK Flexibility Score: inf
ROOT
ATOM      1  C   UNL     1     -10.637   0.599  -7.936  1.00  0.00    -0.006 A 
ATOM      2  C   UNL     1     -11.078   1.442  -6.895  1.00  0.00     0.122 A 
ATOM      3  C   UNL     1     -10.155   2.248  -6.211  1.00  0.00     0.092 A 
ATOM      4  C   UNL     1      -8.796   2.212  -6.549  1.00  0.00     0.119 A 
ATOM      5  C   UNL     1      -8.358   1.366  -7.572  1.00  0.00     0.047 A 
ATOM      6  C   UNL     1      -9.270   0.560  -8.258  1.00  0.00     0.011 A 
ENDROOT
BRANCH   1   7
ATOM      7  C   UNL     1     -11.602  -0.300  -8.667  1.00  0.00     0.036 C 
ATOM      8  C   UNL     1     -11.763   0.144 -10.116  1.00  0.00     0.009 C 
ENDBRANCH   1   7
BRANCH   2   9
ATOM      9  O   UNL     1     -12.426   1.474  -6.541  1.00  0.00    -0.508 OA
ATOM     10  H   UNL     1     -12.801   2.200  -5.943  1.00  0.00     0.293 HD
ENDBRANCH   2   9
BRANCH   4  11
ATOM     11  O   UNL     1      -7.875   3.010  -5.875  1.00  0.00    -0.508 OA
ATOM     12  H   UNL     1      -7.119   2.606  -5.335  1.00  0.00     0.293 HD
ENDBRANCH   4  11
TORSDOF 3
ENDMDL
