MODEL 1
REMARK VINA RESULT:    -7.839      0.000      0.000
REMARK INTER + INTRA:          -9.765
REMARK INTER:                  -9.442
REMARK INTRA:                  -0.322
REMARK UNBOUND:                -0.322
REMARK SMILES O=c1c(O)c(-c2ccc(O)c(O)c2)oc2cc(O)cc(O)c12
REMARK SMILES IDX 5 1 3 2 2 3 1 4 22 5 20 6 19 7 17 8 16 9 15 10 14 11 6 12
REMARK SMILES IDX 7 13 8 14 9 15 13 16 11 17 10 18 12 20 4 22 21 24 18 26
REMARK H PARENT 10 19 12 21 4 23 21 25 18 27
REMARK Flexibility Score: inf
ROOT
ATOM      1  C   UNL     1      40.101   5.258   0.054  1.00  0.00     0.180 A 
ATOM      2  C   UNL     1      40.480   4.384  -0.980  1.00  0.00     0.208 A 
ATOM      3  C   UNL     1      39.549   4.073  -1.984  1.00  0.00     0.238 A 
ATOM      4  O   UNL     1      39.875   3.248  -2.876  1.00  0.00    -0.285 OA
ATOM      5  C   UNL     1      38.257   4.651  -1.950  1.00  0.00     0.111 A 
ATOM      6  C   UNL     1      37.247   4.438  -2.936  1.00  0.00     0.134 A 
ATOM      7  C   UNL     1      35.963   4.957  -2.733  1.00  0.00     0.093 A 
ATOM      8  C   UNL     1      35.670   5.736  -1.611  1.00  0.00     0.123 A 
ATOM      9  C   UNL     1      36.664   6.000  -0.673  1.00  0.00     0.094 A 
ATOM     10  C   UNL     1      37.946   5.465  -0.830  1.00  0.00     0.146 A 
ATOM     11  O   UNL     1      38.862   5.732   0.094  1.00  0.00    -0.452 OA
ENDROOT
BRANCH   1  12
ATOM     12  C   UNL     1      41.035   5.653   1.134  1.00  0.00     0.025 A 
ATOM     13  C   UNL     1      41.891   6.748   0.940  1.00  0.00     0.016 A 
ATOM     14  C   UNL     1      42.795   7.125   1.936  1.00  0.00     0.051 A 
ATOM     15  C   UNL     1      42.869   6.406   3.132  1.00  0.00     0.157 A 
ATOM     16  C   UNL     1      41.125   4.918   2.330  1.00  0.00     0.062 A 
ATOM     17  C   UNL     1      42.034   5.294   3.331  1.00  0.00     0.158 A 
BRANCH  15  18
ATOM     18  O   UNL     1      43.779   6.808   4.110  1.00  0.00    -0.504 OA
ATOM     19  H   UNL     1      43.606   7.603   4.712  1.00  0.00     0.293 HD
ENDBRANCH  15  18
BRANCH  17  20
ATOM     20  O   UNL     1      42.113   4.563   4.515  1.00  0.00    -0.504 OA
ATOM     21  H   UNL     1      42.914   4.634   5.130  1.00  0.00     0.293 HD
ENDBRANCH  17  20
ENDBRANCH   1  12
BRANCH   2  22
ATOM     22  O   UNL     1      41.752   3.807  -0.982  1.00  0.00    -0.502 OA
ATOM     23  H   UNL     1      42.356   3.822  -1.795  1.00  0.00     0.293 HD
ENDBRANCH   2  22
BRANCH   6  24
ATOM     24  O   UNL     1      37.462   3.753  -4.136  1.00  0.00    -0.507 OA
ATOM     25  H   UNL     1      37.237   2.783  -4.292  1.00  0.00     0.293 HD
ENDBRANCH   6  24
BRANCH   8  26
ATOM     26  O   UNL     1      34.393   6.262  -1.425  1.00  0.00    -0.508 OA
ATOM     27  H   UNL     1      34.221   7.259  -1.457  1.00  0.00     0.293 HD
ENDBRANCH   8  26
TORSDOF 6
ENDMDL
MODEL 2
REMARK VINA RESULT:    -7.545      5.946      8.334
REMARK INTER + INTRA:          -9.412
REMARK INTER:                  -9.287
REMARK INTRA:                  -0.124
REMARK UNBOUND:                -0.322
REMARK SMILES O=c1c(O)c(-c2ccc(O)c(O)c2)oc2cc(O)cc(O)c12
REMARK SMILES IDX 5 1 3 2 2 3 1 4 22 5 20 6 19 7 17 8 16 9 15 10 14 11 6 12
REMARK SMILES IDX 7 13 8 14 9 15 13 16 11 17 10 18 12 20 4 22 21 24 18 26
REMARK H PARENT 10 19 12 21 4 23 21 25 18 27
REMARK Flexibility Score: inf
ROOT
ATOM      1  C   UNL     1      36.183   1.575  -3.742  1.00  0.00     0.180 A 
ATOM      2  C   UNL     1      35.324   0.771  -4.512  1.00  0.00     0.208 A 
ATOM      3  C   UNL     1      35.592  -0.603  -4.619  1.00  0.00     0.238 A 
ATOM      4  O   UNL     1      34.852  -1.307  -5.354  1.00  0.00    -0.285 OA
ATOM      5  C   UNL     1      36.704  -1.158  -3.943  1.00  0.00     0.111 A 
ATOM      6  C   UNL     1      37.047  -2.544  -3.949  1.00  0.00     0.134 A 
ATOM      7  C   UNL     1      38.243  -2.962  -3.352  1.00  0.00     0.093 A 
ATOM      8  C   UNL     1      39.076  -2.054  -2.693  1.00  0.00     0.123 A 
ATOM      9  C   UNL     1      38.719  -0.710  -2.630  1.00  0.00     0.094 A 
ATOM     10  C   UNL     1      37.551  -0.256  -3.248  1.00  0.00     0.146 A 
ATOM     11  O   UNL     1      37.255   1.036  -3.174  1.00  0.00    -0.452 OA
ENDROOT
BRANCH   1  12
ATOM     12  C   UNL     1      35.951   3.027  -3.561  1.00  0.00     0.025 A 
ATOM     13  C   UNL     1      35.661   3.526  -2.282  1.00  0.00     0.016 A 
ATOM     14  C   UNL     1      35.419   4.889  -2.093  1.00  0.00     0.051 A 
ATOM     15  C   UNL     1      35.447   5.769  -3.177  1.00  0.00     0.157 A 
ATOM     16  C   UNL     1      35.958   3.911  -4.655  1.00  0.00     0.062 A 
ATOM     17  C   UNL     1      35.714   5.280  -4.467  1.00  0.00     0.158 A 
BRANCH  15  18
ATOM     18  O   UNL     1      35.204   7.125  -2.957  1.00  0.00    -0.504 OA
ATOM     19  H   UNL     1      35.073   7.504  -2.027  1.00  0.00     0.293 HD
ENDBRANCH  15  18
BRANCH  17  20
ATOM     20  O   UNL     1      35.728   6.150  -5.556  1.00  0.00    -0.504 OA
ATOM     21  H   UNL     1      35.831   7.151  -5.435  1.00  0.00     0.293 HD
ENDBRANCH  17  20
ENDBRANCH   1  12
BRANCH   2  22
ATOM     22  O   UNL     1      34.245   1.344  -5.190  1.00  0.00    -0.502 OA
ATOM     23  H   UNL     1      33.320   1.410  -4.783  1.00  0.00     0.293 HD
ENDBRANCH   2  22
BRANCH   6  24
ATOM     24  O   UNL     1      36.240  -3.545  -4.498  1.00  0.00    -0.507 OA
ATOM     25  H   UNL     1      36.056  -4.436  -4.065  1.00  0.00     0.293 HD
ENDBRANCH   6  24
BRANCH   8  26
ATOM     26  O   UNL     1      40.256  -2.481  -2.088  1.00  0.00    -0.508 OA
ATOM     27  H   UNL     1      40.438  -2.315  -1.106  1.00  0.00     0.293 HD
ENDBRANCH   8  26
TORSDOF 6
ENDMDL
MODEL 3
REMARK VINA RESULT:    -7.434      3.502      8.675
REMARK INTER + INTRA:          -9.278
REMARK INTER:                  -8.951
REMARK INTRA:                  -0.326
REMARK UNBOUND:                -0.322
REMARK SMILES O=c1c(O)c(-c2ccc(O)c(O)c2)oc2cc(O)cc(O)c12
REMARK SMILES IDX 5 1 3 2 2 3 1 4 22 5 20 6 19 7 17 8 16 9 15 10 14 11 6 12
REMARK SMILES IDX 7 13 8 14 9 15 13 16 11 17 10 18 12 20 4 22 21 24 18 26
REMARK H PARENT 10 19 12 21 4 23 21 25 18 27
REMARK Flexibility Score: inf
ROOT
ATOM      1  C   UNL     1      36.002   2.615  -3.142  1.00  0.00     0.180 A 
ATOM      2  C   UNL     1      35.416   3.816  -2.704  1.00  0.00     0.208 A 
ATOM      3  C   UNL     1      36.229   4.791  -2.104  1.00  0.00     0.238 A 
ATOM      4  O   UNL     1      35.690   5.840  -1.665  1.00  0.00    -0.285 OA
ATOM      5  C   UNL     1      37.618   4.560  -1.964  1.00  0.00     0.111 A 
ATOM      6  C   UNL     1      38.543   5.496  -1.408  1.00  0.00     0.134 A 
ATOM      7  C   UNL     1      39.873   5.111  -1.199  1.00  0.00     0.093 A 
ATOM      8  C   UNL     1      40.327   3.847  -1.586  1.00  0.00     0.123 A 
ATOM      9  C   UNL     1      39.446   2.950  -2.184  1.00  0.00     0.094 A 
ATOM     10  C   UNL     1      38.105   3.292  -2.373  1.00  0.00     0.146 A 
ATOM     11  O   UNL     1      37.296   2.402  -2.936  1.00  0.00    -0.452 OA
ENDROOT
BRANCH   1  12
ATOM     12  C   UNL     1      35.215   1.550  -3.806  1.00  0.00     0.025 A 
ATOM     13  C   UNL     1      34.615   0.548  -3.028  1.00  0.00     0.016 A 
ATOM     14  C   UNL     1      33.886  -0.477  -3.635  1.00  0.00     0.051 A 
ATOM     15  C   UNL     1      33.757  -0.526  -5.025  1.00  0.00     0.157 A 
ATOM     16  C   UNL     1      35.103   1.488  -5.207  1.00  0.00     0.062 A 
ATOM     17  C   UNL     1      34.372   0.458  -5.817  1.00  0.00     0.158 A 
BRANCH  15  18
ATOM     18  O   UNL     1      33.021  -1.560  -5.603  1.00  0.00    -0.504 OA
ATOM     19  H   UNL     1      32.128  -1.399  -6.054  1.00  0.00     0.293 HD
ENDBRANCH  15  18
BRANCH  17  20
ATOM     20  O   UNL     1      34.262   0.407  -7.206  1.00  0.00    -0.504 OA
ATOM     21  H   UNL     1      33.407   0.672  -7.681  1.00  0.00     0.293 HD
ENDBRANCH  17  20
ENDBRANCH   1  12
BRANCH   2  22
ATOM     22  O   UNL     1      34.039   4.013  -2.832  1.00  0.00    -0.502 OA
ATOM     23  H   UNL     1      33.631   4.929  -2.972  1.00  0.00     0.293 HD
ENDBRANCH   2  22
BRANCH   6  24
ATOM     24  O   UNL     1      38.214   6.813  -1.073  1.00  0.00    -0.507 OA
ATOM     25  H   UNL     1      37.687   7.084  -0.258  1.00  0.00     0.293 HD
ENDBRANCH   6  24
BRANCH   8  26
ATOM     26  O   UNL     1      41.656   3.478  -1.389  1.00  0.00    -0.508 OA
ATOM     27  H   UNL     1      41.943   2.507  -1.396  1.00  0.00     0.293 HD
ENDBRANCH   8  26
TORSDOF 6
ENDMDL
MODEL 4
REMARK VINA RESULT:    -7.404      5.389      7.884
REMARK INTER + INTRA:          -9.242
REMARK INTER:                  -8.981
REMARK INTRA:                  -0.261
REMARK UNBOUND:                -0.322
REMARK SMILES O=c1c(O)c(-c2ccc(O)c(O)c2)oc2cc(O)cc(O)c12
REMARK SMILES IDX 5 1 3 2 2 3 1 4 22 5 20 6 19 7 17 8 16 9 15 10 14 11 6 12
REMARK SMILES IDX 7 13 8 14 9 15 13 16 11 17 10 18 12 20 4 22 21 24 18 26
REMARK H PARENT 10 19 12 21 4 23 21 25 18 27
REMARK Flexibility Score: inf
ROOT
ATOM      1  C   UNL     1      36.646   1.665  -3.304  1.00  0.00     0.180 A 
ATOM      2  C   UNL     1      37.912   1.213  -2.892  1.00  0.00     0.208 A 
ATOM      3  C   UNL     1      38.217  -0.153  -3.003  1.00  0.00     0.238 A 
ATOM      4  O   UNL     1      39.331  -0.560  -2.583  1.00  0.00    -0.285 OA
ATOM      5  C   UNL     1      37.258  -1.046  -3.539  1.00  0.00     0.111 A 
ATOM      6  C   UNL     1      37.474  -2.444  -3.735  1.00  0.00     0.134 A 
ATOM      7  C   UNL     1      36.411  -3.256  -4.151  1.00  0.00     0.093 A 
ATOM      8  C   UNL     1      35.158  -2.709  -4.440  1.00  0.00     0.123 A 
ATOM      9  C   UNL     1      34.955  -1.338  -4.310  1.00  0.00     0.094 A 
ATOM     10  C   UNL     1      35.986  -0.508  -3.862  1.00  0.00     0.146 A 
ATOM     11  O   UNL     1      35.746   0.792  -3.740  1.00  0.00    -0.452 OA
ENDROOT
BRANCH   1  12
ATOM     12  C   UNL     1      36.261   3.094  -3.240  1.00  0.00     0.025 A 
ATOM     13  C   UNL     1      35.907   3.660  -2.005  1.00  0.00     0.016 A 
ATOM     14  C   UNL     1      35.521   5.000  -1.926  1.00  0.00     0.051 A 
ATOM     15  C   UNL     1      35.466   5.789  -3.077  1.00  0.00     0.157 A 
ATOM     16  C   UNL     1      36.185   3.884  -4.401  1.00  0.00     0.062 A 
ATOM     17  C   UNL     1      35.795   5.230  -4.323  1.00  0.00     0.158 A 
BRANCH  15  18
ATOM     18  O   UNL     1      35.079   7.125  -2.967  1.00  0.00    -0.504 OA
ATOM     19  H   UNL     1      34.584   7.605  -3.708  1.00  0.00     0.293 HD
ENDBRANCH  15  18
BRANCH  17  20
ATOM     20  O   UNL     1      35.728   6.007  -5.478  1.00  0.00    -0.504 OA
ATOM     21  H   UNL     1      35.190   6.866  -5.510  1.00  0.00     0.293 HD
ENDBRANCH  17  20
ENDBRANCH   1  12
BRANCH   2  22
ATOM     22  O   UNL     1      38.834   2.109  -2.345  1.00  0.00    -0.502 OA
ATOM     23  H   UNL     1      38.614   3.084  -2.179  1.00  0.00     0.293 HD
ENDBRANCH   2  22
BRANCH   6  24
ATOM     24  O   UNL     1      38.711  -3.074  -3.564  1.00  0.00    -0.507 OA
ATOM     25  H   UNL     1      39.018  -3.885  -4.078  1.00  0.00     0.293 HD
ENDBRANCH   6  24
BRANCH   8  26
ATOM     26  O   UNL     1      34.111  -3.521  -4.869  1.00  0.00    -0.508 OA
ATOM     27  H   UNL     1      33.974  -4.452  -4.494  1.00  0.00     0.293 HD
ENDBRANCH   8  26
TORSDOF 6
ENDMDL
MODEL 5
REMARK VINA RESULT:    -7.384      1.786      2.740
REMARK INTER + INTRA:          -9.217
REMARK INTER:                  -8.920
REMARK INTRA:                  -0.297
REMARK UNBOUND:                -0.322
REMARK SMILES O=c1c(O)c(-c2ccc(O)c(O)c2)oc2cc(O)cc(O)c12
REMARK SMILES IDX 5 1 3 2 2 3 1 4 22 5 20 6 19 7 17 8 16 9 15 10 14 11 6 12
REMARK SMILES IDX 7 13 8 14 9 15 13 16 11 17 10 18 12 20 4 22 21 24 18 26
REMARK H PARENT 10 19 12 21 4 23 21 25 18 27
REMARK Flexibility Score: inf
ROOT
ATOM      1  C   UNL     1      38.894   4.873  -1.290  1.00  0.00     0.180 A 
ATOM      2  C   UNL     1      38.877   3.608  -1.903  1.00  0.00     0.208 A 
ATOM      3  C   UNL     1      37.680   3.142  -2.470  1.00  0.00     0.238 A 
ATOM      4  O   UNL     1      37.657   1.987  -2.969  1.00  0.00    -0.285 OA
ATOM      5  C   UNL     1      36.521   3.953  -2.432  1.00  0.00     0.111 A 
ATOM      6  C   UNL     1      35.264   3.598  -3.010  1.00  0.00     0.134 A 
ATOM      7  C   UNL     1      34.150   4.420  -2.798  1.00  0.00     0.093 A 
ATOM      8  C   UNL     1      34.262   5.616  -2.084  1.00  0.00     0.123 A 
ATOM      9  C   UNL     1      35.497   6.000  -1.568  1.00  0.00     0.094 A 
ATOM     10  C   UNL     1      36.619   5.183  -1.731  1.00  0.00     0.146 A 
ATOM     11  O   UNL     1      37.774   5.581  -1.212  1.00  0.00    -0.452 OA
ENDROOT
BRANCH   1  12
ATOM     12  C   UNL     1      40.124   5.442  -0.693  1.00  0.00     0.025 A 
ATOM     13  C   UNL     1      40.266   5.468   0.703  1.00  0.00     0.016 A 
ATOM     14  C   UNL     1      41.408   6.019   1.289  1.00  0.00     0.051 A 
ATOM     15  C   UNL     1      42.418   6.565   0.491  1.00  0.00     0.157 A 
ATOM     16  C   UNL     1      41.131   6.012  -1.493  1.00  0.00     0.062 A 
ATOM     17  C   UNL     1      42.278   6.567  -0.906  1.00  0.00     0.158 A 
BRANCH  15  18
ATOM     18  O   UNL     1      43.548   7.106   1.104  1.00  0.00    -0.504 OA
ATOM     19  H   UNL     1      43.677   8.105   1.209  1.00  0.00     0.293 HD
ENDBRANCH  15  18
BRANCH  17  20
ATOM     20  O   UNL     1      43.274   7.125  -1.707  1.00  0.00    -0.504 OA
ATOM     21  H   UNL     1      43.489   8.115  -1.675  1.00  0.00     0.293 HD
ENDBRANCH  17  20
ENDBRANCH   1  12
BRANCH   2  22
ATOM     22  O   UNL     1      40.027   2.814  -1.910  1.00  0.00    -0.502 OA
ATOM     23  H   UNL     1      40.708   2.848  -2.660  1.00  0.00     0.293 HD
ENDBRANCH   2  22
BRANCH   6  24
ATOM     24  O   UNL     1      35.066   2.474  -3.817  1.00  0.00    -0.507 OA
ATOM     25  H   UNL     1      34.610   2.486  -4.716  1.00  0.00     0.293 HD
ENDBRANCH   6  24
BRANCH   8  26
ATOM     26  O   UNL     1      33.152   6.436  -1.892  1.00  0.00    -0.508 OA
ATOM     27  H   UNL     1      33.144   7.399  -2.205  1.00  0.00     0.293 HD
ENDBRANCH   8  26
TORSDOF 6
ENDMDL
MODEL 6
REMARK VINA RESULT:    -7.377      4.385      7.132
REMARK INTER + INTRA:          -9.209
REMARK INTER:                  -9.047
REMARK INTRA:                  -0.163
REMARK UNBOUND:                -0.322
REMARK SMILES O=c1c(O)c(-c2ccc(O)c(O)c2)oc2cc(O)cc(O)c12
REMARK SMILES IDX 5 1 3 2 2 3 1 4 22 5 20 6 19 7 17 8 16 9 15 10 14 11 6 12
REMARK SMILES IDX 7 13 8 14 9 15 13 16 11 17 10 18 12 20 4 22 21 24 18 26
REMARK H PARENT 10 19 12 21 4 23 21 25 18 27
REMARK Flexibility Score: inf
ROOT
ATOM      1  C   UNL     1      36.505   2.028  -3.296  1.00  0.00     0.180 A 
ATOM      2  C   UNL     1      35.387   2.000  -4.149  1.00  0.00     0.208 A 
ATOM      3  C   UNL     1      35.012   0.784  -4.741  1.00  0.00     0.238 A 
ATOM      4  O   UNL     1      34.045   0.776  -5.546  1.00  0.00    -0.285 OA
ATOM      5  C   UNL     1      35.748  -0.392  -4.460  1.00  0.00     0.111 A 
ATOM      6  C   UNL     1      35.433  -1.687  -4.973  1.00  0.00     0.134 A 
ATOM      7  C   UNL     1      36.307  -2.755  -4.734  1.00  0.00     0.093 A 
ATOM      8  C   UNL     1      37.449  -2.590  -3.947  1.00  0.00     0.123 A 
ATOM      9  C   UNL     1      37.732  -1.345  -3.392  1.00  0.00     0.094 A 
ATOM     10  C   UNL     1      36.900  -0.251  -3.643  1.00  0.00     0.146 A 
ATOM     11  O   UNL     1      37.213   0.922  -3.105  1.00  0.00    -0.452 OA
ENDROOT
BRANCH   1  12
ATOM     12  C   UNL     1      36.946   3.267  -2.615  1.00  0.00     0.025 A 
ATOM     13  C   UNL     1      38.240   3.759  -2.848  1.00  0.00     0.016 A 
ATOM     14  C   UNL     1      38.685   4.915  -2.201  1.00  0.00     0.051 A 
ATOM     15  C   UNL     1      37.852   5.586  -1.302  1.00  0.00     0.157 A 
ATOM     16  C   UNL     1      36.117   3.932  -1.694  1.00  0.00     0.062 A 
ATOM     17  C   UNL     1      36.563   5.092  -1.043  1.00  0.00     0.158 A 
BRANCH  15  18
ATOM     18  O   UNL     1      38.322   6.739  -0.673  1.00  0.00    -0.504 OA
ATOM     19  H   UNL     1      38.165   7.663  -1.056  1.00  0.00     0.293 HD
ENDBRANCH  15  18
BRANCH  17  20
ATOM     20  O   UNL     1      35.732   5.748  -0.135  1.00  0.00    -0.504 OA
ATOM     21  H   UNL     1      35.918   5.735   0.861  1.00  0.00     0.293 HD
ENDBRANCH  17  20
ENDBRANCH   1  12
BRANCH   2  22
ATOM     22  O   UNL     1      34.689   3.178  -4.430  1.00  0.00    -0.502 OA
ATOM     23  H   UNL     1      34.051   3.603  -3.768  1.00  0.00     0.293 HD
ENDBRANCH   2  22
BRANCH   6  24
ATOM     24  O   UNL     1      34.271  -1.980  -5.693  1.00  0.00    -0.507 OA
ATOM     25  H   UNL     1      33.335  -1.770  -5.382  1.00  0.00     0.293 HD
ENDBRANCH   6  24
BRANCH   8  26
ATOM     26  O   UNL     1      38.304  -3.662  -3.701  1.00  0.00    -0.508 OA
ATOM     27  H   UNL     1      39.180  -3.540  -3.208  1.00  0.00     0.293 HD
ENDBRANCH   8  26
TORSDOF 6
ENDMDL
MODEL 7
REMARK VINA RESULT:    -7.364      4.647      8.967
REMARK INTER + INTRA:          -9.193
REMARK INTER:                  -8.859
REMARK INTRA:                  -0.334
REMARK UNBOUND:                -0.322
REMARK SMILES O=c1c(O)c(-c2ccc(O)c(O)c2)oc2cc(O)cc(O)c12
REMARK SMILES IDX 5 1 3 2 2 3 1 4 22 5 20 6 19 7 17 8 16 9 15 10 14 11 6 12
REMARK SMILES IDX 7 13 8 14 9 15 13 16 11 17 10 18 12 20 4 22 21 24 18 26
REMARK H PARENT 10 19 12 21 4 23 21 25 18 27
REMARK Flexibility Score: inf
ROOT
ATOM      1  C   UNL     1      35.927   0.953  -3.627  1.00  0.00     0.180 A 
ATOM      2  C   UNL     1      34.755   1.705  -3.427  1.00  0.00     0.208 A 
ATOM      3  C   UNL     1      34.864   3.030  -2.977  1.00  0.00     0.238 A 
ATOM      4  O   UNL     1      33.811   3.679  -2.747  1.00  0.00    -0.285 OA
ATOM      5  C   UNL     1      36.143   3.593  -2.748  1.00  0.00     0.111 A 
ATOM      6  C   UNL     1      36.373   4.939  -2.330  1.00  0.00     0.134 A 
ATOM      7  C   UNL     1      37.673   5.349  -2.009  1.00  0.00     0.093 A 
ATOM      8  C   UNL     1      38.759   4.482  -2.154  1.00  0.00     0.123 A 
ATOM      9  C   UNL     1      38.552   3.186  -2.618  1.00  0.00     0.094 A 
ATOM     10  C   UNL     1      37.262   2.736  -2.912  1.00  0.00     0.146 A 
ATOM     11  O   UNL     1      37.108   1.488  -3.341  1.00  0.00    -0.452 OA
ENDROOT
BRANCH   1  12
ATOM     12  C   UNL     1      35.893  -0.442  -4.123  1.00  0.00     0.025 A 
ATOM     13  C   UNL     1      35.915  -1.502  -3.204  1.00  0.00     0.016 A 
ATOM     14  C   UNL     1      35.905  -2.826  -3.651  1.00  0.00     0.051 A 
ATOM     15  C   UNL     1      35.888  -3.110  -5.019  1.00  0.00     0.157 A 
ATOM     16  C   UNL     1      35.898  -0.729  -5.500  1.00  0.00     0.062 A 
ATOM     17  C   UNL     1      35.890  -2.058  -5.950  1.00  0.00     0.158 A 
BRANCH  15  18
ATOM     18  O   UNL     1      35.876  -4.441  -5.435  1.00  0.00    -0.504 OA
ATOM     19  H   UNL     1      35.149  -4.810  -6.037  1.00  0.00     0.293 HD
ENDBRANCH  15  18
BRANCH  17  20
ATOM     20  O   UNL     1      35.889  -2.334  -7.316  1.00  0.00    -0.504 OA
ATOM     21  H   UNL     1      36.704  -2.720  -7.781  1.00  0.00     0.293 HD
ENDBRANCH  17  20
ENDBRANCH   1  12
BRANCH   2  22
ATOM     22  O   UNL     1      33.502   1.122  -3.636  1.00  0.00    -0.502 OA
ATOM     23  H   UNL     1      33.206   0.282  -3.154  1.00  0.00     0.293 HD
ENDBRANCH   2  22
BRANCH   6  24
ATOM     24  O   UNL     1      35.372   5.910  -2.243  1.00  0.00    -0.507 OA
ATOM     25  H   UNL     1      35.423   6.737  -1.668  1.00  0.00     0.293 HD
ENDBRANCH   6  24
BRANCH   8  26
ATOM     26  O   UNL     1      40.051   4.904  -1.848  1.00  0.00    -0.508 OA
ATOM     27  H   UNL     1      40.434   4.805  -0.915  1.00  0.00     0.293 HD
ENDBRANCH   8  26
TORSDOF 6
ENDMDL
MODEL 8
REMARK VINA RESULT:    -7.352      2.018      7.070
REMARK INTER + INTRA:          -9.178
REMARK INTER:                  -8.847
REMARK INTRA:                  -0.331
REMARK UNBOUND:                -0.322
REMARK SMILES O=c1c(O)c(-c2ccc(O)c(O)c2)oc2cc(O)cc(O)c12
REMARK SMILES IDX 5 1 3 2 2 3 1 4 22 5 20 6 19 7 17 8 16 9 15 10 14 11 6 12
REMARK SMILES IDX 7 13 8 14 9 15 13 16 11 17 10 18 12 20 4 22 21 24 18 26
REMARK H PARENT 10 19 12 21 4 23 21 25 18 27
REMARK Flexibility Score: inf
ROOT
ATOM      1  C   UNL     1      38.886   4.837  -1.237  1.00  0.00     0.180 A 
ATOM      2  C   UNL     1      38.972   4.049  -0.076  1.00  0.00     0.208 A 
ATOM      3  C   UNL     1      40.162   4.059   0.668  1.00  0.00     0.238 A 
ATOM      4  O   UNL     1      40.253   3.310   1.675  1.00  0.00    -0.285 OA
ATOM      5  C   UNL     1      41.246   4.870   0.251  1.00  0.00     0.111 A 
ATOM      6  C   UNL     1      42.485   4.989   0.951  1.00  0.00     0.134 A 
ATOM      7  C   UNL     1      43.534   5.719   0.378  1.00  0.00     0.093 A 
ATOM      8  C   UNL     1      43.367   6.388  -0.838  1.00  0.00     0.123 A 
ATOM      9  C   UNL     1      42.142   6.326  -1.498  1.00  0.00     0.094 A 
ATOM     10  C   UNL     1      41.089   5.576  -0.969  1.00  0.00     0.146 A 
ATOM     11  O   UNL     1      39.942   5.535  -1.638  1.00  0.00    -0.452 OA
ENDROOT
BRANCH   1  12
ATOM     12  C   UNL     1      37.656   4.897  -2.060  1.00  0.00     0.025 A 
ATOM     13  C   UNL     1      37.546   4.083  -3.198  1.00  0.00     0.016 A 
ATOM     14  C   UNL     1      36.403   4.139  -4.000  1.00  0.00     0.051 A 
ATOM     15  C   UNL     1      35.362   5.016  -3.687  1.00  0.00     0.157 A 
ATOM     16  C   UNL     1      36.616   5.795  -1.758  1.00  0.00     0.062 A 
ATOM     17  C   UNL     1      35.468   5.853  -2.563  1.00  0.00     0.158 A 
BRANCH  15  18
ATOM     18  O   UNL     1      34.232   5.048  -4.504  1.00  0.00    -0.504 OA
ATOM     19  H   UNL     1      34.270   4.796  -5.484  1.00  0.00     0.293 HD
ENDBRANCH  15  18
BRANCH  17  20
ATOM     20  O   UNL     1      34.441   6.742  -2.254  1.00  0.00    -0.504 OA
ATOM     21  H   UNL     1      33.508   6.418  -2.027  1.00  0.00     0.293 HD
ENDBRANCH  17  20
ENDBRANCH   1  12
BRANCH   2  22
ATOM     22  O   UNL     1      37.899   3.238   0.304  1.00  0.00    -0.502 OA
ATOM     23  H   UNL     1      38.017   2.267   0.566  1.00  0.00     0.293 HD
ENDBRANCH   2  22
BRANCH   6  24
ATOM     24  O   UNL     1      42.724   4.439   2.214  1.00  0.00    -0.507 OA
ATOM     25  H   UNL     1      42.034   3.961   2.772  1.00  0.00     0.293 HD
ENDBRANCH   6  24
BRANCH   8  26
ATOM     26  O   UNL     1      44.411   7.125  -1.392  1.00  0.00    -0.508 OA
ATOM     27  H   UNL     1      45.188   7.449  -0.829  1.00  0.00     0.293 HD
ENDBRANCH   8  26
TORSDOF 6
ENDMDL
MODEL 9
REMARK VINA RESULT:    -7.311      2.088      4.001
REMARK INTER + INTRA:          -9.129
REMARK INTER:                  -8.833
REMARK INTRA:                  -0.296
REMARK UNBOUND:                -0.322
REMARK SMILES O=c1c(O)c(-c2ccc(O)c(O)c2)oc2cc(O)cc(O)c12
REMARK SMILES IDX 5 1 3 2 2 3 1 4 22 5 20 6 19 7 17 8 16 9 15 10 14 11 6 12
REMARK SMILES IDX 7 13 8 14 9 15 13 16 11 17 10 18 12 20 4 22 21 24 18 26
REMARK H PARENT 10 19 12 21 4 23 21 25 18 27
REMARK Flexibility Score: inf
ROOT
ATOM      1  C   UNL     1      38.380   4.402  -1.507  1.00  0.00     0.180 A 
ATOM      2  C   UNL     1      37.531   5.515  -1.645  1.00  0.00     0.208 A 
ATOM      3  C   UNL     1      36.330   5.369  -2.356  1.00  0.00     0.238 A 
ATOM      4  O   UNL     1      35.600   6.381  -2.524  1.00  0.00    -0.285 OA
ATOM      5  C   UNL     1      35.984   4.111  -2.905  1.00  0.00     0.111 A 
ATOM      6  C   UNL     1      34.772   3.840  -3.610  1.00  0.00     0.134 A 
ATOM      7  C   UNL     1      34.594   2.593  -4.222  1.00  0.00     0.093 A 
ATOM      8  C   UNL     1      35.555   1.586  -4.099  1.00  0.00     0.123 A 
ATOM      9  C   UNL     1      36.713   1.822  -3.364  1.00  0.00     0.094 A 
ATOM     10  C   UNL     1      36.936   3.067  -2.772  1.00  0.00     0.146 A 
ATOM     11  O   UNL     1      38.059   3.253  -2.089  1.00  0.00    -0.452 OA
ENDROOT
BRANCH   1  12
ATOM     12  C   UNL     1      39.652   4.472  -0.750  1.00  0.00     0.025 A 
ATOM     13  C   UNL     1      39.682   4.056   0.590  1.00  0.00     0.016 A 
ATOM     14  C   UNL     1      40.865   4.132   1.328  1.00  0.00     0.051 A 
ATOM     15  C   UNL     1      42.030   4.638   0.746  1.00  0.00     0.157 A 
ATOM     16  C   UNL     1      40.820   5.001  -1.328  1.00  0.00     0.062 A 
ATOM     17  C   UNL     1      42.009   5.079  -0.587  1.00  0.00     0.158 A 
BRANCH  15  18
ATOM     18  O   UNL     1      43.198   4.699   1.507  1.00  0.00    -0.504 OA
ATOM     19  H   UNL     1      43.182   4.670   2.519  1.00  0.00     0.293 HD
ENDBRANCH  15  18
BRANCH  17  20
ATOM     20  O   UNL     1      43.163   5.600  -1.170  1.00  0.00    -0.504 OA
ATOM     21  H   UNL     1      43.380   5.447  -2.148  1.00  0.00     0.293 HD
ENDBRANCH  17  20
ENDBRANCH   1  12
BRANCH   2  22
ATOM     22  O   UNL     1      37.903   6.753  -1.115  1.00  0.00    -0.502 OA
ATOM     23  H   UNL     1      38.307   6.850  -0.191  1.00  0.00     0.293 HD
ENDBRANCH   2  22
BRANCH   6  24
ATOM     24  O   UNL     1      33.710   4.743  -3.712  1.00  0.00    -0.507 OA
ATOM     25  H   UNL     1      33.098   4.999  -2.953  1.00  0.00     0.293 HD
ENDBRANCH   6  24
BRANCH   8  26
ATOM     26  O   UNL     1      35.362   0.343  -4.698  1.00  0.00    -0.508 OA
ATOM     27  H   UNL     1      36.033  -0.040  -5.353  1.00  0.00     0.293 HD
ENDBRANCH   8  26
TORSDOF 6
ENDMDL
