MODEL 1
REMARK VINA RESULT:    -5.291      0.000      0.000
REMARK INTER + INTRA:         -11.216
REMARK INTER:                  -9.930
REMARK INTRA:                  -1.285
REMARK UNBOUND:                -1.285
REMARK SMILES O=C([O-])CCCCCCCCCCCCCCC(=O)[O-]
REMARK SMILES IDX 10 1 9 2 8 3 7 4 6 5 5 6 4 7 2 8 1 9 3 10 11 11 12 12 13 13
REMARK SMILES IDX 14 14 15 15 16 16 17 17 18 18 19 19 20 20
REMARK H PARENT
REMARK Flexibility Score: inf
ROOT
ATOM      1  C   UNL     1      48.679  34.472  13.665  1.00  0.00     0.000 C 
ENDROOT
BRANCH   1   2
ATOM      2  C   UNL     1      48.257  34.186  12.213  1.00  0.00     0.000 C 
BRANCH   2   3
ATOM      3  C   UNL     1      46.749  34.384  11.988  1.00  0.00     0.000 C 
BRANCH   3   4
ATOM      4  C   UNL     1      46.251  35.746  12.500  1.00  0.00     0.000 C 
BRANCH   4   5
ATOM      5  C   UNL     1      44.808  35.694  13.036  1.00  0.00     0.000 C 
BRANCH   5   6
ATOM      6  C   UNL     1      43.870  36.788  12.493  1.00  0.00     0.006 C 
BRANCH   6   7
ATOM      7  C   UNL     1      42.499  36.245  12.072  1.00  0.00     0.053 C 
BRANCH   7   8
ATOM      8  C   UNL     1      41.418  37.209  12.448  1.00  0.00     0.041 C 
ATOM      9  O   UNL     1      41.287  37.579  13.644  1.00  0.00    -0.550 OA
ATOM     10  O   UNL     1      40.587  37.736  11.468  1.00  0.00    -0.550 OA
ENDBRANCH   7   8
ENDBRANCH   6   7
ENDBRANCH   5   6
ENDBRANCH   4   5
ENDBRANCH   3   4
ENDBRANCH   2   3
ENDBRANCH   1   2
BRANCH   1  11
ATOM     11  C   UNL     1      48.100  33.452  14.659  1.00  0.00     0.000 C 
BRANCH  11  12
ATOM     12  C   UNL     1      47.131  34.089  15.668  1.00  0.00     0.000 C 
BRANCH  12  13
ATOM     13  C   UNL     1      47.496  33.692  17.104  1.00  0.00     0.000 C 
BRANCH  13  14
ATOM     14  C   UNL     1      49.012  33.775  17.331  1.00  0.00     0.000 C 
BRANCH  14  15
ATOM     15  C   UNL     1      49.626  32.439  17.787  1.00  0.00     0.000 C 
BRANCH  15  16
ATOM     16  C   UNL     1      48.723  31.204  17.589  1.00  0.00     0.006 C 
BRANCH  16  17
ATOM     17  C   UNL     1      49.160  30.270  16.450  1.00  0.00     0.053 C 
BRANCH  17  18
ATOM     18  C   UNL     1      48.014  29.474  15.906  1.00  0.00     0.041 C 
ATOM     19  O   UNL     1      46.989  30.059  15.464  1.00  0.00    -0.550 OA
ATOM     20  O   UNL     1      48.089  28.089  15.856  1.00  0.00    -0.550 OA
ENDBRANCH  17  18
ENDBRANCH  16  17
ENDBRANCH  15  16
ENDBRANCH  14  15
ENDBRANCH  13  14
ENDBRANCH  12  13
ENDBRANCH  11  12
ENDBRANCH   1  11
TORSDOF 15
ENDMDL
MODEL 2
REMARK VINA RESULT:    -5.131      4.290      9.465
REMARK INTER + INTRA:         -10.915
REMARK INTER:                  -9.943
REMARK INTRA:                  -0.973
REMARK UNBOUND:                -1.285
REMARK SMILES O=C([O-])CCCCCCCCCCCCCCC(=O)[O-]
REMARK SMILES IDX 10 1 9 2 8 3 7 4 6 5 5 6 4 7 2 8 1 9 3 10 11 11 12 12 13 13
REMARK SMILES IDX 14 14 15 15 16 16 17 17 18 18 19 19 20 20
REMARK H PARENT
REMARK Flexibility Score: inf
ROOT
ATOM      1  C   UNL     1      48.865  30.376  15.902  1.00  0.00     0.000 C 
ENDROOT
BRANCH   1   2
ATOM      2  C   UNL     1      48.113  29.034  15.838  1.00  0.00     0.000 C 
BRANCH   2   3
ATOM      3  C   UNL     1      48.543  28.065  16.952  1.00  0.00     0.000 C 
BRANCH   3   4
ATOM      4  C   UNL     1      48.161  26.607  16.643  1.00  0.00     0.000 C 
BRANCH   4   5
ATOM      5  C   UNL     1      49.328  25.625  16.851  1.00  0.00     0.000 C 
BRANCH   5   6
ATOM      6  C   UNL     1      49.738  25.398  18.318  1.00  0.00     0.006 C 
BRANCH   6   7
ATOM      7  C   UNL     1      48.546  25.427  19.283  1.00  0.00     0.053 C 
BRANCH   7   8
ATOM      8  C   UNL     1      48.975  25.926  20.627  1.00  0.00     0.041 C 
ATOM      9  O   UNL     1      50.194  26.130  20.868  1.00  0.00    -0.550 OA
ATOM     10  O   UNL     1      48.023  26.212  21.597  1.00  0.00    -0.550 OA
ENDBRANCH   7   8
ENDBRANCH   6   7
ENDBRANCH   5   6
ENDBRANCH   4   5
ENDBRANCH   3   4
ENDBRANCH   2   3
ENDBRANCH   1   2
BRANCH   1  11
ATOM     11  C   UNL     1      49.655  30.547  17.210  1.00  0.00     0.000 C 
BRANCH  11  12
ATOM     12  C   UNL     1      49.653  31.997  17.719  1.00  0.00     0.000 C 
BRANCH  12  13
ATOM     13  C   UNL     1      48.273  32.642  17.535  1.00  0.00     0.000 C 
BRANCH  13  14
ATOM     14  C   UNL     1      48.387  33.991  16.812  1.00  0.00     0.000 C 
BRANCH  14  15
ATOM     15  C   UNL     1      47.512  34.072  15.549  1.00  0.00     0.000 C 
BRANCH  15  16
ATOM     16  C   UNL     1      48.133  33.447  14.282  1.00  0.00     0.006 C 
BRANCH  16  17
ATOM     17  C   UNL     1      48.460  34.455  13.169  1.00  0.00     0.053 C 
BRANCH  17  18
ATOM     18  C   UNL     1      48.940  33.777  11.922  1.00  0.00     0.041 C 
ATOM     19  O   UNL     1      48.132  33.135  11.199  1.00  0.00    -0.550 OA
ATOM     20  O   UNL     1      50.270  33.882  11.540  1.00  0.00    -0.550 OA
ENDBRANCH  17  18
ENDBRANCH  16  17
ENDBRANCH  15  16
ENDBRANCH  14  15
ENDBRANCH  13  14
ENDBRANCH  12  13
ENDBRANCH  11  12
ENDBRANCH   1  11
TORSDOF 15
ENDMDL
MODEL 3
REMARK VINA RESULT:    -5.091      4.263      6.669
REMARK INTER + INTRA:         -10.841
REMARK INTER:                  -9.886
REMARK INTRA:                  -0.956
REMARK UNBOUND:                -1.285
REMARK SMILES O=C([O-])CCCCCCCCCCCCCCC(=O)[O-]
REMARK SMILES IDX 10 1 9 2 8 3 7 4 6 5 5 6 4 7 2 8 1 9 3 10 11 11 12 12 13 13
REMARK SMILES IDX 14 14 15 15 16 16 17 17 18 18 19 19 20 20
REMARK H PARENT
REMARK Flexibility Score: inf
ROOT
ATOM      1  C   UNL     1      48.664  30.462  17.395  1.00  0.00     0.000 C 
ENDROOT
BRANCH   1   2
ATOM      2  C   UNL     1      48.291  31.815  18.028  1.00  0.00     0.000 C 
BRANCH   2   3
ATOM      3  C   UNL     1      49.253  32.942  17.614  1.00  0.00     0.000 C 
BRANCH   3   4
ATOM      4  C   UNL     1      48.514  34.180  17.078  1.00  0.00     0.000 C 
BRANCH   4   5
ATOM      5  C   UNL     1      47.496  33.838  15.974  1.00  0.00     0.000 C 
BRANCH   5   6
ATOM      6  C   UNL     1      48.109  33.360  14.645  1.00  0.00     0.006 C 
BRANCH   6   7
ATOM      7  C   UNL     1      48.504  34.516  13.718  1.00  0.00     0.053 C 
BRANCH   7   8
ATOM      8  C   UNL     1      48.745  34.013  12.331  1.00  0.00     0.041 C 
ATOM      9  O   UNL     1      47.784  33.602  11.628  1.00  0.00    -0.550 OA
ATOM     10  O   UNL     1      50.027  34.044  11.794  1.00  0.00    -0.550 OA
ENDBRANCH   7   8
ENDBRANCH   6   7
ENDBRANCH   5   6
ENDBRANCH   4   5
ENDBRANCH   3   4
ENDBRANCH   2   3
ENDBRANCH   1   2
BRANCH   1  11
ATOM     11  C   UNL     1      47.750  30.091  16.216  1.00  0.00     0.000 C 
BRANCH  11  12
ATOM     12  C   UNL     1      47.634  28.572  16.011  1.00  0.00     0.000 C 
BRANCH  12  13
ATOM     13  C   UNL     1      48.621  27.819  16.913  1.00  0.00     0.000 C 
BRANCH  13  14
ATOM     14  C   UNL     1      48.358  26.307  16.875  1.00  0.00     0.000 C 
BRANCH  14  15
ATOM     15  C   UNL     1      49.144  25.533  17.948  1.00  0.00     0.000 C 
BRANCH  15  16
ATOM     16  C   UNL     1      48.622  25.704  19.390  1.00  0.00     0.006 C 
BRANCH  16  17
ATOM     17  C   UNL     1      49.500  25.050  20.468  1.00  0.00     0.053 C 
BRANCH  17  18
ATOM     18  C   UNL     1      49.497  25.832  21.745  1.00  0.00     0.041 C 
ATOM     19  O   UNL     1      48.438  26.380  22.150  1.00  0.00    -0.550 OA
ATOM     20  O   UNL     1      50.654  25.928  22.506  1.00  0.00    -0.550 OA
ENDBRANCH  17  18
ENDBRANCH  16  17
ENDBRANCH  15  16
ENDBRANCH  14  15
ENDBRANCH  13  14
ENDBRANCH  12  13
ENDBRANCH  11  12
ENDBRANCH   1  11
TORSDOF 15
ENDMDL
MODEL 4
REMARK VINA RESULT:    -5.071      1.134      8.813
REMARK INTER + INTRA:         -10.803
REMARK INTER:                  -9.794
REMARK INTRA:                  -1.010
REMARK UNBOUND:                -1.285
REMARK SMILES O=C([O-])CCCCCCCCCCCCCCC(=O)[O-]
REMARK SMILES IDX 10 1 9 2 8 3 7 4 6 5 5 6 4 7 2 8 1 9 3 10 11 11 12 12 13 13
REMARK SMILES IDX 14 14 15 15 16 16 17 17 18 18 19 19 20 20
REMARK H PARENT
REMARK Flexibility Score: inf
ROOT
ATOM      1  C   UNL     1      48.122  34.259  12.341  1.00  0.00     0.000 C 
ENDROOT
BRANCH   1   2
ATOM      2  C   UNL     1      48.559  34.458  13.803  1.00  0.00     0.000 C 
BRANCH   2   3
ATOM      3  C   UNL     1      48.059  33.333  14.725  1.00  0.00     0.000 C 
BRANCH   3   4
ATOM      4  C   UNL     1      47.479  33.869  16.045  1.00  0.00     0.000 C 
BRANCH   4   5
ATOM      5  C   UNL     1      48.548  34.050  17.139  1.00  0.00     0.000 C 
BRANCH   5   6
ATOM      6  C   UNL     1      49.236  32.752  17.602  1.00  0.00     0.006 C 
BRANCH   6   7
ATOM      7  C   UNL     1      48.240  31.659  18.006  1.00  0.00     0.053 C 
BRANCH   7   8
ATOM      8  C   UNL     1      48.400  30.458  17.129  1.00  0.00     0.041 C 
ATOM      9  O   UNL     1      49.533  29.932  16.974  1.00  0.00    -0.550 OA
ATOM     10  O   UNL     1      47.287  29.889  16.522  1.00  0.00    -0.550 OA
ENDBRANCH   7   8
ENDBRANCH   6   7
ENDBRANCH   5   6
ENDBRANCH   4   5
ENDBRANCH   3   4
ENDBRANCH   2   3
ENDBRANCH   1   2
BRANCH   1  11
ATOM     11  C   UNL     1      46.612  34.470  12.143  1.00  0.00     0.000 C 
BRANCH  11  12
ATOM     12  C   UNL     1      46.132  35.837  12.656  1.00  0.00     0.000 C 
BRANCH  12  13
ATOM     13  C   UNL     1      44.697  35.748  13.192  1.00  0.00     0.000 C 
BRANCH  13  14
ATOM     14  C   UNL     1      43.791  36.786  12.514  1.00  0.00     0.000 C 
BRANCH  14  15
ATOM     15  C   UNL     1      42.630  36.149  11.729  1.00  0.00     0.000 C 
BRANCH  15  16
ATOM     16  C   UNL     1      41.340  36.992  11.673  1.00  0.00     0.006 C 
BRANCH  16  17
ATOM     17  C   UNL     1      40.732  37.321  13.045  1.00  0.00     0.053 C 
BRANCH  17  18
ATOM     18  C   UNL     1      40.621  38.797  13.270  1.00  0.00     0.041 C 
ATOM     19  O   UNL     1      41.030  39.605  12.394  1.00  0.00    -0.550 OA
ATOM     20  O   UNL     1      40.035  39.283  14.431  1.00  0.00    -0.550 OA
ENDBRANCH  17  18
ENDBRANCH  16  17
ENDBRANCH  15  16
ENDBRANCH  14  15
ENDBRANCH  13  14
ENDBRANCH  12  13
ENDBRANCH  11  12
ENDBRANCH   1  11
TORSDOF 15
ENDMDL
MODEL 5
REMARK VINA RESULT:    -5.015      4.336     10.154
REMARK INTER + INTRA:         -10.699
REMARK INTER:                  -9.706
REMARK INTRA:                  -0.992
REMARK UNBOUND:                -1.285
REMARK SMILES O=C([O-])CCCCCCCCCCCCCCC(=O)[O-]
REMARK SMILES IDX 10 1 9 2 8 3 7 4 6 5 5 6 4 7 2 8 1 9 3 10 11 11 12 12 13 13
REMARK SMILES IDX 14 14 15 15 16 16 17 17 18 18 19 19 20 20
REMARK H PARENT
REMARK Flexibility Score: inf
ROOT
ATOM      1  C   UNL     1      49.296  27.905  16.861  1.00  0.00     0.000 C 
ENDROOT
BRANCH   1   2
ATOM      2  C   UNL     1      48.739  26.483  16.672  1.00  0.00     0.000 C 
BRANCH   2   3
ATOM      3  C   UNL     1      49.716  25.399  17.157  1.00  0.00     0.000 C 
BRANCH   3   4
ATOM      4  C   UNL     1      49.756  25.286  18.691  1.00  0.00     0.000 C 
BRANCH   4   5
ATOM      5  C   UNL     1      48.363  25.397  19.336  1.00  0.00     0.000 C 
BRANCH   5   6
ATOM      6  C   UNL     1      48.349  25.343  20.876  1.00  0.00     0.006 C 
BRANCH   6   7
ATOM      7  C   UNL     1      48.392  26.733  21.522  1.00  0.00     0.053 C 
BRANCH   7   8
ATOM      8  C   UNL     1      49.335  26.738  22.684  1.00  0.00     0.041 C 
ATOM      9  O   UNL     1      50.074  25.744  22.905  1.00  0.00    -0.550 OA
ATOM     10  O   UNL     1      49.431  27.863  23.494  1.00  0.00    -0.550 OA
ENDBRANCH   7   8
ENDBRANCH   6   7
ENDBRANCH   5   6
ENDBRANCH   4   5
ENDBRANCH   3   4
ENDBRANCH   2   3
ENDBRANCH   1   2
BRANCH   1  11
ATOM     11  C   UNL     1      48.779  28.888  15.798  1.00  0.00     0.000 C 
BRANCH  11  12
ATOM     12  C   UNL     1      47.506  29.626  16.242  1.00  0.00     0.000 C 
BRANCH  12  13
ATOM     13  C   UNL     1      47.776  30.488  17.482  1.00  0.00     0.000 C 
BRANCH  13  14
ATOM     14  C   UNL     1      48.968  31.428  17.250  1.00  0.00     0.000 C 
BRANCH  14  15
ATOM     15  C   UNL     1      48.728  32.848  17.793  1.00  0.00     0.000 C 
BRANCH  15  16
ATOM     16  C   UNL     1      48.654  33.954  16.720  1.00  0.00     0.006 C 
BRANCH  16  17
ATOM     17  C   UNL     1      47.574  33.733  15.650  1.00  0.00     0.053 C 
BRANCH  17  18
ATOM     18  C   UNL     1      48.167  33.448  14.304  1.00  0.00     0.041 C 
ATOM     19  O   UNL     1      48.454  32.266  13.975  1.00  0.00    -0.550 OA
ATOM     20  O   UNL     1      48.371  34.482  13.400  1.00  0.00    -0.550 OA
ENDBRANCH  17  18
ENDBRANCH  16  17
ENDBRANCH  15  16
ENDBRANCH  14  15
ENDBRANCH  13  14
ENDBRANCH  12  13
ENDBRANCH  11  12
ENDBRANCH   1  11
TORSDOF 15
ENDMDL
MODEL 6
REMARK VINA RESULT:    -5.015      6.531      9.774
REMARK INTER + INTRA:         -10.698
REMARK INTER:                  -8.901
REMARK INTRA:                  -1.797
REMARK UNBOUND:                -1.285
REMARK SMILES O=C([O-])CCCCCCCCCCCCCCC(=O)[O-]
REMARK SMILES IDX 10 1 9 2 8 3 7 4 6 5 5 6 4 7 2 8 1 9 3 10 11 11 12 12 13 13
REMARK SMILES IDX 14 14 15 15 16 16 17 17 18 18 19 19 20 20
REMARK H PARENT
REMARK Flexibility Score: inf
ROOT
ATOM      1  C   UNL     1      48.547  25.350  20.927  1.00  0.00     0.000 C 
ENDROOT
BRANCH   1   2
ATOM      2  C   UNL     1      48.471  25.564  19.404  1.00  0.00     0.000 C 
BRANCH   2   3
ATOM      3  C   UNL     1      49.780  25.186  18.691  1.00  0.00     0.000 C 
BRANCH   3   4
ATOM      4  C   UNL     1      49.738  25.490  17.183  1.00  0.00     0.000 C 
BRANCH   4   5
ATOM      5  C   UNL     1      48.415  26.141  16.740  1.00  0.00     0.000 C 
BRANCH   5   6
ATOM      6  C   UNL     1      48.567  27.441  15.927  1.00  0.00     0.006 C 
BRANCH   6   7
ATOM      7  C   UNL     1      48.873  28.662  16.803  1.00  0.00     0.053 C 
BRANCH   7   8
ATOM      8  C   UNL     1      47.751  29.648  16.733  1.00  0.00     0.041 C 
ATOM      9  O   UNL     1      46.962  29.643  15.753  1.00  0.00    -0.550 OA
ATOM     10  O   UNL     1      47.548  30.544  17.776  1.00  0.00    -0.550 OA
ENDBRANCH   7   8
ENDBRANCH   6   7
ENDBRANCH   5   6
ENDBRANCH   4   5
ENDBRANCH   3   4
ENDBRANCH   2   3
ENDBRANCH   1   2
BRANCH   1  11
ATOM     11  C   UNL     1      48.424  26.665  21.714  1.00  0.00     0.000 C 
BRANCH  11  12
ATOM     12  C   UNL     1      49.613  26.904  22.659  1.00  0.00     0.000 C 
BRANCH  12  13
ATOM     13  C   UNL     1      50.619  25.749  22.578  1.00  0.00     0.000 C 
BRANCH  13  14
ATOM     14  C   UNL     1      52.000  26.252  22.136  1.00  0.00     0.000 C 
BRANCH  14  15
ATOM     15  C   UNL     1      52.678  25.324  21.112  1.00  0.00     0.000 C 
BRANCH  15  16
ATOM     16  C   UNL     1      53.563  26.037  20.069  1.00  0.00     0.006 C 
BRANCH  16  17
ATOM     17  C   UNL     1      52.997  27.372  19.560  1.00  0.00     0.053 C 
BRANCH  17  18
ATOM     18  C   UNL     1      52.881  27.399  18.066  1.00  0.00     0.041 C 
ATOM     19  O   UNL     1      52.369  28.394  17.488  1.00  0.00    -0.550 OA
ATOM     20  O   UNL     1      53.370  26.342  17.311  1.00  0.00    -0.550 OA
ENDBRANCH  17  18
ENDBRANCH  16  17
ENDBRANCH  15  16
ENDBRANCH  14  15
ENDBRANCH  13  14
ENDBRANCH  12  13
ENDBRANCH  11  12
ENDBRANCH   1  11
TORSDOF 15
ENDMDL
MODEL 7
REMARK VINA RESULT:    -5.009      5.966     11.737
REMARK INTER + INTRA:         -10.687
REMARK INTER:                  -9.478
REMARK INTRA:                  -1.209
REMARK UNBOUND:                -1.285
REMARK SMILES O=C([O-])CCCCCCCCCCCCCCC(=O)[O-]
REMARK SMILES IDX 10 1 9 2 8 3 7 4 6 5 5 6 4 7 2 8 1 9 3 10 11 11 12 12 13 13
REMARK SMILES IDX 14 14 15 15 16 16 17 17 18 18 19 19 20 20
REMARK H PARENT
REMARK Flexibility Score: inf
ROOT
ATOM      1  C   UNL     1      48.533  25.597  19.488  1.00  0.00     0.000 C 
ENDROOT
BRANCH   1   2
ATOM      2  C   UNL     1      48.540  25.292  20.997  1.00  0.00     0.000 C 
BRANCH   2   3
ATOM      3  C   UNL     1      48.157  26.515  21.847  1.00  0.00     0.000 C 
BRANCH   3   4
ATOM      4  C   UNL     1      49.359  27.103  22.607  1.00  0.00     0.000 C 
BRANCH   4   5
ATOM      5  C   UNL     1      50.596  26.187  22.571  1.00  0.00     0.000 C 
BRANCH   5   6
ATOM      6  C   UNL     1      51.931  26.903  22.288  1.00  0.00     0.006 C 
BRANCH   6   7
ATOM      7  C   UNL     1      53.037  25.946  21.827  1.00  0.00     0.053 C 
BRANCH   7   8
ATOM      8  C   UNL     1      53.353  26.171  20.383  1.00  0.00     0.041 C 
ATOM      9  O   UNL     1      54.305  25.552  19.838  1.00  0.00    -0.550 OA
ATOM     10  O   UNL     1      52.565  27.028  19.625  1.00  0.00    -0.550 OA
ENDBRANCH   7   8
ENDBRANCH   6   7
ENDBRANCH   5   6
ENDBRANCH   4   5
ENDBRANCH   3   4
ENDBRANCH   2   3
ENDBRANCH   1   2
BRANCH   1  11
ATOM     11  C   UNL     1      49.795  25.082  18.777  1.00  0.00     0.000 C 
BRANCH  11  12
ATOM     12  C   UNL     1      49.789  25.380  17.269  1.00  0.00     0.000 C 
BRANCH  12  13
ATOM     13  C   UNL     1      48.513  26.129  16.862  1.00  0.00     0.000 C 
BRANCH  13  14
ATOM     14  C   UNL     1      48.815  27.192  15.796  1.00  0.00     0.000 C 
BRANCH  14  15
ATOM     15  C   UNL     1      48.215  28.568  16.133  1.00  0.00     0.000 C 
BRANCH  15  16
ATOM     16  C   UNL     1      49.120  29.774  15.804  1.00  0.00     0.006 C 
BRANCH  16  17
ATOM     17  C   UNL     1      48.488  31.144  16.095  1.00  0.00     0.053 C 
BRANCH  17  18
ATOM     18  C   UNL     1      48.758  31.601  17.495  1.00  0.00     0.041 C 
ATOM     19  O   UNL     1      49.764  32.317  17.745  1.00  0.00    -0.550 OA
ATOM     20  O   UNL     1      47.882  31.265  18.519  1.00  0.00    -0.550 OA
ENDBRANCH  17  18
ENDBRANCH  16  17
ENDBRANCH  15  16
ENDBRANCH  14  15
ENDBRANCH  13  14
ENDBRANCH  12  13
ENDBRANCH  11  12
ENDBRANCH   1  11
TORSDOF 15
ENDMDL
MODEL 8
REMARK VINA RESULT:    -4.973      6.623     11.827
REMARK INTER + INTRA:         -10.620
REMARK INTER:                  -8.982
REMARK INTRA:                  -1.638
REMARK UNBOUND:                -1.285
REMARK SMILES O=C([O-])CCCCCCCCCCCCCCC(=O)[O-]
REMARK SMILES IDX 10 1 9 2 8 3 7 4 6 5 5 6 4 7 2 8 1 9 3 10 11 11 12 12 13 13
REMARK SMILES IDX 14 14 15 15 16 16 17 17 18 18 19 19 20 20
REMARK H PARENT
REMARK Flexibility Score: inf
ROOT
ATOM      1  C   UNL     1      48.296  26.667  21.811  1.00  0.00     0.000 C 
ENDROOT
BRANCH   1   2
ATOM      2  C   UNL     1      49.482  27.036  22.720  1.00  0.00     0.000 C 
BRANCH   2   3
ATOM      3  C   UNL     1      50.650  26.043  22.596  1.00  0.00     0.000 C 
BRANCH   3   4
ATOM      4  C   UNL     1      51.990  26.743  22.313  1.00  0.00     0.000 C 
BRANCH   4   5
ATOM      5  C   UNL     1      53.076  25.775  21.809  1.00  0.00     0.000 C 
BRANCH   5   6
ATOM      6  C   UNL     1      53.367  25.849  20.298  1.00  0.00     0.006 C 
BRANCH   6   7
ATOM      7  C   UNL     1      52.873  27.152  19.657  1.00  0.00     0.053 C 
BRANCH   7   8
ATOM      8  C   UNL     1      53.963  27.780  18.847  1.00  0.00     0.041 C 
ATOM      9  O   UNL     1      53.836  28.956  18.417  1.00  0.00    -0.550 OA
ATOM     10  O   UNL     1      55.140  27.082  18.608  1.00  0.00    -0.550 OA
ENDBRANCH   7   8
ENDBRANCH   6   7
ENDBRANCH   5   6
ENDBRANCH   4   5
ENDBRANCH   3   4
ENDBRANCH   2   3
ENDBRANCH   1   2
BRANCH   1  11
ATOM     11  C   UNL     1      48.525  25.352  21.048  1.00  0.00     0.000 C 
BRANCH  11  12
ATOM     12  C   UNL     1      48.489  25.537  19.522  1.00  0.00     0.000 C 
BRANCH  12  13
ATOM     13  C   UNL     1      49.827  25.131  18.889  1.00  0.00     0.000 C 
BRANCH  13  14
ATOM     14  C   UNL     1      50.069  25.892  17.578  1.00  0.00     0.000 C 
BRANCH  14  15
ATOM     15  C   UNL     1      48.848  25.878  16.641  1.00  0.00     0.000 C 
BRANCH  15  16
ATOM     16  C   UNL     1      48.515  27.232  15.982  1.00  0.00     0.006 C 
BRANCH  16  17
ATOM     17  C   UNL     1      48.858  28.460  16.839  1.00  0.00     0.053 C 
BRANCH  17  18
ATOM     18  C   UNL     1      47.804  29.520  16.748  1.00  0.00     0.041 C 
ATOM     19  O   UNL     1      47.045  29.575  15.743  1.00  0.00    -0.550 OA
ATOM     20  O   UNL     1      47.635  30.426  17.786  1.00  0.00    -0.550 OA
ENDBRANCH  17  18
ENDBRANCH  16  17
ENDBRANCH  15  16
ENDBRANCH  14  15
ENDBRANCH  13  14
ENDBRANCH  12  13
ENDBRANCH  11  12
ENDBRANCH   1  11
TORSDOF 15
ENDMDL
MODEL 9
REMARK VINA RESULT:    -4.909      5.542     11.298
REMARK INTER + INTRA:         -10.500
REMARK INTER:                  -9.085
REMARK INTRA:                  -1.414
REMARK UNBOUND:                -1.285
REMARK SMILES O=C([O-])CCCCCCCCCCCCCCC(=O)[O-]
REMARK SMILES IDX 10 1 9 2 8 3 7 4 6 5 5 6 4 7 2 8 1 9 3 10 11 11 12 12 13 13
REMARK SMILES IDX 14 14 15 15 16 16 17 17 18 18 19 19 20 20
REMARK H PARENT
REMARK Flexibility Score: inf
ROOT
ATOM      1  C   UNL     1      50.952  26.156  18.190  1.00  0.00     0.000 C 
ENDROOT
BRANCH   1   2
ATOM      2  C   UNL     1      49.993  25.043  18.649  1.00  0.00     0.000 C 
BRANCH   2   3
ATOM      3  C   UNL     1      48.670  25.598  19.203  1.00  0.00     0.000 C 
BRANCH   3   4
ATOM      4  C   UNL     1      48.481  25.288  20.698  1.00  0.00     0.000 C 
BRANCH   4   5
ATOM      5  C   UNL     1      48.539  26.547  21.582  1.00  0.00     0.000 C 
BRANCH   5   6
ATOM      6  C   UNL     1      49.683  26.569  22.614  1.00  0.00     0.006 C 
BRANCH   6   7
ATOM      7  C   UNL     1      50.790  25.555  22.300  1.00  0.00     0.053 C 
BRANCH   7   8
ATOM      8  C   UNL     1      52.132  26.212  22.367  1.00  0.00     0.041 C 
ATOM      9  O   UNL     1      52.231  27.464  22.276  1.00  0.00    -0.550 OA
ATOM     10  O   UNL     1      53.270  25.445  22.581  1.00  0.00    -0.550 OA
ENDBRANCH   7   8
ENDBRANCH   6   7
ENDBRANCH   5   6
ENDBRANCH   4   5
ENDBRANCH   3   4
ENDBRANCH   2   3
ENDBRANCH   1   2
BRANCH   1  11
ATOM     11  C   UNL     1      50.213  27.350  17.564  1.00  0.00     0.000 C 
BRANCH  11  12
ATOM     12  C   UNL     1      50.205  27.305  16.028  1.00  0.00     0.000 C 
BRANCH  12  13
ATOM     13  C   UNL     1      48.785  27.504  15.481  1.00  0.00     0.000 C 
BRANCH  13  14
ATOM     14  C   UNL     1      48.019  28.548  16.307  1.00  0.00     0.000 C 
BRANCH  14  15
ATOM     15  C   UNL     1      47.436  29.684  15.447  1.00  0.00     0.000 C 
BRANCH  15  16
ATOM     16  C   UNL     1      48.380  30.882  15.221  1.00  0.00     0.006 C 
BRANCH  16  17
ATOM     17  C   UNL     1      48.088  32.101  16.110  1.00  0.00     0.053 C 
BRANCH  17  18
ATOM     18  C   UNL     1      48.612  31.920  17.501  1.00  0.00     0.041 C 
ATOM     19  O   UNL     1      47.860  31.470  18.407  1.00  0.00    -0.550 OA
ATOM     20  O   UNL     1      49.937  32.214  17.791  1.00  0.00    -0.550 OA
ENDBRANCH  17  18
ENDBRANCH  16  17
ENDBRANCH  15  16
ENDBRANCH  14  15
ENDBRANCH  13  14
ENDBRANCH  12  13
ENDBRANCH  11  12
ENDBRANCH   1  11
TORSDOF 15
ENDMDL
