MODEL 1
REMARK VINA RESULT:     1.583      0.000      0.000
REMARK INTER + INTRA:           1.543
REMARK INTER:                   1.861
REMARK INTRA:                  -0.318
REMARK UNBOUND:                -0.318
REMARK SMILES O=c1cc(-c2ccc(O)c(O)c2)oc2cc(O)cc(O)c12
REMARK SMILES IDX 4 1 3 2 2 3 1 4 21 5 19 6 18 7 16 8 15 9 14 10 13 11 5 12
REMARK SMILES IDX 6 13 7 14 8 15 12 16 10 17 9 18 11 20 20 22 17 24
REMARK H PARENT 9 19 11 21 20 23 17 25
REMARK Flexibility Score: inf
ROOT
ATOM      1  C   UNL     1      23.630   9.989 122.064  1.00  0.00     0.138 A 
ATOM      2  C   UNL     1      22.851  11.155 122.055  1.00  0.00     0.100 A 
ATOM      3  C   UNL     1      23.475  12.403 122.112  1.00  0.00     0.197 A 
ATOM      4  O   UNL     1      22.754  13.431 122.040  1.00  0.00    -0.289 OA
ATOM      5  C   UNL     1      24.885  12.480 122.210  1.00  0.00     0.107 A 
ATOM      6  C   UNL     1      25.626  13.695 122.315  1.00  0.00     0.134 A 
ATOM      7  C   UNL     1      27.026  13.652 122.288  1.00  0.00     0.093 A 
ATOM      8  C   UNL     1      27.710  12.436 122.221  1.00  0.00     0.123 A 
ATOM      9  C   UNL     1      26.995  11.242 122.172  1.00  0.00     0.094 A 
ATOM     10  C   UNL     1      25.598  11.252 122.163  1.00  0.00     0.146 A 
ATOM     11  O   UNL     1      24.954  10.091 122.100  1.00  0.00    -0.456 OA
ENDROOT
BRANCH   1  12
ATOM     12  C   UNL     1      23.018   8.638 122.006  1.00  0.00     0.021 A 
ATOM     13  C   UNL     1      21.621   8.456 122.019  1.00  0.00     0.016 A 
ATOM     14  C   UNL     1      21.073   7.172 121.975  1.00  0.00     0.051 A 
ATOM     15  C   UNL     1      21.907   6.048 121.924  1.00  0.00     0.157 A 
ATOM     16  C   UNL     1      23.848   7.503 121.969  1.00  0.00     0.062 A 
ATOM     17  C   UNL     1      23.301   6.215 121.924  1.00  0.00     0.158 A 
BRANCH  15  18
ATOM     18  O   UNL     1      21.357   4.768 121.879  1.00  0.00    -0.504 OA
ATOM     19  H   UNL     1      21.529   4.144 121.099  1.00  0.00     0.293 HD
ENDBRANCH  15  18
BRANCH  17  20
ATOM     20  O   UNL     1      24.159   5.117 121.877  1.00  0.00    -0.504 OA
ATOM     21  H   UNL     1      23.873   4.227 121.488  1.00  0.00     0.293 HD
ENDBRANCH  17  20
ENDBRANCH   1  12
BRANCH   6  22
ATOM     22  O   UNL     1      25.042  14.955 122.472  1.00  0.00    -0.507 OA
ATOM     23  H   UNL     1      24.137  15.218 122.117  1.00  0.00     0.293 HD
ENDBRANCH   6  22
BRANCH   8  24
ATOM     24  O   UNL     1      29.103  12.404 122.211  1.00  0.00    -0.508 OA
ATOM     25  H   UNL     1      29.649  12.858 122.934  1.00  0.00     0.293 HD
ENDBRANCH   8  24
TORSDOF 5
ENDMDL
MODEL 2
REMARK VINA RESULT:     2.204      1.664      2.168
REMARK INTER + INTRA:           2.273
REMARK INTER:                   2.591
REMARK INTRA:                  -0.318
REMARK UNBOUND:                -0.318
REMARK SMILES O=c1cc(-c2ccc(O)c(O)c2)oc2cc(O)cc(O)c12
REMARK SMILES IDX 4 1 3 2 2 3 1 4 21 5 19 6 18 7 16 8 15 9 14 10 13 11 5 12
REMARK SMILES IDX 6 13 7 14 8 15 12 16 10 17 9 18 11 20 20 22 17 24
REMARK H PARENT 9 19 11 21 20 23 17 25
REMARK Flexibility Score: inf
ROOT
ATOM      1  C   UNL     1      23.260   8.129 121.960  1.00  0.00     0.138 A 
ATOM      2  C   UNL     1      22.733   9.428 121.985  1.00  0.00     0.100 A 
ATOM      3  C   UNL     1      23.598  10.523 122.016  1.00  0.00     0.197 A 
ATOM      4  O   UNL     1      23.098  11.676 121.974  1.00  0.00    -0.289 OA
ATOM      5  C   UNL     1      24.997  10.313 122.053  1.00  0.00     0.107 A 
ATOM      6  C   UNL     1      25.973  11.352 122.127  1.00  0.00     0.134 A 
ATOM      7  C   UNL     1      27.332  11.028 122.041  1.00  0.00     0.093 A 
ATOM      8  C   UNL     1      27.753   9.699 121.945  1.00  0.00     0.123 A 
ATOM      9  C   UNL     1      26.810   8.674 121.926  1.00  0.00     0.094 A 
ATOM     10  C   UNL     1      25.445   8.967 121.976  1.00  0.00     0.146 A 
ATOM     11  O   UNL     1      24.578   7.960 121.941  1.00  0.00    -0.456 OA
ENDROOT
BRANCH   1  12
ATOM     12  C   UNL     1      22.385   6.930 121.929  1.00  0.00     0.021 A 
ATOM     13  C   UNL     1      20.980   7.037 121.938  1.00  0.00     0.016 A 
ATOM     14  C   UNL     1      20.182   5.890 121.919  1.00  0.00     0.051 A 
ATOM     15  C   UNL     1      20.770   4.619 121.897  1.00  0.00     0.157 A 
ATOM     16  C   UNL     1      22.966   5.648 121.921  1.00  0.00     0.062 A 
ATOM     17  C   UNL     1      22.169   4.499 121.901  1.00  0.00     0.158 A 
BRANCH  15  18
ATOM     18  O   UNL     1      19.970   3.478 121.876  1.00  0.00    -0.504 OA
ATOM     19  H   UNL     1      18.958   3.539 121.843  1.00  0.00     0.293 HD
ENDBRANCH  15  18
BRANCH  17  20
ATOM     20  O   UNL     1      22.784   3.248 121.883  1.00  0.00    -0.504 OA
ATOM     21  H   UNL     1      22.861   2.674 122.714  1.00  0.00     0.293 HD
ENDBRANCH  17  20
ENDBRANCH   1  12
BRANCH   6  22
ATOM     22  O   UNL     1      25.663  12.703 122.309  1.00  0.00    -0.507 OA
ATOM     23  H   UNL     1      24.782  13.051 122.654  1.00  0.00     0.293 HD
ENDBRANCH   6  22
BRANCH   8  24
ATOM     24  O   UNL     1      29.109   9.386 121.876  1.00  0.00    -0.508 OA
ATOM     25  H   UNL     1      29.483   8.548 122.305  1.00  0.00     0.293 HD
ENDBRANCH   8  24
TORSDOF 5
ENDMDL
MODEL 3
REMARK VINA RESULT:     2.301      1.572      3.213
REMARK INTER + INTRA:           2.386
REMARK INTER:                   2.681
REMARK INTRA:                  -0.294
REMARK UNBOUND:                -0.318
REMARK SMILES O=c1cc(-c2ccc(O)c(O)c2)oc2cc(O)cc(O)c12
REMARK SMILES IDX 4 1 3 2 2 3 1 4 21 5 19 6 18 7 16 8 15 9 14 10 13 11 5 12
REMARK SMILES IDX 6 13 7 14 8 15 12 16 10 17 9 18 11 20 20 22 17 24
REMARK H PARENT 9 19 11 21 20 23 17 25
REMARK Flexibility Score: inf
ROOT
ATOM      1  C   UNL     1      24.123   8.323 121.959  1.00  0.00     0.138 A 
ATOM      2  C   UNL     1      25.325   7.607 122.041  1.00  0.00     0.100 A 
ATOM      3  C   UNL     1      26.539   8.296 122.067  1.00  0.00     0.197 A 
ATOM      4  O   UNL     1      27.597   7.629 122.204  1.00  0.00    -0.289 OA
ATOM      5  C   UNL     1      26.548   9.708 121.977  1.00  0.00     0.107 A 
ATOM      6  C   UNL     1      27.726  10.513 121.953  1.00  0.00     0.134 A 
ATOM      7  C   UNL     1      27.607  11.908 121.980  1.00  0.00     0.093 A 
ATOM      8  C   UNL     1      26.355  12.527 121.969  1.00  0.00     0.123 A 
ATOM      9  C   UNL     1      25.200  11.750 121.939  1.00  0.00     0.094 A 
ATOM     10  C   UNL     1      25.283  10.355 121.946  1.00  0.00     0.146 A 
ATOM     11  O   UNL     1      24.156   9.651 121.931  1.00  0.00    -0.456 OA
ENDROOT
BRANCH   1  12
ATOM     12  C   UNL     1      22.805   7.640 121.927  1.00  0.00     0.021 A 
ATOM     13  C   UNL     1      21.596   8.363 121.932  1.00  0.00     0.016 A 
ATOM     14  C   UNL     1      20.370   7.693 121.913  1.00  0.00     0.051 A 
ATOM     15  C   UNL     1      20.328   6.293 121.896  1.00  0.00     0.157 A 
ATOM     16  C   UNL     1      22.753   6.234 121.924  1.00  0.00     0.062 A 
ATOM     17  C   UNL     1      21.526   5.561 121.904  1.00  0.00     0.158 A 
BRANCH  15  18
ATOM     18  O   UNL     1      19.103   5.629 121.875  1.00  0.00    -0.504 OA
ATOM     19  H   UNL     1      18.956   4.769 122.392  1.00  0.00     0.293 HD
ENDBRANCH  15  18
BRANCH  17  20
ATOM     20  O   UNL     1      21.519   4.167 121.891  1.00  0.00    -0.504 OA
ATOM     21  H   UNL     1      22.190   3.621 122.418  1.00  0.00     0.293 HD
ENDBRANCH  17  20
ENDBRANCH   1  12
BRANCH   6  22
ATOM     22  O   UNL     1      29.022   9.997 121.877  1.00  0.00    -0.507 OA
ATOM     23  H   UNL     1      29.748  10.349 121.273  1.00  0.00     0.293 HD
ENDBRANCH   6  22
BRANCH   8  24
ATOM     24  O   UNL     1      26.249  13.916 121.979  1.00  0.00    -0.508 OA
ATOM     25  H   UNL     1      27.051  14.511 121.810  1.00  0.00     0.293 HD
ENDBRANCH   8  24
TORSDOF 5
ENDMDL
MODEL 4
REMARK VINA RESULT:     3.388      2.237      2.599
REMARK INTER + INTRA:           3.664
REMARK INTER:                   3.940
REMARK INTRA:                  -0.276
REMARK UNBOUND:                -0.318
REMARK SMILES O=c1cc(-c2ccc(O)c(O)c2)oc2cc(O)cc(O)c12
REMARK SMILES IDX 4 1 3 2 2 3 1 4 21 5 19 6 18 7 16 8 15 9 14 10 13 11 5 12
REMARK SMILES IDX 6 13 7 14 8 15 12 16 10 17 9 18 11 20 20 22 17 24
REMARK H PARENT 9 19 11 21 20 23 17 25
REMARK Flexibility Score: inf
ROOT
ATOM      1  C   UNL     1      24.957  10.762 123.096  1.00  0.00     0.138 A 
ATOM      2  C   UNL     1      25.020  11.914 122.299  1.00  0.00     0.100 A 
ATOM      3  C   UNL     1      25.896  12.944 122.644  1.00  0.00     0.197 A 
ATOM      4  O   UNL     1      25.976  13.937 121.876  1.00  0.00    -0.289 OA
ATOM      5  C   UNL     1      26.689  12.833 123.811  1.00  0.00     0.107 A 
ATOM      6  C   UNL     1      27.587  13.837 124.282  1.00  0.00     0.134 A 
ATOM      7  C   UNL     1      28.406  13.566 125.385  1.00  0.00     0.093 A 
ATOM      8  C   UNL     1      28.316  12.351 126.070  1.00  0.00     0.123 A 
ATOM      9  C   UNL     1      27.405  11.386 125.650  1.00  0.00     0.094 A 
ATOM     10  C   UNL     1      26.598  11.612 124.532  1.00  0.00     0.146 A 
ATOM     11  O   UNL     1      25.752  10.658 124.155  1.00  0.00    -0.456 OA
ENDROOT
BRANCH   1  12
ATOM     12  C   UNL     1      24.043   9.637 122.775  1.00  0.00     0.021 A 
ATOM     13  C   UNL     1      22.643   9.792 122.794  1.00  0.00     0.016 A 
ATOM     14  C   UNL     1      21.807   8.712 122.498  1.00  0.00     0.051 A 
ATOM     15  C   UNL     1      22.351   7.460 122.187  1.00  0.00     0.157 A 
ATOM     16  C   UNL     1      24.580   8.372 122.475  1.00  0.00     0.062 A 
ATOM     17  C   UNL     1      23.744   7.289 122.179  1.00  0.00     0.158 A 
BRANCH  15  18
ATOM     18  O   UNL     1      21.513   6.386 121.891  1.00  0.00    -0.504 OA
ATOM     19  H   UNL     1      21.870   5.440 121.813  1.00  0.00     0.293 HD
ENDBRANCH  15  18
BRANCH  17  20
ATOM     20  O   UNL     1      24.317   6.054 121.876  1.00  0.00    -0.504 OA
ATOM     21  H   UNL     1      24.116   5.222 122.416  1.00  0.00     0.293 HD
ENDBRANCH  17  20
ENDBRANCH   1  12
BRANCH   6  22
ATOM     22  O   UNL     1      27.693  15.114 123.724  1.00  0.00    -0.507 OA
ATOM     23  H   UNL     1      28.387  15.391 123.048  1.00  0.00     0.293 HD
ENDBRANCH   6  22
BRANCH   8  24
ATOM     24  O   UNL     1      29.124  12.098 127.176  1.00  0.00    -0.508 OA
ATOM     25  H   UNL     1      30.132  12.030 127.093  1.00  0.00     0.293 HD
ENDBRANCH   8  24
TORSDOF 5
ENDMDL
MODEL 5
REMARK VINA RESULT:     3.877      1.507      2.399
REMARK INTER + INTRA:           4.239
REMARK INTER:                   4.533
REMARK INTRA:                  -0.294
REMARK UNBOUND:                -0.318
REMARK SMILES O=c1cc(-c2ccc(O)c(O)c2)oc2cc(O)cc(O)c12
REMARK SMILES IDX 4 1 3 2 2 3 1 4 21 5 19 6 18 7 16 8 15 9 14 10 13 11 5 12
REMARK SMILES IDX 6 13 7 14 8 15 12 16 10 17 9 18 11 20 20 22 17 24
REMARK H PARENT 9 19 11 21 20 23 17 25
REMARK Flexibility Score: inf
ROOT
ATOM      1  C   UNL     1      23.269   8.202 121.954  1.00  0.00     0.138 A 
ATOM      2  C   UNL     1      22.575   9.421 121.947  1.00  0.00     0.100 A 
ATOM      3  C   UNL     1      23.286  10.621 121.959  1.00  0.00     0.197 A 
ATOM      4  O   UNL     1      22.637  11.696 121.890  1.00  0.00    -0.289 OA
ATOM      5  C   UNL     1      24.700  10.600 122.010  1.00  0.00     0.107 A 
ATOM      6  C   UNL     1      25.528  11.761 122.066  1.00  0.00     0.134 A 
ATOM      7  C   UNL     1      26.920  11.619 121.995  1.00  0.00     0.093 A 
ATOM      8  C   UNL     1      27.514  10.356 121.930  1.00  0.00     0.123 A 
ATOM      9  C   UNL     1      26.716   9.215 121.928  1.00  0.00     0.094 A 
ATOM     10  C   UNL     1      25.323   9.324 121.964  1.00  0.00     0.146 A 
ATOM     11  O   UNL     1      24.598   8.211 121.945  1.00  0.00    -0.456 OA
ENDROOT
BRANCH   1  12
ATOM     12  C   UNL     1      22.562   6.897 121.943  1.00  0.00     0.021 A 
ATOM     13  C   UNL     1      23.262   5.675 121.910  1.00  0.00     0.016 A 
ATOM     14  C   UNL     1      22.570   4.462 121.890  1.00  0.00     0.051 A 
ATOM     15  C   UNL     1      21.169   4.447 121.894  1.00  0.00     0.157 A 
ATOM     16  C   UNL     1      21.155   6.872 121.933  1.00  0.00     0.062 A 
ATOM     17  C   UNL     1      20.460   5.658 121.913  1.00  0.00     0.158 A 
BRANCH  15  18
ATOM     18  O   UNL     1      20.482   3.234 121.875  1.00  0.00    -0.504 OA
ATOM     19  H   UNL     1      20.970   2.348 121.793  1.00  0.00     0.293 HD
ENDBRANCH  15  18
BRANCH  17  20
ATOM     20  O   UNL     1      19.065   5.676 121.914  1.00  0.00    -0.504 OA
ATOM     21  H   UNL     1      18.527   5.572 122.766  1.00  0.00     0.293 HD
ENDBRANCH  17  20
ENDBRANCH   1  12
BRANCH   6  22
ATOM     22  O   UNL     1      25.040  13.062 122.217  1.00  0.00    -0.507 OA
ATOM     23  H   UNL     1      25.320  13.851 121.656  1.00  0.00     0.293 HD
ENDBRANCH   6  22
BRANCH   8  24
ATOM     24  O   UNL     1      28.900  10.225 121.875  1.00  0.00    -0.508 OA
ATOM     25  H   UNL     1      29.448  10.678 121.153  1.00  0.00     0.293 HD
ENDBRANCH   8  24
TORSDOF 5
ENDMDL
MODEL 6
REMARK VINA RESULT:     4.165      1.584      6.992
REMARK INTER + INTRA:           4.578
REMARK INTER:                   4.867
REMARK INTRA:                  -0.289
REMARK UNBOUND:                -0.318
REMARK SMILES O=c1cc(-c2ccc(O)c(O)c2)oc2cc(O)cc(O)c12
REMARK SMILES IDX 4 1 3 2 2 3 1 4 21 5 19 6 18 7 16 8 15 9 14 10 13 11 5 12
REMARK SMILES IDX 6 13 7 14 8 15 12 16 10 17 9 18 11 20 20 22 17 24
REMARK H PARENT 9 19 11 21 20 23 17 25
REMARK Flexibility Score: inf
ROOT
ATOM      1  C   UNL     1      25.223  10.335 122.695  1.00  0.00     0.138 A 
ATOM      2  C   UNL     1      23.845  10.596 122.732  1.00  0.00     0.100 A 
ATOM      3  C   UNL     1      22.939   9.549 122.556  1.00  0.00     0.197 A 
ATOM      4  O   UNL     1      21.712   9.804 122.657  1.00  0.00    -0.289 OA
ATOM      5  C   UNL     1      23.416   8.240 122.310  1.00  0.00     0.107 A 
ATOM      6  C   UNL     1      22.586   7.104 122.075  1.00  0.00     0.134 A 
ATOM      7  C   UNL     1      23.169   5.836 121.959  1.00  0.00     0.093 A 
ATOM      8  C   UNL     1      24.555   5.672 122.008  1.00  0.00     0.123 A 
ATOM      9  C   UNL     1      25.378   6.782 122.184  1.00  0.00     0.094 A 
ATOM     10  C   UNL     1      24.825   8.056 122.337  1.00  0.00     0.146 A 
ATOM     11  O   UNL     1      25.644   9.087 122.517  1.00  0.00    -0.456 OA
ENDROOT
BRANCH   1  12
ATOM     12  C   UNL     1      26.229  11.410 122.876  1.00  0.00     0.021 A 
ATOM     13  C   UNL     1      27.533  11.136 123.335  1.00  0.00     0.016 A 
ATOM     14  C   UNL     1      28.456  12.171 123.505  1.00  0.00     0.051 A 
ATOM     15  C   UNL     1      28.094  13.495 123.229  1.00  0.00     0.157 A 
ATOM     16  C   UNL     1      25.871  12.745 122.614  1.00  0.00     0.062 A 
ATOM     17  C   UNL     1      26.794  13.783 122.784  1.00  0.00     0.158 A 
BRANCH  15  18
ATOM     18  O   UNL     1      29.019  14.524 123.399  1.00  0.00    -0.504 OA
ATOM     19  H   UNL     1      29.134  15.255 122.706  1.00  0.00     0.293 HD
ENDBRANCH  15  18
BRANCH  17  20
ATOM     20  O   UNL     1      26.402  15.091 122.503  1.00  0.00    -0.504 OA
ATOM     21  H   UNL     1      27.064  15.857 122.473  1.00  0.00     0.293 HD
ENDBRANCH  17  20
ENDBRANCH   1  12
BRANCH   6  22
ATOM     22  O   UNL     1      21.198   7.169 121.923  1.00  0.00    -0.507 OA
ATOM     23  H   UNL     1      20.547   7.391 122.660  1.00  0.00     0.293 HD
ENDBRANCH   6  22
BRANCH   8  24
ATOM     24  O   UNL     1      25.127   4.408 121.876  1.00  0.00    -0.508 OA
ATOM     25  H   UNL     1      25.925   4.125 122.432  1.00  0.00     0.293 HD
ENDBRANCH   8  24
TORSDOF 5
ENDMDL
