MODEL 1
REMARK VINA RESULT:    -4.736      0.000      0.000
REMARK INTER + INTRA:         -12.811
REMARK INTER:                 -10.827
REMARK INTRA:                  -1.984
REMARK UNBOUND:                -1.984
REMARK SMILES CCCCCCCCCCCCCCCCCCCCCCCC(=O)[O-]
REMARK SMILES IDX 13 1 14 2 15 3 16 4 17 5 18 6 19 7 20 8 21 9 22 10 23 11
REMARK SMILES IDX 24 12 25 13 26 14 12 15 11 16 10 17 9 18 8 19 7 20 6 21 5 22
REMARK SMILES IDX 4 23 3 24 2 25 1 26
REMARK H PARENT
REMARK Flexibility Score: inf
ROOT
ATOM      1  C   UNL     1      13.181  25.636  35.279  1.00  0.00     0.000 C 
ENDROOT
BRANCH   1   2
ATOM      2  C   UNL     1      12.416  26.251  34.092  1.00  0.00     0.000 C 
BRANCH   2   3
ATOM      3  C   UNL     1      11.650  27.550  34.405  1.00  0.00     0.000 C 
BRANCH   3   4
ATOM      4  C   UNL     1      11.704  27.936  35.892  1.00  0.00     0.000 C 
BRANCH   4   5
ATOM      5  C   UNL     1      11.833  29.454  36.109  1.00  0.00     0.000 C 
BRANCH   5   6
ATOM      6  C   UNL     1      13.276  29.996  36.106  1.00  0.00     0.000 C 
BRANCH   6   7
ATOM      7  C   UNL     1      14.380  28.921  36.158  1.00  0.00     0.000 C 
BRANCH   7   8
ATOM      8  C   UNL     1      15.550  29.149  35.185  1.00  0.00     0.000 C 
BRANCH   8   9
ATOM      9  C   UNL     1      15.467  28.255  33.934  1.00  0.00     0.000 C 
BRANCH   9  10
ATOM     10  C   UNL     1      16.417  28.710  32.816  1.00  0.00     0.006 C 
BRANCH  10  11
ATOM     11  C   UNL     1      16.595  30.232  32.773  1.00  0.00     0.053 C 
BRANCH  11  12
ATOM     12  C   UNL     1      16.618  30.718  31.357  1.00  0.00     0.041 C 
ATOM     13  O   UNL     1      16.443  31.939  31.103  1.00  0.00    -0.550 OA
ATOM     14  O   UNL     1      16.883  29.830  30.321  1.00  0.00    -0.550 OA
ENDBRANCH  11  12
ENDBRANCH  10  11
ENDBRANCH   9  10
ENDBRANCH   8   9
ENDBRANCH   7   8
ENDBRANCH   6   7
ENDBRANCH   5   6
ENDBRANCH   4   5
ENDBRANCH   3   4
ENDBRANCH   2   3
ENDBRANCH   1   2
BRANCH   1  15
ATOM     15  C   UNL     1      14.386  24.788  34.845  1.00  0.00     0.000 C 
BRANCH  15  16
ATOM     16  C   UNL     1      14.535  24.778  33.318  1.00  0.00     0.000 C 
BRANCH  16  17
ATOM     17  C   UNL     1      15.347  23.560  32.854  1.00  0.00     0.000 C 
BRANCH  17  18
ATOM     18  C   UNL     1      15.925  22.743  34.025  1.00  0.00    -0.000 C 
BRANCH  18  19
ATOM     19  C   UNL     1      16.555  21.393  33.628  1.00  0.00    -0.000 C 
BRANCH  19  20
ATOM     20  C   UNL     1      16.484  20.296  34.708  1.00  0.00    -0.000 C 
BRANCH  20  21
ATOM     21  C   UNL     1      15.460  19.177  34.433  1.00  0.00    -0.000 C 
BRANCH  21  22
ATOM     22  C   UNL     1      15.707  17.865  35.203  1.00  0.00    -0.000 C 
BRANCH  22  23
ATOM     23  C   UNL     1      16.194  16.684  34.341  1.00  0.00    -0.000 C 
BRANCH  23  24
ATOM     24  C   UNL     1      15.130  15.607  34.047  1.00  0.00    -0.000 C 
BRANCH  24  25
ATOM     25  C   UNL     1      15.568  14.516  33.056  1.00  0.00    -0.003 C 
ATOM     26  C   UNL     1      14.504  13.438  32.848  1.00  0.00     0.004 C 
ENDBRANCH  24  25
ENDBRANCH  23  24
ENDBRANCH  22  23
ENDBRANCH  21  22
ENDBRANCH  20  21
ENDBRANCH  19  20
ENDBRANCH  18  19
ENDBRANCH  17  18
ENDBRANCH  16  17
ENDBRANCH  15  16
ENDBRANCH   1  15
TORSDOF 22
ENDMDL
MODEL 2
REMARK VINA RESULT:    -4.518      2.732      4.503
REMARK INTER + INTRA:         -12.313
REMARK INTER:                  -9.816
REMARK INTRA:                  -2.497
REMARK UNBOUND:                -1.984
REMARK SMILES CCCCCCCCCCCCCCCCCCCCCCCC(=O)[O-]
REMARK SMILES IDX 13 1 14 2 15 3 16 4 17 5 18 6 19 7 20 8 21 9 22 10 23 11
REMARK SMILES IDX 24 12 25 13 26 14 12 15 11 16 10 17 9 18 8 19 7 20 6 21 5 22
REMARK SMILES IDX 4 23 3 24 2 25 1 26
REMARK H PARENT
REMARK Flexibility Score: inf
ROOT
ATOM      1  C   UNL     1      16.579  23.141  35.172  1.00  0.00     0.000 C 
ENDROOT
BRANCH   1   2
ATOM      2  C   UNL     1      15.604  23.293  36.355  1.00  0.00     0.000 C 
BRANCH   2   3
ATOM      3  C   UNL     1      15.248  24.744  36.733  1.00  0.00     0.000 C 
BRANCH   3   4
ATOM      4  C   UNL     1      16.412  25.724  36.511  1.00  0.00     0.000 C 
BRANCH   4   5
ATOM      5  C   UNL     1      15.964  27.038  35.845  1.00  0.00     0.000 C 
BRANCH   5   6
ATOM      6  C   UNL     1      16.319  27.169  34.351  1.00  0.00     0.000 C 
BRANCH   6   7
ATOM      7  C   UNL     1      15.130  27.021  33.380  1.00  0.00     0.000 C 
BRANCH   7   8
ATOM      8  C   UNL     1      14.794  25.571  32.986  1.00  0.00     0.000 C 
BRANCH   8   9
ATOM      9  C   UNL     1      13.328  25.201  33.271  1.00  0.00     0.000 C 
BRANCH   9  10
ATOM     10  C   UNL     1      12.757  25.938  34.493  1.00  0.00     0.006 C 
BRANCH  10  11
ATOM     11  C   UNL     1      11.777  27.053  34.107  1.00  0.00     0.053 C 
BRANCH  11  12
ATOM     12  C   UNL     1      11.434  27.886  35.302  1.00  0.00     0.041 C 
ATOM     13  O   UNL     1      11.694  27.468  36.461  1.00  0.00    -0.550 OA
ATOM     14  O   UNL     1      10.874  29.147  35.135  1.00  0.00    -0.550 OA
ENDBRANCH  11  12
ENDBRANCH  10  11
ENDBRANCH   9  10
ENDBRANCH   8   9
ENDBRANCH   7   8
ENDBRANCH   6   7
ENDBRANCH   5   6
ENDBRANCH   4   5
ENDBRANCH   3   4
ENDBRANCH   2   3
ENDBRANCH   1   2
BRANCH   1  15
ATOM     15  C   UNL     1      15.966  22.394  33.978  1.00  0.00     0.000 C 
BRANCH  15  16
ATOM     16  C   UNL     1      16.544  20.979  33.853  1.00  0.00     0.000 C 
BRANCH  16  17
ATOM     17  C   UNL     1      15.468  19.920  34.133  1.00  0.00     0.000 C 
BRANCH  17  18
ATOM     18  C   UNL     1      15.263  19.656  35.636  1.00  0.00    -0.000 C 
BRANCH  18  19
ATOM     19  C   UNL     1      16.384  18.844  36.313  1.00  0.00    -0.000 C 
BRANCH  19  20
ATOM     20  C   UNL     1      15.911  17.612  37.109  1.00  0.00    -0.000 C 
BRANCH  20  21
ATOM     21  C   UNL     1      16.122  16.259  36.400  1.00  0.00    -0.000 C 
BRANCH  21  22
ATOM     22  C   UNL     1      15.446  16.136  35.020  1.00  0.00    -0.000 C 
BRANCH  22  23
ATOM     23  C   UNL     1      16.414  15.968  33.833  1.00  0.00    -0.000 C 
BRANCH  23  24
ATOM     24  C   UNL     1      16.146  14.739  32.940  1.00  0.00    -0.000 C 
BRANCH  24  25
ATOM     25  C   UNL     1      14.717  14.177  33.025  1.00  0.00    -0.003 C 
ATOM     26  C   UNL     1      14.537  12.885  32.226  1.00  0.00     0.004 C 
ENDBRANCH  24  25
ENDBRANCH  23  24
ENDBRANCH  22  23
ENDBRANCH  21  22
ENDBRANCH  20  21
ENDBRANCH  19  20
ENDBRANCH  18  19
ENDBRANCH  17  18
ENDBRANCH  16  17
ENDBRANCH  15  16
ENDBRANCH   1  15
TORSDOF 22
ENDMDL
MODEL 3
REMARK VINA RESULT:    -4.412      1.222      2.999
REMARK INTER + INTRA:         -12.071
REMARK INTER:                 -10.225
REMARK INTRA:                  -1.846
REMARK UNBOUND:                -1.984
REMARK SMILES CCCCCCCCCCCCCCCCCCCCCCCC(=O)[O-]
REMARK SMILES IDX 13 1 14 2 15 3 16 4 17 5 18 6 19 7 20 8 21 9 22 10 23 11
REMARK SMILES IDX 24 12 25 13 26 14 12 15 11 16 10 17 9 18 8 19 7 20 6 21 5 22
REMARK SMILES IDX 4 23 3 24 2 25 1 26
REMARK H PARENT
REMARK Flexibility Score: inf
ROOT
ATOM      1  C   UNL     1      16.341  23.668  33.834  1.00  0.00     0.000 C 
ENDROOT
BRANCH   1   2
ATOM      2  C   UNL     1      14.963  24.226  34.238  1.00  0.00     0.000 C 
BRANCH   2   3
ATOM      3  C   UNL     1      14.180  24.925  33.110  1.00  0.00     0.000 C 
BRANCH   3   4
ATOM      4  C   UNL     1      12.720  25.223  33.487  1.00  0.00     0.000 C 
BRANCH   4   5
ATOM      5  C   UNL     1      12.503  26.683  33.921  1.00  0.00     0.000 C 
BRANCH   5   6
ATOM      6  C   UNL     1      13.092  27.052  35.296  1.00  0.00     0.000 C 
BRANCH   6   7
ATOM      7  C   UNL     1      13.947  28.335  35.320  1.00  0.00     0.000 C 
BRANCH   7   8
ATOM      8  C   UNL     1      15.452  28.113  35.090  1.00  0.00     0.000 C 
BRANCH   8   9
ATOM      9  C   UNL     1      15.810  27.962  33.601  1.00  0.00     0.000 C 
BRANCH   9  10
ATOM     10  C   UNL     1      16.904  28.944  33.151  1.00  0.00     0.006 C 
BRANCH  10  11
ATOM     11  C   UNL     1      16.438  30.405  33.188  1.00  0.00     0.053 C 
BRANCH  11  12
ATOM     12  C   UNL     1      16.416  30.982  31.807  1.00  0.00     0.041 C 
ATOM     13  O   UNL     1      16.697  30.260  30.814  1.00  0.00    -0.550 OA
ATOM     14  O   UNL     1      16.034  32.304  31.611  1.00  0.00    -0.550 OA
ENDBRANCH  11  12
ENDBRANCH  10  11
ENDBRANCH   9  10
ENDBRANCH   8   9
ENDBRANCH   7   8
ENDBRANCH   6   7
ENDBRANCH   5   6
ENDBRANCH   4   5
ENDBRANCH   3   4
ENDBRANCH   2   3
ENDBRANCH   1   2
BRANCH   1  15
ATOM     15  C   UNL     1      16.252  22.341  33.067  1.00  0.00     0.000 C 
BRANCH  15  16
ATOM     16  C   UNL     1      16.719  21.166  33.936  1.00  0.00     0.000 C 
BRANCH  16  17
ATOM     17  C   UNL     1      15.560  20.198  34.218  1.00  0.00     0.000 C 
BRANCH  17  18
ATOM     18  C   UNL     1      15.570  19.655  35.659  1.00  0.00    -0.000 C 
BRANCH  18  19
ATOM     19  C   UNL     1      15.936  18.163  35.790  1.00  0.00    -0.000 C 
BRANCH  19  20
ATOM     20  C   UNL     1      15.561  17.288  34.578  1.00  0.00    -0.000 C 
BRANCH  20  21
ATOM     21  C   UNL     1      16.699  16.395  34.043  1.00  0.00    -0.000 C 
BRANCH  21  22
ATOM     22  C   UNL     1      16.235  15.111  33.327  1.00  0.00    -0.000 C 
BRANCH  22  23
ATOM     23  C   UNL     1      14.780  14.693  33.613  1.00  0.00    -0.000 C 
BRANCH  23  24
ATOM     24  C   UNL     1      14.618  13.326  34.309  1.00  0.00    -0.000 C 
BRANCH  24  25
ATOM     25  C   UNL     1      14.248  13.399  35.800  1.00  0.00    -0.003 C 
ATOM     26  C   UNL     1      15.371  13.972  36.665  1.00  0.00     0.004 C 
ENDBRANCH  24  25
ENDBRANCH  23  24
ENDBRANCH  22  23
ENDBRANCH  21  22
ENDBRANCH  20  21
ENDBRANCH  19  20
ENDBRANCH  18  19
ENDBRANCH  17  18
ENDBRANCH  16  17
ENDBRANCH  15  16
ENDBRANCH   1  15
TORSDOF 22
ENDMDL
MODEL 4
REMARK VINA RESULT:    -4.402      2.034      3.154
REMARK INTER + INTRA:         -12.048
REMARK INTER:                  -9.389
REMARK INTRA:                  -2.659
REMARK UNBOUND:                -1.984
REMARK SMILES CCCCCCCCCCCCCCCCCCCCCCCC(=O)[O-]
REMARK SMILES IDX 13 1 14 2 15 3 16 4 17 5 18 6 19 7 20 8 21 9 22 10 23 11
REMARK SMILES IDX 24 12 25 13 26 14 12 15 11 16 10 17 9 18 8 19 7 20 6 21 5 22
REMARK SMILES IDX 4 23 3 24 2 25 1 26
REMARK H PARENT
REMARK Flexibility Score: inf
ROOT
ATOM      1  C   UNL     1      12.663  26.417  34.175  1.00  0.00     0.000 C 
ENDROOT
BRANCH   1   2
ATOM      2  C   UNL     1      12.620  26.172  35.695  1.00  0.00     0.000 C 
BRANCH   2   3
ATOM      3  C   UNL     1      11.874  27.244  36.513  1.00  0.00     0.000 C 
BRANCH   3   4
ATOM      4  C   UNL     1      11.564  28.512  35.701  1.00  0.00     0.000 C 
BRANCH   4   5
ATOM      5  C   UNL     1      12.426  29.715  36.124  1.00  0.00     0.000 C 
BRANCH   5   6
ATOM      6  C   UNL     1      13.937  29.434  36.229  1.00  0.00     0.000 C 
BRANCH   6   7
ATOM      7  C   UNL     1      14.852  30.619  35.859  1.00  0.00     0.000 C 
BRANCH   7   8
ATOM      8  C   UNL     1      16.006  30.271  34.903  1.00  0.00     0.000 C 
BRANCH   8   9
ATOM      9  C   UNL     1      16.037  31.169  33.654  1.00  0.00     0.000 C 
BRANCH   9  10
ATOM     10  C   UNL     1      16.924  30.601  32.536  1.00  0.00     0.006 C 
BRANCH  10  11
ATOM     11  C   UNL     1      16.610  31.212  31.165  1.00  0.00     0.053 C 
BRANCH  11  12
ATOM     12  C   UNL     1      16.732  30.177  30.090  1.00  0.00     0.041 C 
ATOM     13  O   UNL     1      16.723  30.518  28.878  1.00  0.00    -0.550 OA
ATOM     14  O   UNL     1      16.906  28.839  30.427  1.00  0.00    -0.550 OA
ENDBRANCH  11  12
ENDBRANCH  10  11
ENDBRANCH   9  10
ENDBRANCH   8   9
ENDBRANCH   7   8
ENDBRANCH   6   7
ENDBRANCH   5   6
ENDBRANCH   4   5
ENDBRANCH   3   4
ENDBRANCH   2   3
ENDBRANCH   1   2
BRANCH   1  15
ATOM     15  C   UNL     1      13.273  25.245  33.392  1.00  0.00     0.000 C 
BRANCH  15  16
ATOM     16  C   UNL     1      14.658  25.607  32.840  1.00  0.00     0.000 C 
BRANCH  16  17
ATOM     17  C   UNL     1      15.160  26.928  33.442  1.00  0.00     0.000 C 
BRANCH  17  18
ATOM     18  C   UNL     1      16.187  26.721  34.569  1.00  0.00    -0.000 C 
BRANCH  18  19
ATOM     19  C   UNL     1      16.683  25.271  34.740  1.00  0.00    -0.000 C 
BRANCH  19  20
ATOM     20  C   UNL     1      16.109  24.522  35.958  1.00  0.00    -0.000 C 
BRANCH  20  21
ATOM     21  C   UNL     1      16.096  22.985  35.831  1.00  0.00    -0.000 C 
BRANCH  21  22
ATOM     22  C   UNL     1      15.738  22.452  34.429  1.00  0.00    -0.000 C 
BRANCH  22  23
ATOM     23  C   UNL     1      16.344  21.079  34.079  1.00  0.00    -0.000 C 
BRANCH  23  24
ATOM     24  C   UNL     1      15.345  19.904  34.083  1.00  0.00    -0.000 C 
BRANCH  24  25
ATOM     25  C   UNL     1      15.653  18.797  35.105  1.00  0.00    -0.003 C 
ATOM     26  C   UNL     1      15.688  19.310  36.546  1.00  0.00     0.004 C 
ENDBRANCH  24  25
ENDBRANCH  23  24
ENDBRANCH  22  23
ENDBRANCH  21  22
ENDBRANCH  20  21
ENDBRANCH  19  20
ENDBRANCH  18  19
ENDBRANCH  17  18
ENDBRANCH  16  17
ENDBRANCH  15  16
ENDBRANCH   1  15
TORSDOF 22
ENDMDL
MODEL 5
REMARK VINA RESULT:    -4.334      2.505      5.172
REMARK INTER + INTRA:         -11.892
REMARK INTER:                  -9.608
REMARK INTRA:                  -2.284
REMARK UNBOUND:                -1.984
REMARK SMILES CCCCCCCCCCCCCCCCCCCCCCCC(=O)[O-]
REMARK SMILES IDX 13 1 14 2 15 3 16 4 17 5 18 6 19 7 20 8 21 9 22 10 23 11
REMARK SMILES IDX 24 12 25 13 26 14 12 15 11 16 10 17 9 18 8 19 7 20 6 21 5 22
REMARK SMILES IDX 4 23 3 24 2 25 1 26
REMARK H PARENT
REMARK Flexibility Score: inf
ROOT
ATOM      1  C   UNL     1      15.663  21.276  34.078  1.00  0.00     0.000 C 
ENDROOT
BRANCH   1   2
ATOM      2  C   UNL     1      16.295  22.482  34.799  1.00  0.00     0.000 C 
BRANCH   2   3
ATOM      3  C   UNL     1      15.304  23.576  35.243  1.00  0.00     0.000 C 
BRANCH   3   4
ATOM      4  C   UNL     1      14.557  24.223  34.066  1.00  0.00     0.000 C 
BRANCH   4   5
ATOM      5  C   UNL     1      15.507  24.810  33.007  1.00  0.00     0.000 C 
BRANCH   5   6
ATOM      6  C   UNL     1      16.284  26.065  33.449  1.00  0.00     0.000 C 
BRANCH   6   7
ATOM      7  C   UNL     1      15.466  27.372  33.460  1.00  0.00     0.000 C 
BRANCH   7   8
ATOM      8  C   UNL     1      15.532  28.164  34.778  1.00  0.00     0.000 C 
BRANCH   8   9
ATOM      9  C   UNL     1      15.291  27.282  36.015  1.00  0.00     0.000 C 
BRANCH   9  10
ATOM     10  C   UNL     1      13.798  27.068  36.310  1.00  0.00     0.006 C 
BRANCH  10  11
ATOM     11  C   UNL     1      12.952  28.313  36.013  1.00  0.00     0.053 C 
BRANCH  11  12
ATOM     12  C   UNL     1      11.856  27.984  35.050  1.00  0.00     0.041 C 
ATOM     13  O   UNL     1      10.843  28.728  34.965  1.00  0.00    -0.550 OA
ATOM     14  O   UNL     1      11.974  26.884  34.208  1.00  0.00    -0.550 OA
ENDBRANCH  11  12
ENDBRANCH  10  11
ENDBRANCH   9  10
ENDBRANCH   8   9
ENDBRANCH   7   8
ENDBRANCH   6   7
ENDBRANCH   5   6
ENDBRANCH   4   5
ENDBRANCH   3   4
ENDBRANCH   2   3
ENDBRANCH   1   2
BRANCH   1  15
ATOM     15  C   UNL     1      16.273  19.932  34.505  1.00  0.00     0.000 C 
BRANCH  15  16
ATOM     16  C   UNL     1      15.216  18.821  34.510  1.00  0.00     0.000 C 
BRANCH  16  17
ATOM     17  C   UNL     1      15.852  17.459  34.824  1.00  0.00     0.000 C 
BRANCH  17  18
ATOM     18  C   UNL     1      15.954  17.179  36.334  1.00  0.00    -0.000 C 
BRANCH  18  19
ATOM     19  C   UNL     1      16.790  15.940  36.712  1.00  0.00    -0.000 C 
BRANCH  19  20
ATOM     20  C   UNL     1      16.427  14.649  35.953  1.00  0.00    -0.000 C 
BRANCH  20  21
ATOM     21  C   UNL     1      14.974  14.168  36.144  1.00  0.00    -0.000 C 
BRANCH  21  22
ATOM     22  C   UNL     1      14.369  13.430  34.934  1.00  0.00    -0.000 C 
BRANCH  22  23
ATOM     23  C   UNL     1      14.382  14.223  33.612  1.00  0.00    -0.000 C 
BRANCH  23  24
ATOM     24  C   UNL     1      14.636  13.379  32.347  1.00  0.00    -0.000 C 
BRANCH  24  25
ATOM     25  C   UNL     1      16.052  13.503  31.759  1.00  0.00    -0.003 C 
ATOM     26  C   UNL     1      16.830  14.691  32.327  1.00  0.00     0.004 C 
ENDBRANCH  24  25
ENDBRANCH  23  24
ENDBRANCH  22  23
ENDBRANCH  21  22
ENDBRANCH  20  21
ENDBRANCH  19  20
ENDBRANCH  18  19
ENDBRANCH  17  18
ENDBRANCH  16  17
ENDBRANCH  15  16
ENDBRANCH   1  15
TORSDOF 22
ENDMDL
MODEL 6
REMARK VINA RESULT:    -4.283      4.622     11.034
REMARK INTER + INTRA:         -11.774
REMARK INTER:                  -9.503
REMARK INTRA:                  -2.272
REMARK UNBOUND:                -1.984
REMARK SMILES CCCCCCCCCCCCCCCCCCCCCCCC(=O)[O-]
REMARK SMILES IDX 13 1 14 2 15 3 16 4 17 5 18 6 19 7 20 8 21 9 22 10 23 11
REMARK SMILES IDX 24 12 25 13 26 14 12 15 11 16 10 17 9 18 8 19 7 20 6 21 5 22
REMARK SMILES IDX 4 23 3 24 2 25 1 26
REMARK H PARENT
REMARK Flexibility Score: inf
ROOT
ATOM      1  C   UNL     1      13.855  24.743  33.294  1.00  0.00     0.000 C 
ENDROOT
BRANCH   1   2
ATOM      2  C   UNL     1      15.012  23.778  32.975  1.00  0.00     0.000 C 
BRANCH   2   3
ATOM      3  C   UNL     1      16.376  24.163  33.580  1.00  0.00     0.000 C 
BRANCH   3   4
ATOM      4  C   UNL     1      16.909  23.117  34.573  1.00  0.00     0.000 C 
BRANCH   4   5
ATOM      5  C   UNL     1      15.811  22.558  35.496  1.00  0.00     0.000 C 
BRANCH   5   6
ATOM      6  C   UNL     1      15.773  21.022  35.611  1.00  0.00     0.000 C 
BRANCH   6   7
ATOM      7  C   UNL     1      15.660  20.267  34.272  1.00  0.00     0.000 C 
BRANCH   7   8
ATOM      8  C   UNL     1      15.077  18.846  34.378  1.00  0.00     0.000 C 
BRANCH   8   9
ATOM      9  C   UNL     1      15.854  17.957  35.365  1.00  0.00     0.000 C 
BRANCH   9  10
ATOM     10  C   UNL     1      16.431  16.697  34.702  1.00  0.00     0.006 C 
BRANCH  10  11
ATOM     11  C   UNL     1      15.491  15.489  34.809  1.00  0.00     0.053 C 
BRANCH  11  12
ATOM     12  C   UNL     1      15.329  14.831  33.475  1.00  0.00     0.041 C 
ATOM     13  O   UNL     1      16.272  14.850  32.640  1.00  0.00    -0.550 OA
ATOM     14  O   UNL     1      14.154  14.153  33.171  1.00  0.00    -0.550 OA
ENDBRANCH  11  12
ENDBRANCH  10  11
ENDBRANCH   9  10
ENDBRANCH   8   9
ENDBRANCH   7   8
ENDBRANCH   6   7
ENDBRANCH   5   6
ENDBRANCH   4   5
ENDBRANCH   3   4
ENDBRANCH   2   3
ENDBRANCH   1   2
BRANCH   1  15
ATOM     15  C   UNL     1      14.319  26.193  33.498  1.00  0.00     0.000 C 
BRANCH  15  16
ATOM     16  C   UNL     1      14.301  26.577  34.984  1.00  0.00     0.000 C 
BRANCH  16  17
ATOM     17  C   UNL     1      13.119  25.917  35.707  1.00  0.00     0.000 C 
BRANCH  17  18
ATOM     18  C   UNL     1      12.104  26.938  36.253  1.00  0.00    -0.000 C 
BRANCH  18  19
ATOM     19  C   UNL     1      11.449  27.839  35.188  1.00  0.00    -0.000 C 
BRANCH  19  20
ATOM     20  C   UNL     1      11.400  29.338  35.538  1.00  0.00    -0.000 C 
BRANCH  20  21
ATOM     21  C   UNL     1      12.282  29.757  36.732  1.00  0.00    -0.000 C 
BRANCH  21  22
ATOM     22  C   UNL     1      13.598  30.464  36.351  1.00  0.00    -0.000 C 
BRANCH  22  23
ATOM     23  C   UNL     1      14.856  29.576  36.406  1.00  0.00    -0.000 C 
BRANCH  23  24
ATOM     24  C   UNL     1      16.088  30.142  35.670  1.00  0.00    -0.000 C 
BRANCH  24  25
ATOM     25  C   UNL     1      15.896  30.358  34.160  1.00  0.00    -0.003 C 
ATOM     26  C   UNL     1      16.492  29.230  33.316  1.00  0.00     0.004 C 
ENDBRANCH  24  25
ENDBRANCH  23  24
ENDBRANCH  22  23
ENDBRANCH  21  22
ENDBRANCH  20  21
ENDBRANCH  19  20
ENDBRANCH  18  19
ENDBRANCH  17  18
ENDBRANCH  16  17
ENDBRANCH  15  16
ENDBRANCH   1  15
TORSDOF 22
ENDMDL
MODEL 7
REMARK VINA RESULT:    -4.211      1.438      2.340
REMARK INTER + INTRA:         -11.611
REMARK INTER:                  -9.958
REMARK INTRA:                  -1.653
REMARK UNBOUND:                -1.984
REMARK SMILES CCCCCCCCCCCCCCCCCCCCCCCC(=O)[O-]
REMARK SMILES IDX 13 1 14 2 15 3 16 4 17 5 18 6 19 7 20 8 21 9 22 10 23 11
REMARK SMILES IDX 24 12 25 13 26 14 12 15 11 16 10 17 9 18 8 19 7 20 6 21 5 22
REMARK SMILES IDX 4 23 3 24 2 25 1 26
REMARK H PARENT
REMARK Flexibility Score: inf
ROOT
ATOM      1  C   UNL     1      12.649  26.016  34.233  1.00  0.00     0.000 C 
ENDROOT
BRANCH   1   2
ATOM      2  C   UNL     1      12.909  25.790  35.735  1.00  0.00     0.000 C 
BRANCH   2   3
ATOM      3  C   UNL     1      13.548  26.979  36.477  1.00  0.00     0.000 C 
BRANCH   3   4
ATOM      4  C   UNL     1      12.957  28.335  36.062  1.00  0.00     0.000 C 
BRANCH   4   5
ATOM      5  C   UNL     1      14.033  29.416  35.854  1.00  0.00     0.000 C 
BRANCH   5   6
ATOM      6  C   UNL     1      15.334  28.925  35.189  1.00  0.00     0.000 C 
BRANCH   6   7
ATOM      7  C   UNL     1      16.247  30.038  34.637  1.00  0.00     0.000 C 
BRANCH   7   8
ATOM      8  C   UNL     1      16.821  29.767  33.235  1.00  0.00     0.000 C 
BRANCH   8   9
ATOM      9  C   UNL     1      16.445  30.858  32.217  1.00  0.00     0.000 C 
BRANCH   9  10
ATOM     10  C   UNL     1      16.789  30.465  30.772  1.00  0.00     0.006 C 
BRANCH  10  11
ATOM     11  C   UNL     1      16.820  31.670  29.823  1.00  0.00     0.053 C 
BRANCH  11  12
ATOM     12  C   UNL     1      16.335  31.278  28.462  1.00  0.00     0.041 C 
ATOM     13  O   UNL     1      15.703  30.200  28.301  1.00  0.00    -0.550 OA
ATOM     14  O   UNL     1      16.535  32.127  27.380  1.00  0.00    -0.550 OA
ENDBRANCH  11  12
ENDBRANCH  10  11
ENDBRANCH   9  10
ENDBRANCH   8   9
ENDBRANCH   7   8
ENDBRANCH   6   7
ENDBRANCH   5   6
ENDBRANCH   4   5
ENDBRANCH   3   4
ENDBRANCH   2   3
ENDBRANCH   1   2
BRANCH   1  15
ATOM     15  C   UNL     1      13.588  25.202  33.330  1.00  0.00     0.000 C 
BRANCH  15  16
ATOM     16  C   UNL     1      14.853  25.998  32.985  1.00  0.00     0.000 C 
BRANCH  16  17
ATOM     17  C   UNL     1      16.034  25.560  33.863  1.00  0.00     0.000 C 
BRANCH  17  18
ATOM     18  C   UNL     1      15.955  24.080  34.279  1.00  0.00    -0.000 C 
BRANCH  18  19
ATOM     19  C   UNL     1      16.080  23.070  33.121  1.00  0.00    -0.000 C 
BRANCH  19  20
ATOM     20  C   UNL     1      16.468  21.638  33.540  1.00  0.00    -0.000 C 
BRANCH  20  21
ATOM     21  C   UNL     1      15.648  21.058  34.710  1.00  0.00    -0.000 C 
BRANCH  21  22
ATOM     22  C   UNL     1      16.082  19.653  35.174  1.00  0.00    -0.000 C 
BRANCH  22  23
ATOM     23  C   UNL     1      15.307  18.486  34.533  1.00  0.00    -0.000 C 
BRANCH  23  24
ATOM     24  C   UNL     1      15.594  17.098  35.143  1.00  0.00    -0.000 C 
BRANCH  24  25
ATOM     25  C   UNL     1      16.053  16.031  34.136  1.00  0.00    -0.003 C 
ATOM     26  C   UNL     1      14.954  15.022  33.796  1.00  0.00     0.004 C 
ENDBRANCH  24  25
ENDBRANCH  23  24
ENDBRANCH  22  23
ENDBRANCH  21  22
ENDBRANCH  20  21
ENDBRANCH  19  20
ENDBRANCH  18  19
ENDBRANCH  17  18
ENDBRANCH  16  17
ENDBRANCH  15  16
ENDBRANCH   1  15
TORSDOF 22
ENDMDL
MODEL 8
REMARK VINA RESULT:    -4.172      1.813      3.580
REMARK INTER + INTRA:         -11.521
REMARK INTER:                  -9.786
REMARK INTRA:                  -1.735
REMARK UNBOUND:                -1.984
REMARK SMILES CCCCCCCCCCCCCCCCCCCCCCCC(=O)[O-]
REMARK SMILES IDX 13 1 14 2 15 3 16 4 17 5 18 6 19 7 20 8 21 9 22 10 23 11
REMARK SMILES IDX 24 12 25 13 26 14 12 15 11 16 10 17 9 18 8 19 7 20 6 21 5 22
REMARK SMILES IDX 4 23 3 24 2 25 1 26
REMARK H PARENT
REMARK Flexibility Score: inf
ROOT
ATOM      1  C   UNL     1      16.307  23.442  33.733  1.00  0.00     0.000 C 
ENDROOT
BRANCH   1   2
ATOM      2  C   UNL     1      15.067  23.899  32.943  1.00  0.00     0.000 C 
BRANCH   2   3
ATOM      3  C   UNL     1      14.503  25.276  33.342  1.00  0.00     0.000 C 
BRANCH   3   4
ATOM      4  C   UNL     1      13.006  25.235  33.688  1.00  0.00     0.000 C 
BRANCH   4   5
ATOM      5  C   UNL     1      12.381  26.637  33.798  1.00  0.00     0.000 C 
BRANCH   5   6
ATOM      6  C   UNL     1      12.034  27.088  35.230  1.00  0.00     0.000 C 
BRANCH   6   7
ATOM      7  C   UNL     1      11.514  28.535  35.353  1.00  0.00     0.000 C 
BRANCH   7   8
ATOM      8  C   UNL     1      11.839  29.226  36.690  1.00  0.00     0.000 C 
BRANCH   8   9
ATOM      9  C   UNL     1      12.843  30.381  36.534  1.00  0.00     0.000 C 
BRANCH   9  10
ATOM     10  C   UNL     1      14.299  29.935  36.740  1.00  0.00     0.006 C 
BRANCH  10  11
ATOM     11  C   UNL     1      15.137  30.043  35.460  1.00  0.00     0.053 C 
BRANCH  11  12
ATOM     12  C   UNL     1      15.440  28.682  34.915  1.00  0.00     0.041 C 
ATOM     13  O   UNL     1      15.667  28.528  33.686  1.00  0.00    -0.550 OA
ATOM     14  O   UNL     1      15.522  27.591  35.773  1.00  0.00    -0.550 OA
ENDBRANCH  11  12
ENDBRANCH  10  11
ENDBRANCH   9  10
ENDBRANCH   8   9
ENDBRANCH   7   8
ENDBRANCH   6   7
ENDBRANCH   5   6
ENDBRANCH   4   5
ENDBRANCH   3   4
ENDBRANCH   2   3
ENDBRANCH   1   2
BRANCH   1  15
ATOM     15  C   UNL     1      16.053  22.186  34.581  1.00  0.00     0.000 C 
BRANCH  15  16
ATOM     16  C   UNL     1      16.069  20.920  33.715  1.00  0.00     0.000 C 
BRANCH  16  17
ATOM     17  C   UNL     1      15.513  19.718  34.492  1.00  0.00     0.000 C 
BRANCH  17  18
ATOM     18  C   UNL     1      15.129  20.066  35.941  1.00  0.00    -0.000 C 
BRANCH  18  19
ATOM     19  C   UNL     1      15.782  19.179  37.020  1.00  0.00    -0.000 C 
BRANCH  19  20
ATOM     20  C   UNL     1      16.609  17.995  36.481  1.00  0.00    -0.000 C 
BRANCH  20  21
ATOM     21  C   UNL     1      15.834  16.668  36.347  1.00  0.00    -0.000 C 
BRANCH  21  22
ATOM     22  C   UNL     1      16.478  15.632  35.405  1.00  0.00    -0.000 C 
BRANCH  22  23
ATOM     23  C   UNL     1      16.432  15.993  33.907  1.00  0.00    -0.000 C 
BRANCH  23  24
ATOM     24  C   UNL     1      16.176  14.806  32.957  1.00  0.00    -0.000 C 
BRANCH  24  25
ATOM     25  C   UNL     1      14.985  13.912  33.343  1.00  0.00    -0.003 C 
ATOM     26  C   UNL     1      14.408  13.143  32.154  1.00  0.00     0.004 C 
ENDBRANCH  24  25
ENDBRANCH  23  24
ENDBRANCH  22  23
ENDBRANCH  21  22
ENDBRANCH  20  21
ENDBRANCH  19  20
ENDBRANCH  18  19
ENDBRANCH  17  18
ENDBRANCH  16  17
ENDBRANCH  15  16
ENDBRANCH   1  15
TORSDOF 22
ENDMDL
