MODEL 1
REMARK VINA RESULT:    -1.709      0.000      0.000
REMARK INTER + INTRA:          -2.225
REMARK INTER:                  -2.109
REMARK INTRA:                  -0.116
REMARK UNBOUND:                -0.116
REMARK SMILES CC(C)=CCC[C@H](C)c1ccc(C)cc1
REMARK SMILES IDX 6 1 7 2 8 3 9 4 13 5 12 6 11 7 14 8 10 9 15 10 5 11 4 12
REMARK SMILES IDX 2 13 1 14 3 15
REMARK H PARENT
REMARK Flexibility Score: inf
ROOT
ATOM      1  C   UNL     1      -9.440  -1.511  12.834  1.00  0.00     0.012 C 
ENDROOT
BRANCH   1   2
ATOM      2  C   UNL     1     -10.807  -2.163  12.522  1.00  0.00     0.016 C 
ATOM      3  C   UNL     1     -11.070  -3.406  13.388  1.00  0.00     0.013 C 
BRANCH   2   4
ATOM      4  C   UNL     1     -10.899  -2.518  11.049  1.00  0.00    -0.045 A 
ATOM      5  C   UNL     1     -11.125  -3.494   6.847  1.00  0.00     0.044 C 
ATOM      6  C   UNL     1     -11.077  -3.157   8.308  1.00  0.00    -0.051 A 
ATOM      7  C   UNL     1     -11.125  -1.820   8.728  1.00  0.00     0.004 A 
ATOM      8  C   UNL     1     -10.914  -4.172   9.261  1.00  0.00     0.004 A 
ATOM      9  C   UNL     1     -11.043  -1.504  10.086  1.00  0.00     0.004 A 
ATOM     10  C   UNL     1     -10.832  -3.857  10.620  1.00  0.00     0.004 A 
ENDBRANCH   2   4
ENDBRANCH   1   2
BRANCH   1  11
ATOM     11  C   UNL     1      -9.511  -0.510  13.996  1.00  0.00     0.028 C 
BRANCH  11  12
ATOM     12  C   UNL     1      -8.922  -1.106  15.250  1.00  0.00    -0.028 C 
ATOM     13  C   UNL     1      -9.629  -1.806  16.167  1.00  0.00    -0.080 C 
ATOM     14  C   UNL     1      -8.930  -2.380  17.373  1.00  0.00     0.039 C 
ATOM     15  C   UNL     1     -11.121  -1.998  16.054  1.00  0.00     0.039 C 
ENDBRANCH  11  12
ENDBRANCH   1  11
TORSDOF 4
ENDMDL
MODEL 2
REMARK VINA RESULT:    -0.720     15.838     17.020
REMARK INTER + INTRA:          -1.004
REMARK INTER:                  -0.202
REMARK INTRA:                  -0.802
REMARK UNBOUND:                -0.116
REMARK SMILES CC(C)=CCC[C@H](C)c1ccc(C)cc1
REMARK SMILES IDX 6 1 7 2 8 3 9 4 13 5 12 6 11 7 14 8 10 9 15 10 5 11 4 12
REMARK SMILES IDX 2 13 1 14 3 15
REMARK H PARENT
REMARK Flexibility Score: inf
ROOT
ATOM      1  C   UNL     1      -4.312 -15.409  21.600  1.00  0.00     0.012 C 
ENDROOT
BRANCH   1   2
ATOM      2  C   UNL     1      -5.017 -14.648  22.747  1.00  0.00     0.016 C 
ATOM      3  C   UNL     1      -4.720 -15.266  24.123  1.00  0.00     0.013 C 
BRANCH   2   4
ATOM      4  C   UNL     1      -6.514 -14.596  22.505  1.00  0.00    -0.045 A 
ATOM      5  C   UNL     1     -10.775 -14.496  21.801  1.00  0.00     0.044 C 
ATOM      6  C   UNL     1      -9.293 -14.502  22.034  1.00  0.00    -0.051 A 
ATOM      7  C   UNL     1      -8.424 -14.987  21.047  1.00  0.00     0.004 A 
ATOM      8  C   UNL     1      -8.771 -14.087  23.268  1.00  0.00     0.004 A 
ATOM      9  C   UNL     1      -7.046 -15.028  21.278  1.00  0.00     0.004 A 
ATOM     10  C   UNL     1      -7.393 -14.127  23.499  1.00  0.00     0.004 A 
ENDBRANCH   2   4
ENDBRANCH   1   2
BRANCH   1  11
ATOM     11  C   UNL     1      -2.809 -15.106  21.522  1.00  0.00     0.028 C 
BRANCH  11  12
ATOM     12  C   UNL     1      -2.550 -13.636  21.737  1.00  0.00    -0.028 C 
ATOM     13  C   UNL     1      -1.828 -13.130  22.763  1.00  0.00    -0.080 C 
ATOM     14  C   UNL     1      -1.611 -11.642  22.864  1.00  0.00     0.039 C 
ATOM     15  C   UNL     1      -1.264 -14.005  23.854  1.00  0.00     0.039 C 
ENDBRANCH  11  12
ENDBRANCH   1  11
TORSDOF 4
ENDMDL
MODEL 3
REMARK VINA RESULT:    -0.017     15.879     17.479
REMARK INTER + INTRA:          -0.137
REMARK INTER:                   0.443
REMARK INTRA:                  -0.580
REMARK UNBOUND:                -0.116
REMARK SMILES CC(C)=CCC[C@H](C)c1ccc(C)cc1
REMARK SMILES IDX 6 1 7 2 8 3 9 4 13 5 12 6 11 7 14 8 10 9 15 10 5 11 4 12
REMARK SMILES IDX 2 13 1 14 3 15
REMARK H PARENT
REMARK Flexibility Score: inf
ROOT
ATOM      1  C   UNL     1      -7.033 -13.777  22.350  1.00  0.00     0.012 C 
ENDROOT
BRANCH   1   2
ATOM      2  C   UNL     1      -6.017 -14.809  21.810  1.00  0.00     0.016 C 
ATOM      3  C   UNL     1      -6.464 -16.257  22.071  1.00  0.00     0.013 C 
BRANCH   2   4
ATOM      4  C   UNL     1      -4.645 -14.565  22.413  1.00  0.00    -0.045 A 
ATOM      5  C   UNL     1      -0.731 -13.921  24.125  1.00  0.00     0.044 C 
ATOM      6  C   UNL     1      -2.103 -14.125  23.551  1.00  0.00    -0.051 A 
ATOM      7  C   UNL     1      -2.932 -15.141  24.044  1.00  0.00     0.004 A 
ATOM      8  C   UNL     1      -2.538 -13.345  22.469  1.00  0.00     0.004 A 
ATOM      9  C   UNL     1      -4.195 -15.355  23.485  1.00  0.00     0.004 A 
ATOM     10  C   UNL     1      -3.800 -13.558  21.909  1.00  0.00     0.004 A 
ENDBRANCH   2   4
ENDBRANCH   1   2
BRANCH   1  11
ATOM     11  C   UNL     1      -7.643 -14.193  23.696  1.00  0.00     0.028 C 
BRANCH  11  12
ATOM     12  C   UNL     1      -8.756 -13.255  24.090  1.00  0.00    -0.028 C 
ATOM     13  C   UNL     1     -10.027 -13.347  23.636  1.00  0.00    -0.080 C 
ATOM     14  C   UNL     1     -11.068 -12.369  24.119  1.00  0.00     0.039 C 
ATOM     15  C   UNL     1     -10.441 -14.375  22.612  1.00  0.00     0.039 C 
ENDBRANCH  11  12
ENDBRANCH   1  11
TORSDOF 4
ENDMDL
MODEL 4
REMARK VINA RESULT:     0.132     15.727     17.003
REMARK INTER + INTRA:           0.047
REMARK INTER:                   0.662
REMARK INTRA:                  -0.615
REMARK UNBOUND:                -0.116
REMARK SMILES CC(C)=CCC[C@H](C)c1ccc(C)cc1
REMARK SMILES IDX 6 1 7 2 8 3 9 4 13 5 12 6 11 7 14 8 10 9 15 10 5 11 4 12
REMARK SMILES IDX 2 13 1 14 3 15
REMARK H PARENT
REMARK Flexibility Score: inf
ROOT
ATOM      1  C   UNL     1      -5.237 -15.070  22.922  1.00  0.00     0.012 C 
ENDROOT
BRANCH   1   2
ATOM      2  C   UNL     1      -6.446 -15.259  21.977  1.00  0.00     0.016 C 
ATOM      3  C   UNL     1      -6.152 -14.768  20.550  1.00  0.00     0.013 C 
BRANCH   2   4
ATOM      4  C   UNL     1      -7.668 -14.553  22.535  1.00  0.00    -0.045 A 
ATOM      5  C   UNL     1     -11.122 -12.497  24.120  1.00  0.00     0.044 C 
ATOM      6  C   UNL     1      -9.927 -13.234  23.590  1.00  0.00    -0.051 A 
ATOM      7  C   UNL     1      -8.653 -12.991  24.122  1.00  0.00     0.004 A 
ATOM      8  C   UNL     1     -10.065 -14.120  22.511  1.00  0.00     0.004 A 
ATOM      9  C   UNL     1      -7.535 -13.650  23.604  1.00  0.00     0.004 A 
ATOM     10  C   UNL     1      -8.947 -14.778  21.992  1.00  0.00     0.004 A 
ENDBRANCH   2   4
ENDBRANCH   1   2
BRANCH   1  11
ATOM     11  C   UNL     1      -3.897 -15.373  22.237  1.00  0.00     0.028 C 
BRANCH  11  12
ATOM     12  C   UNL     1      -2.744 -14.921  23.098  1.00  0.00    -0.028 C 
ATOM     13  C   UNL     1      -2.103 -13.739  22.956  1.00  0.00    -0.080 C 
ATOM     14  C   UNL     1      -0.978 -13.379  23.892  1.00  0.00     0.039 C 
ATOM     15  C   UNL     1      -2.442 -12.770  21.850  1.00  0.00     0.039 C 
ENDBRANCH  11  12
ENDBRANCH   1  11
TORSDOF 4
ENDMDL
MODEL 5
REMARK VINA RESULT:     0.716     15.767     17.005
REMARK INTER + INTRA:           0.768
REMARK INTER:                   0.283
REMARK INTRA:                   0.485
REMARK UNBOUND:                -0.116
REMARK SMILES CC(C)=CCC[C@H](C)c1ccc(C)cc1
REMARK SMILES IDX 6 1 7 2 8 3 9 4 13 5 12 6 11 7 14 8 10 9 15 10 5 11 4 12
REMARK SMILES IDX 2 13 1 14 3 15
REMARK H PARENT
REMARK Flexibility Score: inf
ROOT
ATOM      1  C   UNL     1      -7.005 -15.815  21.773  1.00  0.00     0.012 C 
ENDROOT
BRANCH   1   2
ATOM      2  C   UNL     1      -6.114 -15.565  23.012  1.00  0.00     0.016 C 
ATOM      3  C   UNL     1      -6.863 -14.813  24.125  1.00  0.00     0.013 C 
BRANCH   2   4
ATOM      4  C   UNL     1      -4.860 -14.807  22.616  1.00  0.00    -0.045 A 
ATOM      5  C   UNL     1      -1.294 -12.622  21.534  1.00  0.00     0.044 C 
ATOM      6  C   UNL     1      -2.541 -13.380  21.880  1.00  0.00    -0.051 A 
ATOM      7  C   UNL     1      -3.702 -12.694  22.265  1.00  0.00     0.004 A 
ATOM      8  C   UNL     1      -2.535 -14.783  21.889  1.00  0.00     0.004 A 
ATOM      9  C   UNL     1      -4.853 -13.401  22.623  1.00  0.00     0.004 A 
ATOM     10  C   UNL     1      -3.686 -15.490  22.247  1.00  0.00     0.004 A 
ENDBRANCH   2   4
ENDBRANCH   1   2
BRANCH   1  11
ATOM     11  C   UNL     1      -7.723 -14.545  21.293  1.00  0.00     0.028 C 
BRANCH  11  12
ATOM     12  C   UNL     1      -8.613 -13.993  22.378  1.00  0.00    -0.028 C 
ATOM     13  C   UNL     1      -9.935 -14.258  22.488  1.00  0.00    -0.080 C 
ATOM     14  C   UNL     1     -10.724 -13.672  23.631  1.00  0.00     0.039 C 
ATOM     15  C   UNL     1     -10.674 -15.090  21.470  1.00  0.00     0.039 C 
ENDBRANCH  11  12
ENDBRANCH   1  11
TORSDOF 4
ENDMDL
MODEL 6
REMARK VINA RESULT:     1.151     15.231     17.722
REMARK INTER + INTRA:           1.304
REMARK INTER:                   2.045
REMARK INTRA:                  -0.741
REMARK UNBOUND:                -0.116
REMARK SMILES CC(C)=CCC[C@H](C)c1ccc(C)cc1
REMARK SMILES IDX 6 1 7 2 8 3 9 4 13 5 12 6 11 7 14 8 10 9 15 10 5 11 4 12
REMARK SMILES IDX 2 13 1 14 3 15
REMARK H PARENT
REMARK Flexibility Score: inf
ROOT
ATOM      1  C   UNL     1      -6.627 -14.684  23.242  1.00  0.00     0.012 C 
ENDROOT
BRANCH   1   2
ATOM      2  C   UNL     1      -5.559 -15.043  22.184  1.00  0.00     0.016 C 
ATOM      3  C   UNL     1      -5.610 -16.528  21.786  1.00  0.00     0.013 C 
BRANCH   2   4
ATOM      4  C   UNL     1      -4.173 -14.680  22.686  1.00  0.00    -0.045 A 
ATOM      5  C   UNL     1      -0.246 -13.599  24.125  1.00  0.00     0.044 C 
ATOM      6  C   UNL     1      -1.597 -13.992  23.603  1.00  0.00    -0.051 A 
ATOM      7  C   UNL     1      -2.242 -13.199  22.643  1.00  0.00     0.004 A 
ATOM      8  C   UNL     1      -2.255 -15.116  24.122  1.00  0.00     0.004 A 
ATOM      9  C   UNL     1      -3.516 -13.544  22.184  1.00  0.00     0.004 A 
ATOM     10  C   UNL     1      -3.529 -15.462  23.664  1.00  0.00     0.004 A 
ENDBRANCH   2   4
ENDBRANCH   1   2
BRANCH   1  11
ATOM     11  C   UNL     1      -7.635 -13.641  22.738  1.00  0.00     0.028 C 
BRANCH  11  12
ATOM     12  C   UNL     1      -8.976 -14.279  22.477  1.00  0.00    -0.028 C 
ATOM     13  C   UNL     1      -9.343 -14.826  21.296  1.00  0.00    -0.080 C 
ATOM     14  C   UNL     1     -10.703 -15.461  21.155  1.00  0.00     0.039 C 
ATOM     15  C   UNL     1      -8.451 -14.783  20.080  1.00  0.00     0.039 C 
ENDBRANCH  11  12
ENDBRANCH   1  11
TORSDOF 4
ENDMDL
