MODEL 1
REMARK VINA RESULT:    -5.475      0.000      0.000
REMARK INTER + INTRA:         -17.443
REMARK INTER:                 -13.796
REMARK INTRA:                  -3.646
REMARK UNBOUND:                -3.646
REMARK SMILES CCCCCCCCCCCCCCCCCCCCCCCCCCCC(=O)[O-]
REMARK SMILES IDX 15 1 16 2 17 3 18 4 19 5 20 6 21 7 22 8 23 9 24 10 25 11
REMARK SMILES IDX 26 12 27 13 28 14 29 15 30 16 14 17 13 18 12 19 11 20 10 21
REMARK SMILES IDX 9 22 8 23 7 24 6 25 5 26 4 27 3 28 2 29 1 30
REMARK H PARENT
REMARK Flexibility Score: inf
ROOT
ATOM      1  C   UNL     1     253.848 260.872 247.350  1.00  0.00     0.000 C 
ENDROOT
BRANCH   1   2
ATOM      2  C   UNL     1     254.614 260.553 246.052  1.00  0.00     0.000 C 
BRANCH   2   3
ATOM      3  C   UNL     1     255.993 261.240 245.990  1.00  0.00     0.000 C 
BRANCH   3   4
ATOM      4  C   UNL     1     256.780 260.845 244.730  1.00  0.00     0.000 C 
BRANCH   4   5
ATOM      5  C   UNL     1     258.113 261.611 244.632  1.00  0.00     0.000 C 
BRANCH   5   6
ATOM      6  C   UNL     1     258.655 262.042 246.003  1.00  0.00     0.000 C 
BRANCH   6   7
ATOM      7  C   UNL     1     259.351 260.895 246.756  1.00  0.00     0.000 C 
BRANCH   7   8
ATOM      8  C   UNL     1     259.331 261.088 248.280  1.00  0.00     0.000 C 
BRANCH   8   9
ATOM      9  C   UNL     1     258.548 262.343 248.707  1.00  0.00     0.000 C 
BRANCH   9  10
ATOM     10  C   UNL     1     257.607 262.078 249.896  1.00  0.00     0.000 C 
BRANCH  10  11
ATOM     11  C   UNL     1     256.610 260.920 249.691  1.00  0.00     0.000 C 
BRANCH  11  12
ATOM     12  C   UNL     1     255.478 260.882 250.739  1.00  0.00     0.006 C 
BRANCH  12  13
ATOM     13  C   UNL     1     255.563 262.051 251.731  1.00  0.00     0.053 C 
BRANCH  13  14
ATOM     14  C   UNL     1     255.554 261.542 253.139  1.00  0.00     0.041 C 
ATOM     15  O   UNL     1     254.957 260.470 253.421  1.00  0.00    -0.550 OA
ATOM     16  O   UNL     1     256.248 262.226 254.132  1.00  0.00    -0.550 OA
ENDBRANCH  13  14
ENDBRANCH  12  13
ENDBRANCH  11  12
ENDBRANCH  10  11
ENDBRANCH   9  10
ENDBRANCH   8   9
ENDBRANCH   7   8
ENDBRANCH   6   7
ENDBRANCH   5   6
ENDBRANCH   4   5
ENDBRANCH   3   4
ENDBRANCH   2   3
ENDBRANCH   1   2
BRANCH   1  17
ATOM     17  C   UNL     1     252.315 260.951 247.177  1.00  0.00     0.000 C 
BRANCH  17  18
ATOM     18  C   UNL     1     251.590 259.592 247.175  1.00  0.00     0.000 C 
BRANCH  18  19
ATOM     19  C   UNL     1     250.099 259.707 246.811  1.00  0.00     0.000 C 
BRANCH  19  20
ATOM     20  C   UNL     1     249.253 258.573 247.419  1.00  0.00     0.000 C 
BRANCH  20  21
ATOM     21  C   UNL     1     249.917 257.180 247.379  1.00  0.00     0.000 C 
BRANCH  21  22
ATOM     22  C   UNL     1     249.716 256.395 246.066  1.00  0.00    -0.000 C 
BRANCH  22  23
ATOM     23  C   UNL     1     250.288 254.966 246.071  1.00  0.00    -0.000 C 
BRANCH  23  24
ATOM     24  C   UNL     1     251.750 254.916 246.537  1.00  0.00    -0.000 C 
BRANCH  24  25
ATOM     25  C   UNL     1     252.679 255.593 245.516  1.00  0.00    -0.000 C 
BRANCH  25  26
ATOM     26  C   UNL     1     253.530 256.717 246.137  1.00  0.00    -0.000 C 
BRANCH  26  27
ATOM     27  C   UNL     1     253.584 256.721 247.679  1.00  0.00    -0.000 C 
BRANCH  27  28
ATOM     28  C   UNL     1     254.812 257.427 248.289  1.00  0.00    -0.000 C 
BRANCH  28  29
ATOM     29  C   UNL     1     254.899 257.361 249.824  1.00  0.00    -0.003 C 
ATOM     30  C   UNL     1     255.504 256.053 250.329  1.00  0.00     0.004 C 
ENDBRANCH  28  29
ENDBRANCH  27  28
ENDBRANCH  26  27
ENDBRANCH  25  26
ENDBRANCH  24  25
ENDBRANCH  23  24
ENDBRANCH  22  23
ENDBRANCH  21  22
ENDBRANCH  20  21
ENDBRANCH  19  20
ENDBRANCH  18  19
ENDBRANCH  17  18
ENDBRANCH   1  17
TORSDOF 26
ENDMDL
MODEL 2
REMARK VINA RESULT:    -5.434      3.028      5.274
REMARK INTER + INTRA:         -17.341
REMARK INTER:                 -12.448
REMARK INTRA:                  -4.893
REMARK UNBOUND:                -3.646
REMARK SMILES CCCCCCCCCCCCCCCCCCCCCCCCCCCC(=O)[O-]
REMARK SMILES IDX 15 1 16 2 17 3 18 4 19 5 20 6 21 7 22 8 23 9 24 10 25 11
REMARK SMILES IDX 26 12 27 13 28 14 29 15 30 16 14 17 13 18 12 19 11 20 10 21
REMARK SMILES IDX 9 22 8 23 7 24 6 25 5 26 4 27 3 28 2 29 1 30
REMARK H PARENT
REMARK Flexibility Score: inf
ROOT
ATOM      1  C   UNL     1     252.287 260.832 247.192  1.00  0.00     0.000 C 
ENDROOT
BRANCH   1   2
ATOM      2  C   UNL     1     253.827 260.884 247.193  1.00  0.00     0.000 C 
BRANCH   2   3
ATOM      3  C   UNL     1     254.421 260.880 248.616  1.00  0.00     0.000 C 
BRANCH   3   4
ATOM      4  C   UNL     1     255.841 260.290 248.648  1.00  0.00     0.000 C 
BRANCH   4   5
ATOM      5  C   UNL     1     255.815 258.765 248.868  1.00  0.00     0.000 C 
BRANCH   5   6
ATOM      6  C   UNL     1     254.636 258.309 249.741  1.00  0.00     0.000 C 
BRANCH   6   7
ATOM      7  C   UNL     1     253.838 257.155 249.108  1.00  0.00     0.000 C 
BRANCH   7   8
ATOM      8  C   UNL     1     254.388 256.737 247.736  1.00  0.00     0.000 C 
BRANCH   8   9
ATOM      9  C   UNL     1     254.841 255.266 247.704  1.00  0.00     0.000 C 
BRANCH   9  10
ATOM     10  C   UNL     1     256.336 255.098 248.029  1.00  0.00     0.000 C 
BRANCH  10  11
ATOM     11  C   UNL     1     256.670 255.001 249.531  1.00  0.00     0.000 C 
BRANCH  11  12
ATOM     12  C   UNL     1     255.849 253.931 250.282  1.00  0.00     0.006 C 
BRANCH  12  13
ATOM     13  C   UNL     1     255.081 254.517 251.476  1.00  0.00     0.053 C 
BRANCH  13  14
ATOM     14  C   UNL     1     255.437 253.789 252.734  1.00  0.00     0.041 C 
ATOM     15  O   UNL     1     256.268 254.286 253.539  1.00  0.00    -0.550 OA
ATOM     16  O   UNL     1     254.814 252.584 253.043  1.00  0.00    -0.550 OA
ENDBRANCH  13  14
ENDBRANCH  12  13
ENDBRANCH  11  12
ENDBRANCH  10  11
ENDBRANCH   9  10
ENDBRANCH   8   9
ENDBRANCH   7   8
ENDBRANCH   6   7
ENDBRANCH   5   6
ENDBRANCH   4   5
ENDBRANCH   3   4
ENDBRANCH   2   3
ENDBRANCH   1   2
BRANCH   1  17
ATOM     17  C   UNL     1     251.704 259.402 247.136  1.00  0.00     0.000 C 
BRANCH  17  18
ATOM     18  C   UNL     1     250.165 259.328 247.135  1.00  0.00     0.000 C 
BRANCH  18  19
ATOM     19  C   UNL     1     249.633 257.898 246.927  1.00  0.00     0.000 C 
BRANCH  19  20
ATOM     20  C   UNL     1     250.659 256.822 247.331  1.00  0.00     0.000 C 
BRANCH  20  21
ATOM     21  C   UNL     1     251.181 255.958 246.164  1.00  0.00     0.000 C 
BRANCH  21  22
ATOM     22  C   UNL     1     250.206 254.869 245.668  1.00  0.00    -0.000 C 
BRANCH  22  23
ATOM     23  C   UNL     1     249.665 253.933 246.764  1.00  0.00    -0.000 C 
BRANCH  23  24
ATOM     24  C   UNL     1     249.722 252.453 246.359  1.00  0.00    -0.000 C 
BRANCH  24  25
ATOM     25  C   UNL     1     250.592 251.646 247.335  1.00  0.00    -0.000 C 
BRANCH  25  26
ATOM     26  C   UNL     1     252.098 251.922 247.160  1.00  0.00    -0.000 C 
BRANCH  26  27
ATOM     27  C   UNL     1     252.762 252.683 248.326  1.00  0.00    -0.000 C 
BRANCH  27  28
ATOM     28  C   UNL     1     251.880 252.857 249.581  1.00  0.00    -0.000 C 
BRANCH  28  29
ATOM     29  C   UNL     1     251.596 254.318 249.972  1.00  0.00    -0.003 C 
ATOM     30  C   UNL     1     250.487 254.448 251.015  1.00  0.00     0.004 C 
ENDBRANCH  28  29
ENDBRANCH  27  28
ENDBRANCH  26  27
ENDBRANCH  25  26
ENDBRANCH  24  25
ENDBRANCH  23  24
ENDBRANCH  22  23
ENDBRANCH  21  22
ENDBRANCH  20  21
ENDBRANCH  19  20
ENDBRANCH  18  19
ENDBRANCH  17  18
ENDBRANCH   1  17
TORSDOF 26
ENDMDL
MODEL 3
REMARK VINA RESULT:    -5.431      2.728      8.660
REMARK INTER + INTRA:         -17.333
REMARK INTER:                 -14.121
REMARK INTRA:                  -3.212
REMARK UNBOUND:                -3.646
REMARK SMILES CCCCCCCCCCCCCCCCCCCCCCCCCCCC(=O)[O-]
REMARK SMILES IDX 15 1 16 2 17 3 18 4 19 5 20 6 21 7 22 8 23 9 24 10 25 11
REMARK SMILES IDX 26 12 27 13 28 14 29 15 30 16 14 17 13 18 12 19 11 20 10 21
REMARK SMILES IDX 9 22 8 23 7 24 6 25 5 26 4 27 3 28 2 29 1 30
REMARK H PARENT
REMARK Flexibility Score: inf
ROOT
ATOM      1  C   UNL     1     253.069 259.204 246.593  1.00  0.00     0.000 C 
ENDROOT
BRANCH   1   2
ATOM      2  C   UNL     1     252.411 260.501 247.100  1.00  0.00     0.000 C 
BRANCH   2   3
ATOM      3  C   UNL     1     250.879 260.380 247.229  1.00  0.00     0.000 C 
BRANCH   3   4
ATOM      4  C   UNL     1     250.158 261.660 246.774  1.00  0.00     0.000 C 
BRANCH   4   5
ATOM      5  C   UNL     1     248.789 261.344 246.142  1.00  0.00     0.000 C 
BRANCH   5   6
ATOM      6  C   UNL     1     248.454 259.845 246.165  1.00  0.00     0.000 C 
BRANCH   6   7
ATOM      7  C   UNL     1     247.457 259.440 245.066  1.00  0.00     0.000 C 
BRANCH   7   8
ATOM      8  C   UNL     1     247.068 257.956 245.135  1.00  0.00     0.000 C 
BRANCH   8   9
ATOM      9  C   UNL     1     247.580 257.269 246.414  1.00  0.00     0.000 C 
BRANCH   9  10
ATOM     10  C   UNL     1     248.426 256.018 246.118  1.00  0.00     0.000 C 
BRANCH  10  11
ATOM     11  C   UNL     1     249.951 256.249 246.117  1.00  0.00     0.000 C 
BRANCH  11  12
ATOM     12  C   UNL     1     250.715 255.349 245.124  1.00  0.00     0.006 C 
BRANCH  12  13
ATOM     13  C   UNL     1     252.235 255.397 245.344  1.00  0.00     0.053 C 
BRANCH  13  14
ATOM     14  C   UNL     1     252.602 254.688 246.610  1.00  0.00     0.041 C 
ATOM     15  O   UNL     1     253.292 255.274 247.486  1.00  0.00    -0.550 OA
ATOM     16  O   UNL     1     252.141 253.397 246.846  1.00  0.00    -0.550 OA
ENDBRANCH  13  14
ENDBRANCH  12  13
ENDBRANCH  11  12
ENDBRANCH  10  11
ENDBRANCH   9  10
ENDBRANCH   8   9
ENDBRANCH   7   8
ENDBRANCH   6   7
ENDBRANCH   5   6
ENDBRANCH   4   5
ENDBRANCH   3   4
ENDBRANCH   2   3
ENDBRANCH   1   2
BRANCH   1  17
ATOM     17  C   UNL     1     254.210 259.429 245.575  1.00  0.00     0.000 C 
BRANCH  17  18
ATOM     18  C   UNL     1     254.659 260.894 245.416  1.00  0.00     0.000 C 
BRANCH  18  19
ATOM     19  C   UNL     1     256.131 261.116 245.808  1.00  0.00     0.000 C 
BRANCH  19  20
ATOM     20  C   UNL     1     257.086 260.998 244.607  1.00  0.00     0.000 C 
BRANCH  20  21
ATOM     21  C   UNL     1     258.384 261.822 244.730  1.00  0.00     0.000 C 
BRANCH  21  22
ATOM     22  C   UNL     1     258.576 262.545 246.080  1.00  0.00    -0.000 C 
BRANCH  22  23
ATOM     23  C   UNL     1     259.692 261.969 246.971  1.00  0.00    -0.000 C 
BRANCH  23  24
ATOM     24  C   UNL     1     259.403 262.148 248.469  1.00  0.00    -0.000 C 
BRANCH  24  25
ATOM     25  C   UNL     1     258.187 261.313 248.901  1.00  0.00    -0.000 C 
BRANCH  25  26
ATOM     26  C   UNL     1     257.335 262.012 249.978  1.00  0.00    -0.000 C 
BRANCH  26  27
ATOM     27  C   UNL     1     256.104 261.215 250.456  1.00  0.00    -0.000 C 
BRANCH  27  28
ATOM     28  C   UNL     1     255.465 260.297 249.393  1.00  0.00    -0.000 C 
BRANCH  28  29
ATOM     29  C   UNL     1     255.169 258.864 249.869  1.00  0.00    -0.003 C 
ATOM     30  C   UNL     1     255.541 257.805 248.833  1.00  0.00     0.004 C 
ENDBRANCH  28  29
ENDBRANCH  27  28
ENDBRANCH  26  27
ENDBRANCH  25  26
ENDBRANCH  24  25
ENDBRANCH  23  24
ENDBRANCH  22  23
ENDBRANCH  21  22
ENDBRANCH  20  21
ENDBRANCH  19  20
ENDBRANCH  18  19
ENDBRANCH  17  18
ENDBRANCH   1  17
TORSDOF 26
ENDMDL
MODEL 4
REMARK VINA RESULT:    -5.398      3.308      6.579
REMARK INTER + INTRA:         -17.249
REMARK INTER:                 -12.506
REMARK INTRA:                  -4.743
REMARK UNBOUND:                -3.646
REMARK SMILES CCCCCCCCCCCCCCCCCCCCCCCCCCCC(=O)[O-]
REMARK SMILES IDX 15 1 16 2 17 3 18 4 19 5 20 6 21 7 22 8 23 9 24 10 25 11
REMARK SMILES IDX 26 12 27 13 28 14 29 15 30 16 14 17 13 18 12 19 11 20 10 21
REMARK SMILES IDX 9 22 8 23 7 24 6 25 5 26 4 27 3 28 2 29 1 30
REMARK H PARENT
REMARK Flexibility Score: inf
ROOT
ATOM      1  C   UNL     1     254.787 260.843 249.254  1.00  0.00     0.000 C 
ENDROOT
BRANCH   1   2
ATOM      2  C   UNL     1     255.607 259.602 249.655  1.00  0.00     0.000 C 
BRANCH   2   3
ATOM      3  C   UNL     1     254.722 258.436 250.142  1.00  0.00     0.000 C 
BRANCH   3   4
ATOM      4  C   UNL     1     255.477 257.096 250.138  1.00  0.00     0.000 C 
BRANCH   4   5
ATOM      5  C   UNL     1     256.172 256.843 248.787  1.00  0.00     0.000 C 
BRANCH   5   6
ATOM      6  C   UNL     1     257.106 255.623 248.817  1.00  0.00     0.000 C 
BRANCH   6   7
ATOM      7  C   UNL     1     256.493 254.388 248.136  1.00  0.00     0.000 C 
BRANCH   7   8
ATOM      8  C   UNL     1     255.823 253.431 249.135  1.00  0.00     0.000 C 
BRANCH   8   9
ATOM      9  C   UNL     1     254.458 252.920 248.640  1.00  0.00     0.000 C 
BRANCH   9  10
ATOM     10  C   UNL     1     253.378 252.959 249.736  1.00  0.00     0.000 C 
BRANCH  10  11
ATOM     11  C   UNL     1     253.129 254.349 250.356  1.00  0.00     0.000 C 
BRANCH  11  12
ATOM     12  C   UNL     1     253.194 254.363 251.897  1.00  0.00     0.006 C 
BRANCH  12  13
ATOM     13  C   UNL     1     253.368 252.955 252.486  1.00  0.00     0.053 C 
BRANCH  13  14
ATOM     14  C   UNL     1     254.636 252.873 253.277  1.00  0.00     0.041 C 
ATOM     15  O   UNL     1     254.594 252.790 254.533  1.00  0.00    -0.550 OA
ATOM     16  O   UNL     1     255.864 252.837 252.625  1.00  0.00    -0.550 OA
ENDBRANCH  13  14
ENDBRANCH  12  13
ENDBRANCH  11  12
ENDBRANCH  10  11
ENDBRANCH   9  10
ENDBRANCH   8   9
ENDBRANCH   7   8
ENDBRANCH   6   7
ENDBRANCH   5   6
ENDBRANCH   4   5
ENDBRANCH   3   4
ENDBRANCH   2   3
ENDBRANCH   1   2
BRANCH   1  17
ATOM     17  C   UNL     1     253.987 260.675 247.942  1.00  0.00     0.000 C 
BRANCH  17  18
ATOM     18  C   UNL     1     254.743 259.960 246.807  1.00  0.00     0.000 C 
BRANCH  18  19
ATOM     19  C   UNL     1     253.907 258.860 246.129  1.00  0.00     0.000 C 
BRANCH  19  20
ATOM     20  C   UNL     1     252.596 258.567 246.881  1.00  0.00     0.000 C 
BRANCH  20  21
ATOM     21  C   UNL     1     252.535 257.183 247.560  1.00  0.00     0.000 C 
BRANCH  21  22
ATOM     22  C   UNL     1     253.461 256.111 246.947  1.00  0.00    -0.000 C 
BRANCH  22  23
ATOM     23  C   UNL     1     252.747 255.049 246.091  1.00  0.00    -0.000 C 
BRANCH  23  24
ATOM     24  C   UNL     1     251.521 254.450 246.795  1.00  0.00    -0.000 C 
BRANCH  24  25
ATOM     25  C   UNL     1     250.301 254.434 245.861  1.00  0.00    -0.000 C 
BRANCH  25  26
ATOM     26  C   UNL     1     249.978 255.823 245.277  1.00  0.00    -0.000 C 
BRANCH  26  27
ATOM     27  C   UNL     1     249.101 256.721 246.174  1.00  0.00    -0.000 C 
BRANCH  27  28
ATOM     28  C   UNL     1     247.733 256.122 246.562  1.00  0.00    -0.000 C 
BRANCH  28  29
ATOM     29  C   UNL     1     246.534 256.695 245.786  1.00  0.00    -0.003 C 
ATOM     30  C   UNL     1     246.948 257.694 244.706  1.00  0.00     0.004 C 
ENDBRANCH  28  29
ENDBRANCH  27  28
ENDBRANCH  26  27
ENDBRANCH  25  26
ENDBRANCH  24  25
ENDBRANCH  23  24
ENDBRANCH  22  23
ENDBRANCH  21  22
ENDBRANCH  20  21
ENDBRANCH  19  20
ENDBRANCH  18  19
ENDBRANCH  17  18
ENDBRANCH   1  17
TORSDOF 26
ENDMDL
MODEL 5
REMARK VINA RESULT:    -5.384      3.556      6.538
REMARK INTER + INTRA:         -17.215
REMARK INTER:                 -12.015
REMARK INTRA:                  -5.200
REMARK UNBOUND:                -3.646
REMARK SMILES CCCCCCCCCCCCCCCCCCCCCCCCCCCC(=O)[O-]
REMARK SMILES IDX 15 1 16 2 17 3 18 4 19 5 20 6 21 7 22 8 23 9 24 10 25 11
REMARK SMILES IDX 26 12 27 13 28 14 29 15 30 16 14 17 13 18 12 19 11 20 10 21
REMARK SMILES IDX 9 22 8 23 7 24 6 25 5 26 4 27 3 28 2 29 1 30
REMARK H PARENT
REMARK Flexibility Score: inf
ROOT
ATOM      1  C   UNL     1     252.719 254.910 245.760  1.00  0.00     0.000 C 
ENDROOT
BRANCH   1   2
ATOM      2  C   UNL     1     252.695 253.920 246.940  1.00  0.00     0.000 C 
BRANCH   2   3
ATOM      3  C   UNL     1     254.109 253.528 247.417  1.00  0.00     0.000 C 
BRANCH   3   4
ATOM      4  C   UNL     1     255.111 254.684 247.264  1.00  0.00     0.000 C 
BRANCH   4   5
ATOM      5  C   UNL     1     256.433 254.387 247.999  1.00  0.00     0.000 C 
BRANCH   5   6
ATOM      6  C   UNL     1     256.968 255.600 248.776  1.00  0.00     0.000 C 
BRANCH   6   7
ATOM      7  C   UNL     1     255.868 256.615 249.128  1.00  0.00     0.000 C 
BRANCH   7   8
ATOM      8  C   UNL     1     255.167 256.293 250.457  1.00  0.00     0.000 C 
BRANCH   8   9
ATOM      9  C   UNL     1     256.118 255.654 251.486  1.00  0.00     0.000 C 
BRANCH   9  10
ATOM     10  C   UNL     1     255.699 254.225 251.873  1.00  0.00     0.000 C 
BRANCH  10  11
ATOM     11  C   UNL     1     254.549 253.634 251.032  1.00  0.00     0.000 C 
BRANCH  11  12
ATOM     12  C   UNL     1     253.157 253.803 251.676  1.00  0.00     0.006 C 
BRANCH  12  13
ATOM     13  C   UNL     1     252.038 253.893 250.628  1.00  0.00     0.053 C 
BRANCH  13  14
ATOM     14  C   UNL     1     251.507 252.530 250.313  1.00  0.00     0.041 C 
ATOM     15  O   UNL     1     251.817 251.547 251.037  1.00  0.00    -0.550 OA
ATOM     16  O   UNL     1     250.629 252.352 249.249  1.00  0.00    -0.550 OA
ENDBRANCH  13  14
ENDBRANCH  12  13
ENDBRANCH  11  12
ENDBRANCH  10  11
ENDBRANCH   9  10
ENDBRANCH   8   9
ENDBRANCH   7   8
ENDBRANCH   6   7
ENDBRANCH   5   6
ENDBRANCH   4   5
ENDBRANCH   3   4
ENDBRANCH   2   3
ENDBRANCH   1   2
BRANCH   1  17
ATOM     17  C   UNL     1     251.336 255.161 245.117  1.00  0.00     0.000 C 
BRANCH  17  18
ATOM     18  C   UNL     1     250.179 254.348 245.728  1.00  0.00     0.000 C 
BRANCH  18  19
ATOM     19  C   UNL     1     249.180 255.220 246.509  1.00  0.00     0.000 C 
BRANCH  19  20
ATOM     20  C   UNL     1     249.419 256.727 246.296  1.00  0.00     0.000 C 
BRANCH  20  21
ATOM     21  C   UNL     1     249.892 257.489 247.552  1.00  0.00     0.000 C 
BRANCH  21  22
ATOM     22  C   UNL     1     250.993 256.784 248.371  1.00  0.00    -0.000 C 
BRANCH  22  23
ATOM     23  C   UNL     1     252.363 257.486 248.356  1.00  0.00    -0.000 C 
BRANCH  23  24
ATOM     24  C   UNL     1     252.503 258.484 247.197  1.00  0.00    -0.000 C 
BRANCH  24  25
ATOM     25  C   UNL     1     253.817 258.263 246.432  1.00  0.00    -0.000 C 
BRANCH  25  26
ATOM     26  C   UNL     1     254.256 259.501 245.628  1.00  0.00    -0.000 C 
BRANCH  26  27
ATOM     27  C   UNL     1     255.031 260.563 246.435  1.00  0.00    -0.000 C 
BRANCH  27  28
ATOM     28  C   UNL     1     255.599 260.074 247.784  1.00  0.00    -0.000 C 
BRANCH  28  29
ATOM     29  C   UNL     1     255.093 260.847 249.015  1.00  0.00    -0.003 C 
ATOM     30  C   UNL     1     255.280 260.073 250.319  1.00  0.00     0.004 C 
ENDBRANCH  28  29
ENDBRANCH  27  28
ENDBRANCH  26  27
ENDBRANCH  25  26
ENDBRANCH  24  25
ENDBRANCH  23  24
ENDBRANCH  22  23
ENDBRANCH  21  22
ENDBRANCH  20  21
ENDBRANCH  19  20
ENDBRANCH  18  19
ENDBRANCH  17  18
ENDBRANCH   1  17
TORSDOF 26
ENDMDL
MODEL 6
REMARK VINA RESULT:    -5.348      3.203      5.643
REMARK INTER + INTRA:         -17.123
REMARK INTER:                 -12.570
REMARK INTRA:                  -4.553
REMARK UNBOUND:                -3.646
REMARK SMILES CCCCCCCCCCCCCCCCCCCCCCCCCCCC(=O)[O-]
REMARK SMILES IDX 15 1 16 2 17 3 18 4 19 5 20 6 21 7 22 8 23 9 24 10 25 11
REMARK SMILES IDX 26 12 27 13 28 14 29 15 30 16 14 17 13 18 12 19 11 20 10 21
REMARK SMILES IDX 9 22 8 23 7 24 6 25 5 26 4 27 3 28 2 29 1 30
REMARK H PARENT
REMARK Flexibility Score: inf
ROOT
ATOM      1  C   UNL     1     249.574 257.942 247.422  1.00  0.00     0.000 C 
ENDROOT
BRANCH   1   2
ATOM      2  C   UNL     1     250.106 259.370 247.198  1.00  0.00     0.000 C 
BRANCH   2   3
ATOM      3  C   UNL     1     251.610 259.399 246.857  1.00  0.00     0.000 C 
BRANCH   3   4
ATOM      4  C   UNL     1     252.248 260.762 247.171  1.00  0.00     0.000 C 
BRANCH   4   5
ATOM      5  C   UNL     1     253.775 260.732 246.968  1.00  0.00     0.000 C 
BRANCH   5   6
ATOM      6  C   UNL     1     254.553 260.801 248.291  1.00  0.00     0.000 C 
BRANCH   6   7
ATOM      7  C   UNL     1     255.437 259.564 248.527  1.00  0.00     0.000 C 
BRANCH   7   8
ATOM      8  C   UNL     1     254.720 258.250 248.184  1.00  0.00     0.000 C 
BRANCH   8   9
ATOM      9  C   UNL     1     255.096 257.104 249.141  1.00  0.00     0.000 C 
BRANCH   9  10
ATOM     10  C   UNL     1     256.235 256.225 248.596  1.00  0.00     0.000 C 
BRANCH  10  11
ATOM     11  C   UNL     1     256.828 255.225 249.609  1.00  0.00     0.000 C 
BRANCH  11  12
ATOM     12  C   UNL     1     256.256 255.372 251.035  1.00  0.00     0.006 C 
BRANCH  12  13
ATOM     13  C   UNL     1     256.239 254.039 251.797  1.00  0.00     0.053 C 
BRANCH  13  14
ATOM     14  C   UNL     1     255.373 254.143 253.012  1.00  0.00     0.041 C 
ATOM     15  O   UNL     1     255.886 254.095 254.161  1.00  0.00    -0.550 OA
ATOM     16  O   UNL     1     254.003 254.344 252.878  1.00  0.00    -0.550 OA
ENDBRANCH  13  14
ENDBRANCH  12  13
ENDBRANCH  11  12
ENDBRANCH  10  11
ENDBRANCH   9  10
ENDBRANCH   8   9
ENDBRANCH   7   8
ENDBRANCH   6   7
ENDBRANCH   5   6
ENDBRANCH   4   5
ENDBRANCH   3   4
ENDBRANCH   2   3
ENDBRANCH   1   2
BRANCH   1  17
ATOM     17  C   UNL     1     248.862 257.332 246.192  1.00  0.00     0.000 C 
BRANCH  17  18
ATOM     18  C   UNL     1     248.788 255.794 246.182  1.00  0.00     0.000 C 
BRANCH  18  19
ATOM     19  C   UNL     1     250.142 255.125 246.480  1.00  0.00     0.000 C 
BRANCH  19  20
ATOM     20  C   UNL     1     251.134 255.254 245.309  1.00  0.00     0.000 C 
BRANCH  20  21
ATOM     21  C   UNL     1     252.606 255.448 245.728  1.00  0.00     0.000 C 
BRANCH  21  22
ATOM     22  C   UNL     1     252.999 254.789 247.067  1.00  0.00    -0.000 C 
BRANCH  22  23
ATOM     23  C   UNL     1     254.048 253.669 246.955  1.00  0.00    -0.000 C 
BRANCH  23  24
ATOM     24  C   UNL     1     254.289 252.948 248.289  1.00  0.00    -0.000 C 
BRANCH  24  25
ATOM     25  C   UNL     1     253.391 253.522 249.397  1.00  0.00    -0.000 C 
BRANCH  25  26
ATOM     26  C   UNL     1     252.678 252.427 250.213  1.00  0.00    -0.000 C 
BRANCH  26  27
ATOM     27  C   UNL     1     251.172 252.664 250.449  1.00  0.00    -0.000 C 
BRANCH  27  28
ATOM     28  C   UNL     1     250.306 252.689 249.173  1.00  0.00    -0.000 C 
BRANCH  28  29
ATOM     29  C   UNL     1     250.307 251.378 248.366  1.00  0.00    -0.003 C 
ATOM     30  C   UNL     1     251.046 251.501 247.034  1.00  0.00     0.004 C 
ENDBRANCH  28  29
ENDBRANCH  27  28
ENDBRANCH  26  27
ENDBRANCH  25  26
ENDBRANCH  24  25
ENDBRANCH  23  24
ENDBRANCH  22  23
ENDBRANCH  21  22
ENDBRANCH  20  21
ENDBRANCH  19  20
ENDBRANCH  18  19
ENDBRANCH  17  18
ENDBRANCH   1  17
TORSDOF 26
ENDMDL
MODEL 7
REMARK VINA RESULT:    -5.328      3.096      5.339
REMARK INTER + INTRA:         -17.073
REMARK INTER:                 -11.763
REMARK INTRA:                  -5.310
REMARK UNBOUND:                -3.646
REMARK SMILES CCCCCCCCCCCCCCCCCCCCCCCCCCCC(=O)[O-]
REMARK SMILES IDX 15 1 16 2 17 3 18 4 19 5 20 6 21 7 22 8 23 9 24 10 25 11
REMARK SMILES IDX 26 12 27 13 28 14 29 15 30 16 14 17 13 18 12 19 11 20 10 21
REMARK SMILES IDX 9 22 8 23 7 24 6 25 5 26 4 27 3 28 2 29 1 30
REMARK H PARENT
REMARK Flexibility Score: inf
ROOT
ATOM      1  C   UNL     1     254.077 260.256 246.565  1.00  0.00     0.000 C 
ENDROOT
BRANCH   1   2
ATOM      2  C   UNL     1     254.028 260.796 248.007  1.00  0.00     0.000 C 
BRANCH   2   3
ATOM      3  C   UNL     1     255.424 260.884 248.657  1.00  0.00     0.000 C 
BRANCH   3   4
ATOM      4  C   UNL     1     255.948 259.504 249.089  1.00  0.00     0.000 C 
BRANCH   4   5
ATOM      5  C   UNL     1     254.966 258.800 250.044  1.00  0.00     0.000 C 
BRANCH   5   6
ATOM      6  C   UNL     1     254.540 257.411 249.543  1.00  0.00     0.000 C 
BRANCH   6   7
ATOM      7  C   UNL     1     255.300 256.975 248.279  1.00  0.00     0.000 C 
BRANCH   7   8
ATOM      8  C   UNL     1     255.544 255.459 248.227  1.00  0.00     0.000 C 
BRANCH   8   9
ATOM      9  C   UNL     1     256.750 255.025 249.081  1.00  0.00     0.000 C 
BRANCH   9  10
ATOM     10  C   UNL     1     256.336 254.474 250.457  1.00  0.00     0.000 C 
BRANCH  10  11
ATOM     11  C   UNL     1     255.716 253.062 250.432  1.00  0.00     0.000 C 
BRANCH  11  12
ATOM     12  C   UNL     1     254.211 253.038 250.770  1.00  0.00     0.006 C 
BRANCH  12  13
ATOM     13  C   UNL     1     253.794 254.218 251.661  1.00  0.00     0.053 C 
BRANCH  13  14
ATOM     14  C   UNL     1     253.536 253.751 253.059  1.00  0.00     0.041 C 
ATOM     15  O   UNL     1     252.618 254.277 253.743  1.00  0.00    -0.550 OA
ATOM     16  O   UNL     1     254.276 252.700 253.592  1.00  0.00    -0.550 OA
ENDBRANCH  13  14
ENDBRANCH  12  13
ENDBRANCH  11  12
ENDBRANCH  10  11
ENDBRANCH   9  10
ENDBRANCH   8   9
ENDBRANCH   7   8
ENDBRANCH   6   7
ENDBRANCH   5   6
ENDBRANCH   4   5
ENDBRANCH   3   4
ENDBRANCH   2   3
ENDBRANCH   1   2
BRANCH   1  17
ATOM     17  C   UNL     1     253.108 259.082 246.297  1.00  0.00     0.000 C 
BRANCH  17  18
ATOM     18  C   UNL     1     252.073 258.827 247.409  1.00  0.00     0.000 C 
BRANCH  18  19
ATOM     19  C   UNL     1     250.643 259.223 247.000  1.00  0.00     0.000 C 
BRANCH  19  20
ATOM     20  C   UNL     1     249.606 258.143 247.359  1.00  0.00     0.000 C 
BRANCH  20  21
ATOM     21  C   UNL     1     249.035 257.369 246.153  1.00  0.00     0.000 C 
BRANCH  21  22
ATOM     22  C   UNL     1     249.261 255.843 246.185  1.00  0.00    -0.000 C 
BRANCH  22  23
ATOM     23  C   UNL     1     250.401 255.337 245.283  1.00  0.00    -0.000 C 
BRANCH  23  24
ATOM     24  C   UNL     1     251.791 255.622 245.871  1.00  0.00    -0.000 C 
BRANCH  24  25
ATOM     25  C   UNL     1     252.457 254.329 246.366  1.00  0.00    -0.000 C 
BRANCH  25  26
ATOM     26  C   UNL     1     252.304 254.123 247.885  1.00  0.00    -0.000 C 
BRANCH  26  27
ATOM     27  C   UNL     1     251.942 255.391 248.684  1.00  0.00    -0.000 C 
BRANCH  27  28
ATOM     28  C   UNL     1     250.665 255.282 249.543  1.00  0.00    -0.000 C 
BRANCH  28  29
ATOM     29  C   UNL     1     249.974 253.908 249.501  1.00  0.00    -0.003 C 
ATOM     30  C   UNL     1     249.652 253.363 250.892  1.00  0.00     0.004 C 
ENDBRANCH  28  29
ENDBRANCH  27  28
ENDBRANCH  26  27
ENDBRANCH  25  26
ENDBRANCH  24  25
ENDBRANCH  23  24
ENDBRANCH  22  23
ENDBRANCH  21  22
ENDBRANCH  20  21
ENDBRANCH  19  20
ENDBRANCH  18  19
ENDBRANCH  17  18
ENDBRANCH   1  17
TORSDOF 26
ENDMDL
MODEL 8
REMARK VINA RESULT:    -5.319      2.972      7.851
REMARK INTER + INTRA:         -17.051
REMARK INTER:                 -12.925
REMARK INTRA:                  -4.126
REMARK UNBOUND:                -3.646
REMARK SMILES CCCCCCCCCCCCCCCCCCCCCCCCCCCC(=O)[O-]
REMARK SMILES IDX 15 1 16 2 17 3 18 4 19 5 20 6 21 7 22 8 23 9 24 10 25 11
REMARK SMILES IDX 26 12 27 13 28 14 29 15 30 16 14 17 13 18 12 19 11 20 10 21
REMARK SMILES IDX 9 22 8 23 7 24 6 25 5 26 4 27 3 28 2 29 1 30
REMARK H PARENT
REMARK Flexibility Score: inf
ROOT
ATOM      1  C   UNL     1     254.680 257.187 249.330  1.00  0.00     0.000 C 
ENDROOT
BRANCH   1   2
ATOM      2  C   UNL     1     255.624 256.567 248.282  1.00  0.00     0.000 C 
BRANCH   2   3
ATOM      3  C   UNL     1     256.724 255.692 248.916  1.00  0.00     0.000 C 
BRANCH   3   4
ATOM      4  C   UNL     1     256.405 254.192 248.805  1.00  0.00     0.000 C 
BRANCH   4   5
ATOM      5  C   UNL     1     255.690 253.671 250.066  1.00  0.00     0.000 C 
BRANCH   5   6
ATOM      6  C   UNL     1     254.181 253.473 249.857  1.00  0.00     0.000 C 
BRANCH   6   7
ATOM      7  C   UNL     1     253.858 252.263 248.964  1.00  0.00     0.000 C 
BRANCH   7   8
ATOM      8  C   UNL     1     253.231 252.669 247.621  1.00  0.00     0.000 C 
BRANCH   8   9
ATOM      9  C   UNL     1     252.901 254.171 247.552  1.00  0.00     0.000 C 
BRANCH   9  10
ATOM     10  C   UNL     1     253.051 254.747 246.133  1.00  0.00     0.000 C 
BRANCH  10  11
ATOM     11  C   UNL     1     251.831 255.539 245.620  1.00  0.00     0.000 C 
BRANCH  11  12
ATOM     12  C   UNL     1     250.619 255.501 246.575  1.00  0.00     0.006 C 
BRANCH  12  13
ATOM     13  C   UNL     1     249.343 256.048 245.918  1.00  0.00     0.053 C 
BRANCH  13  14
ATOM     14  C   UNL     1     249.020 257.407 246.455  1.00  0.00     0.041 C 
ATOM     15  O   UNL     1     248.161 258.126 245.881  1.00  0.00    -0.550 OA
ATOM     16  O   UNL     1     249.633 257.861 247.618  1.00  0.00    -0.550 OA
ENDBRANCH  13  14
ENDBRANCH  12  13
ENDBRANCH  11  12
ENDBRANCH  10  11
ENDBRANCH   9  10
ENDBRANCH   8   9
ENDBRANCH   7   8
ENDBRANCH   6   7
ENDBRANCH   5   6
ENDBRANCH   4   5
ENDBRANCH   3   4
ENDBRANCH   2   3
ENDBRANCH   1   2
BRANCH   1  17
ATOM     17  C   UNL     1     253.375 257.769 248.740  1.00  0.00     0.000 C 
BRANCH  17  18
ATOM     18  C   UNL     1     253.485 258.268 247.287  1.00  0.00     0.000 C 
BRANCH  18  19
ATOM     19  C   UNL     1     252.642 259.528 247.019  1.00  0.00     0.000 C 
BRANCH  19  20
ATOM     20  C   UNL     1     253.504 260.796 246.879  1.00  0.00     0.000 C 
BRANCH  20  21
ATOM     21  C   UNL     1     254.527 260.758 245.725  1.00  0.00     0.000 C 
BRANCH  21  22
ATOM     22  C   UNL     1     255.969 261.147 246.112  1.00  0.00    -0.000 C 
BRANCH  22  23
ATOM     23  C   UNL     1     256.578 260.320 247.258  1.00  0.00    -0.000 C 
BRANCH  23  24
ATOM     24  C   UNL     1     256.732 261.129 248.554  1.00  0.00    -0.000 C 
BRANCH  24  25
ATOM     25  C   UNL     1     256.223 260.334 249.766  1.00  0.00    -0.000 C 
BRANCH  25  26
ATOM     26  C   UNL     1     255.175 261.107 250.589  1.00  0.00    -0.000 C 
BRANCH  26  27
ATOM     27  C   UNL     1     255.313 260.967 252.119  1.00  0.00    -0.000 C 
BRANCH  27  28
ATOM     28  C   UNL     1     254.080 261.416 252.932  1.00  0.00    -0.000 C 
BRANCH  28  29
ATOM     29  C   UNL     1     253.557 260.378 253.940  1.00  0.00    -0.003 C 
ATOM     30  C   UNL     1     254.376 260.338 255.229  1.00  0.00     0.004 C 
ENDBRANCH  28  29
ENDBRANCH  27  28
ENDBRANCH  26  27
ENDBRANCH  25  26
ENDBRANCH  24  25
ENDBRANCH  23  24
ENDBRANCH  22  23
ENDBRANCH  21  22
ENDBRANCH  20  21
ENDBRANCH  19  20
ENDBRANCH  18  19
ENDBRANCH  17  18
ENDBRANCH   1  17
TORSDOF 26
ENDMDL
MODEL 9
REMARK VINA RESULT:    -5.316      2.523      6.147
REMARK INTER + INTRA:         -17.042
REMARK INTER:                 -11.483
REMARK INTRA:                  -5.559
REMARK UNBOUND:                -3.646
REMARK SMILES CCCCCCCCCCCCCCCCCCCCCCCCCCCC(=O)[O-]
REMARK SMILES IDX 15 1 16 2 17 3 18 4 19 5 20 6 21 7 22 8 23 9 24 10 25 11
REMARK SMILES IDX 26 12 27 13 28 14 29 15 30 16 14 17 13 18 12 19 11 20 10 21
REMARK SMILES IDX 9 22 8 23 7 24 6 25 5 26 4 27 3 28 2 29 1 30
REMARK H PARENT
REMARK Flexibility Score: inf
ROOT
ATOM      1  C   UNL     1     255.934 253.653 251.009  1.00  0.00     0.000 C 
ENDROOT
BRANCH   1   2
ATOM      2  C   UNL     1     256.008 252.985 249.623  1.00  0.00     0.000 C 
BRANCH   2   3
ATOM      3  C   UNL     1     256.399 253.974 248.505  1.00  0.00     0.000 C 
BRANCH   3   4
ATOM      4  C   UNL     1     256.766 255.360 249.062  1.00  0.00     0.000 C 
BRANCH   4   5
ATOM      5  C   UNL     1     255.799 256.446 248.554  1.00  0.00     0.000 C 
BRANCH   5   6
ATOM      6  C   UNL     1     254.815 256.921 249.635  1.00  0.00     0.000 C 
BRANCH   6   7
ATOM      7  C   UNL     1     253.533 257.533 249.046  1.00  0.00     0.000 C 
BRANCH   7   8
ATOM      8  C   UNL     1     253.319 257.156 247.572  1.00  0.00     0.000 C 
BRANCH   8   9
ATOM      9  C   UNL     1     252.885 258.357 246.712  1.00  0.00     0.000 C 
BRANCH   9  10
ATOM     10  C   UNL     1     254.060 258.997 245.951  1.00  0.00     0.000 C 
BRANCH  10  11
ATOM     11  C   UNL     1     254.406 260.438 246.378  1.00  0.00     0.000 C 
BRANCH  11  12
ATOM     12  C   UNL     1     255.453 260.516 247.509  1.00  0.00     0.006 C 
BRANCH  12  13
ATOM     13  C   UNL     1     254.822 260.872 248.864  1.00  0.00     0.053 C 
BRANCH  13  14
ATOM     14  C   UNL     1     255.840 260.773 249.956  1.00  0.00     0.041 C 
ATOM     15  O   UNL     1     255.628 260.036 250.955  1.00  0.00    -0.550 OA
ATOM     16  O   UNL     1     257.048 261.455 249.848  1.00  0.00    -0.550 OA
ENDBRANCH  13  14
ENDBRANCH  12  13
ENDBRANCH  11  12
ENDBRANCH  10  11
ENDBRANCH   9  10
ENDBRANCH   8   9
ENDBRANCH   7   8
ENDBRANCH   6   7
ENDBRANCH   5   6
ENDBRANCH   4   5
ENDBRANCH   3   4
ENDBRANCH   2   3
ENDBRANCH   1   2
BRANCH   1  17
ATOM     17  C   UNL     1     254.513 253.700 251.614  1.00  0.00     0.000 C 
BRANCH  17  18
ATOM     18  C   UNL     1     253.419 253.039 250.754  1.00  0.00     0.000 C 
BRANCH  18  19
ATOM     19  C   UNL     1     252.495 254.062 250.069  1.00  0.00     0.000 C 
BRANCH  19  20
ATOM     20  C   UNL     1     252.491 253.920 248.535  1.00  0.00     0.000 C 
BRANCH  20  21
ATOM     21  C   UNL     1     252.706 252.482 248.019  1.00  0.00     0.000 C 
BRANCH  21  22
ATOM     22  C   UNL     1     251.518 251.880 247.240  1.00  0.00    -0.000 C 
BRANCH  22  23
ATOM     23  C   UNL     1     250.340 251.411 248.113  1.00  0.00    -0.000 C 
BRANCH  23  24
ATOM     24  C   UNL     1     249.110 252.321 247.986  1.00  0.00    -0.000 C 
BRANCH  24  25
ATOM     25  C   UNL     1     248.948 253.209 249.229  1.00  0.00    -0.000 C 
BRANCH  25  26
ATOM     26  C   UNL     1     248.787 254.701 248.881  1.00  0.00    -0.000 C 
BRANCH  26  27
ATOM     27  C   UNL     1     248.694 255.014 247.374  1.00  0.00    -0.000 C 
BRANCH  27  28
ATOM     28  C   UNL     1     249.878 255.818 246.798  1.00  0.00    -0.000 C 
BRANCH  28  29
ATOM     29  C   UNL     1     250.249 255.473 245.345  1.00  0.00    -0.003 C 
ATOM     30  C   UNL     1     251.717 255.083 245.183  1.00  0.00     0.004 C 
ENDBRANCH  28  29
ENDBRANCH  27  28
ENDBRANCH  26  27
ENDBRANCH  25  26
ENDBRANCH  24  25
ENDBRANCH  23  24
ENDBRANCH  22  23
ENDBRANCH  21  22
ENDBRANCH  20  21
ENDBRANCH  19  20
ENDBRANCH  18  19
ENDBRANCH  17  18
ENDBRANCH   1  17
TORSDOF 26
ENDMDL
