MODEL 1
REMARK VINA RESULT:    -4.228      0.000      0.000
REMARK INTER + INTRA:         -13.259
REMARK INTER:                  -9.665
REMARK INTRA:                  -3.594
REMARK UNBOUND:                -3.594
REMARK SMILES CCCCCCCCCCCCCCCCCCCCCCCC(=O)[O-]
REMARK SMILES IDX 13 1 14 2 15 3 16 4 17 5 18 6 19 7 20 8 21 9 22 10 23 11
REMARK SMILES IDX 24 12 25 13 26 14 12 15 11 16 10 17 9 18 8 19 7 20 6 21 5 22
REMARK SMILES IDX 4 23 3 24 2 25 1 26
REMARK H PARENT
REMARK Flexibility Score: inf
ROOT
ATOM      1  C   UNL     1     113.523 110.133 119.271  1.00  0.00     0.000 C 
ENDROOT
BRANCH   1   2
ATOM      2  C   UNL     1     112.194 110.671 118.720  1.00  0.00     0.000 C 
BRANCH   2   3
ATOM      3  C   UNL     1     112.343 112.041 118.037  1.00  0.00     0.000 C 
BRANCH   3   4
ATOM      4  C   UNL     1     111.015 112.561 117.462  1.00  0.00     0.000 C 
BRANCH   4   5
ATOM      5  C   UNL     1     109.869 112.547 118.492  1.00  0.00     0.000 C 
BRANCH   5   6
ATOM      6  C   UNL     1     108.576 111.856 118.024  1.00  0.00     0.000 C 
BRANCH   6   7
ATOM      7  C   UNL     1     108.217 110.621 118.871  1.00  0.00     0.000 C 
BRANCH   7   8
ATOM      8  C   UNL     1     108.871 109.336 118.338  1.00  0.00     0.000 C 
BRANCH   8   9
ATOM      9  C   UNL     1     108.195 108.066 118.884  1.00  0.00     0.000 C 
BRANCH   9  10
ATOM     10  C   UNL     1     106.927 108.364 119.705  1.00  0.00     0.006 C 
BRANCH  10  11
ATOM     11  C   UNL     1     105.798 107.337 119.508  1.00  0.00     0.053 C 
BRANCH  11  12
ATOM     12  C   UNL     1     105.394 107.195 118.072  1.00  0.00     0.041 C 
ATOM     13  O   UNL     1     104.743 108.112 117.505  1.00  0.00    -0.550 OA
ATOM     14  O   UNL     1     105.703 106.036 117.369  1.00  0.00    -0.550 OA
ENDBRANCH  11  12
ENDBRANCH  10  11
ENDBRANCH   9  10
ENDBRANCH   8   9
ENDBRANCH   7   8
ENDBRANCH   6   7
ENDBRANCH   5   6
ENDBRANCH   4   5
ENDBRANCH   3   4
ENDBRANCH   2   3
ENDBRANCH   1   2
BRANCH   1  15
ATOM     15  C   UNL     1     113.400 109.793 120.765  1.00  0.00     0.000 C 
BRANCH  15  16
ATOM     16  C   UNL     1     111.971 109.983 121.298  1.00  0.00     0.000 C 
BRANCH  16  17
ATOM     17  C   UNL     1     111.883 111.057 122.395  1.00  0.00     0.000 C 
BRANCH  17  18
ATOM     18  C   UNL     1     111.044 112.275 121.950  1.00  0.00    -0.000 C 
BRANCH  18  19
ATOM     19  C   UNL     1     111.888 113.443 121.413  1.00  0.00    -0.000 C 
BRANCH  19  20
ATOM     20  C   UNL     1     113.362 113.361 121.841  1.00  0.00    -0.000 C 
BRANCH  20  21
ATOM     21  C   UNL     1     114.327 113.761 120.713  1.00  0.00    -0.000 C 
BRANCH  21  22
ATOM     22  C   UNL     1     115.522 112.799 120.586  1.00  0.00    -0.000 C 
BRANCH  22  23
ATOM     23  C   UNL     1     116.580 113.020 121.680  1.00  0.00    -0.000 C 
BRANCH  23  24
ATOM     24  C   UNL     1     116.491 111.976 122.806  1.00  0.00    -0.000 C 
BRANCH  24  25
ATOM     25  C   UNL     1     116.721 110.544 122.300  1.00  0.00    -0.003 C 
ATOM     26  C   UNL     1     118.203 110.198 122.149  1.00  0.00     0.004 C 
ENDBRANCH  24  25
ENDBRANCH  23  24
ENDBRANCH  22  23
ENDBRANCH  21  22
ENDBRANCH  20  21
ENDBRANCH  19  20
ENDBRANCH  18  19
ENDBRANCH  17  18
ENDBRANCH  16  17
ENDBRANCH  15  16
ENDBRANCH   1  15
TORSDOF 22
ENDMDL
MODEL 2
REMARK VINA RESULT:    -4.201      1.468      4.006
REMARK INTER + INTRA:         -13.198
REMARK INTER:                  -9.204
REMARK INTRA:                  -3.994
REMARK UNBOUND:                -3.594
REMARK SMILES CCCCCCCCCCCCCCCCCCCCCCCC(=O)[O-]
REMARK SMILES IDX 13 1 14 2 15 3 16 4 17 5 18 6 19 7 20 8 21 9 22 10 23 11
REMARK SMILES IDX 24 12 25 13 26 14 12 15 11 16 10 17 9 18 8 19 7 20 6 21 5 22
REMARK SMILES IDX 4 23 3 24 2 25 1 26
REMARK H PARENT
REMARK Flexibility Score: inf
ROOT
ATOM      1  C   UNL     1     112.977 109.988 120.706  1.00  0.00     0.000 C 
ENDROOT
BRANCH   1   2
ATOM      2  C   UNL     1     112.158 109.732 121.980  1.00  0.00     0.000 C 
BRANCH   2   3
ATOM      3  C   UNL     1     111.559 111.019 122.572  1.00  0.00     0.000 C 
BRANCH   3   4
ATOM      4  C   UNL     1     112.461 112.246 122.351  1.00  0.00     0.000 C 
BRANCH   4   5
ATOM      5  C   UNL     1     111.757 113.376 121.577  1.00  0.00     0.000 C 
BRANCH   5   6
ATOM      6  C   UNL     1     110.464 112.966 120.850  1.00  0.00     0.000 C 
BRANCH   6   7
ATOM      7  C   UNL     1     110.702 112.573 119.380  1.00  0.00     0.000 C 
BRANCH   7   8
ATOM      8  C   UNL     1     109.947 111.294 118.985  1.00  0.00     0.000 C 
BRANCH   8   9
ATOM      9  C   UNL     1     108.596 111.596 118.312  1.00  0.00     0.000 C 
BRANCH   9  10
ATOM     10  C   UNL     1     107.756 110.332 118.054  1.00  0.00     0.006 C 
BRANCH  10  11
ATOM     11  C   UNL     1     108.143 109.132 118.936  1.00  0.00     0.053 C 
BRANCH  11  12
ATOM     12  C   UNL     1     107.073 108.084 118.985  1.00  0.00     0.041 C 
ATOM     13  O   UNL     1     106.770 107.442 117.945  1.00  0.00    -0.550 OA
ATOM     14  O   UNL     1     106.384 107.842 120.167  1.00  0.00    -0.550 OA
ENDBRANCH  11  12
ENDBRANCH  10  11
ENDBRANCH   9  10
ENDBRANCH   8   9
ENDBRANCH   7   8
ENDBRANCH   6   7
ENDBRANCH   5   6
ENDBRANCH   4   5
ENDBRANCH   3   4
ENDBRANCH   2   3
ENDBRANCH   1   2
BRANCH   1  15
ATOM     15  C   UNL     1     114.360 109.324 120.802  1.00  0.00     0.000 C 
BRANCH  15  16
ATOM     16  C   UNL     1     114.877 109.242 122.246  1.00  0.00     0.000 C 
BRANCH  16  17
ATOM     17  C   UNL     1     116.203 109.995 122.447  1.00  0.00     0.000 C 
BRANCH  17  18
ATOM     18  C   UNL     1     115.979 111.469 122.851  1.00  0.00    -0.000 C 
BRANCH  18  19
ATOM     19  C   UNL     1     116.618 112.479 121.882  1.00  0.00    -0.000 C 
BRANCH  19  20
ATOM     20  C   UNL     1     115.577 113.254 121.058  1.00  0.00    -0.000 C 
BRANCH  20  21
ATOM     21  C   UNL     1     115.328 112.623 119.678  1.00  0.00    -0.000 C 
BRANCH  21  22
ATOM     22  C   UNL     1     114.261 113.376 118.865  1.00  0.00    -0.000 C 
BRANCH  22  23
ATOM     23  C   UNL     1     114.207 112.923 117.396  1.00  0.00    -0.000 C 
BRANCH  23  24
ATOM     24  C   UNL     1     114.490 111.420 117.232  1.00  0.00    -0.000 C 
BRANCH  24  25
ATOM     25  C   UNL     1     113.209 110.572 117.274  1.00  0.00    -0.003 C 
ATOM     26  C   UNL     1     112.439 110.593 115.954  1.00  0.00     0.004 C 
ENDBRANCH  24  25
ENDBRANCH  23  24
ENDBRANCH  22  23
ENDBRANCH  21  22
ENDBRANCH  20  21
ENDBRANCH  19  20
ENDBRANCH  18  19
ENDBRANCH  17  18
ENDBRANCH  16  17
ENDBRANCH  15  16
ENDBRANCH   1  15
TORSDOF 22
ENDMDL
MODEL 3
REMARK VINA RESULT:    -4.163      1.902      3.561
REMARK INTER + INTRA:         -13.111
REMARK INTER:                  -8.697
REMARK INTRA:                  -4.414
REMARK UNBOUND:                -3.594
REMARK SMILES CCCCCCCCCCCCCCCCCCCCCCCC(=O)[O-]
REMARK SMILES IDX 13 1 14 2 15 3 16 4 17 5 18 6 19 7 20 8 21 9 22 10 23 11
REMARK SMILES IDX 24 12 25 13 26 14 12 15 11 16 10 17 9 18 8 19 7 20 6 21 5 22
REMARK SMILES IDX 4 23 3 24 2 25 1 26
REMARK H PARENT
REMARK Flexibility Score: inf
ROOT
ATOM      1  C   UNL     1     112.073 110.002 121.659  1.00  0.00     0.000 C 
ENDROOT
BRANCH   1   2
ATOM      2  C   UNL     1     112.042 111.335 122.424  1.00  0.00     0.000 C 
BRANCH   2   3
ATOM      3  C   UNL     1     111.017 112.327 121.850  1.00  0.00     0.000 C 
BRANCH   3   4
ATOM      4  C   UNL     1     111.361 112.768 120.417  1.00  0.00     0.000 C 
BRANCH   4   5
ATOM      5  C   UNL     1     110.259 112.414 119.400  1.00  0.00     0.000 C 
BRANCH   5   6
ATOM      6  C   UNL     1     110.764 111.938 118.025  1.00  0.00     0.000 C 
BRANCH   6   7
ATOM      7  C   UNL     1     111.336 110.510 118.060  1.00  0.00     0.000 C 
BRANCH   7   8
ATOM      8  C   UNL     1     111.610 109.954 116.653  1.00  0.00     0.000 C 
BRANCH   8   9
ATOM      9  C   UNL     1     110.751 108.718 116.334  1.00  0.00     0.000 C 
BRANCH   9  10
ATOM     10  C   UNL     1     109.253 109.045 116.194  1.00  0.00     0.006 C 
BRANCH  10  11
ATOM     11  C   UNL     1     108.337 108.173 117.070  1.00  0.00     0.053 C 
BRANCH  11  12
ATOM     12  C   UNL     1     108.112 108.761 118.431  1.00  0.00     0.041 C 
ATOM     13  O   UNL     1     107.668 109.933 118.547  1.00  0.00    -0.550 OA
ATOM     14  O   UNL     1     108.429 108.030 119.569  1.00  0.00    -0.550 OA
ENDBRANCH  11  12
ENDBRANCH  10  11
ENDBRANCH   9  10
ENDBRANCH   8   9
ENDBRANCH   7   8
ENDBRANCH   6   7
ENDBRANCH   5   6
ENDBRANCH   4   5
ENDBRANCH   3   4
ENDBRANCH   2   3
ENDBRANCH   1   2
BRANCH   1  15
ATOM     15  C   UNL     1     113.397 109.838 120.898  1.00  0.00     0.000 C 
BRANCH  15  16
ATOM     16  C   UNL     1     114.511 109.239 121.770  1.00  0.00     0.000 C 
BRANCH  16  17
ATOM     17  C   UNL     1     115.785 110.100 121.783  1.00  0.00     0.000 C 
BRANCH  17  18
ATOM     18  C   UNL     1     115.657 111.313 122.730  1.00  0.00    -0.000 C 
BRANCH  18  19
ATOM     19  C   UNL     1     116.040 112.651 122.076  1.00  0.00    -0.000 C 
BRANCH  19  20
ATOM     20  C   UNL     1     114.858 113.323 121.358  1.00  0.00    -0.000 C 
BRANCH  20  21
ATOM     21  C   UNL     1     115.193 113.714 119.909  1.00  0.00    -0.000 C 
BRANCH  21  22
ATOM     22  C   UNL     1     114.659 112.699 118.883  1.00  0.00    -0.000 C 
BRANCH  22  23
ATOM     23  C   UNL     1     115.707 111.642 118.495  1.00  0.00    -0.000 C 
BRANCH  23  24
ATOM     24  C   UNL     1     115.113 110.510 117.640  1.00  0.00    -0.000 C 
BRANCH  24  25
ATOM     25  C   UNL     1     115.773 109.151 117.922  1.00  0.00    -0.003 C 
ATOM     26  C   UNL     1     114.763 108.008 118.016  1.00  0.00     0.004 C 
ENDBRANCH  24  25
ENDBRANCH  23  24
ENDBRANCH  22  23
ENDBRANCH  21  22
ENDBRANCH  20  21
ENDBRANCH  19  20
ENDBRANCH  18  19
ENDBRANCH  17  18
ENDBRANCH  16  17
ENDBRANCH  15  16
ENDBRANCH   1  15
TORSDOF 22
ENDMDL
MODEL 4
REMARK VINA RESULT:    -4.067      1.561      3.215
REMARK INTER + INTRA:         -12.893
REMARK INTER:                  -9.537
REMARK INTRA:                  -3.355
REMARK UNBOUND:                -3.594
REMARK SMILES CCCCCCCCCCCCCCCCCCCCCCCC(=O)[O-]
REMARK SMILES IDX 13 1 14 2 15 3 16 4 17 5 18 6 19 7 20 8 21 9 22 10 23 11
REMARK SMILES IDX 24 12 25 13 26 14 12 15 11 16 10 17 9 18 8 19 7 20 6 21 5 22
REMARK SMILES IDX 4 23 3 24 2 25 1 26
REMARK H PARENT
REMARK Flexibility Score: inf
ROOT
ATOM      1  C   UNL     1     112.085 112.434 121.533  1.00  0.00     0.000 C 
ENDROOT
BRANCH   1   2
ATOM      2  C   UNL     1     110.771 113.151 121.187  1.00  0.00     0.000 C 
BRANCH   2   3
ATOM      3  C   UNL     1     110.099 112.586 119.924  1.00  0.00     0.000 C 
BRANCH   3   4
ATOM      4  C   UNL     1     111.114 112.223 118.827  1.00  0.00     0.000 C 
BRANCH   4   5
ATOM      5  C   UNL     1     110.855 110.838 118.205  1.00  0.00     0.000 C 
BRANCH   5   6
ATOM      6  C   UNL     1     109.835 109.962 118.956  1.00  0.00     0.000 C 
BRANCH   6   7
ATOM      7  C   UNL     1     108.753 109.376 118.031  1.00  0.00     0.000 C 
BRANCH   7   8
ATOM      8  C   UNL     1     107.354 109.421 118.665  1.00  0.00     0.000 C 
BRANCH   8   9
ATOM      9  C   UNL     1     107.145 108.304 119.703  1.00  0.00     0.000 C 
BRANCH   9  10
ATOM     10  C   UNL     1     106.006 107.338 119.327  1.00  0.00     0.006 C 
BRANCH  10  11
ATOM     11  C   UNL     1     105.484 107.515 117.890  1.00  0.00     0.053 C 
BRANCH  11  12
ATOM     12  C   UNL     1     106.032 106.487 116.948  1.00  0.00     0.041 C 
ATOM     13  O   UNL     1     106.682 106.846 115.930  1.00  0.00    -0.550 OA
ATOM     14  O   UNL     1     105.795 105.136 117.169  1.00  0.00    -0.550 OA
ENDBRANCH  11  12
ENDBRANCH  10  11
ENDBRANCH   9  10
ENDBRANCH   8   9
ENDBRANCH   7   8
ENDBRANCH   6   7
ENDBRANCH   5   6
ENDBRANCH   4   5
ENDBRANCH   3   4
ENDBRANCH   2   3
ENDBRANCH   1   2
BRANCH   1  15
ATOM     15  C   UNL     1     111.828 111.245 122.473  1.00  0.00     0.000 C 
BRANCH  15  16
ATOM     16  C   UNL     1     112.067 109.890 121.790  1.00  0.00     0.000 C 
BRANCH  16  17
ATOM     17  C   UNL     1     113.424 109.818 121.069  1.00  0.00     0.000 C 
BRANCH  17  18
ATOM     18  C   UNL     1     114.576 109.459 122.034  1.00  0.00    -0.000 C 
BRANCH  18  19
ATOM     19  C   UNL     1     115.741 110.463 122.005  1.00  0.00    -0.000 C 
BRANCH  19  20
ATOM     20  C   UNL     1     116.206 110.795 120.578  1.00  0.00    -0.000 C 
BRANCH  20  21
ATOM     21  C   UNL     1     115.819 112.219 120.147  1.00  0.00    -0.000 C 
BRANCH  21  22
ATOM     22  C   UNL     1     114.890 112.236 118.921  1.00  0.00    -0.000 C 
BRANCH  22  23
ATOM     23  C   UNL     1     115.394 111.332 117.783  1.00  0.00    -0.000 C 
BRANCH  23  24
ATOM     24  C   UNL     1     114.389 110.226 117.420  1.00  0.00    -0.000 C 
BRANCH  24  25
ATOM     25  C   UNL     1     114.893 108.825 117.800  1.00  0.00    -0.003 C 
ATOM     26  C   UNL     1     116.149 108.416 117.029  1.00  0.00     0.004 C 
ENDBRANCH  24  25
ENDBRANCH  23  24
ENDBRANCH  22  23
ENDBRANCH  21  22
ENDBRANCH  20  21
ENDBRANCH  19  20
ENDBRANCH  18  19
ENDBRANCH  17  18
ENDBRANCH  16  17
ENDBRANCH  15  16
ENDBRANCH   1  15
TORSDOF 22
ENDMDL
MODEL 5
REMARK VINA RESULT:    -4.057      2.704      5.515
REMARK INTER + INTRA:         -12.869
REMARK INTER:                  -9.728
REMARK INTRA:                  -3.141
REMARK UNBOUND:                -3.594
REMARK SMILES CCCCCCCCCCCCCCCCCCCCCCCC(=O)[O-]
REMARK SMILES IDX 13 1 14 2 15 3 16 4 17 5 18 6 19 7 20 8 21 9 22 10 23 11
REMARK SMILES IDX 24 12 25 13 26 14 12 15 11 16 10 17 9 18 8 19 7 20 6 21 5 22
REMARK SMILES IDX 4 23 3 24 2 25 1 26
REMARK H PARENT
REMARK Flexibility Score: inf
ROOT
ATOM      1  C   UNL     1     107.424 109.470 118.782  1.00  0.00     0.000 C 
ENDROOT
BRANCH   1   2
ATOM      2  C   UNL     1     107.285 108.096 119.455  1.00  0.00     0.000 C 
BRANCH   2   3
ATOM      3  C   UNL     1     105.901 107.464 119.237  1.00  0.00     0.000 C 
BRANCH   3   4
ATOM      4  C   UNL     1     105.849 106.577 117.981  1.00  0.00     0.000 C 
BRANCH   4   5
ATOM      5  C   UNL     1     105.116 107.247 116.803  1.00  0.00     0.000 C 
BRANCH   5   6
ATOM      6  C   UNL     1     103.845 108.030 117.182  1.00  0.00     0.000 C 
BRANCH   6   7
ATOM      7  C   UNL     1     103.582 109.229 116.254  1.00  0.00     0.000 C 
BRANCH   7   8
ATOM      8  C   UNL     1     104.586 109.302 115.092  1.00  0.00     0.000 C 
BRANCH   8   9
ATOM      9  C   UNL     1     105.228 110.693 114.959  1.00  0.00     0.000 C 
BRANCH   9  10
ATOM     10  C   UNL     1     105.604 111.316 116.316  1.00  0.00     0.006 C 
BRANCH  10  11
ATOM     11  C   UNL     1     105.315 112.824 116.414  1.00  0.00     0.053 C 
BRANCH  11  12
ATOM     12  C   UNL     1     106.451 113.589 117.022  1.00  0.00     0.041 C 
ATOM     13  O   UNL     1     107.167 113.057 117.911  1.00  0.00    -0.550 OA
ATOM     14  O   UNL     1     106.697 114.902 116.636  1.00  0.00    -0.550 OA
ENDBRANCH  11  12
ENDBRANCH  10  11
ENDBRANCH   9  10
ENDBRANCH   8   9
ENDBRANCH   7   8
ENDBRANCH   6   7
ENDBRANCH   5   6
ENDBRANCH   4   5
ENDBRANCH   3   4
ENDBRANCH   2   3
ENDBRANCH   1   2
BRANCH   1  15
ATOM     15  C   UNL     1     108.686 109.525 117.906  1.00  0.00     0.000 C 
BRANCH  15  16
ATOM     16  C   UNL     1     109.951 109.861 118.711  1.00  0.00     0.000 C 
BRANCH  16  17
ATOM     17  C   UNL     1     110.952 110.717 117.915  1.00  0.00     0.000 C 
BRANCH  17  18
ATOM     18  C   UNL     1     111.378 111.983 118.689  1.00  0.00    -0.000 C 
BRANCH  18  19
ATOM     19  C   UNL     1     110.221 112.671 119.433  1.00  0.00    -0.000 C 
BRANCH  19  20
ATOM     20  C   UNL     1     110.527 112.911 120.921  1.00  0.00    -0.000 C 
BRANCH  20  21
ATOM     21  C   UNL     1     112.033 113.046 121.198  1.00  0.00    -0.000 C 
BRANCH  21  22
ATOM     22  C   UNL     1     112.497 112.186 122.387  1.00  0.00    -0.000 C 
BRANCH  22  23
ATOM     23  C   UNL     1     111.597 110.961 122.620  1.00  0.00    -0.000 C 
BRANCH  23  24
ATOM     24  C   UNL     1     112.045 109.737 121.804  1.00  0.00    -0.000 C 
BRANCH  24  25
ATOM     25  C   UNL     1     113.567 109.696 121.592  1.00  0.00    -0.003 C 
ATOM     26  C   UNL     1     113.959 109.582 120.119  1.00  0.00     0.004 C 
ENDBRANCH  24  25
ENDBRANCH  23  24
ENDBRANCH  22  23
ENDBRANCH  21  22
ENDBRANCH  20  21
ENDBRANCH  19  20
ENDBRANCH  18  19
ENDBRANCH  17  18
ENDBRANCH  16  17
ENDBRANCH  15  16
ENDBRANCH   1  15
TORSDOF 22
ENDMDL
MODEL 6
REMARK VINA RESULT:    -4.040      4.048      9.250
REMARK INTER + INTRA:         -12.829
REMARK INTER:                  -9.642
REMARK INTRA:                  -3.188
REMARK UNBOUND:                -3.594
REMARK SMILES CCCCCCCCCCCCCCCCCCCCCCCC(=O)[O-]
REMARK SMILES IDX 13 1 14 2 15 3 16 4 17 5 18 6 19 7 20 8 21 9 22 10 23 11
REMARK SMILES IDX 24 12 25 13 26 14 12 15 11 16 10 17 9 18 8 19 7 20 6 21 5 22
REMARK SMILES IDX 4 23 3 24 2 25 1 26
REMARK H PARENT
REMARK Flexibility Score: inf
ROOT
ATOM      1  C   UNL     1     108.511 108.534 118.870  1.00  0.00     0.000 C 
ENDROOT
BRANCH   1   2
ATOM      2  C   UNL     1     109.268 109.870 118.861  1.00  0.00     0.000 C 
BRANCH   2   3
ATOM      3  C   UNL     1     108.332 111.085 118.740  1.00  0.00     0.000 C 
BRANCH   3   4
ATOM      4  C   UNL     1     109.100 112.413 118.626  1.00  0.00     0.000 C 
BRANCH   4   5
ATOM      5  C   UNL     1     110.486 112.363 119.297  1.00  0.00     0.000 C 
BRANCH   5   6
ATOM      6  C   UNL     1     110.521 112.832 120.763  1.00  0.00     0.000 C 
BRANCH   6   7
ATOM      7  C   UNL     1     111.797 112.389 121.502  1.00  0.00     0.000 C 
BRANCH   7   8
ATOM      8  C   UNL     1     111.527 111.264 122.514  1.00  0.00     0.000 C 
BRANCH   8   9
ATOM      9  C   UNL     1     111.957 109.885 121.986  1.00  0.00     0.000 C 
BRANCH   9  10
ATOM     10  C   UNL     1     113.084 109.965 120.940  1.00  0.00     0.006 C 
BRANCH  10  11
ATOM     11  C   UNL     1     114.387 109.267 121.369  1.00  0.00     0.053 C 
BRANCH  11  12
ATOM     12  C   UNL     1     115.355 110.206 122.022  1.00  0.00     0.041 C 
ATOM     13  O   UNL     1     116.294 109.754 122.729  1.00  0.00    -0.550 OA
ATOM     14  O   UNL     1     115.200 111.580 121.883  1.00  0.00    -0.550 OA
ENDBRANCH  11  12
ENDBRANCH  10  11
ENDBRANCH   9  10
ENDBRANCH   8   9
ENDBRANCH   7   8
ENDBRANCH   6   7
ENDBRANCH   5   6
ENDBRANCH   4   5
ENDBRANCH   3   4
ENDBRANCH   2   3
ENDBRANCH   1   2
BRANCH   1  15
ATOM     15  C   UNL     1     107.000 108.762 119.032  1.00  0.00     0.000 C 
BRANCH  15  16
ATOM     16  C   UNL     1     106.219 107.450 119.204  1.00  0.00     0.000 C 
BRANCH  16  17
ATOM     17  C   UNL     1     105.309 107.138 118.003  1.00  0.00     0.000 C 
BRANCH  17  18
ATOM     18  C   UNL     1     105.761 105.870 117.246  1.00  0.00    -0.000 C 
BRANCH  18  19
ATOM     19  C   UNL     1     107.063 106.058 116.449  1.00  0.00    -0.000 C 
BRANCH  19  20
ATOM     20  C   UNL     1     106.834 106.090 114.930  1.00  0.00    -0.000 C 
BRANCH  20  21
ATOM     21  C   UNL     1     106.856 107.518 114.360  1.00  0.00    -0.000 C 
BRANCH  21  22
ATOM     22  C   UNL     1     107.556 108.519 115.296  1.00  0.00    -0.000 C 
BRANCH  22  23
ATOM     23  C   UNL     1     106.717 109.784 115.546  1.00  0.00    -0.000 C 
BRANCH  23  24
ATOM     24  C   UNL     1     105.728 110.069 114.403  1.00  0.00    -0.000 C 
BRANCH  24  25
ATOM     25  C   UNL     1     104.332 110.454 114.916  1.00  0.00    -0.003 C 
ATOM     26  C   UNL     1     104.160 110.208 116.415  1.00  0.00     0.004 C 
ENDBRANCH  24  25
ENDBRANCH  23  24
ENDBRANCH  22  23
ENDBRANCH  21  22
ENDBRANCH  20  21
ENDBRANCH  19  20
ENDBRANCH  18  19
ENDBRANCH  17  18
ENDBRANCH  16  17
ENDBRANCH  15  16
ENDBRANCH   1  15
TORSDOF 22
ENDMDL
MODEL 7
REMARK VINA RESULT:    -4.032      2.183      4.054
REMARK INTER + INTRA:         -12.812
REMARK INTER:                  -9.774
REMARK INTRA:                  -3.038
REMARK UNBOUND:                -3.594
REMARK SMILES CCCCCCCCCCCCCCCCCCCCCCCC(=O)[O-]
REMARK SMILES IDX 13 1 14 2 15 3 16 4 17 5 18 6 19 7 20 8 21 9 22 10 23 11
REMARK SMILES IDX 24 12 25 13 26 14 12 15 11 16 10 17 9 18 8 19 7 20 6 21 5 22
REMARK SMILES IDX 4 23 3 24 2 25 1 26
REMARK H PARENT
REMARK Flexibility Score: inf
ROOT
ATOM      1  C   UNL     1     110.421 112.136 118.731  1.00  0.00     0.000 C 
ENDROOT
BRANCH   1   2
ATOM      2  C   UNL     1     109.356 111.187 118.161  1.00  0.00     0.000 C 
BRANCH   2   3
ATOM      3  C   UNL     1     109.702 109.705 118.379  1.00  0.00     0.000 C 
BRANCH   3   4
ATOM      4  C   UNL     1     108.474 108.787 118.248  1.00  0.00     0.000 C 
BRANCH   4   5
ATOM      5  C   UNL     1     108.076 108.125 119.581  1.00  0.00     0.000 C 
BRANCH   5   6
ATOM      6  C   UNL     1     106.595 107.718 119.694  1.00  0.00     0.000 C 
BRANCH   6   7
ATOM      7  C   UNL     1     105.818 107.916 118.380  1.00  0.00     0.000 C 
BRANCH   7   8
ATOM      8  C   UNL     1     105.473 106.584 117.696  1.00  0.00     0.000 C 
BRANCH   8   9
ATOM      9  C   UNL     1     106.057 106.485 116.277  1.00  0.00     0.000 C 
BRANCH   9  10
ATOM     10  C   UNL     1     107.085 105.349 116.125  1.00  0.00     0.006 C 
BRANCH  10  11
ATOM     11  C   UNL     1     108.541 105.835 116.014  1.00  0.00     0.053 C 
BRANCH  11  12
ATOM     12  C   UNL     1     109.154 105.515 114.684  1.00  0.00     0.041 C 
ATOM     13  O   UNL     1     109.214 106.398 113.787  1.00  0.00    -0.550 OA
ATOM     14  O   UNL     1     109.625 104.235 114.420  1.00  0.00    -0.550 OA
ENDBRANCH  11  12
ENDBRANCH  10  11
ENDBRANCH   9  10
ENDBRANCH   8   9
ENDBRANCH   7   8
ENDBRANCH   6   7
ENDBRANCH   5   6
ENDBRANCH   4   5
ENDBRANCH   3   4
ENDBRANCH   2   3
ENDBRANCH   1   2
BRANCH   1  15
ATOM     15  C   UNL     1     111.835 111.618 118.427  1.00  0.00     0.000 C 
BRANCH  15  16
ATOM     16  C   UNL     1     112.890 112.735 118.443  1.00  0.00     0.000 C 
BRANCH  16  17
ATOM     17  C   UNL     1     113.964 112.522 119.524  1.00  0.00     0.000 C 
BRANCH  17  18
ATOM     18  C   UNL     1     113.875 113.579 120.647  1.00  0.00    -0.000 C 
BRANCH  18  19
ATOM     19  C   UNL     1     112.633 113.426 121.541  1.00  0.00    -0.000 C 
BRANCH  19  20
ATOM     20  C   UNL     1     112.684 112.168 122.423  1.00  0.00    -0.000 C 
BRANCH  20  21
ATOM     21  C   UNL     1     111.529 111.196 122.131  1.00  0.00    -0.000 C 
BRANCH  21  22
ATOM     22  C   UNL     1     112.004 109.743 121.961  1.00  0.00    -0.000 C 
BRANCH  22  23
ATOM     23  C   UNL     1     113.243 109.626 121.057  1.00  0.00    -0.000 C 
BRANCH  23  24
ATOM     24  C   UNL     1     114.492 109.160 121.826  1.00  0.00    -0.000 C 
BRANCH  24  25
ATOM     25  C   UNL     1     115.703 110.075 121.590  1.00  0.00    -0.003 C 
ATOM     26  C   UNL     1     116.077 110.896 122.825  1.00  0.00     0.004 C 
ENDBRANCH  24  25
ENDBRANCH  23  24
ENDBRANCH  22  23
ENDBRANCH  21  22
ENDBRANCH  20  21
ENDBRANCH  19  20
ENDBRANCH  18  19
ENDBRANCH  17  18
ENDBRANCH  16  17
ENDBRANCH  15  16
ENDBRANCH   1  15
TORSDOF 22
ENDMDL
MODEL 8
REMARK VINA RESULT:    -4.011      2.999      7.057
REMARK INTER + INTRA:         -12.763
REMARK INTER:                  -8.394
REMARK INTRA:                  -4.369
REMARK UNBOUND:                -3.594
REMARK SMILES CCCCCCCCCCCCCCCCCCCCCCCC(=O)[O-]
REMARK SMILES IDX 13 1 14 2 15 3 16 4 17 5 18 6 19 7 20 8 21 9 22 10 23 11
REMARK SMILES IDX 24 12 25 13 26 14 12 15 11 16 10 17 9 18 8 19 7 20 6 21 5 22
REMARK SMILES IDX 4 23 3 24 2 25 1 26
REMARK H PARENT
REMARK Flexibility Score: inf
ROOT
ATOM      1  C   UNL     1     113.325 110.062 121.155  1.00  0.00     0.000 C 
ENDROOT
BRANCH   1   2
ATOM      2  C   UNL     1     114.481 109.246 121.754  1.00  0.00     0.000 C 
BRANCH   2   3
ATOM      3  C   UNL     1     115.742 110.092 122.002  1.00  0.00     0.000 C 
BRANCH   3   4
ATOM      4  C   UNL     1     115.417 111.477 122.588  1.00  0.00     0.000 C 
BRANCH   4   5
ATOM      5  C   UNL     1     115.996 112.632 121.750  1.00  0.00     0.000 C 
BRANCH   5   6
ATOM      6  C   UNL     1     115.060 113.182 120.657  1.00  0.00     0.000 C 
BRANCH   6   7
ATOM      7  C   UNL     1     115.670 113.091 119.247  1.00  0.00     0.000 C 
BRANCH   7   8
ATOM      8  C   UNL     1     115.308 111.777 118.536  1.00  0.00     0.000 C 
BRANCH   8   9
ATOM      9  C   UNL     1     116.518 110.838 118.390  1.00  0.00     0.000 C 
BRANCH   9  10
ATOM     10  C   UNL     1     116.127 109.349 118.377  1.00  0.00     0.006 C 
BRANCH  10  11
ATOM     11  C   UNL     1     114.680 109.086 117.924  1.00  0.00     0.053 C 
BRANCH  11  12
ATOM     12  C   UNL     1     114.607 108.230 116.697  1.00  0.00     0.041 C 
ATOM     13  O   UNL     1     115.569 108.206 115.885  1.00  0.00    -0.550 OA
ATOM     14  O   UNL     1     113.463 107.487 116.429  1.00  0.00    -0.550 OA
ENDBRANCH  11  12
ENDBRANCH  10  11
ENDBRANCH   9  10
ENDBRANCH   8   9
ENDBRANCH   7   8
ENDBRANCH   6   7
ENDBRANCH   5   6
ENDBRANCH   4   5
ENDBRANCH   3   4
ENDBRANCH   2   3
ENDBRANCH   1   2
BRANCH   1  15
ATOM     15  C   UNL     1     112.024 109.821 121.936  1.00  0.00     0.000 C 
BRANCH  15  16
ATOM     16  C   UNL     1     111.544 111.074 122.686  1.00  0.00     0.000 C 
BRANCH  16  17
ATOM     17  C   UNL     1     111.866 112.377 121.933  1.00  0.00     0.000 C 
BRANCH  17  18
ATOM     18  C   UNL     1     110.610 112.997 121.282  1.00  0.00    -0.000 C 
BRANCH  18  19
ATOM     19  C   UNL     1     110.353 112.507 119.846  1.00  0.00    -0.000 C 
BRANCH  19  20
ATOM     20  C   UNL     1     111.621 112.520 118.976  1.00  0.00    -0.000 C 
BRANCH  20  21
ATOM     21  C   UNL     1     111.706 111.303 118.041  1.00  0.00    -0.000 C 
BRANCH  21  22
ATOM     22  C   UNL     1     110.839 111.461 116.780  1.00  0.00    -0.000 C 
BRANCH  22  23
ATOM     23  C   UNL     1     109.962 110.228 116.505  1.00  0.00    -0.000 C 
BRANCH  23  24
ATOM     24  C   UNL     1     108.468 110.501 116.746  1.00  0.00    -0.000 C 
BRANCH  24  25
ATOM     25  C   UNL     1     107.839 109.505 117.733  1.00  0.00    -0.003 C 
ATOM     26  C   UNL     1     108.774 109.141 118.886  1.00  0.00     0.004 C 
ENDBRANCH  24  25
ENDBRANCH  23  24
ENDBRANCH  22  23
ENDBRANCH  21  22
ENDBRANCH  20  21
ENDBRANCH  19  20
ENDBRANCH  18  19
ENDBRANCH  17  18
ENDBRANCH  16  17
ENDBRANCH  15  16
ENDBRANCH   1  15
TORSDOF 22
ENDMDL
MODEL 9
REMARK VINA RESULT:    -4.010      6.303     10.400
REMARK INTER + INTRA:         -12.760
REMARK INTER:                  -9.225
REMARK INTRA:                  -3.535
REMARK UNBOUND:                -3.594
REMARK SMILES CCCCCCCCCCCCCCCCCCCCCCCC(=O)[O-]
REMARK SMILES IDX 13 1 14 2 15 3 16 4 17 5 18 6 19 7 20 8 21 9 22 10 23 11
REMARK SMILES IDX 24 12 25 13 26 14 12 15 11 16 10 17 9 18 8 19 7 20 6 21 5 22
REMARK SMILES IDX 4 23 3 24 2 25 1 26
REMARK H PARENT
REMARK Flexibility Score: inf
ROOT
ATOM      1  C   UNL     1     101.756 111.678 115.951  1.00  0.00     0.000 C 
ENDROOT
BRANCH   1   2
ATOM      2  C   UNL     1     101.995 110.545 116.962  1.00  0.00     0.000 C 
BRANCH   2   3
ATOM      3  C   UNL     1     103.201 109.665 116.595  1.00  0.00     0.000 C 
BRANCH   3   4
ATOM      4  C   UNL     1     102.908 108.164 116.761  1.00  0.00     0.000 C 
BRANCH   4   5
ATOM      5  C   UNL     1     104.112 107.375 117.310  1.00  0.00     0.000 C 
BRANCH   5   6
ATOM      6  C   UNL     1     105.310 108.234 117.755  1.00  0.00     0.000 C 
BRANCH   6   7
ATOM      7  C   UNL     1     106.196 107.530 118.800  1.00  0.00     0.000 C 
BRANCH   7   8
ATOM      8  C   UNL     1     107.592 108.163 118.906  1.00  0.00     0.000 C 
BRANCH   8   9
ATOM      9  C   UNL     1     108.215 108.442 117.527  1.00  0.00     0.000 C 
BRANCH   9  10
ATOM     10  C   UNL     1     108.844 107.191 116.886  1.00  0.00     0.006 C 
BRANCH  10  11
ATOM     11  C   UNL     1     108.317 106.880 115.474  1.00  0.00     0.053 C 
BRANCH  11  12
ATOM     12  C   UNL     1     107.111 105.990 115.493  1.00  0.00     0.041 C 
ATOM     13  O   UNL     1     107.021 105.066 116.345  1.00  0.00    -0.550 OA
ATOM     14  O   UNL     1     106.104 106.155 114.550  1.00  0.00    -0.550 OA
ENDBRANCH  11  12
ENDBRANCH  10  11
ENDBRANCH   9  10
ENDBRANCH   8   9
ENDBRANCH   7   8
ENDBRANCH   6   7
ENDBRANCH   5   6
ENDBRANCH   4   5
ENDBRANCH   3   4
ENDBRANCH   2   3
ENDBRANCH   1   2
BRANCH   1  15
ATOM     15  C   UNL     1     101.986 111.186 114.514  1.00  0.00     0.000 C 
BRANCH  15  16
ATOM     16  C   UNL     1     100.704 111.217 113.667  1.00  0.00     0.000 C 
BRANCH  16  17
ATOM     17  C   UNL     1     100.624 112.455 112.756  1.00  0.00     0.000 C 
BRANCH  17  18
ATOM     18  C   UNL     1     100.123 113.703 113.516  1.00  0.00    -0.000 C 
BRANCH  18  19
ATOM     19  C   UNL     1     101.214 114.761 113.752  1.00  0.00    -0.000 C 
BRANCH  19  20
ATOM     20  C   UNL     1     102.172 114.906 112.559  1.00  0.00    -0.000 C 
BRANCH  20  21
ATOM     21  C   UNL     1     103.613 114.499 112.906  1.00  0.00    -0.000 C 
BRANCH  21  22
ATOM     22  C   UNL     1     103.845 114.373 114.422  1.00  0.00    -0.000 C 
BRANCH  22  23
ATOM     23  C   UNL     1     104.969 113.382 114.770  1.00  0.00    -0.000 C 
BRANCH  23  24
ATOM     24  C   UNL     1     105.230 113.294 116.283  1.00  0.00    -0.000 C 
BRANCH  24  25
ATOM     25  C   UNL     1     105.955 111.999 116.680  1.00  0.00    -0.003 C 
ATOM     26  C   UNL     1     106.405 111.175 115.474  1.00  0.00     0.004 C 
ENDBRANCH  24  25
ENDBRANCH  23  24
ENDBRANCH  22  23
ENDBRANCH  21  22
ENDBRANCH  20  21
ENDBRANCH  19  20
ENDBRANCH  18  19
ENDBRANCH  17  18
ENDBRANCH  16  17
ENDBRANCH  15  16
ENDBRANCH   1  15
TORSDOF 22
ENDMDL
