MODEL 1
REMARK VINA RESULT:    -4.426      0.000      0.000
REMARK INTER + INTRA:          -7.574
REMARK INTER:                  -6.367
REMARK INTRA:                  -1.207
REMARK UNBOUND:                -1.207
REMARK SMILES O=C(CO)[C@H](O)[C@@H](O)[C@@H](O)CO
REMARK SMILES IDX 7 1 9 2 11 3 12 4 10 6 5 8 2 9 1 10 3 11 4 12 6 14 8 16
REMARK H PARENT 12 5 10 7 4 13 6 15 8 17
REMARK Flexibility Score: inf
ROOT
ATOM      1  C   UNL     1     -42.933 -37.147 105.870  1.00  0.00     0.181 C 
ENDROOT
BRANCH   1   2
ATOM      2  C   UNL     1     -42.336 -36.210 106.954  1.00  0.00     0.171 C 
BRANCH   2   3
ATOM      3  C   UNL     1     -43.250 -35.024 107.327  1.00  0.00     0.190 C 
BRANCH   3   4
ATOM      4  O   UNL     1     -44.241 -35.426 108.231  1.00  0.00    -0.394 OA
ATOM      5  H   UNL     1     -43.997 -35.026 109.106  1.00  0.00     0.210 HD
ENDBRANCH   3   4
ENDBRANCH   2   3
BRANCH   2   6
ATOM      6  O   UNL     1     -41.116 -35.706 106.469  1.00  0.00    -0.388 OA
ATOM      7  H   UNL     1     -41.217 -35.591 105.487  1.00  0.00     0.211 HD
ENDBRANCH   2   6
ENDBRANCH   1   2
BRANCH   1   8
ATOM      8  C   UNL     1     -42.779 -38.661 106.182  1.00  0.00     0.214 C 
BRANCH   8   9
ATOM      9  C   UNL     1     -44.023 -39.245 106.818  1.00  0.00     0.189 C 
ATOM     10  O   UNL     1     -45.022 -39.432 106.138  1.00  0.00    -0.294 OA
BRANCH   9  11
ATOM     11  C   UNL     1     -44.055 -39.580 108.281  1.00  0.00     0.234 C 
BRANCH  11  12
ATOM     12  O   UNL     1     -43.975 -38.401 109.031  1.00  0.00    -0.388 OA
ATOM     13  H   UNL     1     -43.062 -38.383 109.419  1.00  0.00     0.211 HD
ENDBRANCH  11  12
ENDBRANCH   9  11
ENDBRANCH   8   9
BRANCH   8  14
ATOM     14  O   UNL     1     -41.674 -38.884 107.024  1.00  0.00    -0.382 OA
ATOM     15  H   UNL     1     -41.161 -39.650 106.656  1.00  0.00     0.211 HD
ENDBRANCH   8  14
ENDBRANCH   1   8
BRANCH   1  16
ATOM     16  O   UNL     1     -44.290 -36.833 105.676  1.00  0.00    -0.387 OA
ATOM     17  H   UNL     1     -44.330 -35.911 105.310  1.00  0.00     0.211 HD
ENDBRANCH   1  16
TORSDOF 10
ENDMDL
MODEL 2
REMARK VINA RESULT:    -4.343      1.763      2.350
REMARK INTER + INTRA:          -7.453
REMARK INTER:                  -6.519
REMARK INTRA:                  -0.934
REMARK UNBOUND:                -1.207
REMARK SMILES O=C(CO)[C@H](O)[C@@H](O)[C@@H](O)CO
REMARK SMILES IDX 7 1 9 2 11 3 12 4 10 6 5 8 2 9 1 10 3 11 4 12 6 14 8 16
REMARK H PARENT 12 5 10 7 4 13 6 15 8 17
REMARK Flexibility Score: inf
ROOT
ATOM      1  C   UNL     1     -44.085 -37.496 106.361  1.00  0.00     0.181 C 
ENDROOT
BRANCH   1   2
ATOM      2  C   UNL     1     -42.852 -36.568 106.528  1.00  0.00     0.171 C 
BRANCH   2   3
ATOM      3  C   UNL     1     -42.859 -35.748 107.835  1.00  0.00     0.190 C 
BRANCH   3   4
ATOM      4  O   UNL     1     -44.164 -35.376 108.182  1.00  0.00    -0.394 OA
ATOM      5  H   UNL     1     -44.745 -36.140 107.930  1.00  0.00     0.210 HD
ENDBRANCH   3   4
ENDBRANCH   2   3
BRANCH   2   6
ATOM      6  O   UNL     1     -42.826 -35.681 105.438  1.00  0.00    -0.388 OA
ATOM      7  H   UNL     1     -43.685 -35.181 105.446  1.00  0.00     0.211 HD
ENDBRANCH   2   6
ENDBRANCH   1   2
BRANCH   1   8
ATOM      8  C   UNL     1     -43.935 -38.557 105.236  1.00  0.00     0.214 C 
BRANCH   8   9
ATOM      9  C   UNL     1     -44.068 -39.972 105.761  1.00  0.00     0.189 C 
ATOM     10  O   UNL     1     -45.125 -40.342 106.251  1.00  0.00    -0.294 OA
BRANCH   9  11
ATOM     11  C   UNL     1     -42.908 -40.924 105.707  1.00  0.00     0.234 C 
BRANCH  11  12
ATOM     12  O   UNL     1     -42.816 -41.474 104.423  1.00  0.00    -0.388 OA
ATOM     13  H   UNL     1     -41.893 -41.287 104.110  1.00  0.00     0.211 HD
ENDBRANCH  11  12
ENDBRANCH   9  11
ENDBRANCH   8   9
BRANCH   8  14
ATOM     14  O   UNL     1     -42.699 -38.414 104.581  1.00  0.00    -0.382 OA
ATOM     15  H   UNL     1     -42.882 -38.250 103.618  1.00  0.00     0.211 HD
ENDBRANCH   8  14
ENDBRANCH   1   8
BRANCH   1  16
ATOM     16  O   UNL     1     -44.362 -38.131 107.585  1.00  0.00    -0.387 OA
ATOM     17  H   UNL     1     -43.658 -38.817 107.727  1.00  0.00     0.211 HD
ENDBRANCH   1  16
TORSDOF 10
ENDMDL
MODEL 3
REMARK VINA RESULT:    -4.315      0.411      3.817
REMARK INTER + INTRA:          -7.414
REMARK INTER:                  -6.224
REMARK INTRA:                  -1.190
REMARK UNBOUND:                -1.207
REMARK SMILES O=C(CO)[C@H](O)[C@@H](O)[C@@H](O)CO
REMARK SMILES IDX 7 1 9 2 11 3 12 4 10 6 5 8 2 9 1 10 3 11 4 12 6 14 8 16
REMARK H PARENT 12 5 10 7 4 13 6 15 8 17
REMARK Flexibility Score: inf
ROOT
ATOM      1  C   UNL     1     -42.993 -38.558 106.402  1.00  0.00     0.181 C 
ENDROOT
BRANCH   1   2
ATOM      2  C   UNL     1     -44.296 -38.969 107.138  1.00  0.00     0.171 C 
BRANCH   2   3
ATOM      3  C   UNL     1     -44.085 -39.351 108.618  1.00  0.00     0.190 C 
BRANCH   3   4
ATOM      4  O   UNL     1     -43.762 -38.222 109.381  1.00  0.00    -0.394 OA
ATOM      5  H   UNL     1     -44.624 -37.792 109.617  1.00  0.00     0.210 HD
ENDBRANCH   3   4
ENDBRANCH   2   3
BRANCH   2   6
ATOM      6  O   UNL     1     -44.848 -40.070 106.460  1.00  0.00    -0.388 OA
ATOM      7  H   UNL     1     -44.116 -40.487 105.933  1.00  0.00     0.211 HD
ENDBRANCH   2   6
ENDBRANCH   1   2
BRANCH   1   8
ATOM      8  C   UNL     1     -43.055 -37.159 105.728  1.00  0.00     0.214 C 
BRANCH   8   9
ATOM      9  C   UNL     1     -42.409 -36.084 106.577  1.00  0.00     0.189 C 
ATOM     10  O   UNL     1     -41.196 -36.073 106.724  1.00  0.00    -0.294 OA
BRANCH   9  11
ATOM     11  C   UNL     1     -43.244 -35.040 107.261  1.00  0.00     0.234 C 
BRANCH  11  12
ATOM     12  O   UNL     1     -44.060 -35.650 108.220  1.00  0.00    -0.388 OA
ATOM     13  H   UNL     1     -44.053 -35.050 109.010  1.00  0.00     0.211 HD
ENDBRANCH  11  12
ENDBRANCH   9  11
ENDBRANCH   8   9
BRANCH   8  14
ATOM     14  O   UNL     1     -44.387 -36.802 105.452  1.00  0.00    -0.382 OA
ATOM     15  H   UNL     1     -44.847 -37.601 105.085  1.00  0.00     0.211 HD
ENDBRANCH   8  14
ENDBRANCH   1   8
BRANCH   1  16
ATOM     16  O   UNL     1     -41.912 -38.609 107.300  1.00  0.00    -0.387 OA
ATOM     17  H   UNL     1     -41.098 -38.340 106.798  1.00  0.00     0.211 HD
ENDBRANCH   1  16
TORSDOF 10
ENDMDL
MODEL 4
REMARK VINA RESULT:    -4.157      1.626      3.121
REMARK INTER + INTRA:          -7.186
REMARK INTER:                  -5.920
REMARK INTRA:                  -1.266
REMARK UNBOUND:                -1.207
REMARK SMILES O=C(CO)[C@H](O)[C@@H](O)[C@@H](O)CO
REMARK SMILES IDX 7 1 9 2 11 3 12 4 10 6 5 8 2 9 1 10 3 11 4 12 6 14 8 16
REMARK H PARENT 12 5 10 7 4 13 6 15 8 17
REMARK Flexibility Score: inf
ROOT
ATOM      1  C   UNL     1     -44.464 -37.800 106.675  1.00  0.00     0.181 C 
ENDROOT
BRANCH   1   2
ATOM      2  C   UNL     1     -43.560 -37.403 107.873  1.00  0.00     0.171 C 
BRANCH   2   3
ATOM      3  C   UNL     1     -43.576 -38.421 109.033  1.00  0.00     0.190 C 
BRANCH   3   4
ATOM      4  O   UNL     1     -42.687 -39.474 108.780  1.00  0.00    -0.394 OA
ATOM      5  H   UNL     1     -43.227 -40.198 108.369  1.00  0.00     0.210 HD
ENDBRANCH   3   4
ENDBRANCH   2   3
BRANCH   2   6
ATOM      6  O   UNL     1     -44.002 -36.159 108.357  1.00  0.00    -0.388 OA
ATOM      7  H   UNL     1     -43.193 -35.627 108.580  1.00  0.00     0.211 HD
ENDBRANCH   2   6
ENDBRANCH   1   2
BRANCH   1   8
ATOM      8  C   UNL     1     -43.848 -37.490 105.283  1.00  0.00     0.214 C 
BRANCH   8   9
ATOM      9  C   UNL     1     -43.251 -38.721 104.633  1.00  0.00     0.189 C 
ATOM     10  O   UNL     1     -43.903 -39.352 103.814  1.00  0.00    -0.294 OA
BRANCH   9  11
ATOM     11  C   UNL     1     -41.873 -39.192 104.998  1.00  0.00     0.234 C 
BRANCH  11  12
ATOM     12  O   UNL     1     -41.959 -40.118 106.043  1.00  0.00    -0.388 OA
ATOM     13  H   UNL     1     -41.417 -39.745 106.786  1.00  0.00     0.211 HD
ENDBRANCH  11  12
ENDBRANCH   9  11
ENDBRANCH   8   9
BRANCH   8  14
ATOM     14  O   UNL     1     -42.863 -36.492 105.387  1.00  0.00    -0.382 OA
ATOM     15  H   UNL     1     -42.662 -36.362 106.351  1.00  0.00     0.211 HD
ENDBRANCH   8  14
ENDBRANCH   1   8
BRANCH   1  16
ATOM     16  O   UNL     1     -44.785 -39.166 106.764  1.00  0.00    -0.387 OA
ATOM     17  H   UNL     1     -44.051 -39.609 107.265  1.00  0.00     0.211 HD
ENDBRANCH   1  16
TORSDOF 10
ENDMDL
MODEL 5
REMARK VINA RESULT:    -4.143      4.683      6.403
REMARK INTER + INTRA:          -7.166
REMARK INTER:                  -5.713
REMARK INTRA:                  -1.452
REMARK UNBOUND:                -1.207
REMARK SMILES O=C(CO)[C@H](O)[C@@H](O)[C@@H](O)CO
REMARK SMILES IDX 7 1 9 2 11 3 12 4 10 6 5 8 2 9 1 10 3 11 4 12 6 14 8 16
REMARK H PARENT 12 5 10 7 4 13 6 15 8 17
REMARK Flexibility Score: inf
ROOT
ATOM      1  C   UNL     1     -42.380 -42.008 102.699  1.00  0.00     0.181 C 
ENDROOT
BRANCH   1   2
ATOM      2  C   UNL     1     -43.533 -41.045 102.313  1.00  0.00     0.171 C 
BRANCH   2   3
ATOM      3  C   UNL     1     -43.976 -40.109 103.458  1.00  0.00     0.190 C 
BRANCH   3   4
ATOM      4  O   UNL     1     -42.927 -39.263 103.841  1.00  0.00    -0.394 OA
ATOM      5  H   UNL     1     -42.865 -38.564 103.140  1.00  0.00     0.210 HD
ENDBRANCH   3   4
ENDBRANCH   2   3
BRANCH   2   6
ATOM      6  O   UNL     1     -44.634 -41.823 101.913  1.00  0.00    -0.388 OA
ATOM      7  H   UNL     1     -44.519 -42.016 100.945  1.00  0.00     0.211 HD
ENDBRANCH   2   6
ENDBRANCH   1   2
BRANCH   1   8
ATOM      8  C   UNL     1     -40.988 -41.590 102.148  1.00  0.00     0.214 C 
BRANCH   8   9
ATOM      9  C   UNL     1     -39.865 -41.940 103.102  1.00  0.00     0.189 C 
ATOM     10  O   UNL     1     -39.537 -43.108 103.251  1.00  0.00    -0.294 OA
BRANCH   9  11
ATOM     11  C   UNL     1     -39.160 -40.871 103.885  1.00  0.00     0.234 C 
BRANCH  11  12
ATOM     12  O   UNL     1     -40.097 -40.133 104.615  1.00  0.00    -0.388 OA
ATOM     13  H   UNL     1     -40.252 -39.298 104.100  1.00  0.00     0.211 HD
ENDBRANCH  11  12
ENDBRANCH   9  11
ENDBRANCH   8   9
BRANCH   8  14
ATOM     14  O   UNL     1     -40.958 -40.211 101.875  1.00  0.00    -0.382 OA
ATOM     15  H   UNL     1     -41.872 -39.851 102.020  1.00  0.00     0.211 HD
ENDBRANCH   8  14
ENDBRANCH   1   8
BRANCH   1  16
ATOM     16  O   UNL     1     -42.323 -42.134 104.099  1.00  0.00    -0.387 OA
ATOM     17  H   UNL     1     -41.653 -42.839 104.304  1.00  0.00     0.211 HD
ENDBRANCH   1  16
TORSDOF 10
ENDMDL
MODEL 6
REMARK VINA RESULT:    -4.134      2.850      4.670
REMARK INTER + INTRA:          -7.154
REMARK INTER:                  -5.689
REMARK INTRA:                  -1.464
REMARK UNBOUND:                -1.207
REMARK SMILES O=C(CO)[C@H](O)[C@@H](O)[C@@H](O)CO
REMARK SMILES IDX 7 1 9 2 11 3 12 4 10 6 5 8 2 9 1 10 3 11 4 12 6 14 8 16
REMARK H PARENT 12 5 10 7 4 13 6 15 8 17
REMARK Flexibility Score: inf
ROOT
ATOM      1  C   UNL     1     -43.807 -39.109 104.200  1.00  0.00     0.181 C 
ENDROOT
BRANCH   1   2
ATOM      2  C   UNL     1     -43.958 -40.116 103.029  1.00  0.00     0.171 C 
BRANCH   2   3
ATOM      3  C   UNL     1     -42.673 -40.911 102.718  1.00  0.00     0.190 C 
BRANCH   3   4
ATOM      4  O   UNL     1     -42.421 -41.860 103.717  1.00  0.00    -0.394 OA
ATOM      5  H   UNL     1     -41.879 -42.573 103.291  1.00  0.00     0.210 HD
ENDBRANCH   3   4
ENDBRANCH   2   3
BRANCH   2   6
ATOM      6  O   UNL     1     -44.335 -39.397 101.882  1.00  0.00    -0.388 OA
ATOM      7  H   UNL     1     -44.367 -38.437 102.137  1.00  0.00     0.211 HD
ENDBRANCH   2   6
ENDBRANCH   1   2
BRANCH   1   8
ATOM      8  C   UNL     1     -44.388 -39.610 105.551  1.00  0.00     0.214 C 
BRANCH   8   9
ATOM      9  C   UNL     1     -43.492 -39.266 106.723  1.00  0.00     0.189 C 
ATOM     10  O   UNL     1     -43.432 -38.113 107.125  1.00  0.00    -0.294 OA
BRANCH   9  11
ATOM     11  C   UNL     1     -42.657 -40.322 107.388  1.00  0.00     0.234 C 
BRANCH  11  12
ATOM     12  O   UNL     1     -41.867 -40.965 106.428  1.00  0.00    -0.388 OA
ATOM     13  H   UNL     1     -42.452 -41.645 106.002  1.00  0.00     0.211 HD
ENDBRANCH  11  12
ENDBRANCH   9  11
ENDBRANCH   8   9
BRANCH   8  14
ATOM     14  O   UNL     1     -44.600 -40.999 105.515  1.00  0.00    -0.382 OA
ATOM     15  H   UNL     1     -44.746 -41.310 106.447  1.00  0.00     0.211 HD
ENDBRANCH   8  14
ENDBRANCH   1   8
BRANCH   1  16
ATOM     16  O   UNL     1     -42.450 -38.774 104.357  1.00  0.00    -0.387 OA
ATOM     17  H   UNL     1     -41.918 -39.574 104.105  1.00  0.00     0.211 HD
ENDBRANCH   1  16
TORSDOF 10
ENDMDL
MODEL 7
REMARK VINA RESULT:    -4.128      1.932      4.311
REMARK INTER + INTRA:          -7.145
REMARK INTER:                  -5.916
REMARK INTRA:                  -1.229
REMARK UNBOUND:                -1.207
REMARK SMILES O=C(CO)[C@H](O)[C@@H](O)[C@@H](O)CO
REMARK SMILES IDX 7 1 9 2 11 3 12 4 10 6 5 8 2 9 1 10 3 11 4 12 6 14 8 16
REMARK H PARENT 12 5 10 7 4 13 6 15 8 17
REMARK Flexibility Score: inf
ROOT
ATOM      1  C   UNL     1     -43.985 -38.932 104.872  1.00  0.00     0.181 C 
ENDROOT
BRANCH   1   2
ATOM      2  C   UNL     1     -43.907 -40.477 104.996  1.00  0.00     0.171 C 
BRANCH   2   3
ATOM      3  C   UNL     1     -42.531 -40.998 105.460  1.00  0.00     0.190 C 
BRANCH   3   4
ATOM      4  O   UNL     1     -42.238 -40.546 106.753  1.00  0.00    -0.394 OA
ATOM      5  H   UNL     1     -42.249 -39.555 106.709  1.00  0.00     0.210 HD
ENDBRANCH   3   4
ENDBRANCH   2   3
BRANCH   2   6
ATOM      6  O   UNL     1     -44.200 -41.029 103.737  1.00  0.00    -0.388 OA
ATOM      7  H   UNL     1     -44.816 -41.794 103.890  1.00  0.00     0.211 HD
ENDBRANCH   2   6
ENDBRANCH   1   2
BRANCH   1   8
ATOM      8  C   UNL     1     -44.596 -38.223 106.113  1.00  0.00     0.214 C 
BRANCH   8   9
ATOM      9  C   UNL     1     -43.629 -37.246 106.749  1.00  0.00     0.189 C 
ATOM     10  O   UNL     1     -42.768 -37.654 107.514  1.00  0.00    -0.294 OA
BRANCH   9  11
ATOM     11  C   UNL     1     -43.728 -35.774 106.469  1.00  0.00     0.234 C 
BRANCH  11  12
ATOM     12  O   UNL     1     -42.783 -35.420 105.499  1.00  0.00    -0.388 OA
ATOM     13  H   UNL     1     -41.895 -35.522 105.931  1.00  0.00     0.211 HD
ENDBRANCH  11  12
ENDBRANCH   9  11
ENDBRANCH   8   9
BRANCH   8  14
ATOM     14  O   UNL     1     -45.007 -39.167 107.071  1.00  0.00    -0.382 OA
ATOM     15  H   UNL     1     -44.482 -39.008 107.899  1.00  0.00     0.211 HD
ENDBRANCH   8  14
ENDBRANCH   1   8
BRANCH   1  16
ATOM     16  O   UNL     1     -42.703 -38.417 104.610  1.00  0.00    -0.387 OA
ATOM     17  H   UNL     1     -42.712 -38.061 103.683  1.00  0.00     0.211 HD
ENDBRANCH   1  16
TORSDOF 10
ENDMDL
MODEL 8
REMARK VINA RESULT:    -4.111      2.485      4.367
REMARK INTER + INTRA:          -7.120
REMARK INTER:                  -5.615
REMARK INTRA:                  -1.505
REMARK UNBOUND:                -1.207
REMARK SMILES O=C(CO)[C@H](O)[C@@H](O)[C@@H](O)CO
REMARK SMILES IDX 7 1 9 2 11 3 12 4 10 6 5 8 2 9 1 10 3 11 4 12 6 14 8 16
REMARK H PARENT 12 5 10 7 4 13 6 15 8 17
REMARK Flexibility Score: inf
ROOT
ATOM      1  C   UNL     1     -43.153 -41.022 105.530  1.00  0.00     0.181 C 
ENDROOT
BRANCH   1   2
ATOM      2  C   UNL     1     -42.592 -40.992 104.083  1.00  0.00     0.171 C 
BRANCH   2   3
ATOM      3  C   UNL     1     -43.587 -40.448 103.037  1.00  0.00     0.190 C 
BRANCH   3   4
ATOM      4  O   UNL     1     -43.810 -39.078 103.230  1.00  0.00    -0.394 OA
ATOM      5  H   UNL     1     -43.786 -38.929 104.210  1.00  0.00     0.210 HD
ENDBRANCH   3   4
ENDBRANCH   2   3
BRANCH   2   6
ATOM      6  O   UNL     1     -42.235 -42.305 103.728  1.00  0.00    -0.388 OA
ATOM      7  H   UNL     1     -42.751 -42.538 102.911  1.00  0.00     0.211 HD
ENDBRANCH   2   6
ENDBRANCH   1   2
BRANCH   1   8
ATOM      8  C   UNL     1     -42.637 -39.871 106.437  1.00  0.00     0.214 C 
BRANCH   8   9
ATOM      9  C   UNL     1     -43.748 -39.244 107.255  1.00  0.00     0.189 C 
ATOM     10  O   UNL     1     -44.238 -39.863 108.188  1.00  0.00    -0.294 OA
BRANCH   9  11
ATOM     11  C   UNL     1     -44.272 -37.878 106.921  1.00  0.00     0.234 C 
BRANCH  11  12
ATOM     12  O   UNL     1     -44.748 -37.870 105.605  1.00  0.00    -0.388 OA
ATOM     13  H   UNL     1     -43.944 -37.873 105.022  1.00  0.00     0.211 HD
ENDBRANCH  11  12
ENDBRANCH   9  11
ENDBRANCH   8   9
BRANCH   8  14
ATOM     14  O   UNL     1     -42.006 -38.878 105.667  1.00  0.00    -0.382 OA
ATOM     15  H   UNL     1     -41.858 -39.247 104.757  1.00  0.00     0.211 HD
ENDBRANCH   8  14
ENDBRANCH   1   8
BRANCH   1  16
ATOM     16  O   UNL     1     -44.559 -41.007 105.488  1.00  0.00    -0.387 OA
ATOM     17  H   UNL     1     -44.883 -41.418 106.331  1.00  0.00     0.211 HD
ENDBRANCH   1  16
TORSDOF 10
ENDMDL
