MODEL 1
REMARK VINA RESULT:    -2.938      0.000      0.000
REMARK INTER + INTRA:          -3.572
REMARK INTER:                  -3.539
REMARK INTRA:                  -0.033
REMARK UNBOUND:                -0.033
REMARK SMILES CCCCCO
REMARK SMILES IDX 4 1 3 2 2 3 1 4 5 5 6 6
REMARK H PARENT 6 7
REMARK Flexibility Score: inf
ROOT
ATOM      1  C   UNL     1     163.388 179.687 179.247  1.00  0.00     0.028 C 
ENDROOT
BRANCH   1   2
ATOM      2  C   UNL     1     161.950 180.064 179.620  1.00  0.00     0.002 C 
BRANCH   2   3
ATOM      3  C   UNL     1     161.774 180.125 181.141  1.00  0.00    -0.003 C 
ATOM      4  C   UNL     1     162.675 179.113 181.842  1.00  0.00     0.004 C 
ENDBRANCH   2   3
ENDBRANCH   1   2
BRANCH   1   5
ATOM      5  C   UNL     1     163.454 179.076 177.845  1.00  0.00     0.156 C 
BRANCH   5   6
ATOM      6  O   UNL     1     164.405 179.750 177.067  1.00  0.00    -0.396 OA
ATOM      7  H   UNL     1     164.922 180.328 177.687  1.00  0.00     0.210 HD
ENDBRANCH   5   6
ENDBRANCH   1   5
TORSDOF 4
ENDMDL
MODEL 2
REMARK VINA RESULT:    -2.921     14.125     14.303
REMARK INTER + INTRA:          -3.552
REMARK INTER:                  -3.516
REMARK INTRA:                  -0.035
REMARK UNBOUND:                -0.033
REMARK SMILES CCCCCO
REMARK SMILES IDX 4 1 3 2 2 3 1 4 5 5 6 6
REMARK H PARENT 6 7
REMARK Flexibility Score: inf
ROOT
ATOM      1  C   UNL     1     177.292 178.039 179.280  1.00  0.00     0.028 C 
ENDROOT
BRANCH   1   2
ATOM      2  C   UNL     1     177.325 179.499 179.745  1.00  0.00     0.002 C 
BRANCH   2   3
ATOM      3  C   UNL     1     177.038 179.604 181.247  1.00  0.00    -0.003 C 
ATOM      4  C   UNL     1     176.668 178.245 181.834  1.00  0.00     0.004 C 
ENDBRANCH   2   3
ENDBRANCH   1   2
BRANCH   1   5
ATOM      5  C   UNL     1     176.805 177.931 177.832  1.00  0.00     0.156 C 
BRANCH   5   6
ATOM      6  O   UNL     1     177.805 177.373 177.024  1.00  0.00    -0.396 OA
ATOM      7  H   UNL     1     178.447 178.104 176.821  1.00  0.00     0.210 HD
ENDBRANCH   5   6
ENDBRANCH   1   5
TORSDOF 4
ENDMDL
MODEL 3
REMARK VINA RESULT:    -2.920      1.138      1.707
REMARK INTER + INTRA:          -3.550
REMARK INTER:                  -3.519
REMARK INTRA:                  -0.031
REMARK UNBOUND:                -0.033
REMARK SMILES CCCCCO
REMARK SMILES IDX 4 1 3 2 2 3 1 4 5 5 6 6
REMARK H PARENT 6 7
REMARK Flexibility Score: inf
ROOT
ATOM      1  C   UNL     1     163.995 179.620 179.487  1.00  0.00     0.028 C 
ENDROOT
BRANCH   1   2
ATOM      2  C   UNL     1     164.665 179.206 180.803  1.00  0.00     0.002 C 
BRANCH   2   3
ATOM      3  C   UNL     1     163.618 178.916 181.885  1.00  0.00    -0.003 C 
ATOM      4  C   UNL     1     162.313 179.655 181.602  1.00  0.00     0.004 C 
ENDBRANCH   2   3
ENDBRANCH   1   2
BRANCH   1   5
ATOM      5  C   UNL     1     164.618 178.886 178.296  1.00  0.00     0.156 C 
BRANCH   5   6
ATOM      6  O   UNL     1     164.619 179.713 177.164  1.00  0.00    -0.396 OA
ATOM      7  H   UNL     1     164.343 180.616 177.472  1.00  0.00     0.210 HD
ENDBRANCH   5   6
ENDBRANCH   1   5
TORSDOF 4
ENDMDL
MODEL 4
REMARK VINA RESULT:    -2.914     14.161     14.430
REMARK INTER + INTRA:          -3.543
REMARK INTER:                  -3.519
REMARK INTRA:                  -0.024
REMARK UNBOUND:                -0.033
REMARK SMILES CCCCCO
REMARK SMILES IDX 4 1 3 2 2 3 1 4 5 5 6 6
REMARK H PARENT 6 7
REMARK Flexibility Score: inf
ROOT
ATOM      1  C   UNL     1     177.444 177.987 179.433  1.00  0.00     0.028 C 
ENDROOT
BRANCH   1   2
ATOM      2  C   UNL     1     177.466 177.260 180.782  1.00  0.00     0.002 C 
BRANCH   2   3
ATOM      3  C   UNL     1     176.642 178.018 181.829  1.00  0.00    -0.003 C 
ATOM      4  C   UNL     1     176.883 179.521 181.737  1.00  0.00     0.004 C 
ENDBRANCH   2   3
ENDBRANCH   1   2
BRANCH   1   5
ATOM      5  C   UNL     1     176.967 177.060 178.312  1.00  0.00     0.156 C 
BRANCH   5   6
ATOM      6  O   UNL     1     177.736 177.260 177.157  1.00  0.00    -0.396 OA
ATOM      7  H   UNL     1     177.442 178.125 176.767  1.00  0.00     0.210 HD
ENDBRANCH   5   6
ENDBRANCH   1   5
TORSDOF 4
ENDMDL
MODEL 5
REMARK VINA RESULT:    -2.865     14.636     15.175
REMARK INTER + INTRA:          -3.484
REMARK INTER:                  -3.474
REMARK INTRA:                  -0.010
REMARK UNBOUND:                -0.033
REMARK SMILES CCCCCO
REMARK SMILES IDX 4 1 3 2 2 3 1 4 5 5 6 6
REMARK H PARENT 6 7
REMARK Flexibility Score: inf
ROOT
ATOM      1  C   UNL     1     178.356 176.201 180.507  1.00  0.00     0.028 C 
ENDROOT
BRANCH   1   2
ATOM      2  C   UNL     1     177.510 177.460 180.287  1.00  0.00     0.002 C 
BRANCH   2   3
ATOM      3  C   UNL     1     176.928 177.970 181.611  1.00  0.00    -0.003 C 
ATOM      4  C   UNL     1     176.951 179.495 181.672  1.00  0.00     0.004 C 
ENDBRANCH   2   3
ENDBRANCH   1   2
BRANCH   1   5
ATOM      5  C   UNL     1     177.606 174.945 180.058  1.00  0.00     0.156 C 
BRANCH   5   6
ATOM      6  O   UNL     1     178.447 174.124 179.295  1.00  0.00    -0.396 OA
ATOM      7  H   UNL     1     177.963 173.928 178.450  1.00  0.00     0.210 HD
ENDBRANCH   5   6
ENDBRANCH   1   5
TORSDOF 4
ENDMDL
MODEL 6
REMARK VINA RESULT:    -2.761     13.924     14.495
REMARK INTER + INTRA:          -3.358
REMARK INTER:                  -3.309
REMARK INTRA:                  -0.050
REMARK UNBOUND:                -0.033
REMARK SMILES CCCCCO
REMARK SMILES IDX 4 1 3 2 2 3 1 4 5 5 6 6
REMARK H PARENT 6 7
REMARK Flexibility Score: inf
ROOT
ATOM      1  C   UNL     1     177.429 177.806 179.630  1.00  0.00     0.028 C 
ENDROOT
BRANCH   1   2
ATOM      2  C   UNL     1     177.306 179.191 180.276  1.00  0.00     0.002 C 
BRANCH   2   3
ATOM      3  C   UNL     1     176.425 179.136 181.529  1.00  0.00    -0.003 C 
ATOM      4  C   UNL     1     174.944 179.174 181.164  1.00  0.00     0.004 C 
ENDBRANCH   2   3
ENDBRANCH   1   2
BRANCH   1   5
ATOM      5  C   UNL     1     177.819 176.746 180.664  1.00  0.00     0.156 C 
BRANCH   5   6
ATOM      6  O   UNL     1     178.989 176.086 180.264  1.00  0.00    -0.396 OA
ATOM      7  H   UNL     1     179.587 176.063 181.057  1.00  0.00     0.210 HD
ENDBRANCH   5   6
ENDBRANCH   1   5
TORSDOF 4
ENDMDL
MODEL 7
REMARK VINA RESULT:    -2.749     21.746     22.211
REMARK INTER + INTRA:          -3.345
REMARK INTER:                  -3.317
REMARK INTRA:                  -0.028
REMARK UNBOUND:                -0.033
REMARK SMILES CCCCCO
REMARK SMILES IDX 4 1 3 2 2 3 1 4 5 5 6 6
REMARK H PARENT 6 7
REMARK Flexibility Score: inf
ROOT
ATOM      1  C   UNL     1     180.005 164.731 179.485  1.00  0.00     0.028 C 
ENDROOT
BRANCH   1   2
ATOM      2  C   UNL     1     179.379 164.439 180.855  1.00  0.00     0.002 C 
BRANCH   2   3
ATOM      3  C   UNL     1     179.759 165.520 181.874  1.00  0.00    -0.003 C 
ATOM      4  C   UNL     1     180.124 166.828 181.180  1.00  0.00     0.004 C 
ENDBRANCH   2   3
ENDBRANCH   1   2
BRANCH   1   5
ATOM      5  C   UNL     1     178.941 164.741 178.384  1.00  0.00     0.156 C 
BRANCH   5   6
ATOM      6  O   UNL     1     179.398 164.033 177.263  1.00  0.00    -0.396 OA
ATOM      7  H   UNL     1     178.632 163.489 176.940  1.00  0.00     0.210 HD
ENDBRANCH   5   6
ENDBRANCH   1   5
TORSDOF 4
ENDMDL
MODEL 8
REMARK VINA RESULT:    -2.659      2.073      2.172
REMARK INTER + INTRA:          -3.236
REMARK INTER:                  -3.193
REMARK INTRA:                  -0.043
REMARK UNBOUND:                -0.033
REMARK SMILES CCCCCO
REMARK SMILES IDX 4 1 3 2 2 3 1 4 5 5 6 6
REMARK H PARENT 6 7
REMARK Flexibility Score: inf
ROOT
ATOM      1  C   UNL     1     161.506 179.427 178.802  1.00  0.00     0.028 C 
ENDROOT
BRANCH   1   2
ATOM      2  C   UNL     1     162.534 180.042 179.759  1.00  0.00     0.002 C 
BRANCH   2   3
ATOM      3  C   UNL     1     162.219 179.676 181.214  1.00  0.00    -0.003 C 
ATOM      4  C   UNL     1     163.407 178.987 181.878  1.00  0.00     0.004 C 
ENDBRANCH   2   3
ENDBRANCH   1   2
BRANCH   1   5
ATOM      5  C   UNL     1     161.717 177.917 178.661  1.00  0.00     0.156 C 
BRANCH   5   6
ATOM      6  O   UNL     1     160.894 177.405 177.648  1.00  0.00    -0.396 OA
ATOM      7  H   UNL     1     161.497 177.094 176.922  1.00  0.00     0.210 HD
ENDBRANCH   5   6
ENDBRANCH   1   5
TORSDOF 4
ENDMDL
MODEL 9
REMARK VINA RESULT:    -2.655      2.549      2.833
REMARK INTER + INTRA:          -3.231
REMARK INTER:                  -3.221
REMARK INTRA:                  -0.010
REMARK UNBOUND:                -0.033
REMARK SMILES CCCCCO
REMARK SMILES IDX 4 1 3 2 2 3 1 4 5 5 6 6
REMARK H PARENT 6 7
REMARK Flexibility Score: inf
ROOT
ATOM      1  C   UNL     1     165.827 178.860 180.572  1.00  0.00     0.028 C 
ENDROOT
BRANCH   1   2
ATOM      2  C   UNL     1     164.372 179.308 180.395  1.00  0.00     0.002 C 
BRANCH   2   3
ATOM      3  C   UNL     1     163.557 179.046 181.667  1.00  0.00    -0.003 C 
ATOM      4  C   UNL     1     162.212 179.766 181.618  1.00  0.00     0.004 C 
ENDBRANCH   2   3
ENDBRANCH   1   2
BRANCH   1   5
ATOM      5  C   UNL     1     166.511 178.658 179.218  1.00  0.00     0.156 C 
BRANCH   5   6
ATOM      6  O   UNL     1     167.757 179.300 179.204  1.00  0.00    -0.396 OA
ATOM      7  H   UNL     1     168.409 178.664 179.601  1.00  0.00     0.210 HD
ENDBRANCH   5   6
ENDBRANCH   1   5
TORSDOF 4
ENDMDL
