MODEL 1
REMARK VINA RESULT:    -4.717      0.000      0.000
REMARK INTER + INTRA:         -13.799
REMARK INTER:                 -10.784
REMARK INTRA:                  -3.014
REMARK UNBOUND:                -3.014
REMARK SMILES CCCCCCCCCCCCCCCCCCCCCCCC(=O)[O-]
REMARK SMILES IDX 13 1 14 2 15 3 16 4 17 5 18 6 19 7 20 8 21 9 22 10 23 11
REMARK SMILES IDX 24 12 25 13 26 14 12 15 11 16 10 17 9 18 8 19 7 20 6 21 5 22
REMARK SMILES IDX 4 23 3 24 2 25 1 26
REMARK H PARENT
REMARK Flexibility Score: inf
ROOT
ATOM      1  C   UNL     1      11.473  15.213  22.941  1.00  0.00     0.000 C 
ENDROOT
BRANCH   1   2
ATOM      2  C   UNL     1      10.056  15.249  22.344  1.00  0.00     0.000 C 
BRANCH   2   3
ATOM      3  C   UNL     1       9.272  13.950  22.600  1.00  0.00     0.000 C 
BRANCH   3   4
ATOM      4  C   UNL     1       7.776  14.091  22.245  1.00  0.00     0.000 C 
BRANCH   4   5
ATOM      5  C   UNL     1       6.824  13.455  23.277  1.00  0.00     0.000 C 
BRANCH   5   6
ATOM      6  C   UNL     1       6.400  12.008  22.972  1.00  0.00     0.000 C 
BRANCH   6   7
ATOM      7  C   UNL     1       6.751  11.570  21.541  1.00  0.00     0.000 C 
BRANCH   7   8
ATOM      8  C   UNL     1       7.877  10.523  21.499  1.00  0.00     0.000 C 
BRANCH   8   9
ATOM      9  C   UNL     1       8.569  10.418  20.123  1.00  0.00     0.000 C 
BRANCH   9  10
ATOM     10  C   UNL     1       9.004  11.794  19.586  1.00  0.00     0.006 C 
BRANCH  10  11
ATOM     11  C   UNL     1      10.355  11.733  18.862  1.00  0.00     0.053 C 
BRANCH  11  12
ATOM     12  C   UNL     1      11.476  11.424  19.806  1.00  0.00     0.041 C 
ATOM     13  O   UNL     1      12.090  10.328  19.722  1.00  0.00    -0.550 OA
ATOM     14  O   UNL     1      11.809  12.322  20.812  1.00  0.00    -0.550 OA
ENDBRANCH  11  12
ENDBRANCH  10  11
ENDBRANCH   9  10
ENDBRANCH   8   9
ENDBRANCH   7   8
ENDBRANCH   6   7
ENDBRANCH   5   6
ENDBRANCH   4   5
ENDBRANCH   3   4
ENDBRANCH   2   3
ENDBRANCH   1   2
BRANCH   1  15
ATOM     15  C   UNL     1      11.498  15.633  24.420  1.00  0.00     0.000 C 
BRANCH  15  16
ATOM     16  C   UNL     1      12.866  16.180  24.859  1.00  0.00     0.000 C 
BRANCH  16  17
ATOM     17  C   UNL     1      12.771  17.575  25.499  1.00  0.00     0.000 C 
BRANCH  17  18
ATOM     18  C   UNL     1      11.509  18.345  25.076  1.00  0.00    -0.000 C 
BRANCH  18  19
ATOM     19  C   UNL     1      11.805  19.624  24.265  1.00  0.00    -0.000 C 
BRANCH  19  20
ATOM     20  C   UNL     1      12.679  19.344  23.032  1.00  0.00    -0.000 C 
BRANCH  20  21
ATOM     21  C   UNL     1      11.818  18.936  21.828  1.00  0.00    -0.000 C 
BRANCH  21  22
ATOM     22  C   UNL     1      12.545  17.979  20.866  1.00  0.00    -0.000 C 
BRANCH  22  23
ATOM     23  C   UNL     1      13.958  17.548  21.314  1.00  0.00    -0.000 C 
BRANCH  23  24
ATOM     24  C   UNL     1      15.105  18.024  20.405  1.00  0.00    -0.000 C 
BRANCH  24  25
ATOM     25  C   UNL     1      15.576  19.448  20.736  1.00  0.00    -0.003 C 
ATOM     26  C   UNL     1      15.451  20.364  19.521  1.00  0.00     0.004 C 
ENDBRANCH  24  25
ENDBRANCH  23  24
ENDBRANCH  22  23
ENDBRANCH  21  22
ENDBRANCH  20  21
ENDBRANCH  19  20
ENDBRANCH  18  19
ENDBRANCH  17  18
ENDBRANCH  16  17
ENDBRANCH  15  16
ENDBRANCH   1  15
TORSDOF 22
ENDMDL
MODEL 2
REMARK VINA RESULT:    -4.639      2.901      8.093
REMARK INTER + INTRA:         -13.620
REMARK INTER:                 -10.302
REMARK INTRA:                  -3.318
REMARK UNBOUND:                -3.014
REMARK SMILES CCCCCCCCCCCCCCCCCCCCCCCC(=O)[O-]
REMARK SMILES IDX 13 1 14 2 15 3 16 4 17 5 18 6 19 7 20 8 21 9 22 10 23 11
REMARK SMILES IDX 24 12 25 13 26 14 12 15 11 16 10 17 9 18 8 19 7 20 6 21 5 22
REMARK SMILES IDX 4 23 3 24 2 25 1 26
REMARK H PARENT
REMARK Flexibility Score: inf
ROOT
ATOM      1  C   UNL     1       9.420  14.086  22.507  1.00  0.00     0.000 C 
ENDROOT
BRANCH   1   2
ATOM      2  C   UNL     1       9.987  15.514  22.582  1.00  0.00     0.000 C 
BRANCH   2   3
ATOM      3  C   UNL     1      11.509  15.559  22.362  1.00  0.00     0.000 C 
BRANCH   3   4
ATOM      4  C   UNL     1      12.296  15.348  23.674  1.00  0.00     0.000 C 
BRANCH   4   5
ATOM      5  C   UNL     1      11.705  16.094  24.886  1.00  0.00     0.000 C 
BRANCH   5   6
ATOM      6  C   UNL     1      12.694  16.995  25.647  1.00  0.00     0.000 C 
BRANCH   6   7
ATOM      7  C   UNL     1      12.136  18.402  25.915  1.00  0.00     0.000 C 
BRANCH   7   8
ATOM      8  C   UNL     1      11.161  18.873  24.823  1.00  0.00     0.000 C 
BRANCH   8   9
ATOM      9  C   UNL     1      11.766  19.925  23.869  1.00  0.00     0.000 C 
BRANCH   9  10
ATOM     10  C   UNL     1      12.074  19.339  22.479  1.00  0.00     0.006 C 
BRANCH  10  11
ATOM     11  C   UNL     1      13.462  18.686  22.420  1.00  0.00     0.053 C 
BRANCH  11  12
ATOM     12  C   UNL     1      14.542  19.702  22.202  1.00  0.00     0.041 C 
ATOM     13  O   UNL     1      14.521  20.437  21.180  1.00  0.00    -0.550 OA
ATOM     14  O   UNL     1      15.598  19.802  23.098  1.00  0.00    -0.550 OA
ENDBRANCH  11  12
ENDBRANCH  10  11
ENDBRANCH   9  10
ENDBRANCH   8   9
ENDBRANCH   7   8
ENDBRANCH   6   7
ENDBRANCH   5   6
ENDBRANCH   4   5
ENDBRANCH   3   4
ENDBRANCH   2   3
ENDBRANCH   1   2
BRANCH   1  15
ATOM     15  C   UNL     1       7.906  14.069  22.235  1.00  0.00     0.000 C 
BRANCH  15  16
ATOM     16  C   UNL     1       7.142  13.137  23.189  1.00  0.00     0.000 C 
BRANCH  16  17
ATOM     17  C   UNL     1       6.324  12.067  22.447  1.00  0.00     0.000 C 
BRANCH  17  18
ATOM     18  C   UNL     1       6.851  10.641  22.677  1.00  0.00    -0.000 C 
BRANCH  18  19
ATOM     19  C   UNL     1       8.308  10.592  23.183  1.00  0.00    -0.000 C 
BRANCH  19  20
ATOM     20  C   UNL     1       9.308  10.291  22.055  1.00  0.00    -0.000 C 
BRANCH  20  21
ATOM     21  C   UNL     1       8.579   9.875  20.769  1.00  0.00    -0.000 C 
BRANCH  21  22
ATOM     22  C   UNL     1       8.670  10.936  19.658  1.00  0.00    -0.000 C 
BRANCH  22  23
ATOM     23  C   UNL     1       9.836  11.938  19.800  1.00  0.00    -0.000 C 
BRANCH  23  24
ATOM     24  C   UNL     1      11.041  11.673  18.881  1.00  0.00    -0.000 C 
BRANCH  24  25
ATOM     25  C   UNL     1      12.366  11.567  19.651  1.00  0.00    -0.003 C 
ATOM     26  C   UNL     1      12.252  12.213  21.030  1.00  0.00     0.004 C 
ENDBRANCH  24  25
ENDBRANCH  23  24
ENDBRANCH  22  23
ENDBRANCH  21  22
ENDBRANCH  20  21
ENDBRANCH  19  20
ENDBRANCH  18  19
ENDBRANCH  17  18
ENDBRANCH  16  17
ENDBRANCH  15  16
ENDBRANCH   1  15
TORSDOF 22
ENDMDL
MODEL 3
REMARK VINA RESULT:    -4.637      1.553      2.715
REMARK INTER + INTRA:         -13.616
REMARK INTER:                 -10.501
REMARK INTRA:                  -3.116
REMARK UNBOUND:                -3.014
REMARK SMILES CCCCCCCCCCCCCCCCCCCCCCCC(=O)[O-]
REMARK SMILES IDX 13 1 14 2 15 3 16 4 17 5 18 6 19 7 20 8 21 9 22 10 23 11
REMARK SMILES IDX 24 12 25 13 26 14 12 15 11 16 10 17 9 18 8 19 7 20 6 21 5 22
REMARK SMILES IDX 4 23 3 24 2 25 1 26
REMARK H PARENT
REMARK Flexibility Score: inf
ROOT
ATOM      1  C   UNL     1      10.993  16.976  23.473  1.00  0.00     0.000 C 
ENDROOT
BRANCH   1   2
ATOM      2  C   UNL     1      10.604  16.022  22.331  1.00  0.00     0.000 C 
BRANCH   2   3
ATOM      3  C   UNL     1      11.020  14.567  22.607  1.00  0.00     0.000 C 
BRANCH   3   4
ATOM      4  C   UNL     1       9.806  13.613  22.661  1.00  0.00     0.000 C 
BRANCH   4   5
ATOM      5  C   UNL     1       8.516  14.205  22.061  1.00  0.00     0.000 C 
BRANCH   5   6
ATOM      6  C   UNL     1       7.240  13.967  22.888  1.00  0.00     0.000 C 
BRANCH   6   7
ATOM      7  C   UNL     1       6.896  12.477  23.041  1.00  0.00     0.000 C 
BRANCH   7   8
ATOM      8  C   UNL     1       6.872  11.731  21.697  1.00  0.00     0.000 C 
BRANCH   8   9
ATOM      9  C   UNL     1       7.608  10.374  21.732  1.00  0.00     0.000 C 
BRANCH   9  10
ATOM     10  C   UNL     1       8.808  10.340  20.768  1.00  0.00     0.006 C 
BRANCH  10  11
ATOM     11  C   UNL     1       8.688  11.389  19.655  1.00  0.00     0.053 C 
BRANCH  11  12
ATOM     12  C   UNL     1       9.651  11.122  18.538  1.00  0.00     0.041 C 
ATOM     13  O   UNL     1       9.377  10.263  17.659  1.00  0.00    -0.550 OA
ATOM     14  O   UNL     1      10.872  11.783  18.495  1.00  0.00    -0.550 OA
ENDBRANCH  11  12
ENDBRANCH  10  11
ENDBRANCH   9  10
ENDBRANCH   8   9
ENDBRANCH   7   8
ENDBRANCH   6   7
ENDBRANCH   5   6
ENDBRANCH   4   5
ENDBRANCH   3   4
ENDBRANCH   2   3
ENDBRANCH   1   2
BRANCH   1  15
ATOM     15  C   UNL     1      11.534  16.229  24.704  1.00  0.00     0.000 C 
BRANCH  15  16
ATOM     16  C   UNL     1      12.828  16.849  25.254  1.00  0.00     0.000 C 
BRANCH  16  17
ATOM     17  C   UNL     1      13.927  16.976  24.186  1.00  0.00     0.000 C 
BRANCH  17  18
ATOM     18  C   UNL     1      14.526  18.390  24.105  1.00  0.00    -0.000 C 
BRANCH  18  19
ATOM     19  C   UNL     1      14.620  18.942  22.667  1.00  0.00    -0.000 C 
BRANCH  19  20
ATOM     20  C   UNL     1      14.044  17.968  21.628  1.00  0.00    -0.000 C 
BRANCH  20  21
ATOM     21  C   UNL     1      13.379  18.726  20.470  1.00  0.00    -0.000 C 
BRANCH  21  22
ATOM     22  C   UNL     1      14.043  20.085  20.183  1.00  0.00    -0.000 C 
BRANCH  22  23
ATOM     23  C   UNL     1      13.081  21.291  20.148  1.00  0.00    -0.000 C 
BRANCH  23  24
ATOM     24  C   UNL     1      11.843  21.166  21.055  1.00  0.00    -0.000 C 
BRANCH  24  25
ATOM     25  C   UNL     1      12.081  21.718  22.467  1.00  0.00    -0.003 C 
ATOM     26  C   UNL     1      11.694  20.693  23.530  1.00  0.00     0.004 C 
ENDBRANCH  24  25
ENDBRANCH  23  24
ENDBRANCH  22  23
ENDBRANCH  21  22
ENDBRANCH  20  21
ENDBRANCH  19  20
ENDBRANCH  18  19
ENDBRANCH  17  18
ENDBRANCH  16  17
ENDBRANCH  15  16
ENDBRANCH   1  15
TORSDOF 22
ENDMDL
MODEL 4
REMARK VINA RESULT:    -4.630      1.545      3.263
REMARK INTER + INTRA:         -13.598
REMARK INTER:                 -10.167
REMARK INTRA:                  -3.431
REMARK UNBOUND:                -3.014
REMARK SMILES CCCCCCCCCCCCCCCCCCCCCCCC(=O)[O-]
REMARK SMILES IDX 13 1 14 2 15 3 16 4 17 5 18 6 19 7 20 8 21 9 22 10 23 11
REMARK SMILES IDX 24 12 25 13 26 14 12 15 11 16 10 17 9 18 8 19 7 20 6 21 5 22
REMARK SMILES IDX 4 23 3 24 2 25 1 26
REMARK H PARENT
REMARK Flexibility Score: inf
ROOT
ATOM      1  C   UNL     1       9.091  14.451  22.570  1.00  0.00     0.000 C 
ENDROOT
BRANCH   1   2
ATOM      2  C   UNL     1       7.698  13.973  22.127  1.00  0.00     0.000 C 
BRANCH   2   3
ATOM      3  C   UNL     1       6.876  13.385  23.288  1.00  0.00     0.000 C 
BRANCH   3   4
ATOM      4  C   UNL     1       6.305  11.990  22.951  1.00  0.00     0.000 C 
BRANCH   4   5
ATOM      5  C   UNL     1       6.839  11.395  21.634  1.00  0.00     0.000 C 
BRANCH   5   6
ATOM      6  C   UNL     1       7.952  10.344  21.794  1.00  0.00     0.000 C 
BRANCH   6   7
ATOM      7  C   UNL     1       8.964  10.364  20.637  1.00  0.00     0.000 C 
BRANCH   7   8
ATOM      8  C   UNL     1       8.660  11.459  19.601  1.00  0.00     0.000 C 
BRANCH   8   9
ATOM      9  C   UNL     1       9.894  11.888  18.779  1.00  0.00     0.000 C 
BRANCH   9  10
ATOM     10  C   UNL     1      11.210  11.398  19.410  1.00  0.00     0.006 C 
BRANCH  10  11
ATOM     11  C   UNL     1      12.065  10.595  18.421  1.00  0.00     0.053 C 
BRANCH  11  12
ATOM     12  C   UNL     1      12.842  11.491  17.506  1.00  0.00     0.041 C 
ATOM     13  O   UNL     1      13.240  12.615  17.910  1.00  0.00    -0.550 OA
ATOM     14  O   UNL     1      13.083  11.110  16.192  1.00  0.00    -0.550 OA
ENDBRANCH  11  12
ENDBRANCH  10  11
ENDBRANCH   9  10
ENDBRANCH   8   9
ENDBRANCH   7   8
ENDBRANCH   6   7
ENDBRANCH   5   6
ENDBRANCH   4   5
ENDBRANCH   3   4
ENDBRANCH   2   3
ENDBRANCH   1   2
BRANCH   1  15
ATOM     15  C   UNL     1      10.174  13.379  22.363  1.00  0.00     0.000 C 
BRANCH  15  16
ATOM     16  C   UNL     1      11.576  13.981  22.172  1.00  0.00     0.000 C 
BRANCH  16  17
ATOM     17  C   UNL     1      12.550  13.588  23.295  1.00  0.00     0.000 C 
BRANCH  17  18
ATOM     18  C   UNL     1      13.028  14.792  24.123  1.00  0.00    -0.000 C 
BRANCH  18  19
ATOM     19  C   UNL     1      11.951  15.359  25.072  1.00  0.00    -0.000 C 
BRANCH  19  20
ATOM     20  C   UNL     1      11.592  16.816  24.743  1.00  0.00    -0.000 C 
BRANCH  20  21
ATOM     21  C   UNL     1      12.321  17.790  25.680  1.00  0.00    -0.000 C 
BRANCH  21  22
ATOM     22  C   UNL     1      13.138  18.853  24.924  1.00  0.00    -0.000 C 
BRANCH  22  23
ATOM     23  C   UNL     1      14.338  18.308  24.121  1.00  0.00    -0.000 C 
BRANCH  23  24
ATOM     24  C   UNL     1      14.315  18.625  22.615  1.00  0.00    -0.000 C 
BRANCH  24  25
ATOM     25  C   UNL     1      13.801  17.453  21.767  1.00  0.00    -0.003 C 
ATOM     26  C   UNL     1      12.366  17.696  21.307  1.00  0.00     0.004 C 
ENDBRANCH  24  25
ENDBRANCH  23  24
ENDBRANCH  22  23
ENDBRANCH  21  22
ENDBRANCH  20  21
ENDBRANCH  19  20
ENDBRANCH  18  19
ENDBRANCH  17  18
ENDBRANCH  16  17
ENDBRANCH  15  16
ENDBRANCH   1  15
TORSDOF 22
ENDMDL
MODEL 5
REMARK VINA RESULT:    -4.625      1.323      2.398
REMARK INTER + INTRA:         -13.589
REMARK INTER:                 -10.396
REMARK INTRA:                  -3.193
REMARK UNBOUND:                -3.014
REMARK SMILES CCCCCCCCCCCCCCCCCCCCCCCC(=O)[O-]
REMARK SMILES IDX 13 1 14 2 15 3 16 4 17 5 18 6 19 7 20 8 21 9 22 10 23 11
REMARK SMILES IDX 24 12 25 13 26 14 12 15 11 16 10 17 9 18 8 19 7 20 6 21 5 22
REMARK SMILES IDX 4 23 3 24 2 25 1 26
REMARK H PARENT
REMARK Flexibility Score: inf
ROOT
ATOM      1  C   UNL     1       9.861  15.694  22.248  1.00  0.00     0.000 C 
ENDROOT
BRANCH   1   2
ATOM      2  C   UNL     1       9.205  14.343  22.585  1.00  0.00     0.000 C 
BRANCH   2   3
ATOM      3  C   UNL     1       7.712  14.301  22.214  1.00  0.00     0.000 C 
BRANCH   3   4
ATOM      4  C   UNL     1       6.875  13.523  23.252  1.00  0.00     0.000 C 
BRANCH   4   5
ATOM      5  C   UNL     1       6.631  12.047  22.881  1.00  0.00     0.000 C 
BRANCH   5   6
ATOM      6  C   UNL     1       6.794  11.711  21.388  1.00  0.00     0.000 C 
BRANCH   6   7
ATOM      7  C   UNL     1       8.039  10.856  21.100  1.00  0.00     0.000 C 
BRANCH   7   8
ATOM      8  C   UNL     1       8.731  11.241  19.781  1.00  0.00     0.000 C 
BRANCH   8   9
ATOM      9  C   UNL     1      10.035  12.042  19.982  1.00  0.00     0.000 C 
BRANCH   9  10
ATOM     10  C   UNL     1      10.886  11.486  21.138  1.00  0.00     0.006 C 
BRANCH  10  11
ATOM     11  C   UNL     1      12.088  12.383  21.458  1.00  0.00     0.053 C 
BRANCH  11  12
ATOM     12  C   UNL     1      13.361  11.596  21.536  1.00  0.00     0.041 C 
ATOM     13  O   UNL     1      13.357  10.362  21.286  1.00  0.00    -0.550 OA
ATOM     14  O   UNL     1      14.540  12.212  21.934  1.00  0.00    -0.550 OA
ENDBRANCH  11  12
ENDBRANCH  10  11
ENDBRANCH   9  10
ENDBRANCH   8   9
ENDBRANCH   7   8
ENDBRANCH   6   7
ENDBRANCH   5   6
ENDBRANCH   4   5
ENDBRANCH   3   4
ENDBRANCH   2   3
ENDBRANCH   1   2
BRANCH   1  15
ATOM     15  C   UNL     1      11.284  15.814  22.819  1.00  0.00     0.000 C 
BRANCH  15  16
ATOM     16  C   UNL     1      11.434  15.132  24.189  1.00  0.00     0.000 C 
BRANCH  16  17
ATOM     17  C   UNL     1      12.776  15.450  24.868  1.00  0.00     0.000 C 
BRANCH  17  18
ATOM     18  C   UNL     1      13.136  16.945  24.818  1.00  0.00    -0.000 C 
BRANCH  18  19
ATOM     19  C   UNL     1      12.587  17.755  26.011  1.00  0.00    -0.000 C 
BRANCH  19  20
ATOM     20  C   UNL     1      12.252  19.205  25.628  1.00  0.00    -0.000 C 
BRANCH  20  21
ATOM     21  C   UNL     1      11.434  19.256  24.329  1.00  0.00    -0.000 C 
BRANCH  21  22
ATOM     22  C   UNL     1      11.621  20.573  23.553  1.00  0.00    -0.000 C 
BRANCH  22  23
ATOM     23  C   UNL     1      12.892  20.645  22.681  1.00  0.00    -0.000 C 
BRANCH  23  24
ATOM     24  C   UNL     1      13.196  19.377  21.862  1.00  0.00    -0.000 C 
BRANCH  24  25
ATOM     25  C   UNL     1      14.679  18.983  21.902  1.00  0.00    -0.003 C 
ATOM     26  C   UNL     1      15.349  19.494  23.175  1.00  0.00     0.004 C 
ENDBRANCH  24  25
ENDBRANCH  23  24
ENDBRANCH  22  23
ENDBRANCH  21  22
ENDBRANCH  20  21
ENDBRANCH  19  20
ENDBRANCH  18  19
ENDBRANCH  17  18
ENDBRANCH  16  17
ENDBRANCH  15  16
ENDBRANCH   1  15
TORSDOF 22
ENDMDL
MODEL 6
REMARK VINA RESULT:    -4.624      2.081      8.063
REMARK INTER + INTRA:         -13.587
REMARK INTER:                 -10.825
REMARK INTRA:                  -2.762
REMARK UNBOUND:                -3.014
REMARK SMILES CCCCCCCCCCCCCCCCCCCCCCCC(=O)[O-]
REMARK SMILES IDX 13 1 14 2 15 3 16 4 17 5 18 6 19 7 20 8 21 9 22 10 23 11
REMARK SMILES IDX 24 12 25 13 26 14 12 15 11 16 10 17 9 18 8 19 7 20 6 21 5 22
REMARK SMILES IDX 4 23 3 24 2 25 1 26
REMARK H PARENT
REMARK Flexibility Score: inf
ROOT
ATOM      1  C   UNL     1       9.809  15.471  22.297  1.00  0.00     0.000 C 
ENDROOT
BRANCH   1   2
ATOM      2  C   UNL     1      11.300  15.334  22.651  1.00  0.00     0.000 C 
BRANCH   2   3
ATOM      3  C   UNL     1      11.525  14.907  24.112  1.00  0.00     0.000 C 
BRANCH   3   4
ATOM      4  C   UNL     1      12.563  15.798  24.828  1.00  0.00     0.000 C 
BRANCH   4   5
ATOM      5  C   UNL     1      12.042  17.204  25.185  1.00  0.00     0.000 C 
BRANCH   5   6
ATOM      6  C   UNL     1      12.915  18.371  24.689  1.00  0.00     0.000 C 
BRANCH   6   7
ATOM      7  C   UNL     1      14.278  17.910  24.147  1.00  0.00     0.000 C 
BRANCH   7   8
ATOM      8  C   UNL     1      15.182  19.085  23.736  1.00  0.00     0.000 C 
BRANCH   8   9
ATOM      9  C   UNL     1      14.599  19.938  22.589  1.00  0.00     0.000 C 
BRANCH   9  10
ATOM     10  C   UNL     1      15.225  19.585  21.227  1.00  0.00     0.006 C 
BRANCH  10  11
ATOM     11  C   UNL     1      14.185  19.559  20.100  1.00  0.00     0.053 C 
BRANCH  11  12
ATOM     12  C   UNL     1      13.348  18.318  20.147  1.00  0.00     0.041 C 
ATOM     13  O   UNL     1      13.648  17.324  19.434  1.00  0.00    -0.550 OA
ATOM     14  O   UNL     1      12.207  18.274  20.938  1.00  0.00    -0.550 OA
ENDBRANCH  11  12
ENDBRANCH  10  11
ENDBRANCH   9  10
ENDBRANCH   8   9
ENDBRANCH   7   8
ENDBRANCH   6   7
ENDBRANCH   5   6
ENDBRANCH   4   5
ENDBRANCH   3   4
ENDBRANCH   2   3
ENDBRANCH   1   2
BRANCH   1  15
ATOM     15  C   UNL     1       9.081  14.117  22.288  1.00  0.00     0.000 C 
BRANCH  15  16
ATOM     16  C   UNL     1       7.552  14.265  22.230  1.00  0.00     0.000 C 
BRANCH  16  17
ATOM     17  C   UNL     1       6.837  13.497  23.354  1.00  0.00     0.000 C 
BRANCH  17  18
ATOM     18  C   UNL     1       6.365  12.100  22.920  1.00  0.00    -0.000 C 
BRANCH  18  19
ATOM     19  C   UNL     1       7.472  11.027  22.972  1.00  0.00    -0.000 C 
BRANCH  19  20
ATOM     20  C   UNL     1       7.337   9.993  21.843  1.00  0.00    -0.000 C 
BRANCH  20  21
ATOM     21  C   UNL     1       8.481  10.133  20.827  1.00  0.00    -0.000 C 
BRANCH  21  22
ATOM     22  C   UNL     1       8.379  11.416  19.982  1.00  0.00    -0.000 C 
BRANCH  22  23
ATOM     23  C   UNL     1       9.679  11.829  19.259  1.00  0.00    -0.000 C 
BRANCH  23  24
ATOM     24  C   UNL     1      10.968  11.211  19.828  1.00  0.00    -0.000 C 
BRANCH  24  25
ATOM     25  C   UNL     1      11.686  12.137  20.820  1.00  0.00    -0.003 C 
ATOM     26  C   UNL     1      11.672  11.548  22.229  1.00  0.00     0.004 C 
ENDBRANCH  24  25
ENDBRANCH  23  24
ENDBRANCH  22  23
ENDBRANCH  21  22
ENDBRANCH  20  21
ENDBRANCH  19  20
ENDBRANCH  18  19
ENDBRANCH  17  18
ENDBRANCH  16  17
ENDBRANCH  15  16
ENDBRANCH   1  15
TORSDOF 22
ENDMDL
MODEL 7
REMARK VINA RESULT:    -4.558      2.117      8.018
REMARK INTER + INTRA:         -13.435
REMARK INTER:                 -10.410
REMARK INTRA:                  -3.025
REMARK UNBOUND:                -3.014
REMARK SMILES CCCCCCCCCCCCCCCCCCCCCCCC(=O)[O-]
REMARK SMILES IDX 13 1 14 2 15 3 16 4 17 5 18 6 19 7 20 8 21 9 22 10 23 11
REMARK SMILES IDX 24 12 25 13 26 14 12 15 11 16 10 17 9 18 8 19 7 20 6 21 5 22
REMARK SMILES IDX 4 23 3 24 2 25 1 26
REMARK H PARENT
REMARK Flexibility Score: inf
ROOT
ATOM      1  C   UNL     1      11.426  16.848  22.514  1.00  0.00     0.000 C 
ENDROOT
BRANCH   1   2
ATOM      2  C   UNL     1      11.089  17.063  23.999  1.00  0.00     0.000 C 
BRANCH   2   3
ATOM      3  C   UNL     1      11.325  18.513  24.456  1.00  0.00     0.000 C 
BRANCH   3   4
ATOM      4  C   UNL     1      12.651  18.673  25.231  1.00  0.00     0.000 C 
BRANCH   4   5
ATOM      5  C   UNL     1      13.879  18.906  24.330  1.00  0.00     0.000 C 
BRANCH   5   6
ATOM      6  C   UNL     1      13.612  19.733  23.060  1.00  0.00     0.000 C 
BRANCH   6   7
ATOM      7  C   UNL     1      14.637  19.464  21.945  1.00  0.00     0.000 C 
BRANCH   7   8
ATOM      8  C   UNL     1      14.430  20.366  20.717  1.00  0.00     0.000 C 
BRANCH   8   9
ATOM      9  C   UNL     1      14.504  19.606  19.376  1.00  0.00     0.000 C 
BRANCH   9  10
ATOM     10  C   UNL     1      15.425  18.375  19.456  1.00  0.00     0.006 C 
BRANCH  10  11
ATOM     11  C   UNL     1      14.696  17.079  19.077  1.00  0.00     0.053 C 
BRANCH  11  12
ATOM     12  C   UNL     1      15.507  15.868  19.421  1.00  0.00     0.041 C 
ATOM     13  O   UNL     1      16.764  15.911  19.366  1.00  0.00    -0.550 OA
ATOM     14  O   UNL     1      14.876  14.675  19.752  1.00  0.00    -0.550 OA
ENDBRANCH  11  12
ENDBRANCH  10  11
ENDBRANCH   9  10
ENDBRANCH   8   9
ENDBRANCH   7   8
ENDBRANCH   6   7
ENDBRANCH   5   6
ENDBRANCH   4   5
ENDBRANCH   3   4
ENDBRANCH   2   3
ENDBRANCH   1   2
BRANCH   1  15
ATOM     15  C   UNL     1      12.686  15.988  22.316  1.00  0.00     0.000 C 
BRANCH  15  16
ATOM     16  C   UNL     1      13.194  15.369  23.628  1.00  0.00     0.000 C 
BRANCH  16  17
ATOM     17  C   UNL     1      12.993  13.845  23.684  1.00  0.00     0.000 C 
BRANCH  17  18
ATOM     18  C   UNL     1      13.061  13.179  22.300  1.00  0.00    -0.000 C 
BRANCH  18  19
ATOM     19  C   UNL     1      12.012  12.068  22.093  1.00  0.00    -0.000 C 
BRANCH  19  20
ATOM     20  C   UNL     1      10.652  12.426  22.713  1.00  0.00    -0.000 C 
BRANCH  20  21
ATOM     21  C   UNL     1       9.747  13.126  21.689  1.00  0.00    -0.000 C 
BRANCH  21  22
ATOM     22  C   UNL     1       8.840  14.196  22.323  1.00  0.00    -0.000 C 
BRANCH  22  23
ATOM     23  C   UNL     1       7.393  13.742  22.613  1.00  0.00    -0.000 C 
BRANCH  23  24
ATOM     24  C   UNL     1       6.995  12.392  21.991  1.00  0.00    -0.000 C 
BRANCH  24  25
ATOM     25  C   UNL     1       6.449  11.397  23.025  1.00  0.00    -0.003 C 
ATOM     26  C   UNL     1       5.088  10.854  22.599  1.00  0.00     0.004 C 
ENDBRANCH  24  25
ENDBRANCH  23  24
ENDBRANCH  22  23
ENDBRANCH  21  22
ENDBRANCH  20  21
ENDBRANCH  19  20
ENDBRANCH  18  19
ENDBRANCH  17  18
ENDBRANCH  16  17
ENDBRANCH  15  16
ENDBRANCH   1  15
TORSDOF 22
ENDMDL
MODEL 8
REMARK VINA RESULT:    -4.556      2.266      7.733
REMARK INTER + INTRA:         -13.431
REMARK INTER:                  -9.713
REMARK INTRA:                  -3.718
REMARK UNBOUND:                -3.014
REMARK SMILES CCCCCCCCCCCCCCCCCCCCCCCC(=O)[O-]
REMARK SMILES IDX 13 1 14 2 15 3 16 4 17 5 18 6 19 7 20 8 21 9 22 10 23 11
REMARK SMILES IDX 24 12 25 13 26 14 12 15 11 16 10 17 9 18 8 19 7 20 6 21 5 22
REMARK SMILES IDX 4 23 3 24 2 25 1 26
REMARK H PARENT
REMARK Flexibility Score: inf
ROOT
ATOM      1  C   UNL     1       8.889  14.731  22.252  1.00  0.00     0.000 C 
ENDROOT
BRANCH   1   2
ATOM      2  C   UNL     1      10.119  13.880  21.891  1.00  0.00     0.000 C 
BRANCH   2   3
ATOM      3  C   UNL     1      10.837  13.320  23.131  1.00  0.00     0.000 C 
BRANCH   3   4
ATOM      4  C   UNL     1      12.368  13.509  23.056  1.00  0.00     0.000 C 
BRANCH   4   5
ATOM      5  C   UNL     1      12.875  14.796  23.736  1.00  0.00     0.000 C 
BRANCH   5   6
ATOM      6  C   UNL     1      11.900  15.432  24.743  1.00  0.00     0.000 C 
BRANCH   6   7
ATOM      7  C   UNL     1      12.313  16.853  25.159  1.00  0.00     0.000 C 
BRANCH   7   8
ATOM      8  C   UNL     1      13.671  17.273  24.570  1.00  0.00     0.000 C 
BRANCH   8   9
ATOM      9  C   UNL     1      13.596  18.542  23.694  1.00  0.00     0.000 C 
BRANCH   9  10
ATOM     10  C   UNL     1      14.175  18.311  22.287  1.00  0.00     0.006 C 
BRANCH  10  11
ATOM     11  C   UNL     1      13.210  17.534  21.383  1.00  0.00     0.053 C 
BRANCH  11  12
ATOM     12  C   UNL     1      11.831  18.120  21.413  1.00  0.00     0.041 C 
ATOM     13  O   UNL     1      10.879  17.471  21.920  1.00  0.00    -0.550 OA
ATOM     14  O   UNL     1      11.585  19.359  20.836  1.00  0.00    -0.550 OA
ENDBRANCH  11  12
ENDBRANCH  10  11
ENDBRANCH   9  10
ENDBRANCH   8   9
ENDBRANCH   7   8
ENDBRANCH   6   7
ENDBRANCH   5   6
ENDBRANCH   4   5
ENDBRANCH   3   4
ENDBRANCH   2   3
ENDBRANCH   1   2
BRANCH   1  15
ATOM     15  C   UNL     1       7.568  13.972  22.042  1.00  0.00     0.000 C 
BRANCH  15  16
ATOM     16  C   UNL     1       7.127  13.192  23.291  1.00  0.00     0.000 C 
BRANCH  16  17
ATOM     17  C   UNL     1       6.094  12.098  22.976  1.00  0.00     0.000 C 
BRANCH  17  18
ATOM     18  C   UNL     1       6.738  10.744  22.632  1.00  0.00    -0.000 C 
BRANCH  18  19
ATOM     19  C   UNL     1       8.215  10.632  23.063  1.00  0.00    -0.000 C 
BRANCH  19  20
ATOM     20  C   UNL     1       9.133  10.220  21.902  1.00  0.00    -0.000 C 
BRANCH  20  21
ATOM     21  C   UNL     1       8.377  10.244  20.566  1.00  0.00    -0.000 C 
BRANCH  21  22
ATOM     22  C   UNL     1       8.826  11.392  19.643  1.00  0.00    -0.000 C 
BRANCH  22  23
ATOM     23  C   UNL     1       9.794  10.984  18.513  1.00  0.00    -0.000 C 
BRANCH  23  24
ATOM     24  C   UNL     1      11.137  11.735  18.500  1.00  0.00    -0.000 C 
BRANCH  24  25
ATOM     25  C   UNL     1      11.917  11.584  19.814  1.00  0.00    -0.003 C 
ATOM     26  C   UNL     1      12.404  10.149  20.002  1.00  0.00     0.004 C 
ENDBRANCH  24  25
ENDBRANCH  23  24
ENDBRANCH  22  23
ENDBRANCH  21  22
ENDBRANCH  20  21
ENDBRANCH  19  20
ENDBRANCH  18  19
ENDBRANCH  17  18
ENDBRANCH  16  17
ENDBRANCH  15  16
ENDBRANCH   1  15
TORSDOF 22
ENDMDL
MODEL 9
REMARK VINA RESULT:    -4.497      1.760      3.379
REMARK INTER + INTRA:         -13.295
REMARK INTER:                  -9.652
REMARK INTRA:                  -3.643
REMARK UNBOUND:                -3.014
REMARK SMILES CCCCCCCCCCCCCCCCCCCCCCCC(=O)[O-]
REMARK SMILES IDX 13 1 14 2 15 3 16 4 17 5 18 6 19 7 20 8 21 9 22 10 23 11
REMARK SMILES IDX 24 12 25 13 26 14 12 15 11 16 10 17 9 18 8 19 7 20 6 21 5 22
REMARK SMILES IDX 4 23 3 24 2 25 1 26
REMARK H PARENT
REMARK Flexibility Score: inf
ROOT
ATOM      1  C   UNL     1       8.267  13.722  21.870  1.00  0.00     0.000 C 
ENDROOT
BRANCH   1   2
ATOM      2  C   UNL     1       7.222  13.608  22.992  1.00  0.00     0.000 C 
BRANCH   2   3
ATOM      3  C   UNL     1       6.508  12.245  23.002  1.00  0.00     0.000 C 
BRANCH   3   4
ATOM      4  C   UNL     1       6.797  11.426  21.725  1.00  0.00     0.000 C 
BRANCH   4   5
ATOM      5  C   UNL     1       7.580  10.123  21.979  1.00  0.00     0.000 C 
BRANCH   5   6
ATOM      6  C   UNL     1       8.623  10.196  23.109  1.00  0.00     0.000 C 
BRANCH   6   7
ATOM      7  C   UNL     1      10.061  10.344  22.586  1.00  0.00     0.000 C 
BRANCH   7   8
ATOM      8  C   UNL     1      10.163  10.148  21.064  1.00  0.00     0.000 C 
BRANCH   8   9
ATOM      9  C   UNL     1      10.706  11.387  20.319  1.00  0.00     0.000 C 
BRANCH   9  10
ATOM     10  C   UNL     1       9.790  11.812  19.157  1.00  0.00     0.006 C 
BRANCH  10  11
ATOM     11  C   UNL     1       9.754  10.768  18.034  1.00  0.00     0.053 C 
BRANCH  11  12
ATOM     12  C   UNL     1      10.623  11.166  16.881  1.00  0.00     0.041 C 
ATOM     13  O   UNL     1      10.139  11.821  15.921  1.00  0.00    -0.550 OA
ATOM     14  O   UNL     1      11.954  10.770  16.838  1.00  0.00    -0.550 OA
ENDBRANCH  11  12
ENDBRANCH  10  11
ENDBRANCH   9  10
ENDBRANCH   8   9
ENDBRANCH   7   8
ENDBRANCH   6   7
ENDBRANCH   5   6
ENDBRANCH   4   5
ENDBRANCH   3   4
ENDBRANCH   2   3
ENDBRANCH   1   2
BRANCH   1  15
ATOM     15  C   UNL     1       9.457  14.615  22.263  1.00  0.00     0.000 C 
BRANCH  15  16
ATOM     16  C   UNL     1      10.498  13.874  23.116  1.00  0.00     0.000 C 
BRANCH  16  17
ATOM     17  C   UNL     1      11.939  14.113  22.637  1.00  0.00     0.000 C 
BRANCH  17  18
ATOM     18  C   UNL     1      12.955  14.173  23.790  1.00  0.00    -0.000 C 
BRANCH  18  19
ATOM     19  C   UNL     1      12.641  15.261  24.838  1.00  0.00    -0.000 C 
BRANCH  19  20
ATOM     20  C   UNL     1      13.264  16.618  24.476  1.00  0.00    -0.000 C 
BRANCH  20  21
ATOM     21  C   UNL     1      12.240  17.752  24.625  1.00  0.00    -0.000 C 
BRANCH  21  22
ATOM     22  C   UNL     1      11.171  17.745  23.517  1.00  0.00    -0.000 C 
BRANCH  22  23
ATOM     23  C   UNL     1      11.721  17.701  22.075  1.00  0.00    -0.000 C 
BRANCH  23  24
ATOM     24  C   UNL     1      11.818  19.066  21.371  1.00  0.00    -0.000 C 
BRANCH  24  25
ATOM     25  C   UNL     1      13.138  19.795  21.664  1.00  0.00    -0.003 C 
ATOM     26  C   UNL     1      12.921  20.955  22.632  1.00  0.00     0.004 C 
ENDBRANCH  24  25
ENDBRANCH  23  24
ENDBRANCH  22  23
ENDBRANCH  21  22
ENDBRANCH  20  21
ENDBRANCH  19  20
ENDBRANCH  18  19
ENDBRANCH  17  18
ENDBRANCH  16  17
ENDBRANCH  15  16
ENDBRANCH   1  15
TORSDOF 22
ENDMDL
