MODEL 1
REMARK VINA RESULT:    -4.456      0.000      0.000
REMARK INTER + INTRA:         -13.401
REMARK INTER:                  -9.405
REMARK INTRA:                  -3.996
REMARK UNBOUND:                -3.996
REMARK SMILES CCC(=O)CCCCC[C@H]1NC(=O)[C@@H]2CCCCN2C(=O)[C@@H]([C@H](C)CC)NC(=O)[C@@H](Cc2cn(OC)c3ccccc23)NC1=O
REMARK SMILES IDX 9 1 10 2 44 3 43 4 45 6 30 7 28 8 27 9 29 11 22 12 23 14
REMARK SMILES IDX 24 15 25 16 26 17 31 18 32 19 33 20 42 21 34 22 37 23 41 24
REMARK SMILES IDX 38 25 40 26 39 27 35 28 36 29 11 30 12 31 13 33 14 34 19 35
REMARK SMILES IDX 15 36 18 37 16 38 17 39 20 40 21 41 8 43 7 44 6 45 5 46 3 47
REMARK SMILES IDX 4 48 2 49 1 50
REMARK H PARENT 43 5 27 10 11 32
REMARK Flexibility Score: 80.00
ROOT
ATOM      1  C   UNL     1      18.205  15.517 -17.078  1.00  0.00     0.035 C 
ENDROOT
BRANCH   1   2
ATOM      2  C   UNL     1      16.673  15.749 -17.237  1.00  0.00     0.171 C 
BRANCH   2   3
ATOM      3  C   UNL     1      15.838  14.496 -17.394  1.00  0.00     0.243 C 
ATOM      4  N   UNL     1      16.311  13.338 -18.101  1.00  0.00    -0.342 N 
ATOM      5  H   UNL     1      17.294  13.317 -18.451  1.00  0.00     0.164 HD
ATOM      6  O   UNL     1      14.674  14.490 -16.903  1.00  0.00    -0.273 OA
BRANCH   4   7
ATOM      7  C   UNL     1      15.441  12.178 -18.337  1.00  0.00     0.175 C 
BRANCH   7   8
ATOM      8  C   UNL     1      14.449  12.496 -19.429  1.00  0.00     0.243 C 
ATOM      9  N   UNL     1      14.786  13.433 -20.462  1.00  0.00    -0.342 N 
ATOM     10  H   UNL     1      15.786  13.711 -20.548  1.00  0.00     0.164 HD
ATOM     11  O   UNL     1      13.326  11.925 -19.429  1.00  0.00    -0.273 OA
BRANCH   9  12
ATOM     12  C   UNL     1      13.774  14.197 -21.201  1.00  0.00     0.174 CG0
ATOM     13  G   UNL     1      13.629  15.587 -20.591  1.00  0.00     0.000 G0
BRANCH  12  14
ATOM     14  C   UNL     1      13.987  14.104 -22.758  1.00  0.00     0.018 C 
ATOM     15  C   UNL     1      13.232  12.876 -23.305  1.00  0.00     0.010 C 
BRANCH  14  16
ATOM     16  C   UNL     1      15.461  14.017 -23.249  1.00  0.00     0.002 C 
ATOM     17  C   UNL     1      15.868  15.121 -24.215  1.00  0.00     0.004 C 
ENDBRANCH  14  16
ENDBRANCH  12  14
ENDBRANCH   9  12
ENDBRANCH   7   8
BRANCH   7  18
ATOM     18  C   UNL     1      16.273  10.930 -18.686  1.00  0.00     0.073 C 
BRANCH  18  19
ATOM     19  C   UNL     1      17.632  11.305 -19.209  1.00  0.00    -0.016 A 
ATOM     20  C   UNL     1      18.785  11.475 -18.447  1.00  0.00     0.134 A 
ATOM     21  C   UNL     1      18.034  11.408 -20.531  1.00  0.00     0.006 A 
ATOM     22  N   UNL     1      19.847  11.689 -19.261  1.00  0.00    -0.191 N 
ATOM     23  C   UNL     1      19.387  11.645 -20.522  1.00  0.00     0.087 A 
ATOM     24  C   UNL     1      17.321  11.288 -21.723  1.00  0.00     0.011 A 
ATOM     25  C   UNL     1      20.118  11.773 -21.705  1.00  0.00     0.030 A 
ATOM     26  C   UNL     1      18.030  11.422 -22.932  1.00  0.00     0.001 A 
ATOM     27  C   UNL     1      19.422  11.661 -22.922  1.00  0.00     0.002 A 
BRANCH  22  28
ATOM     28  O   UNL     1      21.167  11.875 -18.894  1.00  0.00    -0.417 OA
ATOM     29  C   UNL     1      21.689  13.153 -18.551  1.00  0.00     0.313 C 
ENDBRANCH  22  28
ENDBRANCH  18  19
ENDBRANCH   7  18
ENDBRANCH   4   7
ENDBRANCH   2   3
BRANCH   2  30
ATOM     30  N   UNL     1      16.307  16.788 -18.211  1.00  0.00    -0.343 N 
ATOM     31  C   UNL     1      16.154  16.586 -19.634  1.00  0.00     0.243 C 
ATOM     32  H   UNL     1      16.100  17.724 -17.805  1.00  0.00     0.164 HD
ATOM     33  O   UNL     1      16.752  15.635 -20.194  1.00  0.00    -0.273 OA
BRANCH  31  34
ATOM     34  C   UNL     1      15.312  17.509 -20.505  1.00  0.00     0.174 C 
ATOM     35  N   UNL     1      14.180  16.809 -21.159  1.00  0.00    -0.329 N 
ATOM     36  C   UNL     1      14.796  18.752 -19.751  1.00  0.00     0.035 C 
ATOM     37  C   UNL     1      13.321  17.625 -22.034  1.00  0.00     0.120 C 
ATOM     38  C   UNL     1      13.979  19.647 -20.685  1.00  0.00     0.004 C 
ATOM     39  C   UNL     1      12.814  18.864 -21.291  1.00  0.00     0.022 C 
BRANCH  35  40
ATOM     40  C   UNL     1      13.622  15.610 -20.589  1.00  0.00     0.246 CG0
ATOM     41  O   UNL     1      13.042  15.694 -19.472  1.00  0.00    -0.272 OA
ATOM     42  G   UNL     1      13.777  14.226 -21.212  1.00  0.00     0.000 G0
ENDBRANCH  35  40
ENDBRANCH  31  34
ENDBRANCH   2  30
ENDBRANCH   1   2
BRANCH   1  43
ATOM     43  C   UNL     1      18.927  16.140 -15.864  1.00  0.00     0.003 C 
BRANCH  43  44
ATOM     44  C   UNL     1      20.233  16.867 -16.240  1.00  0.00     0.001 C 
BRANCH  44  45
ATOM     45  C   UNL     1      19.989  18.323 -16.675  1.00  0.00     0.008 C 
BRANCH  45  46
ATOM     46  C   UNL     1      18.937  19.054 -15.824  1.00  0.00     0.075 C 
BRANCH  46  47
ATOM     47  C   UNL     1      17.865  19.681 -16.679  1.00  0.00     0.132 C 
ATOM     48  O   UNL     1      16.742  19.201 -16.683  1.00  0.00    -0.300 OA
BRANCH  47  49
ATOM     49  C   UNL     1      18.152  20.893 -17.526  1.00  0.00     0.072 C 
ATOM     50  C   UNL     1      16.860  21.486 -18.082  1.00  0.00     0.012 C 
ENDBRANCH  47  49
ENDBRANCH  46  47
ENDBRANCH  45  46
ENDBRANCH  44  45
ENDBRANCH  43  44
ENDBRANCH   1  43
TORSDOF 12
ENDMDL
MODEL 2
REMARK VINA RESULT:    -4.211      2.059      2.860
REMARK INTER + INTRA:         -12.884
REMARK INTER:                  -9.854
REMARK INTRA:                  -3.030
REMARK UNBOUND:                -3.996
REMARK SMILES CCC(=O)CCCCC[C@H]1NC(=O)[C@@H]2CCCCN2C(=O)[C@@H]([C@H](C)CC)NC(=O)[C@@H](Cc2cn(OC)c3ccccc23)NC1=O
REMARK SMILES IDX 9 1 10 2 44 3 43 4 45 6 30 7 28 8 27 9 29 11 22 12 23 14
REMARK SMILES IDX 24 15 25 16 26 17 31 18 32 19 33 20 42 21 34 22 37 23 41 24
REMARK SMILES IDX 38 25 40 26 39 27 35 28 36 29 11 30 12 31 13 33 14 34 19 35
REMARK SMILES IDX 15 36 18 37 16 38 17 39 20 40 21 41 8 43 7 44 6 45 5 46 3 47
REMARK SMILES IDX 4 48 2 49 1 50
REMARK H PARENT 43 5 27 10 11 32
REMARK Flexibility Score: 80.00
ROOT
ATOM      1  C   UNL     1      17.841  16.432 -17.652  1.00  0.00     0.035 C 
ENDROOT
BRANCH   1   2
ATOM      2  C   UNL     1      16.350  16.203 -18.041  1.00  0.00     0.171 C 
BRANCH   2   3
ATOM      3  C   UNL     1      16.014  14.812 -18.536  1.00  0.00     0.243 C 
ATOM      4  N   UNL     1      16.904  14.054 -19.371  1.00  0.00    -0.342 N 
ATOM      5  H   UNL     1      17.854  14.432 -19.583  1.00  0.00     0.164 HD
ATOM      6  O   UNL     1      14.896  14.320 -18.215  1.00  0.00    -0.273 OA
BRANCH   4   7
ATOM      7  C   UNL     1      16.508  12.755 -19.930  1.00  0.00     0.175 C 
BRANCH   7   8
ATOM      8  C   UNL     1      15.233  12.906 -20.722  1.00  0.00     0.243 C 
ATOM      9  N   UNL     1      15.019  14.068 -21.535  1.00  0.00    -0.342 N 
ATOM     10  H   UNL     1      15.842  14.679 -21.722  1.00  0.00     0.164 HD
ATOM     11  O   UNL     1      14.360  11.998 -20.668  1.00  0.00    -0.273 OA
BRANCH   9  12
ATOM     12  C   UNL     1      13.681  14.563 -21.878  1.00  0.00     0.174 CG0
ATOM     13  G   UNL     1      13.442  15.913 -21.209  1.00  0.00     0.000 G0
BRANCH  12  14
ATOM     14  C   UNL     1      13.389  14.452 -23.421  1.00  0.00     0.018 C 
ATOM     15  C   UNL     1      12.459  13.250 -23.681  1.00  0.00     0.010 C 
BRANCH  14  16
ATOM     16  C   UNL     1      14.629  14.307 -24.349  1.00  0.00     0.002 C 
ATOM     17  C   UNL     1      15.294  15.626 -24.720  1.00  0.00     0.004 C 
ENDBRANCH  14  16
ENDBRANCH  12  14
ENDBRANCH   9  12
ENDBRANCH   7   8
BRANCH   7  18
ATOM     18  C   UNL     1      17.635  12.164 -20.797  1.00  0.00     0.073 C 
BRANCH  18  19
ATOM     19  C   UNL     1      17.521  10.668 -20.899  1.00  0.00    -0.016 A 
ATOM     20  C   UNL     1      16.965   9.959 -21.961  1.00  0.00     0.134 A 
ATOM     21  C   UNL     1      18.064   9.715 -20.053  1.00  0.00     0.006 A 
ATOM     22  N   UNL     1      17.143   8.629 -21.770  1.00  0.00    -0.191 N 
ATOM     23  C   UNL     1      17.811   8.487 -20.613  1.00  0.00     0.087 A 
ATOM     24  C   UNL     1      18.773   9.841 -18.859  1.00  0.00     0.011 A 
ATOM     25  C   UNL     1      18.254   7.304 -20.020  1.00  0.00     0.030 A 
ATOM     26  C   UNL     1      19.224   8.664 -18.232  1.00  0.00     0.001 A 
ATOM     27  C   UNL     1      18.968   7.402 -18.812  1.00  0.00     0.002 A 
BRANCH  22  28
ATOM     28  O   UNL     1      16.762   7.597 -22.608  1.00  0.00    -0.417 OA
ATOM     29  C   UNL     1      15.464   7.015 -22.556  1.00  0.00     0.313 C 
ENDBRANCH  22  28
ENDBRANCH  18  19
ENDBRANCH   7  18
ENDBRANCH   4   7
ENDBRANCH   2   3
BRANCH   2  30
ATOM     30  N   UNL     1      15.769  17.252 -18.892  1.00  0.00    -0.343 N 
ATOM     31  C   UNL     1      15.811  17.278 -20.336  1.00  0.00     0.243 C 
ATOM     32  H   UNL     1      15.251  17.998 -18.384  1.00  0.00     0.164 HD
ATOM     33  O   UNL     1      16.718  16.658 -20.943  1.00  0.00    -0.273 OA
BRANCH  31  34
ATOM     34  C   UNL     1      14.805  18.061 -21.168  1.00  0.00     0.174 C 
ATOM     35  N   UNL     1      13.770  17.197 -21.787  1.00  0.00    -0.329 N 
ATOM     36  C   UNL     1      14.132  19.208 -20.386  1.00  0.00     0.035 C 
ATOM     37  C   UNL     1      12.764  17.873 -22.624  1.00  0.00     0.120 C 
ATOM     38  C   UNL     1      13.153  19.969 -21.283  1.00  0.00     0.004 C 
ATOM     39  C   UNL     1      12.100  19.018 -21.853  1.00  0.00     0.022 C 
BRANCH  35  40
ATOM     40  C   UNL     1      13.425  15.925 -21.207  1.00  0.00     0.246 CG0
ATOM     41  O   UNL     1      12.938  15.912 -20.043  1.00  0.00    -0.272 OA
ATOM     42  G   UNL     1      13.705  14.584 -21.879  1.00  0.00     0.000 G0
ENDBRANCH  35  40
ENDBRANCH  31  34
ENDBRANCH   2  30
ENDBRANCH   1   2
BRANCH   1  43
ATOM     43  C   UNL     1      18.219  16.473 -16.156  1.00  0.00     0.003 C 
BRANCH  43  44
ATOM     44  C   UNL     1      17.176  17.197 -15.283  1.00  0.00     0.001 C 
BRANCH  44  45
ATOM     45  C   UNL     1      17.554  18.666 -15.015  1.00  0.00     0.008 C 
BRANCH  45  46
ATOM     46  C   UNL     1      18.524  19.253 -16.054  1.00  0.00     0.075 C 
BRANCH  46  47
ATOM     47  C   UNL     1      17.862  20.313 -16.898  1.00  0.00     0.132 C 
ATOM     48  O   UNL     1      18.540  21.210 -17.377  1.00  0.00    -0.300 OA
BRANCH  47  49
ATOM     49  C   UNL     1      16.381  20.282 -17.169  1.00  0.00     0.072 C 
ATOM     50  C   UNL     1      15.984  21.385 -18.147  1.00  0.00     0.012 C 
ENDBRANCH  47  49
ENDBRANCH  46  47
ENDBRANCH  45  46
ENDBRANCH  44  45
ENDBRANCH  43  44
ENDBRANCH   1  43
TORSDOF 12
ENDMDL
MODEL 3
REMARK VINA RESULT:    -4.132      1.690      2.226
REMARK INTER + INTRA:         -12.718
REMARK INTER:                  -8.542
REMARK INTRA:                  -4.176
REMARK UNBOUND:                -3.996
REMARK SMILES CCC(=O)CCCCC[C@H]1NC(=O)[C@@H]2CCCCN2C(=O)[C@@H]([C@H](C)CC)NC(=O)[C@@H](Cc2cn(OC)c3ccccc23)NC1=O
REMARK SMILES IDX 9 1 10 2 44 3 43 4 45 6 30 7 28 8 27 9 29 11 22 12 23 14
REMARK SMILES IDX 24 15 25 16 26 17 31 18 32 19 33 20 42 21 34 22 37 23 41 24
REMARK SMILES IDX 38 25 40 26 39 27 35 28 36 29 11 30 12 31 13 33 14 34 19 35
REMARK SMILES IDX 15 36 18 37 16 38 17 39 20 40 21 41 8 43 7 44 6 45 5 46 3 47
REMARK SMILES IDX 4 48 2 49 1 50
REMARK H PARENT 43 5 27 10 11 32
REMARK Flexibility Score: 80.00
ROOT
ATOM      1  C   UNL     1      17.561  15.518 -14.472  1.00  0.00     0.035 C 
ENDROOT
BRANCH   1   2
ATOM      2  C   UNL     1      16.326  15.421 -15.417  1.00  0.00     0.171 C 
BRANCH   2   3
ATOM      3  C   UNL     1      15.871  14.015 -15.750  1.00  0.00     0.243 C 
ATOM      4  N   UNL     1      16.790  12.919 -15.885  1.00  0.00    -0.342 N 
ATOM      5  H   UNL     1      17.800  13.067 -15.667  1.00  0.00     0.164 HD
ATOM      6  O   UNL     1      14.638  13.817 -15.937  1.00  0.00    -0.273 OA
BRANCH   4   7
ATOM      7  C   UNL     1      16.336  11.591 -16.318  1.00  0.00     0.175 C 
BRANCH   7   8
ATOM      8  C   UNL     1      15.717  11.684 -17.690  1.00  0.00     0.243 C 
ATOM      9  N   UNL     1      16.096  12.739 -18.585  1.00  0.00    -0.342 N 
ATOM     10  H   UNL     1      16.945  13.291 -18.341  1.00  0.00     0.164 HD
ATOM     11  O   UNL     1      14.869  10.822 -18.045  1.00  0.00    -0.273 OA
BRANCH   9  12
ATOM     12  C   UNL     1      15.215  13.232 -19.649  1.00  0.00     0.174 CG0
ATOM     13  G   UNL     1      14.962  14.725 -19.460  1.00  0.00     0.000 G0
BRANCH  12  14
ATOM     14  C   UNL     1      15.681  12.748 -21.072  1.00  0.00     0.018 C 
ATOM     15  C   UNL     1      14.867  11.503 -21.481  1.00  0.00     0.010 C 
BRANCH  14  16
ATOM     16  C   UNL     1      17.191  12.403 -21.224  1.00  0.00     0.002 C 
ATOM     17  C   UNL     1      17.526  11.576 -22.458  1.00  0.00     0.004 C 
ENDBRANCH  14  16
ENDBRANCH  12  14
ENDBRANCH   9  12
ENDBRANCH   7   8
BRANCH   7  18
ATOM     18  C   UNL     1      17.499  10.581 -16.299  1.00  0.00     0.073 C 
BRANCH  18  19
ATOM     19  C   UNL     1      18.425  10.788 -17.466  1.00  0.00    -0.016 A 
ATOM     20  C   UNL     1      19.390  11.785 -17.580  1.00  0.00     0.134 A 
ATOM     21  C   UNL     1      18.601   9.964 -18.566  1.00  0.00     0.006 A 
ATOM     22  N   UNL     1      20.118  11.594 -18.706  1.00  0.00    -0.191 N 
ATOM     23  C   UNL     1      19.638  10.488 -19.299  1.00  0.00     0.087 A 
ATOM     24  C   UNL     1      17.950   8.795 -18.955  1.00  0.00     0.011 A 
ATOM     25  C   UNL     1      20.095   9.876 -20.467  1.00  0.00     0.030 A 
ATOM     26  C   UNL     1      18.383   8.160 -20.135  1.00  0.00     0.001 A 
ATOM     27  C   UNL     1      19.452   8.697 -20.885  1.00  0.00     0.002 A 
BRANCH  22  28
ATOM     28  O   UNL     1      21.185  12.349 -19.160  1.00  0.00    -0.417 OA
ATOM     29  C   UNL     1      22.025  13.086 -18.279  1.00  0.00     0.313 C 
ENDBRANCH  22  28
ENDBRANCH  18  19
ENDBRANCH   7  18
ENDBRANCH   4   7
ENDBRANCH   2   3
BRANCH   2  30
ATOM     30  N   UNL     1      16.395  16.280 -16.608  1.00  0.00    -0.343 N 
ATOM     31  C   UNL     1      17.034  15.931 -17.857  1.00  0.00     0.243 C 
ATOM     32  H   UNL     1      15.892  17.188 -16.530  1.00  0.00     0.164 HD
ATOM     33  O   UNL     1      17.950  15.073 -17.868  1.00  0.00    -0.273 OA
BRANCH  31  34
ATOM     34  C   UNL     1      16.662  16.591 -19.178  1.00  0.00     0.174 C 
ATOM     35  N   UNL     1      15.798  15.736 -20.027  1.00  0.00    -0.329 N 
ATOM     36  C   UNL     1      16.014  17.980 -19.001  1.00  0.00     0.035 C 
ATOM     37  C   UNL     1      15.402  16.292 -21.332  1.00  0.00     0.120 C 
ATOM     38  C   UNL     1      15.686  18.599 -20.362  1.00  0.00     0.004 C 
ATOM     39  C   UNL     1      14.766  17.674 -21.161  1.00  0.00     0.022 C 
BRANCH  35  40
ATOM     40  C   UNL     1      14.965  14.716 -19.445  1.00  0.00     0.246 CG0
ATOM     41  O   UNL     1      14.032  15.075 -18.674  1.00  0.00    -0.272 OA
ATOM     42  G   UNL     1      15.205  13.220 -19.627  1.00  0.00     0.000 G0
ENDBRANCH  35  40
ENDBRANCH  31  34
ENDBRANCH   2  30
ENDBRANCH   1   2
BRANCH   1  43
ATOM     43  C   UNL     1      18.136  16.913 -14.146  1.00  0.00     0.003 C 
BRANCH  43  44
ATOM     44  C   UNL     1      19.498  17.182 -14.815  1.00  0.00     0.001 C 
BRANCH  44  45
ATOM     45  C   UNL     1      19.699  18.670 -15.159  1.00  0.00     0.008 C 
BRANCH  45  46
ATOM     46  C   UNL     1      19.416  19.007 -16.633  1.00  0.00     0.075 C 
BRANCH  46  47
ATOM     47  C   UNL     1      18.153  19.816 -16.787  1.00  0.00     0.132 C 
ATOM     48  O   UNL     1      17.112  19.405 -16.296  1.00  0.00    -0.300 OA
BRANCH  47  49
ATOM     49  C   UNL     1      18.151  21.125 -17.532  1.00  0.00     0.072 C 
ATOM     50  C   UNL     1      16.755  21.450 -18.057  1.00  0.00     0.012 C 
ENDBRANCH  47  49
ENDBRANCH  46  47
ENDBRANCH  45  46
ENDBRANCH  44  45
ENDBRANCH  43  44
ENDBRANCH   1  43
TORSDOF 12
ENDMDL
MODEL 4
REMARK VINA RESULT:    -4.121      2.863      7.492
REMARK INTER + INTRA:         -12.694
REMARK INTER:                  -9.402
REMARK INTRA:                  -3.293
REMARK UNBOUND:                -3.996
REMARK SMILES CCC(=O)CCCCC[C@H]1NC(=O)[C@@H]2CCCCN2C(=O)[C@@H]([C@H](C)CC)NC(=O)[C@@H](Cc2cn(OC)c3ccccc23)NC1=O
REMARK SMILES IDX 9 1 10 2 44 3 43 4 45 6 30 7 28 8 27 9 29 11 22 12 23 14
REMARK SMILES IDX 24 15 25 16 26 17 31 18 32 19 33 20 42 21 34 22 37 23 41 24
REMARK SMILES IDX 38 25 40 26 39 27 35 28 36 29 11 30 12 31 13 33 14 34 19 35
REMARK SMILES IDX 15 36 18 37 16 38 17 39 20 40 21 41 8 43 7 44 6 45 5 46 3 47
REMARK SMILES IDX 4 48 2 49 1 50
REMARK H PARENT 43 5 27 10 11 32
REMARK Flexibility Score: 80.00
ROOT
ATOM      1  C   UNL     1      15.569  13.657 -21.912  1.00  0.00     0.035 C 
ENDROOT
BRANCH   1   2
ATOM      2  C   UNL     1      15.299  12.419 -21.006  1.00  0.00     0.171 C 
BRANCH   2   3
ATOM      3  C   UNL     1      15.726  12.566 -19.560  1.00  0.00     0.243 C 
ATOM      4  N   UNL     1      16.819  13.409 -19.162  1.00  0.00    -0.342 N 
ATOM      5  H   UNL     1      17.289  14.010 -19.874  1.00  0.00     0.164 HD
ATOM      6  O   UNL     1      15.106  11.898 -18.685  1.00  0.00    -0.273 OA
BRANCH   4   7
ATOM      7  C   UNL     1      17.285  13.448 -17.769  1.00  0.00     0.175 C 
BRANCH   7   8
ATOM      8  C   UNL     1      17.825  12.096 -17.373  1.00  0.00     0.243 C 
ATOM      9  N   UNL     1      18.312  11.190 -18.372  1.00  0.00    -0.342 N 
ATOM     10  H   UNL     1      18.475  11.573 -19.327  1.00  0.00     0.164 HD
ATOM     11  O   UNL     1      17.850  11.773 -16.155  1.00  0.00    -0.273 OA
BRANCH   9  12
ATOM     12  C   UNL     1      18.332   9.735 -18.183  1.00  0.00     0.174 CG0
ATOM     13  G   UNL     1      17.378   9.072 -19.171  1.00  0.00     0.000 G0
BRANCH  12  14
ATOM     14  C   UNL     1      19.800   9.172 -18.099  1.00  0.00     0.018 C 
ATOM     15  C   UNL     1      20.143   8.857 -16.629  1.00  0.00     0.010 C 
BRANCH  14  16
ATOM     16  C   UNL     1      20.923  10.085 -18.669  1.00  0.00     0.002 C 
ATOM     17  C   UNL     1      22.336   9.570 -18.425  1.00  0.00     0.004 C 
ENDBRANCH  14  16
ENDBRANCH  12  14
ENDBRANCH   9  12
ENDBRANCH   7   8
BRANCH   7  18
ATOM     18  C   UNL     1      18.345  14.549 -17.576  1.00  0.00     0.073 C 
BRANCH  18  19
ATOM     19  C   UNL     1      17.868  15.609 -16.622  1.00  0.00    -0.016 A 
ATOM     20  C   UNL     1      16.899  15.448 -15.636  1.00  0.00     0.134 A 
ATOM     21  C   UNL     1      18.385  16.881 -16.439  1.00  0.00     0.006 A 
ATOM     22  N   UNL     1      16.811  16.574 -14.888  1.00  0.00    -0.191 N 
ATOM     23  C   UNL     1      17.716  17.439 -15.377  1.00  0.00     0.087 A 
ATOM     24  C   UNL     1      19.399  17.567 -17.105  1.00  0.00     0.011 A 
ATOM     25  C   UNL     1      18.019  18.718 -14.908  1.00  0.00     0.030 A 
ATOM     26  C   UNL     1      19.720  18.864 -16.661  1.00  0.00     0.001 A 
ATOM     27  C   UNL     1      19.035  19.435 -15.566  1.00  0.00     0.002 A 
BRANCH  22  28
ATOM     28  O   UNL     1      15.992  16.803 -13.798  1.00  0.00    -0.417 OA
ATOM     29  C   UNL     1      15.285  15.755 -13.144  1.00  0.00     0.313 C 
ENDBRANCH  22  28
ENDBRANCH  18  19
ENDBRANCH   7  18
ENDBRANCH   4   7
ENDBRANCH   2   3
BRANCH   2  30
ATOM     30  N   UNL     1      15.718  11.133 -21.582  1.00  0.00    -0.343 N 
ATOM     31  C   UNL     1      17.063  10.607 -21.568  1.00  0.00     0.243 C 
ATOM     32  H   UNL     1      14.950  10.556 -21.983  1.00  0.00     0.164 HD
ATOM     33  O   UNL     1      18.037  11.394 -21.468  1.00  0.00    -0.273 OA
BRANCH  31  34
ATOM     34  C   UNL     1      17.361   9.120 -21.701  1.00  0.00     0.174 C 
ATOM     35  N   UNL     1      17.774   8.497 -20.420  1.00  0.00    -0.329 N 
ATOM     36  C   UNL     1      16.197   8.321 -22.322  1.00  0.00     0.035 C 
ATOM     37  C   UNL     1      18.097   7.060 -20.462  1.00  0.00     0.120 C 
ATOM     38  C   UNL     1      16.567   6.841 -22.451  1.00  0.00     0.004 C 
ATOM     39  C   UNL     1      16.946   6.265 -21.086  1.00  0.00     0.022 C 
BRANCH  35  40
ATOM     40  C   UNL     1      17.375   9.065 -19.159  1.00  0.00     0.246 CG0
ATOM     41  O   UNL     1      16.147   9.076 -18.870  1.00  0.00    -0.272 OA
ATOM     42  G   UNL     1      18.342   9.745 -18.193  1.00  0.00     0.000 G0
ENDBRANCH  35  40
ENDBRANCH  31  34
ENDBRANCH   2  30
ENDBRANCH   1   2
BRANCH   1  43
ATOM     43  C   UNL     1      14.507  14.776 -21.974  1.00  0.00     0.003 C 
BRANCH  43  44
ATOM     44  C   UNL     1      14.509  15.688 -20.732  1.00  0.00     0.001 C 
BRANCH  44  45
ATOM     45  C   UNL     1      15.390  16.936 -20.921  1.00  0.00     0.008 C 
BRANCH  45  46
ATOM     46  C   UNL     1      16.195  17.320 -19.668  1.00  0.00     0.075 C 
BRANCH  46  47
ATOM     47  C   UNL     1      15.756  18.649 -19.108  1.00  0.00     0.132 C 
ATOM     48  O   UNL     1      16.237  19.048 -18.058  1.00  0.00    -0.300 OA
BRANCH  47  49
ATOM     49  C   UNL     1      14.739  19.499 -19.823  1.00  0.00     0.072 C 
ATOM     50  C   UNL     1      14.281  20.656 -18.940  1.00  0.00     0.012 C 
ENDBRANCH  47  49
ENDBRANCH  46  47
ENDBRANCH  45  46
ENDBRANCH  44  45
ENDBRANCH  43  44
ENDBRANCH   1  43
TORSDOF 12
ENDMDL
MODEL 5
REMARK VINA RESULT:    -4.116      3.098      9.009
REMARK INTER + INTRA:         -12.684
REMARK INTER:                  -9.793
REMARK INTRA:                  -2.892
REMARK UNBOUND:                -3.996
REMARK SMILES CCC(=O)CCCCC[C@H]1NC(=O)[C@@H]2CCCCN2C(=O)[C@@H]([C@H](C)CC)NC(=O)[C@@H](Cc2cn(OC)c3ccccc23)NC1=O
REMARK SMILES IDX 9 1 10 2 44 3 43 4 45 6 30 7 28 8 27 9 29 11 22 12 23 14
REMARK SMILES IDX 24 15 25 16 26 17 31 18 32 19 33 20 42 21 34 22 37 23 41 24
REMARK SMILES IDX 38 25 40 26 39 27 35 28 36 29 11 30 12 31 13 33 14 34 19 35
REMARK SMILES IDX 15 36 18 37 16 38 17 39 20 40 21 41 8 43 7 44 6 45 5 46 3 47
REMARK SMILES IDX 4 48 2 49 1 50
REMARK H PARENT 43 5 27 10 11 32
REMARK Flexibility Score: 80.00
ROOT
ATOM      1  C   UNL     1      16.788  14.362 -19.401  1.00  0.00     0.035 C 
ENDROOT
BRANCH   1   2
ATOM      2  C   UNL     1      16.890  14.283 -17.849  1.00  0.00     0.171 C 
BRANCH   2   3
ATOM      3  C   UNL     1      16.547  15.558 -17.108  1.00  0.00     0.243 C 
ATOM      4  N   UNL     1      16.795  16.861 -17.661  1.00  0.00    -0.342 N 
ATOM      5  H   UNL     1      17.147  16.944 -18.641  1.00  0.00     0.164 HD
ATOM      6  O   UNL     1      16.047  15.460 -15.952  1.00  0.00    -0.273 OA
BRANCH   4   7
ATOM      7  C   UNL     1      16.558  18.081 -16.879  1.00  0.00     0.175 C 
BRANCH   7   8
ATOM      8  C   UNL     1      17.456  18.094 -15.667  1.00  0.00     0.243 C 
ATOM      9  N   UNL     1      18.619  17.256 -15.619  1.00  0.00    -0.342 N 
ATOM     10  H   UNL     1      18.928  16.815 -16.511  1.00  0.00     0.164 HD
ATOM     11  O   UNL     1      17.179  18.854 -14.700  1.00  0.00    -0.273 OA
BRANCH   9  12
ATOM     12  C   UNL     1      19.212  16.791 -14.360  1.00  0.00     0.174 CG0
ATOM     13  G   UNL     1      19.316  15.269 -14.368  1.00  0.00     0.000 G0
BRANCH  12  14
ATOM     14  C   UNL     1      20.503  17.607 -13.980  1.00  0.00     0.018 C 
ATOM     15  C   UNL     1      20.357  18.158 -12.547  1.00  0.00     0.010 C 
BRANCH  14  16
ATOM     16  C   UNL     1      20.868  18.796 -14.914  1.00  0.00     0.002 C 
ATOM     17  C   UNL     1      20.494  20.166 -14.363  1.00  0.00     0.004 C 
ENDBRANCH  14  16
ENDBRANCH  12  14
ENDBRANCH   9  12
ENDBRANCH   7   8
BRANCH   7  18
ATOM     18  C   UNL     1      16.772  19.338 -17.743  1.00  0.00     0.073 C 
BRANCH  18  19
ATOM     19  C   UNL     1      15.538  19.676 -18.534  1.00  0.00    -0.016 A 
ATOM     20  C   UNL     1      14.627  20.687 -18.239  1.00  0.00     0.134 A 
ATOM     21  C   UNL     1      15.149  19.164 -19.761  1.00  0.00     0.006 A 
ATOM     22  N   UNL     1      13.710  20.784 -19.231  1.00  0.00    -0.191 N 
ATOM     23  C   UNL     1      14.032  19.860 -20.152  1.00  0.00     0.087 A 
ATOM     24  C   UNL     1      15.706  18.167 -20.561  1.00  0.00     0.011 A 
ATOM     25  C   UNL     1      13.399  19.609 -21.370  1.00  0.00     0.030 A 
ATOM     26  C   UNL     1      15.083  17.884 -21.791  1.00  0.00     0.001 A 
ATOM     27  C   UNL     1      13.937  18.604 -22.195  1.00  0.00     0.002 A 
BRANCH  22  28
ATOM     28  O   UNL     1      12.660  21.680 -19.327  1.00  0.00    -0.417 OA
ATOM     29  C   UNL     1      12.029  22.237 -18.180  1.00  0.00     0.313 C 
ENDBRANCH  22  28
ENDBRANCH  18  19
ENDBRANCH   7  18
ENDBRANCH   4   7
ENDBRANCH   2   3
BRANCH   2  30
ATOM     30  N   UNL     1      18.124  13.661 -17.345  1.00  0.00    -0.343 N 
ATOM     31  C   UNL     1      19.374  14.348 -17.115  1.00  0.00     0.243 C 
ATOM     32  H   UNL     1      18.044  12.653 -17.098  1.00  0.00     0.164 HD
ATOM     33  O   UNL     1      19.626  15.406 -17.743  1.00  0.00    -0.273 OA
BRANCH  31  34
ATOM     34  C   UNL     1      20.431  13.822 -16.153  1.00  0.00     0.174 C 
ATOM     35  N   UNL     1      20.468  14.570 -14.872  1.00  0.00    -0.329 N 
ATOM     36  C   UNL     1      20.300  12.311 -15.875  1.00  0.00     0.035 C 
ATOM     37  C   UNL     1      21.474  14.136 -13.888  1.00  0.00     0.120 C 
ATOM     38  C   UNL     1      21.402  11.841 -14.922  1.00  0.00     0.004 C 
ATOM     39  C   UNL     1      21.352  12.634 -13.616  1.00  0.00     0.022 C 
BRANCH  35  40
ATOM     40  C   UNL     1      19.306  15.271 -14.391  1.00  0.00     0.246 CG0
ATOM     41  O   UNL     1      18.301  14.591 -14.041  1.00  0.00    -0.272 OA
ATOM     42  G   UNL     1      19.182  16.791 -14.371  1.00  0.00     0.000 G0
ENDBRANCH  35  40
ENDBRANCH  31  34
ENDBRANCH   2  30
ENDBRANCH   1   2
BRANCH   1  43
ATOM     43  C   UNL     1      15.470  13.930 -20.080  1.00  0.00     0.003 C 
BRANCH  43  44
ATOM     44  C   UNL     1      15.407  12.420 -20.382  1.00  0.00     0.001 C 
BRANCH  44  45
ATOM     45  C   UNL     1      16.205  12.040 -21.642  1.00  0.00     0.008 C 
BRANCH  45  46
ATOM     46  C   UNL     1      17.185  10.875 -21.425  1.00  0.00     0.075 C 
BRANCH  46  47
ATOM     47  C   UNL     1      18.593  11.365 -21.198  1.00  0.00     0.132 C 
ATOM     48  O   UNL     1      18.855  11.993 -20.183  1.00  0.00    -0.300 OA
BRANCH  47  49
ATOM     49  C   UNL     1      19.685  11.091 -22.198  1.00  0.00     0.072 C 
ATOM     50  C   UNL     1      19.376  11.754 -23.537  1.00  0.00     0.012 C 
ENDBRANCH  47  49
ENDBRANCH  46  47
ENDBRANCH  45  46
ENDBRANCH  44  45
ENDBRANCH  43  44
ENDBRANCH   1  43
TORSDOF 12
ENDMDL
MODEL 6
REMARK VINA RESULT:    -4.093      2.644      6.421
REMARK INTER + INTRA:         -12.635
REMARK INTER:                  -9.434
REMARK INTRA:                  -3.202
REMARK UNBOUND:                -3.996
REMARK SMILES CCC(=O)CCCCC[C@H]1NC(=O)[C@@H]2CCCCN2C(=O)[C@@H]([C@H](C)CC)NC(=O)[C@@H](Cc2cn(OC)c3ccccc23)NC1=O
REMARK SMILES IDX 9 1 10 2 44 3 43 4 45 6 30 7 28 8 27 9 29 11 22 12 23 14
REMARK SMILES IDX 24 15 25 16 26 17 31 18 32 19 33 20 42 21 34 22 37 23 41 24
REMARK SMILES IDX 38 25 40 26 39 27 35 28 36 29 11 30 12 31 13 33 14 34 19 35
REMARK SMILES IDX 15 36 18 37 16 38 17 39 20 40 21 41 8 43 7 44 6 45 5 46 3 47
REMARK SMILES IDX 4 48 2 49 1 50
REMARK H PARENT 43 5 27 10 11 32
REMARK Flexibility Score: 80.00
ROOT
ATOM      1  C   UNL     1      16.614  16.865 -18.811  1.00  0.00     0.035 C 
ENDROOT
BRANCH   1   2
ATOM      2  C   UNL     1      15.774  15.555 -18.755  1.00  0.00     0.171 C 
BRANCH   2   3
ATOM      3  C   UNL     1      15.494  15.021 -17.366  1.00  0.00     0.243 C 
ATOM      4  N   UNL     1      16.412  15.192 -16.275  1.00  0.00    -0.342 N 
ATOM      5  H   UNL     1      17.267  15.776 -16.411  1.00  0.00     0.164 HD
ATOM      6  O   UNL     1      14.421  14.381 -17.179  1.00  0.00    -0.273 OA
BRANCH   4   7
ATOM      7  C   UNL     1      16.170  14.569 -14.967  1.00  0.00     0.175 C 
BRANCH   7   8
ATOM      8  C   UNL     1      16.242  13.067 -15.095  1.00  0.00     0.243 C 
ATOM      9  N   UNL     1      17.087  12.465 -16.086  1.00  0.00    -0.342 N 
ATOM     10  H   UNL     1      17.789  13.077 -16.552  1.00  0.00     0.164 HD
ATOM     11  O   UNL     1      15.559  12.347 -14.319  1.00  0.00    -0.273 OA
BRANCH   9  12
ATOM     12  C   UNL     1      16.829  11.134 -16.646  1.00  0.00     0.174 CG0
ATOM     13  G   UNL     1      16.298  11.266 -18.070  1.00  0.00     0.000 G0
BRANCH  12  14
ATOM     14  C   UNL     1      18.036  10.151 -16.408  1.00  0.00     0.018 C 
ATOM     15  C   UNL     1      17.722   9.238 -15.206  1.00  0.00     0.010 C 
BRANCH  14  16
ATOM     16  C   UNL     1      19.423  10.809 -16.161  1.00  0.00     0.002 C 
ATOM     17  C   UNL     1      20.217  11.099 -17.428  1.00  0.00     0.004 C 
ENDBRANCH  14  16
ENDBRANCH  12  14
ENDBRANCH   9  12
ENDBRANCH   7   8
BRANCH   7  18
ATOM     18  C   UNL     1      17.172  15.086 -13.918  1.00  0.00     0.073 C 
BRANCH  18  19
ATOM     19  C   UNL     1      18.433  15.589 -14.564  1.00  0.00    -0.016 A 
ATOM     20  C   UNL     1      19.534  14.816 -14.926  1.00  0.00     0.134 A 
ATOM     21  C   UNL     1      18.689  16.861 -15.050  1.00  0.00     0.006 A 
ATOM     22  N   UNL     1      20.433  15.580 -15.592  1.00  0.00    -0.191 N 
ATOM     23  C   UNL     1      19.916  16.818 -15.667  1.00  0.00     0.087 A 
ATOM     24  C   UNL     1      17.930  18.030 -15.017  1.00  0.00     0.011 A 
ATOM     25  C   UNL     1      20.463  17.938 -16.294  1.00  0.00     0.030 A 
ATOM     26  C   UNL     1      18.460  19.179 -15.633  1.00  0.00     0.001 A 
ATOM     27  C   UNL     1      19.719  19.132 -16.270  1.00  0.00     0.002 A 
BRANCH  22  28
ATOM     28  O   UNL     1      21.639  15.181 -16.140  1.00  0.00    -0.417 OA
ATOM     29  C   UNL     1      21.753  14.737 -17.487  1.00  0.00     0.313 C 
ENDBRANCH  22  28
ENDBRANCH  18  19
ENDBRANCH   7  18
ENDBRANCH   4   7
ENDBRANCH   2   3
BRANCH   2  30
ATOM     30  N   UNL     1      16.218  14.501 -19.678  1.00  0.00    -0.343 N 
ATOM     31  C   UNL     1      17.296  13.570 -19.431  1.00  0.00     0.243 C 
ATOM     32  H   UNL     1      15.660  14.411 -20.552  1.00  0.00     0.164 HD
ATOM     33  O   UNL     1      18.209  13.877 -18.625  1.00  0.00    -0.273 OA
BRANCH  31  34
ATOM     34  C   UNL     1      17.394  12.226 -20.138  1.00  0.00     0.174 C 
ATOM     35  N   UNL     1      17.100  11.080 -19.243  1.00  0.00    -0.329 N 
ATOM     36  C   UNL     1      16.517  12.141 -21.405  1.00  0.00     0.035 C 
ATOM     37  C   UNL     1      17.187   9.738 -19.843  1.00  0.00     0.120 C 
ATOM     38  C   UNL     1      16.678  10.777 -22.080  1.00  0.00     0.004 C 
ATOM     39  C   UNL     1      16.324   9.653 -21.105  1.00  0.00     0.022 C 
BRANCH  35  40
ATOM     40  C   UNL     1      16.277  11.247 -18.073  1.00  0.00     0.246 CG0
ATOM     41  O   UNL     1      15.069  11.574 -18.236  1.00  0.00    -0.272 OA
ATOM     42  G   UNL     1      16.805  11.149 -16.645  1.00  0.00     0.000 G0
ENDBRANCH  35  40
ENDBRANCH  31  34
ENDBRANCH   2  30
ENDBRANCH   1   2
BRANCH   1  43
ATOM     43  C   UNL     1      16.004  18.162 -18.236  1.00  0.00     0.003 C 
BRANCH  43  44
ATOM     44  C   UNL     1      15.438  19.101 -19.319  1.00  0.00     0.001 C 
BRANCH  44  45
ATOM     45  C   UNL     1      15.151  20.514 -18.779  1.00  0.00     0.008 C 
BRANCH  45  46
ATOM     46  C   UNL     1      13.746  21.035 -19.125  1.00  0.00     0.075 C 
BRANCH  46  47
ATOM     47  C   UNL     1      13.798  22.398 -19.767  1.00  0.00     0.132 C 
ATOM     48  O   UNL     1      14.840  23.037 -19.739  1.00  0.00    -0.300 OA
BRANCH  47  49
ATOM     49  C   UNL     1      12.591  22.986 -20.449  1.00  0.00     0.072 C 
ATOM     50  C   UNL     1      12.580  22.635 -21.934  1.00  0.00     0.012 C 
ENDBRANCH  47  49
ENDBRANCH  46  47
ENDBRANCH  45  46
ENDBRANCH  44  45
ENDBRANCH  43  44
ENDBRANCH   1  43
TORSDOF 12
ENDMDL
MODEL 7
REMARK VINA RESULT:    -4.091      3.757      7.453
REMARK INTER + INTRA:         -12.631
REMARK INTER:                  -8.516
REMARK INTRA:                  -4.115
REMARK UNBOUND:                -3.996
REMARK SMILES CCC(=O)CCCCC[C@H]1NC(=O)[C@@H]2CCCCN2C(=O)[C@@H]([C@H](C)CC)NC(=O)[C@@H](Cc2cn(OC)c3ccccc23)NC1=O
REMARK SMILES IDX 9 1 10 2 44 3 43 4 45 6 30 7 28 8 27 9 29 11 22 12 23 14
REMARK SMILES IDX 24 15 25 16 26 17 31 18 32 19 33 20 42 21 34 22 37 23 41 24
REMARK SMILES IDX 38 25 40 26 39 27 35 28 36 29 11 30 12 31 13 33 14 34 19 35
REMARK SMILES IDX 15 36 18 37 16 38 17 39 20 40 21 41 8 43 7 44 6 45 5 46 3 47
REMARK SMILES IDX 4 48 2 49 1 50
REMARK H PARENT 43 5 27 10 11 32
REMARK Flexibility Score: 80.00
ROOT
ATOM      1  C   UNL     1      13.800  12.546 -22.542  1.00  0.00     0.035 C 
ENDROOT
BRANCH   1   2
ATOM      2  C   UNL     1      13.326  11.384 -21.619  1.00  0.00     0.171 C 
BRANCH   2   3
ATOM      3  C   UNL     1      13.887  11.400 -20.213  1.00  0.00     0.243 C 
ATOM      4  N   UNL     1      15.184  11.937 -19.906  1.00  0.00    -0.342 N 
ATOM      5  H   UNL     1      15.734  12.410 -20.657  1.00  0.00     0.164 HD
ATOM      6  O   UNL     1      13.189  10.898 -19.287  1.00  0.00    -0.273 OA
BRANCH   4   7
ATOM      7  C   UNL     1      15.752  11.839 -18.555  1.00  0.00     0.175 C 
BRANCH   7   8
ATOM      8  C   UNL     1      15.937  10.390 -18.181  1.00  0.00     0.243 C 
ATOM      9  N   UNL     1      16.074   9.391 -19.202  1.00  0.00    -0.342 N 
ATOM     10  H   UNL     1      16.252   9.722 -20.174  1.00  0.00     0.164 HD
ATOM     11  O   UNL     1      15.978  10.065 -16.964  1.00  0.00    -0.273 OA
BRANCH   9  12
ATOM     12  C   UNL     1      15.715   7.984 -18.989  1.00  0.00     0.174 CG0
ATOM     13  G   UNL     1      14.567   7.598 -19.917  1.00  0.00     0.000 G0
BRANCH  12  14
ATOM     14  C   UNL     1      16.982   7.050 -18.971  1.00  0.00     0.018 C 
ATOM     15  C   UNL     1      17.162   6.461 -17.557  1.00  0.00     0.010 C 
BRANCH  14  16
ATOM     16  C   UNL     1      18.329   7.705 -19.392  1.00  0.00     0.002 C 
ATOM     17  C   UNL     1      18.657   7.571 -20.873  1.00  0.00     0.004 C 
ENDBRANCH  14  16
ENDBRANCH  12  14
ENDBRANCH   9  12
ENDBRANCH   7   8
BRANCH   7  18
ATOM     18  C   UNL     1      17.080  12.613 -18.460  1.00  0.00     0.073 C 
BRANCH  18  19
ATOM     19  C   UNL     1      18.176  11.918 -19.220  1.00  0.00    -0.016 A 
ATOM     20  C   UNL     1      18.361  11.945 -20.600  1.00  0.00     0.134 A 
ATOM     21  C   UNL     1      19.275  11.251 -18.705  1.00  0.00     0.006 A 
ATOM     22  N   UNL     1      19.514  11.311 -20.922  1.00  0.00    -0.191 N 
ATOM     23  C   UNL     1      20.066  10.895 -19.770  1.00  0.00     0.087 A 
ATOM     24  C   UNL     1      19.644  10.960 -17.392  1.00  0.00     0.011 A 
ATOM     25  C   UNL     1      21.279  10.227 -19.594  1.00  0.00     0.030 A 
ATOM     26  C   UNL     1      20.858  10.278 -17.184  1.00  0.00     0.001 A 
ATOM     27  C   UNL     1      21.672   9.916 -18.279  1.00  0.00     0.002 A 
BRANCH  22  28
ATOM     28  O   UNL     1      20.065  11.148 -22.180  1.00  0.00    -0.417 OA
ATOM     29  C   UNL     1      19.500  11.745 -23.341  1.00  0.00     0.313 C 
ENDBRANCH  22  28
ENDBRANCH  18  19
ENDBRANCH   7  18
ENDBRANCH   4   7
ENDBRANCH   2   3
BRANCH   2  30
ATOM     30  N   UNL     1      13.394  10.048 -22.230  1.00  0.00    -0.343 N 
ATOM     31  C   UNL     1      14.573   9.214 -22.293  1.00  0.00     0.243 C 
ATOM     32  H   UNL     1      12.491   9.681 -22.596  1.00  0.00     0.164 HD
ATOM     33  O   UNL     1      15.711   9.742 -22.236  1.00  0.00    -0.273 OA
BRANCH  31  34
ATOM     34  C   UNL     1      14.497   7.703 -22.457  1.00  0.00     0.174 C 
ATOM     35  N   UNL     1      14.787   6.970 -21.200  1.00  0.00    -0.329 N 
ATOM     36  C   UNL     1      13.155   7.223 -23.046  1.00  0.00     0.035 C 
ATOM     37  C   UNL     1      14.751   5.500 -21.273  1.00  0.00     0.120 C 
ATOM     38  C   UNL     1      13.151   5.701 -23.208  1.00  0.00     0.004 C 
ATOM     39  C   UNL     1      13.422   5.020 -21.865  1.00  0.00     0.022 C 
BRANCH  35  40
ATOM     40  C   UNL     1      14.579   7.590 -19.917  1.00  0.00     0.246 CG0
ATOM     41  O   UNL     1      13.399   7.890 -19.584  1.00  0.00    -0.272 OA
ATOM     42  G   UNL     1      15.711   7.997 -18.979  1.00  0.00     0.000 G0
ENDBRANCH  35  40
ENDBRANCH  31  34
ENDBRANCH   2  30
ENDBRANCH   1   2
BRANCH   1  43
ATOM     43  C   UNL     1      12.757  13.262 -23.427  1.00  0.00     0.003 C 
BRANCH  43  44
ATOM     44  C   UNL     1      12.259  14.592 -22.829  1.00  0.00     0.001 C 
BRANCH  44  45
ATOM     45  C   UNL     1      12.774  15.816 -23.608  1.00  0.00     0.008 C 
BRANCH  45  46
ATOM     46  C   UNL     1      14.308  15.913 -23.661  1.00  0.00     0.075 C 
BRANCH  46  47
ATOM     47  C   UNL     1      14.872  16.518 -22.400  1.00  0.00     0.132 C 
ATOM     48  O   UNL     1      14.638  17.689 -22.138  1.00  0.00    -0.300 OA
BRANCH  47  49
ATOM     49  C   UNL     1      15.715  15.705 -21.453  1.00  0.00     0.072 C 
ATOM     50  C   UNL     1      14.997  15.504 -20.122  1.00  0.00     0.012 C 
ENDBRANCH  47  49
ENDBRANCH  46  47
ENDBRANCH  45  46
ENDBRANCH  44  45
ENDBRANCH  43  44
ENDBRANCH   1  43
TORSDOF 12
ENDMDL
MODEL 8
REMARK VINA RESULT:    -4.065      3.042      7.330
REMARK INTER + INTRA:         -12.575
REMARK INTER:                  -9.252
REMARK INTRA:                  -3.323
REMARK UNBOUND:                -3.996
REMARK SMILES CCC(=O)CCCCC[C@H]1NC(=O)[C@@H]2CCCCN2C(=O)[C@@H]([C@H](C)CC)NC(=O)[C@@H](Cc2cn(OC)c3ccccc23)NC1=O
REMARK SMILES IDX 9 1 10 2 44 3 43 4 45 6 30 7 28 8 27 9 29 11 22 12 23 14
REMARK SMILES IDX 24 15 25 16 26 17 31 18 32 19 33 20 42 21 34 22 37 23 41 24
REMARK SMILES IDX 38 25 40 26 39 27 35 28 36 29 11 30 12 31 13 33 14 34 19 35
REMARK SMILES IDX 15 36 18 37 16 38 17 39 20 40 21 41 8 43 7 44 6 45 5 46 3 47
REMARK SMILES IDX 4 48 2 49 1 50
REMARK H PARENT 43 5 27 10 11 32
REMARK Flexibility Score: 80.00
ROOT
ATOM      1  C   UNL     1      20.461  11.726 -20.937  1.00  0.00     0.035 C 
ENDROOT
BRANCH   1   2
ATOM      2  C   UNL     1      19.211  11.102 -21.625  1.00  0.00     0.171 C 
BRANCH   2   3
ATOM      3  C   UNL     1      17.963  11.959 -21.607  1.00  0.00     0.243 C 
ATOM      4  N   UNL     1      17.557  12.706 -20.449  1.00  0.00    -0.342 N 
ATOM      5  H   UNL     1      18.180  12.733 -19.612  1.00  0.00     0.164 HD
ATOM      6  O   UNL     1      17.246  11.990 -22.647  1.00  0.00    -0.273 OA
BRANCH   4   7
ATOM      7  C   UNL     1      16.285  13.439 -20.419  1.00  0.00     0.175 C 
BRANCH   7   8
ATOM      8  C   UNL     1      15.142  12.491 -20.688  1.00  0.00     0.243 C 
ATOM      9  N   UNL     1      15.199  11.137 -20.219  1.00  0.00    -0.342 N 
ATOM     10  H   UNL     1      15.938  10.903 -19.522  1.00  0.00     0.164 HD
ATOM     11  O   UNL     1      14.133  12.903 -21.322  1.00  0.00    -0.273 OA
BRANCH   9  12
ATOM     12  C   UNL     1      14.461  10.043 -20.859  1.00  0.00     0.174 CG0
ATOM     13  G   UNL     1      15.437   8.972 -21.339  1.00  0.00     0.000 G0
BRANCH  12  14
ATOM     14  C   UNL     1      13.234   9.573 -19.993  1.00  0.00     0.018 C 
ATOM     15  C   UNL     1      11.933  10.129 -20.605  1.00  0.00     0.010 C 
BRANCH  14  16
ATOM     16  C   UNL     1      13.261   9.966 -18.488  1.00  0.00     0.002 C 
ATOM     17  C   UNL     1      12.404  11.176 -18.139  1.00  0.00     0.004 C 
ENDBRANCH  14  16
ENDBRANCH  12  14
ENDBRANCH   9  12
ENDBRANCH   7   8
BRANCH   7  18
ATOM     18  C   UNL     1      16.101  14.165 -19.074  1.00  0.00     0.073 C 
BRANCH  18  19
ATOM     19  C   UNL     1      15.901  15.642 -19.270  1.00  0.00    -0.016 A 
ATOM     20  C   UNL     1      15.135  16.241 -20.267  1.00  0.00     0.134 A 
ATOM     21  C   UNL     1      16.305  16.671 -18.435  1.00  0.00     0.006 A 
ATOM     22  N   UNL     1      15.082  17.580 -20.065  1.00  0.00    -0.191 N 
ATOM     23  C   UNL     1      15.791  17.835 -18.953  1.00  0.00     0.087 A 
ATOM     24  C   UNL     1      17.057  16.664 -17.261  1.00  0.00     0.011 A 
ATOM     25  C   UNL     1      15.990  19.068 -18.329  1.00  0.00     0.030 A 
ATOM     26  C   UNL     1      17.283  17.894 -16.615  1.00  0.00     0.001 A 
ATOM     27  C   UNL     1      16.749  19.089 -17.145  1.00  0.00     0.002 A 
BRANCH  22  28
ATOM     28  O   UNL     1      14.402  18.520 -20.817  1.00  0.00    -0.417 OA
ATOM     29  C   UNL     1      14.681  18.741 -22.194  1.00  0.00     0.313 C 
ENDBRANCH  22  28
ENDBRANCH  18  19
ENDBRANCH   7  18
ENDBRANCH   4   7
ENDBRANCH   2   3
BRANCH   2  30
ATOM     30  N   UNL     1      18.935   9.707 -21.248  1.00  0.00    -0.343 N 
ATOM     31  C   UNL     1      18.055   9.286 -20.182  1.00  0.00     0.243 C 
ATOM     32  H   UNL     1      19.388   8.988 -21.849  1.00  0.00     0.164 HD
ATOM     33  O   UNL     1      17.819  10.066 -19.227  1.00  0.00    -0.273 OA
BRANCH  31  34
ATOM     34  C   UNL     1      17.414   7.906 -20.149  1.00  0.00     0.174 C 
ATOM     35  N   UNL     1      15.979   7.926 -20.524  1.00  0.00    -0.329 N 
ATOM     36  C   UNL     1      18.165   6.866 -21.006  1.00  0.00     0.035 C 
ATOM     37  C   UNL     1      15.275   6.632 -20.503  1.00  0.00     0.120 C 
ATOM     38  C   UNL     1      17.487   5.498 -20.911  1.00  0.00     0.004 C 
ATOM     39  C   UNL     1      16.024   5.596 -21.346  1.00  0.00     0.022 C 
BRANCH  35  40
ATOM     40  C   UNL     1      15.447   8.973 -21.358  1.00  0.00     0.246 CG0
ATOM     41  O   UNL     1      15.882   9.075 -22.538  1.00  0.00    -0.272 OA
ATOM     42  G   UNL     1      14.461  10.028 -20.866  1.00  0.00     0.000 G0
ENDBRANCH  35  40
ENDBRANCH  31  34
ENDBRANCH   2  30
ENDBRANCH   1   2
BRANCH   1  43
ATOM     43  C   UNL     1      20.966  11.109 -19.615  1.00  0.00     0.003 C 
BRANCH  43  44
ATOM     44  C   UNL     1      20.358  11.770 -18.363  1.00  0.00     0.001 C 
BRANCH  44  45
ATOM     45  C   UNL     1      20.757  13.251 -18.229  1.00  0.00     0.008 C 
BRANCH  45  46
ATOM     46  C   UNL     1      19.831  14.059 -17.304  1.00  0.00     0.075 C 
BRANCH  46  47
ATOM     47  C   UNL     1      20.597  15.078 -16.500  1.00  0.00     0.132 C 
ATOM     48  O   UNL     1      21.110  14.746 -15.441  1.00  0.00    -0.300 OA
BRANCH  47  49
ATOM     49  C   UNL     1      20.748  16.497 -16.979  1.00  0.00     0.072 C 
ATOM     50  C   UNL     1      21.035  17.438 -15.812  1.00  0.00     0.012 C 
ENDBRANCH  47  49
ENDBRANCH  46  47
ENDBRANCH  45  46
ENDBRANCH  44  45
ENDBRANCH  43  44
ENDBRANCH   1  43
TORSDOF 12
ENDMDL
MODEL 9
REMARK VINA RESULT:    -3.996      3.299      7.066
REMARK INTER + INTRA:         -12.430
REMARK INTER:                  -8.862
REMARK INTRA:                  -3.568
REMARK UNBOUND:                -3.996
REMARK SMILES CCC(=O)CCCCC[C@H]1NC(=O)[C@@H]2CCCCN2C(=O)[C@@H]([C@H](C)CC)NC(=O)[C@@H](Cc2cn(OC)c3ccccc23)NC1=O
REMARK SMILES IDX 9 1 10 2 44 3 43 4 45 6 30 7 28 8 27 9 29 11 22 12 23 14
REMARK SMILES IDX 24 15 25 16 26 17 31 18 32 19 33 20 42 21 34 22 37 23 41 24
REMARK SMILES IDX 38 25 40 26 39 27 35 28 36 29 11 30 12 31 13 33 14 34 19 35
REMARK SMILES IDX 15 36 18 37 16 38 17 39 20 40 21 41 8 43 7 44 6 45 5 46 3 47
REMARK SMILES IDX 4 48 2 49 1 50
REMARK H PARENT 43 5 27 10 11 32
REMARK Flexibility Score: 80.00
ROOT
ATOM      1  C   UNL     1      20.155  14.252 -17.708  1.00  0.00     0.035 C 
ENDROOT
BRANCH   1   2
ATOM      2  C   UNL     1      20.757  12.832 -17.491  1.00  0.00     0.171 C 
BRANCH   2   3
ATOM      3  C   UNL     1      20.855  11.971 -18.733  1.00  0.00     0.243 C 
ATOM      4  N   UNL     1      19.935  12.093 -19.830  1.00  0.00    -0.342 N 
ATOM      5  H   UNL     1      19.221  12.854 -19.818  1.00  0.00     0.164 HD
ATOM      6  O   UNL     1      21.769  11.100 -18.783  1.00  0.00    -0.273 OA
BRANCH   4   7
ATOM      7  C   UNL     1      19.982  11.171 -20.972  1.00  0.00     0.175 C 
BRANCH   7   8
ATOM      8  C   UNL     1      19.633   9.775 -20.519  1.00  0.00     0.243 C 
ATOM      9  N   UNL     1      18.924   9.571 -19.288  1.00  0.00    -0.342 N 
ATOM     10  H   UNL     1      18.484  10.405 -18.846  1.00  0.00     0.164 HD
ATOM     11  O   UNL     1      19.964   8.792 -21.233  1.00  0.00    -0.273 OA
BRANCH   9  12
ATOM     12  C   UNL     1      19.019   8.328 -18.514  1.00  0.00     0.174 CG0
ATOM     13  G   UNL     1      19.595   8.623 -17.133  1.00  0.00     0.000 G0
BRANCH  12  14
ATOM     14  C   UNL     1      17.690   7.487 -18.584  1.00  0.00     0.018 C 
ATOM     15  C   UNL     1      17.832   6.397 -19.666  1.00  0.00     0.010 C 
BRANCH  14  16
ATOM     16  C   UNL     1      16.385   8.282 -18.873  1.00  0.00     0.002 C 
ATOM     17  C   UNL     1      15.663   8.779 -17.628  1.00  0.00     0.004 C 
ENDBRANCH  14  16
ENDBRANCH  12  14
ENDBRANCH   9  12
ENDBRANCH   7   8
BRANCH   7  18
ATOM     18  C   UNL     1      19.042  11.642 -22.097  1.00  0.00     0.073 C 
BRANCH  18  19
ATOM     19  C   UNL     1      17.610  11.676 -21.638  1.00  0.00    -0.016 A 
ATOM     20  C   UNL     1      16.955  12.769 -21.078  1.00  0.00     0.134 A 
ATOM     21  C   UNL     1      16.641  10.702 -21.809  1.00  0.00     0.006 A 
ATOM     22  N   UNL     1      15.644  12.477 -20.899  1.00  0.00    -0.191 N 
ATOM     23  C   UNL     1      15.458  11.224 -21.345  1.00  0.00     0.087 A 
ATOM     24  C   UNL     1      16.709   9.420 -22.354  1.00  0.00     0.011 A 
ATOM     25  C   UNL     1      14.265  10.503 -21.400  1.00  0.00     0.030 A 
ATOM     26  C   UNL     1      15.522   8.665 -22.414  1.00  0.00     0.001 A 
ATOM     27  C   UNL     1      14.306   9.205 -21.941  1.00  0.00     0.002 A 
BRANCH  22  28
ATOM     28  O   UNL     1      14.655  13.305 -20.397  1.00  0.00    -0.417 OA
ATOM     29  C   UNL     1      14.939  14.368 -19.495  1.00  0.00     0.313 C 
ENDBRANCH  22  28
ENDBRANCH  18  19
ENDBRANCH   7  18
ENDBRANCH   4   7
ENDBRANCH   2   3
BRANCH   2  30
ATOM     30  N   UNL     1      20.200  12.097 -16.346  1.00  0.00    -0.343 N 
ATOM     31  C   UNL     1      18.968  11.342 -16.354  1.00  0.00     0.243 C 
ATOM     32  H   UNL     1      20.789  12.101 -15.487  1.00  0.00     0.164 HD
ATOM     33  O   UNL     1      18.072  11.624 -17.187  1.00  0.00    -0.273 OA
BRANCH  31  34
ATOM     34  C   UNL     1      18.691  10.220 -15.363  1.00  0.00     0.174 C 
ATOM     35  N   UNL     1      18.791   8.872 -15.974  1.00  0.00    -0.329 N 
ATOM     36  C   UNL     1      19.576  10.291 -14.102  1.00  0.00     0.035 C 
ATOM     37  C   UNL     1      18.521   7.727 -15.087  1.00  0.00     0.120 C 
ATOM     38  C   UNL     1      19.232   9.154 -13.138  1.00  0.00     0.004 C 
ATOM     39  C   UNL     1      19.393   7.800 -13.830  1.00  0.00     0.022 C 
BRANCH  35  40
ATOM     40  C   UNL     1      19.601   8.648 -17.143  1.00  0.00     0.246 CG0
ATOM     41  O   UNL     1      20.850   8.797 -17.042  1.00  0.00    -0.272 OA
ATOM     42  G   UNL     1      19.028   8.336 -18.523  1.00  0.00     0.000 G0
ENDBRANCH  35  40
ENDBRANCH  31  34
ENDBRANCH   2  30
ENDBRANCH   1   2
BRANCH   1  43
ATOM     43  C   UNL     1      19.711  15.066 -16.473  1.00  0.00     0.003 C 
BRANCH  43  44
ATOM     44  C   UNL     1      19.218  16.484 -16.822  1.00  0.00     0.001 C 
BRANCH  44  45
ATOM     45  C   UNL     1      19.726  17.544 -15.828  1.00  0.00     0.008 C 
BRANCH  45  46
ATOM     46  C   UNL     1      19.324  18.981 -16.198  1.00  0.00     0.075 C 
BRANCH  46  47
ATOM     47  C   UNL     1      17.827  19.144 -16.257  1.00  0.00     0.132 C 
ATOM     48  O   UNL     1      17.148  18.821 -15.294  1.00  0.00    -0.300 OA
BRANCH  47  49
ATOM     49  C   UNL     1      17.150  19.703 -17.481  1.00  0.00     0.072 C 
ATOM     50  C   UNL     1      16.312  18.633 -18.176  1.00  0.00     0.012 C 
ENDBRANCH  47  49
ENDBRANCH  46  47
ENDBRANCH  45  46
ENDBRANCH  44  45
ENDBRANCH  43  44
ENDBRANCH   1  43
TORSDOF 12
ENDMDL
