MODEL 1
REMARK VINA RESULT:    -4.963      0.000      0.000
REMARK INTER + INTRA:          -8.733
REMARK INTER:                  -7.574
REMARK INTRA:                  -1.160
REMARK UNBOUND:                -1.160
REMARK SMILES CC(=O)CCC=C(C)CCC=C(C)CCC=C(C)C
REMARK SMILES IDX 10 1 11 2 12 3 13 4 14 5 15 6 16 7 18 8 17 9 19 10 9 11 7 12
REMARK SMILES IDX 6 13 8 14 5 15 4 16 2 17 3 18 1 19
REMARK H PARENT
REMARK Flexibility Score: inf
ROOT
ATOM      1  C   UNL     1    -117.851 -99.433   0.300  1.00  0.00     0.032 C 
ENDROOT
BRANCH   1   2
ATOM      2  C   UNL     1    -118.989-100.302   0.772  1.00  0.00    -0.028 C 
ATOM      3  C   UNL     1    -120.062 -99.849   1.461  1.00  0.00    -0.077 C 
ATOM      4  C   UNL     1    -120.245 -98.382   1.777  1.00  0.00     0.039 C 
BRANCH   3   5
ATOM      5  C   UNL     1    -121.117-100.834   1.909  1.00  0.00     0.034 C 
BRANCH   5   6
ATOM      6  C   UNL     1    -121.347-100.736   3.422  1.00  0.00     0.032 C 
BRANCH   6   7
ATOM      7  C   UNL     1    -122.790-100.423   3.724  1.00  0.00    -0.028 C 
ATOM      8  C   UNL     1    -124.680 -99.336   4.859  1.00  0.00     0.039 C 
ATOM      9  C   UNL     1    -123.200 -99.513   4.636  1.00  0.00    -0.080 C 
ATOM     10  C   UNL     1    -122.223 -98.663   5.415  1.00  0.00     0.039 C 
ENDBRANCH   6   7
ENDBRANCH   5   6
ENDBRANCH   3   5
ENDBRANCH   1   2
BRANCH   1  11
ATOM     11  C   UNL     1    -116.643 -99.566   1.235  1.00  0.00     0.034 C 
BRANCH  11  12
ATOM     12  C   UNL     1    -115.940 -98.237   1.401  1.00  0.00    -0.077 C 
ATOM     13  C   UNL     1    -116.376 -97.380   2.353  1.00  0.00    -0.028 C 
ATOM     14  C   UNL     1    -114.777 -97.901   0.496  1.00  0.00     0.039 C 
BRANCH  13  15
ATOM     15  C   UNL     1    -115.744 -96.044   2.654  1.00  0.00     0.035 C 
BRANCH  15  16
ATOM     16  C   UNL     1    -115.226 -96.002   4.099  1.00  0.00     0.079 C 
BRANCH  16  17
ATOM     17  C   UNL     1    -116.059 -95.123   5.001  1.00  0.00     0.130 C 
ATOM     18  O   UNL     1    -116.431 -95.520   6.096  1.00  0.00    -0.300 OA
ATOM     19  C   UNL     1    -116.449 -93.747   4.554  1.00  0.00     0.087 C 
ENDBRANCH  16  17
ENDBRANCH  15  16
ENDBRANCH  13  15
ENDBRANCH  11  12
ENDBRANCH   1  11
TORSDOF 9
ENDMDL
MODEL 2
REMARK VINA RESULT:    -4.924      1.497      2.972
REMARK INTER + INTRA:          -8.674
REMARK INTER:                  -7.409
REMARK INTRA:                  -1.266
REMARK UNBOUND:                -1.160
REMARK SMILES CC(=O)CCC=C(C)CCC=C(C)CCC=C(C)C
REMARK SMILES IDX 10 1 11 2 12 3 13 4 14 5 15 6 16 7 18 8 17 9 19 10 9 11 7 12
REMARK SMILES IDX 6 13 8 14 5 15 4 16 2 17 3 18 1 19
REMARK H PARENT
REMARK Flexibility Score: inf
ROOT
ATOM      1  C   UNL     1    -116.124 -98.624   1.145  1.00  0.00     0.032 C 
ENDROOT
BRANCH   1   2
ATOM      2  C   UNL     1    -116.926 -99.839   1.540  1.00  0.00    -0.028 C 
ATOM      3  C   UNL     1    -117.090-100.932   0.761  1.00  0.00    -0.077 C 
ATOM      4  C   UNL     1    -116.418-101.060  -0.587  1.00  0.00     0.039 C 
BRANCH   3   5
ATOM      5  C   UNL     1    -117.953-102.069   1.262  1.00  0.00     0.034 C 
BRANCH   5   6
ATOM      6  C   UNL     1    -119.403-101.900   0.791  1.00  0.00     0.032 C 
BRANCH   6   7
ATOM      7  C   UNL     1    -120.329-101.723   1.967  1.00  0.00    -0.028 C 
ATOM      8  C   UNL     1    -121.698-100.504   3.605  1.00  0.00     0.039 C 
ATOM      9  C   UNL     1    -120.811-100.532   2.387  1.00  0.00    -0.080 C 
ATOM     10  C   UNL     1    -120.504 -99.242   1.661  1.00  0.00     0.039 C 
ENDBRANCH   6   7
ENDBRANCH   5   6
ENDBRANCH   3   5
ENDBRANCH   1   2
BRANCH   1  11
ATOM     11  C   UNL     1    -116.861 -97.337   1.534  1.00  0.00     0.034 C 
BRANCH  11  12
ATOM     12  C   UNL     1    -115.989 -96.457   2.402  1.00  0.00    -0.077 C 
ATOM     13  C   UNL     1    -116.563 -95.450   3.098  1.00  0.00    -0.028 C 
ATOM     14  C   UNL     1    -114.502 -96.722   2.461  1.00  0.00     0.039 C 
BRANCH  13  15
ATOM     15  C   UNL     1    -115.823 -94.524   4.031  1.00  0.00     0.035 C 
BRANCH  15  16
ATOM     16  C   UNL     1    -116.297 -94.718   5.478  1.00  0.00     0.079 C 
BRANCH  16  17
ATOM     17  C   UNL     1    -115.352 -95.558   6.304  1.00  0.00     0.130 C 
ATOM     18  O   UNL     1    -115.663 -96.684   6.665  1.00  0.00    -0.300 OA
ATOM     19  C   UNL     1    -114.015 -95.010   6.700  1.00  0.00     0.087 C 
ENDBRANCH  16  17
ENDBRANCH  15  16
ENDBRANCH  13  15
ENDBRANCH  11  12
ENDBRANCH   1  11
TORSDOF 9
ENDMDL
MODEL 3
REMARK VINA RESULT:    -4.868      2.595      3.336
REMARK INTER + INTRA:          -8.588
REMARK INTER:                  -6.686
REMARK INTRA:                  -1.903
REMARK UNBOUND:                -1.160
REMARK SMILES CC(=O)CCC=C(C)CCC=C(C)CCC=C(C)C
REMARK SMILES IDX 10 1 11 2 12 3 13 4 14 5 15 6 16 7 18 8 17 9 19 10 9 11 7 12
REMARK SMILES IDX 6 13 8 14 5 15 4 16 2 17 3 18 1 19
REMARK H PARENT
REMARK Flexibility Score: inf
ROOT
ATOM      1  C   UNL     1    -119.420-102.368   0.661  1.00  0.00     0.032 C 
ENDROOT
BRANCH   1   2
ATOM      2  C   UNL     1    -120.025-101.525   1.756  1.00  0.00    -0.028 C 
ATOM      3  C   UNL     1    -120.558-100.296   1.568  1.00  0.00    -0.077 C 
ATOM      4  C   UNL     1    -120.648 -99.666   0.196  1.00  0.00     0.039 C 
BRANCH   3   5
ATOM      5  C   UNL     1    -121.099 -99.539   2.760  1.00  0.00     0.034 C 
BRANCH   5   6
ATOM      6  C   UNL     1    -121.675-100.505   3.802  1.00  0.00     0.032 C 
BRANCH   6   7
ATOM      7  C   UNL     1    -122.892 -99.912   4.465  1.00  0.00    -0.028 C 
ATOM      8  C   UNL     1    -125.257 -99.291   4.713  1.00  0.00     0.039 C 
ATOM      9  C   UNL     1    -124.143 -99.966   3.956  1.00  0.00    -0.080 C 
ATOM     10  C   UNL     1    -124.452-100.695   2.668  1.00  0.00     0.039 C 
ENDBRANCH   6   7
ENDBRANCH   5   6
ENDBRANCH   3   5
ENDBRANCH   1   2
BRANCH   1  11
ATOM     11  C   UNL     1    -117.896-102.434   0.808  1.00  0.00     0.034 C 
BRANCH  11  12
ATOM     12  C   UNL     1    -117.250-101.156   0.320  1.00  0.00    -0.077 C 
ATOM     13  C   UNL     1    -116.692-100.318   1.224  1.00  0.00    -0.028 C 
ATOM     14  C   UNL     1    -117.254-100.847  -1.159  1.00  0.00     0.039 C 
BRANCH  13  15
ATOM     15  C   UNL     1    -115.982 -99.035   0.875  1.00  0.00     0.035 C 
BRANCH  15  16
ATOM     16  C   UNL     1    -116.649 -97.839   1.568  1.00  0.00     0.079 C 
BRANCH  16  17
ATOM     17  C   UNL     1    -117.818 -97.281   0.793  1.00  0.00     0.130 C 
ATOM     18  O   UNL     1    -117.874 -97.386  -0.424  1.00  0.00    -0.300 OA
ATOM     19  C   UNL     1    -118.927 -96.577   1.515  1.00  0.00     0.087 C 
ENDBRANCH  16  17
ENDBRANCH  15  16
ENDBRANCH  13  15
ENDBRANCH  11  12
ENDBRANCH   1  11
TORSDOF 9
ENDMDL
MODEL 4
REMARK VINA RESULT:    -4.791      2.629      2.952
REMARK INTER + INTRA:          -8.471
REMARK INTER:                  -6.953
REMARK INTRA:                  -1.518
REMARK UNBOUND:                -1.160
REMARK SMILES CC(=O)CCC=C(C)CCC=C(C)CCC=C(C)C
REMARK SMILES IDX 10 1 11 2 12 3 13 4 14 5 15 6 16 7 18 8 17 9 19 10 9 11 7 12
REMARK SMILES IDX 6 13 8 14 5 15 4 16 2 17 3 18 1 19
REMARK H PARENT
REMARK Flexibility Score: inf
ROOT
ATOM      1  C   UNL     1    -117.777-101.881   0.210  1.00  0.00     0.032 C 
ENDROOT
BRANCH   1   2
ATOM      2  C   UNL     1    -118.778-101.860   1.338  1.00  0.00    -0.028 C 
ATOM      3  C   UNL     1    -119.977-101.235   1.285  1.00  0.00    -0.077 C 
ATOM      4  C   UNL     1    -120.455-100.533   0.034  1.00  0.00     0.039 C 
BRANCH   3   5
ATOM      5  C   UNL     1    -120.873-101.259   2.503  1.00  0.00     0.034 C 
BRANCH   5   6
ATOM      6  C   UNL     1    -121.427 -99.860   2.797  1.00  0.00     0.032 C 
BRANCH   6   7
ATOM      7  C   UNL     1    -122.817 -99.947   3.375  1.00  0.00    -0.028 C 
ATOM      8  C   UNL     1    -124.593 -99.658   5.050  1.00  0.00     0.039 C 
ATOM      9  C   UNL     1    -123.172 -99.462   4.586  1.00  0.00    -0.080 C 
ATOM     10  C   UNL     1    -122.196 -98.719   5.469  1.00  0.00     0.039 C 
ENDBRANCH   6   7
ENDBRANCH   5   6
ENDBRANCH   3   5
ENDBRANCH   1   2
BRANCH   1  11
ATOM     11  C   UNL     1    -116.593-100.958   0.519  1.00  0.00     0.034 C 
BRANCH  11  12
ATOM     12  C   UNL     1    -116.960 -99.510   0.280  1.00  0.00    -0.077 C 
ATOM     13  C   UNL     1    -117.253 -98.726   1.342  1.00  0.00    -0.028 C 
ATOM     14  C   UNL     1    -116.996 -98.983  -1.136  1.00  0.00     0.039 C 
BRANCH  13  15
ATOM     15  C   UNL     1    -117.595 -97.260   1.254  1.00  0.00     0.035 C 
BRANCH  15  16
ATOM     16  C   UNL     1    -119.116 -97.056   1.230  1.00  0.00     0.079 C 
BRANCH  16  17
ATOM     17  C   UNL     1    -119.519 -95.631   0.934  1.00  0.00     0.130 C 
ATOM     18  O   UNL     1    -120.457 -95.385   0.191  1.00  0.00    -0.300 OA
ATOM     19  C   UNL     1    -118.758 -94.496   1.548  1.00  0.00     0.087 C 
ENDBRANCH  16  17
ENDBRANCH  15  16
ENDBRANCH  13  15
ENDBRANCH  11  12
ENDBRANCH   1  11
TORSDOF 9
ENDMDL
MODEL 5
REMARK VINA RESULT:    -4.763      3.063      6.952
REMARK INTER + INTRA:          -8.429
REMARK INTER:                  -6.630
REMARK INTRA:                  -1.799
REMARK UNBOUND:                -1.160
REMARK SMILES CC(=O)CCC=C(C)CCC=C(C)CCC=C(C)C
REMARK SMILES IDX 10 1 11 2 12 3 13 4 14 5 15 6 16 7 18 8 17 9 19 10 9 11 7 12
REMARK SMILES IDX 6 13 8 14 5 15 4 16 2 17 3 18 1 19
REMARK H PARENT
REMARK Flexibility Score: inf
ROOT
ATOM      1  C   UNL     1    -120.222-102.359   0.514  1.00  0.00     0.032 C 
ENDROOT
BRANCH   1   2
ATOM      2  C   UNL     1    -118.925-102.135  -0.222  1.00  0.00    -0.028 C 
ATOM      3  C   UNL     1    -118.738-101.186  -1.169  1.00  0.00    -0.077 C 
ATOM      4  C   UNL     1    -119.825-100.203  -1.538  1.00  0.00     0.039 C 
BRANCH   3   5
ATOM      5  C   UNL     1    -117.397-101.092  -1.860  1.00  0.00     0.034 C 
BRANCH   5   6
ATOM      6  C   UNL     1    -116.253-101.271  -0.854  1.00  0.00     0.032 C 
BRANCH   6   7
ATOM      7  C   UNL     1    -115.528 -99.967  -0.632  1.00  0.00    -0.028 C 
ATOM      8  C   UNL     1    -115.007 -97.825   0.455  1.00  0.00     0.039 C 
ATOM      9  C   UNL     1    -115.787 -99.113   0.383  1.00  0.00    -0.080 C 
ATOM     10  C   UNL     1    -116.813 -99.423   1.449  1.00  0.00     0.039 C 
ENDBRANCH   6   7
ENDBRANCH   5   6
ENDBRANCH   3   5
ENDBRANCH   1   2
BRANCH   1  11
ATOM     11  C   UNL     1    -120.132-101.818   1.946  1.00  0.00     0.034 C 
BRANCH  11  12
ATOM     12  C   UNL     1    -121.075-100.651   2.142  1.00  0.00    -0.077 C 
ATOM     13  C   UNL     1    -122.384-100.899   2.374  1.00  0.00    -0.028 C 
ATOM     14  C   UNL     1    -120.530 -99.244   2.067  1.00  0.00     0.039 C 
BRANCH  13  15
ATOM     15  C   UNL     1    -123.424 -99.836   2.627  1.00  0.00     0.035 C 
BRANCH  15  16
ATOM     16  C   UNL     1    -123.962 -99.934   4.062  1.00  0.00     0.079 C 
BRANCH  16  17
ATOM     17  C   UNL     1    -122.871 -99.936   5.105  1.00  0.00     0.130 C 
ATOM     18  O   UNL     1    -122.528-100.972   5.655  1.00  0.00    -0.300 OA
ATOM     19  C   UNL     1    -122.199 -98.651   5.487  1.00  0.00     0.087 C 
ENDBRANCH  16  17
ENDBRANCH  15  16
ENDBRANCH  13  15
ENDBRANCH  11  12
ENDBRANCH   1  11
TORSDOF 9
ENDMDL
MODEL 6
REMARK VINA RESULT:    -4.721      2.085      6.391
REMARK INTER + INTRA:          -8.365
REMARK INTER:                  -6.981
REMARK INTRA:                  -1.383
REMARK UNBOUND:                -1.160
REMARK SMILES CC(=O)CCC=C(C)CCC=C(C)CCC=C(C)C
REMARK SMILES IDX 10 1 11 2 12 3 13 4 14 5 15 6 16 7 18 8 17 9 19 10 9 11 7 12
REMARK SMILES IDX 6 13 8 14 5 15 4 16 2 17 3 18 1 19
REMARK H PARENT
REMARK Flexibility Score: inf
ROOT
ATOM      1  C   UNL     1    -117.503-100.699   1.184  1.00  0.00     0.032 C 
ENDROOT
BRANCH   1   2
ATOM      2  C   UNL     1    -116.879 -99.359   1.482  1.00  0.00    -0.028 C 
ATOM      3  C   UNL     1    -115.923 -98.776   0.723  1.00  0.00    -0.077 C 
ATOM      4  C   UNL     1    -115.425 -99.407  -0.557  1.00  0.00     0.039 C 
BRANCH   3   5
ATOM      5  C   UNL     1    -115.353 -97.443   1.155  1.00  0.00     0.034 C 
BRANCH   5   6
ATOM      6  C   UNL     1    -116.125 -96.885   2.356  1.00  0.00     0.032 C 
BRANCH   6   7
ATOM      7  C   UNL     1    -116.797 -95.583   2.001  1.00  0.00    -0.028 C 
ATOM      8  C   UNL     1    -118.624 -94.100   1.293  1.00  0.00     0.039 C 
ATOM      9  C   UNL     1    -118.100 -95.463   1.664  1.00  0.00    -0.080 C 
ATOM     10  C   UNL     1    -119.041 -96.646   1.669  1.00  0.00     0.039 C 
ENDBRANCH   6   7
ENDBRANCH   5   6
ENDBRANCH   3   5
ENDBRANCH   1   2
BRANCH   1  11
ATOM     11  C   UNL     1    -118.783-100.530   0.358  1.00  0.00     0.034 C 
BRANCH  11  12
ATOM     12  C   UNL     1    -119.996-100.975   1.144  1.00  0.00    -0.077 C 
ATOM     13  C   UNL     1    -120.717-100.048   1.816  1.00  0.00    -0.028 C 
ATOM     14  C   UNL     1    -120.364-102.441   1.164  1.00  0.00     0.039 C 
BRANCH  13  15
ATOM     15  C   UNL     1    -121.968-100.345   2.604  1.00  0.00     0.035 C 
BRANCH  15  16
ATOM     16  C   UNL     1    -121.682-100.308   4.112  1.00  0.00     0.079 C 
BRANCH  16  17
ATOM     17  C   UNL     1    -122.481 -99.255   4.842  1.00  0.00     0.130 C 
ATOM     18  O   UNL     1    -121.938 -98.261   5.303  1.00  0.00    -0.300 OA
ATOM     19  C   UNL     1    -123.960 -99.425   5.016  1.00  0.00     0.087 C 
ENDBRANCH  16  17
ENDBRANCH  15  16
ENDBRANCH  13  15
ENDBRANCH  11  12
ENDBRANCH   1  11
TORSDOF 9
ENDMDL
MODEL 7
REMARK VINA RESULT:    -4.650      2.910      7.600
REMARK INTER + INTRA:          -8.256
REMARK INTER:                  -6.717
REMARK INTRA:                  -1.539
REMARK UNBOUND:                -1.160
REMARK SMILES CC(=O)CCC=C(C)CCC=C(C)CCC=C(C)C
REMARK SMILES IDX 10 1 11 2 12 3 13 4 14 5 15 6 16 7 18 8 17 9 19 10 9 11 7 12
REMARK SMILES IDX 6 13 8 14 5 15 4 16 2 17 3 18 1 19
REMARK H PARENT
REMARK Flexibility Score: inf
ROOT
ATOM      1  C   UNL     1    -117.184-101.340   0.217  1.00  0.00     0.032 C 
ENDROOT
BRANCH   1   2
ATOM      2  C   UNL     1    -116.484-100.280   1.030  1.00  0.00    -0.028 C 
ATOM      3  C   UNL     1    -116.933 -99.013   1.182  1.00  0.00    -0.077 C 
ATOM      4  C   UNL     1    -118.242 -98.552   0.582  1.00  0.00     0.039 C 
BRANCH   3   5
ATOM      5  C   UNL     1    -116.114 -98.035   1.995  1.00  0.00     0.034 C 
BRANCH   5   6
ATOM      6  C   UNL     1    -115.506 -96.954   1.093  1.00  0.00     0.032 C 
BRANCH   6   7
ATOM      7  C   UNL     1    -114.006 -97.093   1.029  1.00  0.00    -0.028 C 
ATOM      8  C   UNL     1    -111.839 -97.835   0.136  1.00  0.00     0.039 C 
ATOM      9  C   UNL     1    -113.341 -97.742   0.047  1.00  0.00    -0.080 C 
ATOM     10  C   UNL     1    -114.055 -98.352  -1.137  1.00  0.00     0.039 C 
ENDBRANCH   6   7
ENDBRANCH   5   6
ENDBRANCH   3   5
ENDBRANCH   1   2
BRANCH   1  11
ATOM     11  C   UNL     1    -118.047-102.232   1.117  1.00  0.00     0.034 C 
BRANCH  11  12
ATOM     12  C   UNL     1    -119.513-101.888   0.972  1.00  0.00    -0.077 C 
ATOM     13  C   UNL     1    -120.230-101.600   2.083  1.00  0.00    -0.028 C 
ATOM     14  C   UNL     1    -120.137-101.882  -0.404  1.00  0.00     0.039 C 
BRANCH  13  15
ATOM     15  C   UNL     1    -121.684-101.201   2.082  1.00  0.00     0.035 C 
BRANCH  15  16
ATOM     16  C   UNL     1    -121.889 -99.892   2.856  1.00  0.00     0.079 C 
BRANCH  16  17
ATOM     17  C   UNL     1    -122.830-100.037   4.028  1.00  0.00     0.130 C 
ATOM     18  O   UNL     1    -124.031 -99.850   3.897  1.00  0.00    -0.300 OA
ATOM     19  C   UNL     1    -122.293-100.407   5.378  1.00  0.00     0.087 C 
ENDBRANCH  16  17
ENDBRANCH  15  16
ENDBRANCH  13  15
ENDBRANCH  11  12
ENDBRANCH   1  11
TORSDOF 9
ENDMDL
MODEL 8
REMARK VINA RESULT:    -4.633     10.405     13.585
REMARK INTER + INTRA:          -8.230
REMARK INTER:                  -7.016
REMARK INTRA:                  -1.214
REMARK UNBOUND:                -1.160
REMARK SMILES CC(=O)CCC=C(C)CCC=C(C)CCC=C(C)C
REMARK SMILES IDX 10 1 11 2 12 3 13 4 14 5 15 6 16 7 18 8 17 9 19 10 9 11 7 12
REMARK SMILES IDX 6 13 8 14 5 15 4 16 2 17 3 18 1 19
REMARK H PARENT
REMARK Flexibility Score: inf
ROOT
ATOM      1  C   UNL     1    -115.885 -97.201  14.366  1.00  0.00     0.032 C 
ENDROOT
BRANCH   1   2
ATOM      2  C   UNL     1    -116.081 -96.289  15.552  1.00  0.00    -0.028 C 
ATOM      3  C   UNL     1    -116.937 -95.242  15.577  1.00  0.00    -0.077 C 
ATOM      4  C   UNL     1    -117.838 -94.920  14.406  1.00  0.00     0.039 C 
BRANCH   3   5
ATOM      5  C   UNL     1    -117.011 -94.382  16.819  1.00  0.00     0.034 C 
BRANCH   5   6
ATOM      6  C   UNL     1    -115.681 -93.657  17.058  1.00  0.00     0.032 C 
BRANCH   6   7
ATOM      7  C   UNL     1    -115.668 -92.321  16.359  1.00  0.00    -0.028 C 
ATOM      8  C   UNL     1    -115.091 -90.684  14.619  1.00  0.00     0.039 C 
ATOM      9  C   UNL     1    -115.053 -92.082  15.179  1.00  0.00    -0.080 C 
ATOM     10  C   UNL     1    -114.353 -93.176  14.405  1.00  0.00     0.039 C 
ENDBRANCH   6   7
ENDBRANCH   5   6
ENDBRANCH   3   5
ENDBRANCH   1   2
BRANCH   1  11
ATOM     11  C   UNL     1    -115.689 -98.650  14.823  1.00  0.00     0.034 C 
BRANCH  11  12
ATOM     12  C   UNL     1    -114.300 -99.142  14.479  1.00  0.00    -0.077 C 
ATOM     13  C   UNL     1    -114.015 -99.449  13.192  1.00  0.00    -0.028 C 
ATOM     14  C   UNL     1    -113.274 -99.284  15.579  1.00  0.00     0.039 C 
BRANCH  13  15
ATOM     15  C   UNL     1    -112.665 -99.909  12.703  1.00  0.00     0.035 C 
BRANCH  15  16
ATOM     16  C   UNL     1    -112.795-101.205  11.890  1.00  0.00     0.079 C 
BRANCH  16  17
ATOM     17  C   UNL     1    -112.827-100.969  10.399  1.00  0.00     0.130 C 
ATOM     18  O   UNL     1    -113.566-101.619   9.674  1.00  0.00    -0.300 OA
ATOM     19  C   UNL     1    -111.936 -99.930   9.787  1.00  0.00     0.087 C 
ENDBRANCH  16  17
ENDBRANCH  15  16
ENDBRANCH  13  15
ENDBRANCH  11  12
ENDBRANCH   1  11
TORSDOF 9
ENDMDL
MODEL 9
REMARK VINA RESULT:    -4.609      2.546      7.522
REMARK INTER + INTRA:          -8.193
REMARK INTER:                  -6.869
REMARK INTRA:                  -1.324
REMARK UNBOUND:                -1.160
REMARK SMILES CC(=O)CCC=C(C)CCC=C(C)CCC=C(C)C
REMARK SMILES IDX 10 1 11 2 12 3 13 4 14 5 15 6 16 7 18 8 17 9 19 10 9 11 7 12
REMARK SMILES IDX 6 13 8 14 5 15 4 16 2 17 3 18 1 19
REMARK H PARENT
REMARK Flexibility Score: inf
ROOT
ATOM      1  C   UNL     1    -119.898-101.357   0.822  1.00  0.00     0.032 C 
ENDROOT
BRANCH   1   2
ATOM      2  C   UNL     1    -118.487-100.912   1.116  1.00  0.00    -0.028 C 
ATOM      3  C   UNL     1    -118.051 -99.636   1.007  1.00  0.00    -0.077 C 
ATOM      4  C   UNL     1    -118.978 -98.505   0.625  1.00  0.00     0.039 C 
BRANCH   3   5
ATOM      5  C   UNL     1    -116.599 -99.329   1.296  1.00  0.00     0.034 C 
BRANCH   5   6
ATOM      6  C   UNL     1    -116.218 -97.944   0.759  1.00  0.00     0.032 C 
BRANCH   6   7
ATOM      7  C   UNL     1    -114.834 -97.556   1.215  1.00  0.00    -0.028 C 
ATOM      8  C   UNL     1    -113.138 -96.446   2.605  1.00  0.00     0.039 C 
ATOM      9  C   UNL     1    -114.573 -96.785   2.293  1.00  0.00    -0.080 C 
ATOM     10  C   UNL     1    -115.672 -96.274   3.197  1.00  0.00     0.039 C 
ENDBRANCH   6   7
ENDBRANCH   5   6
ENDBRANCH   3   5
ENDBRANCH   1   2
BRANCH   1  11
ATOM     11  C   UNL     1    -120.619-101.762   2.112  1.00  0.00     0.034 C 
BRANCH  11  12
ATOM     12  C   UNL     1    -121.507-100.642   2.608  1.00  0.00    -0.077 C 
ATOM     13  C   UNL     1    -121.660-100.468   3.941  1.00  0.00    -0.028 C 
ATOM     14  C   UNL     1    -122.205 -99.754   1.603  1.00  0.00     0.039 C 
BRANCH  13  15
ATOM     15  C   UNL     1    -122.479 -99.371   4.572  1.00  0.00     0.035 C 
BRANCH  15  16
ATOM     16  C   UNL     1    -123.843 -99.906   5.030  1.00  0.00     0.079 C 
BRANCH  16  17
ATOM     17  C   UNL     1    -124.988 -99.417   4.176  1.00  0.00     0.130 C 
ATOM     18  O   UNL     1    -125.475 -98.310   4.351  1.00  0.00    -0.300 OA
ATOM     19  C   UNL     1    -125.550-100.298   3.102  1.00  0.00     0.087 C 
ENDBRANCH  16  17
ENDBRANCH  15  16
ENDBRANCH  13  15
ENDBRANCH  11  12
ENDBRANCH   1  11
TORSDOF 9
ENDMDL
