MODEL 1
REMARK VINA RESULT:    -8.008      0.000      0.000
REMARK INTER + INTRA:         -14.803
REMARK INTER:                 -13.158
REMARK INTRA:                  -1.645
REMARK UNBOUND:                -1.645
REMARK SMILES COc1ccc([C@H]2CC(=O)c3c(O)cc(O[C@@H]4O[C@@H](CO[C@@H]5O[C@@H](C)[C@H](O)[C@H](O)[C@H]5O)[C@@H](O)[C@@H](O)[C@@H]4O)cc3O2)cc1O
REMARK SMILES IDX 19 1 32 2 34 3 36 4 17 5 18 6 20 7 21 8 22 9 25 10 24 11
REMARK SMILES IDX 26 12 23 13 28 14 30 15 27 16 29 18 31 20 33 22 35 24 16 26
REMARK SMILES IDX 15 27 14 28 38 29 12 30 39 31 11 32 40 33 9 34 7 35 10 36
REMARK SMILES IDX 8 37 13 38 6 40 41 41 5 42 42 43 4 44 3 45 43 46 2 48 1 49
REMARK SMILES IDX 37 50
REMARK H PARENT 27 17 29 19 31 21 33 23 35 25 13 39 43 47 37 51
REMARK Flexibility Score: inf
ROOT
ATOM      1  C   UNL     1      -5.740   0.804  -6.161  1.00  0.00     0.180 C 
ATOM      2  C   UNL     1      -5.193   1.136  -4.732  1.00  0.00     0.177 C 
ATOM      3  C   UNL     1      -6.043   0.473  -3.634  1.00  0.00     0.180 C 
ATOM      4  C   UNL     1      -6.209  -1.042  -3.914  1.00  0.00     0.214 C 
ATOM      5  C   UNL     1      -6.371  -1.346  -5.432  1.00  0.00     0.339 C 
ATOM      6  O   UNL     1      -6.765  -0.183  -6.142  1.00  0.00    -0.332 OA
ENDROOT
BRANCH   1   7
ATOM      7  C   UNL     1      -6.274   2.027  -6.926  1.00  0.00     0.198 C 
BRANCH   7   8
ATOM      8  O   UNL     1      -7.097   2.810  -6.085  1.00  0.00    -0.347 OA
BRANCH   8   9
ATOM      9  C   UNL     1      -8.338   3.082  -6.724  1.00  0.00     0.281 C 
ATOM     10  C   UNL     1      -8.301   6.753  -6.551  1.00  0.00     0.041 C 
ATOM     11  C   UNL     1      -8.354   5.322  -6.014  1.00  0.00     0.150 C 
ATOM     12  C   UNL     1      -9.576   5.128  -5.083  1.00  0.00     0.174 C 
ATOM     13  O   UNL     1      -8.426   4.443  -7.125  1.00  0.00    -0.344 OA
ATOM     14  C   UNL     1      -9.698   3.656  -4.629  1.00  0.00     0.179 C 
ATOM     15  C   UNL     1      -9.520   2.683  -5.815  1.00  0.00     0.202 C 
BRANCH  12  16
ATOM     16  O   UNL     1      -9.472   5.954  -3.951  1.00  0.00    -0.388 OA
ATOM     17  H   UNL     1     -10.267   6.548  -3.946  1.00  0.00     0.211 HD
ENDBRANCH  12  16
BRANCH  14  18
ATOM     18  O   UNL     1      -8.816   3.343  -3.577  1.00  0.00    -0.387 OA
ATOM     19  H   UNL     1      -8.229   4.124  -3.421  1.00  0.00     0.211 HD
ENDBRANCH  14  18
BRANCH  15  20
ATOM     20  O   UNL     1     -10.694   2.663  -6.587  1.00  0.00    -0.385 OA
ATOM     21  H   UNL     1     -10.415   2.570  -7.537  1.00  0.00     0.211 HD
ENDBRANCH  15  20
ENDBRANCH   8   9
ENDBRANCH   7   8
ENDBRANCH   1   7
BRANCH   2  22
ATOM     22  O   UNL     1      -5.114   2.521  -4.506  1.00  0.00    -0.387 OA
ATOM     23  H   UNL     1      -6.045   2.859  -4.454  1.00  0.00     0.211 HD
ENDBRANCH   2  22
BRANCH   3  24
ATOM     24  O   UNL     1      -7.300   1.097  -3.582  1.00  0.00    -0.387 OA
ATOM     25  H   UNL     1      -7.272   1.748  -2.835  1.00  0.00     0.211 HD
ENDBRANCH   3  24
BRANCH   5  26
ATOM     26  O   UNL     1      -5.188  -1.907  -6.018  1.00  0.00    -0.462 OA
BRANCH  26  27
ATOM     27  C   UNL     1      -4.824  -3.265  -5.997  1.00  0.00     0.130 A 
ATOM     28  C   UNL     1      -5.791  -4.208  -6.356  1.00  0.00     0.093 A 
ATOM     29  C   UNL     1      -3.537  -3.705  -5.633  1.00  0.00     0.094 A 
ATOM     30  C   UNL     1      -5.503  -5.579  -6.336  1.00  0.00     0.133 A 
ATOM     31  C   UNL     1      -3.235  -5.069  -5.620  1.00  0.00     0.138 A 
ATOM     32  C   UNL     1      -4.219  -6.018  -5.952  1.00  0.00     0.102 A 
ATOM     33  O   UNL     1      -1.947  -5.485  -5.260  1.00  0.00    -0.484 OA
ATOM     34  C   UNL     1      -3.862  -7.453  -5.841  1.00  0.00     0.174 C 
ATOM     35  C   UNL     1      -1.480  -6.818  -5.490  1.00  0.00     0.211 C 
ATOM     36  O   UNL     1      -4.640  -8.356  -6.253  1.00  0.00    -0.294 OA
ATOM     37  C   UNL     1      -2.580  -7.839  -5.160  1.00  0.00     0.131 C 
BRANCH  30  38
ATOM     38  O   UNL     1      -6.494  -6.496  -6.689  1.00  0.00    -0.507 OA
ATOM     39  H   UNL     1      -7.478  -6.275  -6.600  1.00  0.00     0.293 HD
ENDBRANCH  30  38
BRANCH  35  40
ATOM     40  C   UNL     1      -0.243  -7.088  -4.666  1.00  0.00    -0.003 A 
ATOM     41  C   UNL     1       0.062  -6.271  -3.566  1.00  0.00     0.057 A 
ATOM     42  C   UNL     1       0.654  -8.105  -5.030  1.00  0.00     0.011 A 
ATOM     43  C   UNL     1       1.231  -6.477  -2.826  1.00  0.00     0.158 A 
ATOM     44  C   UNL     1       1.821  -8.320  -4.292  1.00  0.00     0.051 A 
ATOM     45  C   UNL     1       2.121  -7.509  -3.181  1.00  0.00     0.160 A 
BRANCH  43  46
ATOM     46  O   UNL     1       1.496  -5.643  -1.741  1.00  0.00    -0.504 OA
ATOM     47  H   UNL     1       1.953  -4.745  -1.849  1.00  0.00     0.293 HD
ENDBRANCH  43  46
BRANCH  45  48
ATOM     48  O   UNL     1       3.286  -7.696  -2.416  1.00  0.00    -0.493 OA
ATOM     49  C   UNL     1       3.407  -8.625  -1.345  1.00  0.00     0.278 C 
ENDBRANCH  45  48
ENDBRANCH  35  40
ENDBRANCH  26  27
ENDBRANCH   5  26
BRANCH   4  50
ATOM     50  O   UNL     1      -5.158  -1.778  -3.337  1.00  0.00    -0.384 OA
ATOM     51  H   UNL     1      -4.458  -1.907  -4.029  1.00  0.00     0.211 HD
ENDBRANCH   4  50
TORSDOF 15
ENDMDL
MODEL 2
REMARK VINA RESULT:    -7.748      2.377      5.652
REMARK INTER + INTRA:         -14.376
REMARK INTER:                 -13.269
REMARK INTRA:                  -1.107
REMARK UNBOUND:                -1.645
REMARK SMILES COc1ccc([C@H]2CC(=O)c3c(O)cc(O[C@@H]4O[C@@H](CO[C@@H]5O[C@@H](C)[C@H](O)[C@H](O)[C@H]5O)[C@@H](O)[C@@H](O)[C@@H]4O)cc3O2)cc1O
REMARK SMILES IDX 19 1 32 2 34 3 36 4 17 5 18 6 20 7 21 8 22 9 25 10 24 11
REMARK SMILES IDX 26 12 23 13 28 14 30 15 27 16 29 18 31 20 33 22 35 24 16 26
REMARK SMILES IDX 15 27 14 28 38 29 12 30 39 31 11 32 40 33 9 34 7 35 10 36
REMARK SMILES IDX 8 37 13 38 6 40 41 41 5 42 42 43 4 44 3 45 43 46 2 48 1 49
REMARK SMILES IDX 37 50
REMARK H PARENT 27 17 29 19 31 21 33 23 35 25 13 39 43 47 37 51
REMARK Flexibility Score: inf
ROOT
ATOM      1  C   UNL     1      -4.011  -3.397  -6.029  1.00  0.00     0.180 C 
ATOM      2  C   UNL     1      -4.899  -4.372  -5.186  1.00  0.00     0.177 C 
ATOM      3  C   UNL     1      -4.971  -5.768  -5.827  1.00  0.00     0.180 C 
ATOM      4  C   UNL     1      -3.548  -6.304  -6.125  1.00  0.00     0.214 C 
ATOM      5  C   UNL     1      -2.585  -5.180  -6.609  1.00  0.00     0.339 C 
ATOM      6  O   UNL     1      -3.313  -4.058  -7.079  1.00  0.00    -0.332 OA
ENDROOT
BRANCH   1   7
ATOM      7  C   UNL     1      -4.785  -2.218  -6.644  1.00  0.00     0.198 C 
BRANCH   7   8
ATOM      8  O   UNL     1      -5.168  -1.304  -5.636  1.00  0.00    -0.347 OA
BRANCH   8   9
ATOM      9  C   UNL     1      -6.388  -0.664  -5.989  1.00  0.00     0.281 C 
ATOM     10  C   UNL     1      -5.055   2.567  -7.124  1.00  0.00     0.041 C 
ATOM     11  C   UNL     1      -5.381   1.454  -6.127  1.00  0.00     0.150 C 
ATOM     12  C   UNL     1      -6.151   2.016  -4.907  1.00  0.00     0.174 C 
ATOM     13  O   UNL     1      -6.156   0.478  -6.803  1.00  0.00    -0.344 OA
ATOM     14  C   UNL     1      -6.582   0.879  -3.953  1.00  0.00     0.179 C 
ATOM     15  C   UNL     1      -7.201  -0.304  -4.728  1.00  0.00     0.202 C 
BRANCH  12  16
ATOM     16  O   UNL     1      -5.358   2.937  -4.201  1.00  0.00    -0.388 OA
ATOM     17  H   UNL     1      -4.606   3.193  -4.795  1.00  0.00     0.211 HD
ENDBRANCH  12  16
BRANCH  14  18
ATOM     18  O   UNL     1      -5.530   0.449  -3.121  1.00  0.00    -0.387 OA
ATOM     19  H   UNL     1      -5.880   0.360  -2.199  1.00  0.00     0.211 HD
ENDBRANCH  14  18
BRANCH  15  20
ATOM     20  O   UNL     1      -8.512   0.023  -5.116  1.00  0.00    -0.385 OA
ATOM     21  H   UNL     1      -8.546  -0.048  -6.107  1.00  0.00     0.211 HD
ENDBRANCH  15  20
ENDBRANCH   8   9
ENDBRANCH   7   8
ENDBRANCH   1   7
BRANCH   2  22
ATOM     22  O   UNL     1      -6.197  -3.867  -4.991  1.00  0.00    -0.387 OA
ATOM     23  H   UNL     1      -6.151  -2.886  -5.131  1.00  0.00     0.211 HD
ENDBRANCH   2  22
BRANCH   3  24
ATOM     24  O   UNL     1      -5.720  -5.695  -7.013  1.00  0.00    -0.387 OA
ATOM     25  H   UNL     1      -5.154  -5.240  -7.688  1.00  0.00     0.211 HD
ENDBRANCH   3  24
BRANCH   5  26
ATOM     26  O   UNL     1      -1.647  -4.777  -5.601  1.00  0.00    -0.462 OA
BRANCH  26  27
ATOM     27  C   UNL     1      -0.483  -5.474  -5.234  1.00  0.00     0.130 A 
ATOM     28  C   UNL     1       0.342  -5.955  -6.255  1.00  0.00     0.093 A 
ATOM     29  C   UNL     1      -0.121  -5.702  -3.893  1.00  0.00     0.094 A 
ATOM     30  C   UNL     1       1.506  -6.677  -5.961  1.00  0.00     0.133 A 
ATOM     31  C   UNL     1       1.044  -6.412  -3.588  1.00  0.00     0.138 A 
ATOM     32  C   UNL     1       1.857  -6.921  -4.618  1.00  0.00     0.102 A 
ATOM     33  O   UNL     1       1.389  -6.622  -2.247  1.00  0.00    -0.484 OA
ATOM     34  C   UNL     1       3.034  -7.735  -4.230  1.00  0.00     0.174 C 
ATOM     35  C   UNL     1       2.686  -7.083  -1.853  1.00  0.00     0.211 C 
ATOM     36  O   UNL     1       3.884  -8.106  -5.086  1.00  0.00    -0.294 OA
ATOM     37  C   UNL     1       3.180  -8.184  -2.805  1.00  0.00     0.131 C 
BRANCH  30  38
ATOM     38  O   UNL     1       2.302  -7.154  -7.003  1.00  0.00    -0.507 OA
ATOM     39  H   UNL     1       3.245  -7.487  -6.841  1.00  0.00     0.293 HD
ENDBRANCH  30  38
BRANCH  35  40
ATOM     40  C   UNL     1       2.650  -7.591  -0.430  1.00  0.00    -0.003 A 
ATOM     41  C   UNL     1       3.751  -7.389   0.416  1.00  0.00     0.057 A 
ATOM     42  C   UNL     1       1.555  -8.333   0.039  1.00  0.00     0.011 A 
ATOM     43  C   UNL     1       3.752  -7.899   1.720  1.00  0.00     0.158 A 
ATOM     44  C   UNL     1       1.547  -8.840   1.341  1.00  0.00     0.051 A 
ATOM     45  C   UNL     1       2.645  -8.627   2.196  1.00  0.00     0.160 A 
BRANCH  43  46
ATOM     46  O   UNL     1       4.866  -7.675   2.527  1.00  0.00    -0.504 OA
ATOM     47  H   UNL     1       5.099  -6.756   2.884  1.00  0.00     0.293 HD
ENDBRANCH  43  46
BRANCH  45  48
ATOM     48  O   UNL     1       2.673  -9.123   3.511  1.00  0.00    -0.493 OA
ATOM     49  C   UNL     1       1.571  -9.087   4.410  1.00  0.00     0.278 C 
ENDBRANCH  45  48
ENDBRANCH  35  40
ENDBRANCH  26  27
ENDBRANCH   5  26
BRANCH   4  50
ATOM     50  O   UNL     1      -3.031  -7.003  -5.018  1.00  0.00    -0.384 OA
ATOM     51  H   UNL     1      -2.173  -7.421  -5.294  1.00  0.00     0.211 HD
ENDBRANCH   4  50
TORSDOF 15
ENDMDL
MODEL 3
REMARK VINA RESULT:    -7.193      1.954     12.274
REMARK INTER + INTRA:         -13.464
REMARK INTER:                 -13.770
REMARK INTRA:                   0.305
REMARK UNBOUND:                -1.645
REMARK SMILES COc1ccc([C@H]2CC(=O)c3c(O)cc(O[C@@H]4O[C@@H](CO[C@@H]5O[C@@H](C)[C@H](O)[C@H](O)[C@H]5O)[C@@H](O)[C@@H](O)[C@@H]4O)cc3O2)cc1O
REMARK SMILES IDX 19 1 32 2 34 3 36 4 17 5 18 6 20 7 21 8 22 9 25 10 24 11
REMARK SMILES IDX 26 12 23 13 28 14 30 15 27 16 29 18 31 20 33 22 35 24 16 26
REMARK SMILES IDX 15 27 14 28 38 29 12 30 39 31 11 32 40 33 9 34 7 35 10 36
REMARK SMILES IDX 8 37 13 38 6 40 41 41 5 42 42 43 4 44 3 45 43 46 2 48 1 49
REMARK SMILES IDX 37 50
REMARK H PARENT 27 17 29 19 31 21 33 23 35 25 13 39 43 47 37 51
REMARK Flexibility Score: inf
ROOT
ATOM      1  C   UNL     1      -1.131  -6.314  -2.953  1.00  0.00     0.180 C 
ATOM      2  C   UNL     1       0.054  -5.474  -3.538  1.00  0.00     0.177 C 
ATOM      3  C   UNL     1       0.157  -5.631  -5.065  1.00  0.00     0.180 C 
ATOM      4  C   UNL     1      -1.212  -5.349  -5.735  1.00  0.00     0.214 C 
ATOM      5  C   UNL     1      -2.403  -5.890  -4.890  1.00  0.00     0.339 C 
ATOM      6  O   UNL     1      -1.963  -6.870  -3.965  1.00  0.00    -0.332 OA
ENDROOT
BRANCH   1   7
ATOM      7  C   UNL     1      -0.689  -7.457  -2.023  1.00  0.00     0.198 C 
BRANCH   7   8
ATOM      8  O   UNL     1       0.597  -7.192  -1.498  1.00  0.00    -0.347 OA
BRANCH   8   9
ATOM      9  C   UNL     1       1.422  -8.345  -1.609  1.00  0.00     0.281 C 
ATOM     10  C   UNL     1       1.829  -9.124   1.960  1.00  0.00     0.041 C 
ATOM     11  C   UNL     1       1.983  -8.313   0.673  1.00  0.00     0.150 C 
ATOM     12  C   UNL     1       3.472  -7.977   0.409  1.00  0.00     0.174 C 
ATOM     13  O   UNL     1       1.447  -9.080  -0.392  1.00  0.00    -0.344 OA
ATOM     14  C   UNL     1       3.645  -7.256  -0.946  1.00  0.00     0.179 C 
ATOM     15  C   UNL     1       2.844  -7.958  -2.065  1.00  0.00     0.202 C 
BRANCH  12  16
ATOM     16  O   UNL     1       3.985  -7.164   1.435  1.00  0.00    -0.388 OA
ATOM     17  H   UNL     1       4.009  -6.234   1.089  1.00  0.00     0.211 HD
ENDBRANCH  12  16
BRANCH  14  18
ATOM     18  O   UNL     1       3.324  -5.887  -0.872  1.00  0.00    -0.387 OA
ATOM     19  H   UNL     1       3.013  -5.691   0.047  1.00  0.00     0.211 HD
ENDBRANCH  14  18
BRANCH  15  20
ATOM     20  O   UNL     1       3.520  -9.123  -2.467  1.00  0.00    -0.385 OA
ATOM     21  H   UNL     1       2.952  -9.894  -2.199  1.00  0.00     0.211 HD
ENDBRANCH  15  20
ENDBRANCH   8   9
ENDBRANCH   7   8
ENDBRANCH   1   7
BRANCH   2  22
ATOM     22  O   UNL     1       1.282  -5.806  -2.939  1.00  0.00    -0.387 OA
ATOM     23  H   UNL     1       1.778  -4.957  -2.806  1.00  0.00     0.211 HD
ENDBRANCH   2  22
BRANCH   3  24
ATOM     24  O   UNL     1       0.587  -6.932  -5.369  1.00  0.00    -0.387 OA
ATOM     25  H   UNL     1       0.162  -7.187  -6.227  1.00  0.00     0.211 HD
ENDBRANCH   3  24
BRANCH   5  26
ATOM     26  O   UNL     1      -3.121  -4.851  -4.209  1.00  0.00    -0.462 OA
BRANCH  26  27
ATOM     27  C   UNL     1      -4.325  -4.266  -4.636  1.00  0.00     0.130 A 
ATOM     28  C   UNL     1      -5.245  -5.076  -5.308  1.00  0.00     0.093 A 
ATOM     29  C   UNL     1      -4.635  -2.910  -4.417  1.00  0.00     0.094 A 
ATOM     30  C   UNL     1      -6.456  -4.553  -5.780  1.00  0.00     0.133 A 
ATOM     31  C   UNL     1      -5.845  -2.380  -4.875  1.00  0.00     0.138 A 
ATOM     32  C   UNL     1      -6.756  -3.190  -5.576  1.00  0.00     0.102 A 
ATOM     33  O   UNL     1      -6.136  -1.030  -4.640  1.00  0.00    -0.484 OA
ATOM     34  C   UNL     1      -7.983  -2.550  -6.107  1.00  0.00     0.174 C 
ATOM     35  C   UNL     1      -7.447  -0.487  -4.821  1.00  0.00     0.211 C 
ATOM     36  O   UNL     1      -8.909  -3.236  -6.622  1.00  0.00    -0.294 OA
ATOM     37  C   UNL     1      -8.095  -1.053  -6.095  1.00  0.00     0.131 C 
BRANCH  30  38
ATOM     38  O   UNL     1      -7.348  -5.385  -6.457  1.00  0.00    -0.507 OA
ATOM     39  H   UNL     1      -7.035  -6.029  -7.173  1.00  0.00     0.293 HD
ENDBRANCH  30  38
BRANCH  35  40
ATOM     40  C   UNL     1      -7.385   1.021  -4.885  1.00  0.00    -0.003 A 
ATOM     41  C   UNL     1      -8.357   1.794  -4.231  1.00  0.00     0.057 A 
ATOM     42  C   UNL     1      -6.405   1.666  -5.656  1.00  0.00     0.011 A 
ATOM     43  C   UNL     1      -8.340   3.190  -4.323  1.00  0.00     0.158 A 
ATOM     44  C   UNL     1      -6.380   3.060  -5.749  1.00  0.00     0.051 A 
ATOM     45  C   UNL     1      -7.346   3.837  -5.083  1.00  0.00     0.160 A 
BRANCH  43  46
ATOM     46  O   UNL     1      -9.324   3.919  -3.658  1.00  0.00    -0.504 OA
ATOM     47  H   UNL     1      -9.961   3.489  -2.998  1.00  0.00     0.293 HD
ENDBRANCH  43  46
BRANCH  45  48
ATOM     48  O   UNL     1      -7.353   5.241  -5.154  1.00  0.00    -0.493 OA
ATOM     49  C   UNL     1      -8.020   5.994  -6.162  1.00  0.00     0.278 C 
ENDBRANCH  45  48
ENDBRANCH  35  40
ENDBRANCH  26  27
ENDBRANCH   5  26
BRANCH   4  50
ATOM     50  O   UNL     1      -1.354  -3.981  -6.034  1.00  0.00    -0.384 OA
ATOM     51  H   UNL     1      -0.817  -3.789  -6.847  1.00  0.00     0.211 HD
ENDBRANCH   4  50
TORSDOF 15
ENDMDL
MODEL 4
REMARK VINA RESULT:    -7.074      2.889      6.864
REMARK INTER + INTRA:         -13.268
REMARK INTER:                 -12.196
REMARK INTRA:                  -1.071
REMARK UNBOUND:                -1.645
REMARK SMILES COc1ccc([C@H]2CC(=O)c3c(O)cc(O[C@@H]4O[C@@H](CO[C@@H]5O[C@@H](C)[C@H](O)[C@H](O)[C@H]5O)[C@@H](O)[C@@H](O)[C@@H]4O)cc3O2)cc1O
REMARK SMILES IDX 19 1 32 2 34 3 36 4 17 5 18 6 20 7 21 8 22 9 25 10 24 11
REMARK SMILES IDX 26 12 23 13 28 14 30 15 27 16 29 18 31 20 33 22 35 24 16 26
REMARK SMILES IDX 15 27 14 28 38 29 12 30 39 31 11 32 40 33 9 34 7 35 10 36
REMARK SMILES IDX 8 37 13 38 6 40 41 41 5 42 42 43 4 44 3 45 43 46 2 48 1 49
REMARK SMILES IDX 37 50
REMARK H PARENT 27 17 29 19 31 21 33 23 35 25 13 39 43 47 37 51
REMARK Flexibility Score: inf
ROOT
ATOM      1  C   UNL     1      -3.824  -4.706  -6.248  1.00  0.00     0.180 C 
ATOM      2  C   UNL     1      -4.658  -5.488  -5.178  1.00  0.00     0.177 C 
ATOM      3  C   UNL     1      -4.669  -7.000  -5.465  1.00  0.00     0.180 C 
ATOM      4  C   UNL     1      -3.224  -7.528  -5.654  1.00  0.00     0.214 C 
ATOM      5  C   UNL     1      -2.320  -6.512  -6.413  1.00  0.00     0.339 C 
ATOM      6  O   UNL     1      -3.105  -5.568  -7.122  1.00  0.00    -0.332 OA
ENDROOT
BRANCH   1   7
ATOM      7  C   UNL     1      -4.659  -3.745  -7.112  1.00  0.00     0.198 C 
BRANCH   7   8
ATOM      8  O   UNL     1      -4.230  -2.412  -6.917  1.00  0.00    -0.347 OA
BRANCH   8   9
ATOM      9  C   UNL     1      -4.047  -2.151  -5.532  1.00  0.00     0.281 C 
ATOM     10  C   UNL     1      -6.982  -0.019  -4.941  1.00  0.00     0.041 C 
ATOM     11  C   UNL     1      -5.625  -0.409  -5.527  1.00  0.00     0.150 C 
ATOM     12  C   UNL     1      -4.568   0.688  -5.246  1.00  0.00     0.174 C 
ATOM     13  O   UNL     1      -5.235  -1.640  -4.941  1.00  0.00    -0.344 OA
ATOM     14  C   UNL     1      -3.170   0.249  -5.735  1.00  0.00     0.179 C 
ATOM     15  C   UNL     1      -2.852  -1.201  -5.307  1.00  0.00     0.202 C 
BRANCH  12  16
ATOM     16  O   UNL     1      -4.923   1.892  -5.879  1.00  0.00    -0.388 OA
ATOM     17  H   UNL     1      -5.200   2.527  -5.169  1.00  0.00     0.211 HD
ENDBRANCH  12  16
BRANCH  14  18
ATOM     18  O   UNL     1      -3.010   0.416  -7.124  1.00  0.00    -0.387 OA
ATOM     19  H   UNL     1      -2.113   0.800  -7.289  1.00  0.00     0.211 HD
ENDBRANCH  14  18
BRANCH  15  20
ATOM     20  O   UNL     1      -2.509  -1.224  -3.944  1.00  0.00    -0.385 OA
ATOM     21  H   UNL     1      -2.854  -0.381  -3.545  1.00  0.00     0.211 HD
ENDBRANCH  15  20
ENDBRANCH   8   9
ENDBRANCH   7   8
ENDBRANCH   1   7
BRANCH   2  22
ATOM     22  O   UNL     1      -5.977  -5.009  -5.083  1.00  0.00    -0.387 OA
ATOM     23  H   UNL     1      -6.529  -5.751  -4.725  1.00  0.00     0.211 HD
ENDBRANCH   2  22
BRANCH   3  24
ATOM     24  O   UNL     1      -5.430  -7.247  -6.618  1.00  0.00    -0.387 OA
ATOM     25  H   UNL     1      -5.172  -6.565  -7.290  1.00  0.00     0.211 HD
ENDBRANCH   3  24
BRANCH   5  26
ATOM     26  O   UNL     1      -1.394  -5.837  -5.550  1.00  0.00    -0.462 OA
BRANCH  26  27
ATOM     27  C   UNL     1      -0.153  -6.338  -5.121  1.00  0.00     0.130 A 
ATOM     28  C   UNL     1       0.763  -6.742  -6.097  1.00  0.00     0.093 A 
ATOM     29  C   UNL     1       0.198  -6.449  -3.763  1.00  0.00     0.094 A 
ATOM     30  C   UNL     1       2.010  -7.271  -5.741  1.00  0.00     0.133 A 
ATOM     31  C   UNL     1       1.444  -6.967  -3.395  1.00  0.00     0.138 A 
ATOM     32  C   UNL     1       2.352  -7.399  -4.379  1.00  0.00     0.102 A 
ATOM     33  O   UNL     1       1.775  -7.062  -2.038  1.00  0.00    -0.484 OA
ATOM     34  C   UNL     1       3.623  -8.014  -3.924  1.00  0.00     0.174 C 
ATOM     35  C   UNL     1       3.112  -7.310  -1.591  1.00  0.00     0.211 C 
ATOM     36  O   UNL     1       4.542  -8.296  -4.740  1.00  0.00    -0.294 OA
ATOM     37  C   UNL     1       3.788  -8.370  -2.475  1.00  0.00     0.131 C 
BRANCH  30  38
ATOM     38  O   UNL     1       2.898  -7.675  -6.738  1.00  0.00    -0.507 OA
ATOM     39  H   UNL     1       3.876  -7.411  -6.718  1.00  0.00     0.293 HD
ENDBRANCH  30  38
BRANCH  35  40
ATOM     40  C   UNL     1       3.107  -7.751  -0.146  1.00  0.00    -0.003 A 
ATOM     41  C   UNL     1       4.306  -7.786   0.583  1.00  0.00     0.057 A 
ATOM     42  C   UNL     1       1.925  -8.201   0.463  1.00  0.00     0.011 A 
ATOM     43  C   UNL     1       4.324  -8.241   1.906  1.00  0.00     0.158 A 
ATOM     44  C   UNL     1       1.935  -8.651   1.786  1.00  0.00     0.051 A 
ATOM     45  C   UNL     1       3.134  -8.675   2.522  1.00  0.00     0.160 A 
BRANCH  43  46
ATOM     46  O   UNL     1       5.537  -8.260   2.593  1.00  0.00    -0.504 OA
ATOM     47  H   UNL     1       6.195  -7.491   2.548  1.00  0.00     0.293 HD
ENDBRANCH  43  46
BRANCH  45  48
ATOM     48  O   UNL     1       3.183  -9.123   3.854  1.00  0.00    -0.493 OA
ATOM     49  C   UNL     1       2.099  -9.037   4.773  1.00  0.00     0.278 C 
ENDBRANCH  45  48
ENDBRANCH  35  40
ENDBRANCH  26  27
ENDBRANCH   5  26
BRANCH   4  50
ATOM     50  O   UNL     1      -2.664  -7.916  -4.423  1.00  0.00    -0.384 OA
ATOM     51  H   UNL     1      -2.812  -8.893  -4.314  1.00  0.00     0.211 HD
ENDBRANCH   4  50
TORSDOF 15
ENDMDL
MODEL 5
REMARK VINA RESULT:    -6.850      8.813     16.562
REMARK INTER + INTRA:         -12.900
REMARK INTER:                 -12.402
REMARK INTRA:                  -0.498
REMARK UNBOUND:                -1.645
REMARK SMILES COc1ccc([C@H]2CC(=O)c3c(O)cc(O[C@@H]4O[C@@H](CO[C@@H]5O[C@@H](C)[C@H](O)[C@H](O)[C@H]5O)[C@@H](O)[C@@H](O)[C@@H]4O)cc3O2)cc1O
REMARK SMILES IDX 19 1 32 2 34 3 36 4 17 5 18 6 20 7 21 8 22 9 25 10 24 11
REMARK SMILES IDX 26 12 23 13 28 14 30 15 27 16 29 18 31 20 33 22 35 24 16 26
REMARK SMILES IDX 15 27 14 28 38 29 12 30 39 31 11 32 40 33 9 34 7 35 10 36
REMARK SMILES IDX 8 37 13 38 6 40 41 41 5 42 42 43 4 44 3 45 43 46 2 48 1 49
REMARK SMILES IDX 37 50
REMARK H PARENT 27 17 29 19 31 21 33 23 35 25 13 39 43 47 37 51
REMARK Flexibility Score: inf
ROOT
ATOM      1  C   UNL     1       1.050  -8.980   8.995  1.00  0.00     0.180 C 
ATOM      2  C   UNL     1      -0.489  -8.863   8.733  1.00  0.00     0.177 C 
ATOM      3  C   UNL     1      -0.859  -7.488   8.150  1.00  0.00     0.180 C 
ATOM      4  C   UNL     1       0.021  -7.166   6.915  1.00  0.00     0.214 C 
ATOM      5  C   UNL     1       1.486  -7.663   7.091  1.00  0.00     0.339 C 
ATOM      6  O   UNL     1       1.784  -7.885   8.459  1.00  0.00    -0.332 OA
ENDROOT
BRANCH   1   7
ATOM      7  C   UNL     1       1.424  -9.118  10.481  1.00  0.00     0.198 C 
BRANCH   7   8
ATOM      8  O   UNL     1       2.538  -8.302  10.784  1.00  0.00    -0.347 OA
BRANCH   8   9
ATOM      9  C   UNL     1       3.740  -8.933  10.361  1.00  0.00     0.281 C 
ATOM     10  C   UNL     1       5.952  -7.893  13.106  1.00  0.00     0.041 C 
ATOM     11  C   UNL     1       5.058  -7.715  11.878  1.00  0.00     0.150 C 
ATOM     12  C   UNL     1       5.800  -6.933  10.766  1.00  0.00     0.174 C 
ATOM     13  O   UNL     1       4.687  -9.004  11.419  1.00  0.00    -0.344 OA
ATOM     14  C   UNL     1       4.945  -6.848   9.482  1.00  0.00     0.179 C 
ATOM     15  C   UNL     1       4.327  -8.218   9.126  1.00  0.00     0.202 C 
BRANCH  12  16
ATOM     16  O   UNL     1       6.113  -5.632  11.200  1.00  0.00    -0.388 OA
ATOM     17  H   UNL     1       5.450  -5.387  11.895  1.00  0.00     0.211 HD
ENDBRANCH  12  16
BRANCH  14  18
ATOM     18  O   UNL     1       3.956  -5.848   9.560  1.00  0.00    -0.387 OA
ATOM     19  H   UNL     1       4.328  -5.014   9.179  1.00  0.00     0.211 HD
ENDBRANCH  14  18
BRANCH  15  20
ATOM     20  O   UNL     1       5.311  -9.043   8.554  1.00  0.00    -0.385 OA
ATOM     21  H   UNL     1       4.844  -9.663   7.933  1.00  0.00     0.211 HD
ENDBRANCH  15  20
ENDBRANCH   8   9
ENDBRANCH   7   8
ENDBRANCH   1   7
BRANCH   2  22
ATOM     22  O   UNL     1      -1.242  -9.108   9.896  1.00  0.00    -0.387 OA
ATOM     23  H   UNL     1      -0.981 -10.006  10.225  1.00  0.00     0.211 HD
ENDBRANCH   2  22
BRANCH   3  24
ATOM     24  O   UNL     1      -0.688  -6.504   9.137  1.00  0.00    -0.387 OA
ATOM     25  H   UNL     1      -1.536  -5.994   9.191  1.00  0.00     0.211 HD
ENDBRANCH   3  24
BRANCH   5  26
ATOM     26  O   UNL     1       1.771  -8.841   6.324  1.00  0.00    -0.462 OA
BRANCH  26  27
ATOM     27  C   UNL     1       2.510  -8.887   5.129  1.00  0.00     0.130 A 
ATOM     28  C   UNL     1       3.900  -8.997   5.222  1.00  0.00     0.093 A 
ATOM     29  C   UNL     1       1.910  -8.826   3.857  1.00  0.00     0.094 A 
ATOM     30  C   UNL     1       4.700  -9.026   4.072  1.00  0.00     0.133 A 
ATOM     31  C   UNL     1       2.697  -8.864   2.702  1.00  0.00     0.138 A 
ATOM     32  C   UNL     1       4.098  -8.945   2.799  1.00  0.00     0.102 A 
ATOM     33  O   UNL     1       2.078  -8.809   1.447  1.00  0.00    -0.484 OA
ATOM     34  C   UNL     1       4.882  -8.900   1.542  1.00  0.00     0.174 C 
ATOM     35  C   UNL     1       2.774  -9.122   0.236  1.00  0.00     0.211 C 
ATOM     36  O   UNL     1       6.126  -9.107   1.538  1.00  0.00    -0.294 OA
ATOM     37  C   UNL     1       4.192  -8.531   0.260  1.00  0.00     0.131 C 
BRANCH  30  38
ATOM     38  O   UNL     1       6.086  -9.125   4.199  1.00  0.00    -0.507 OA
ATOM     39  H   UNL     1       6.517  -9.839   4.774  1.00  0.00     0.293 HD
ENDBRANCH  30  38
BRANCH  35  40
ATOM     40  C   UNL     1       2.005  -8.605  -0.957  1.00  0.00    -0.003 A 
ATOM     41  C   UNL     1       0.922  -7.732  -0.772  1.00  0.00     0.057 A 
ATOM     42  C   UNL     1       2.310  -9.048  -2.254  1.00  0.00     0.011 A 
ATOM     43  C   UNL     1       0.169  -7.286  -1.864  1.00  0.00     0.158 A 
ATOM     44  C   UNL     1       1.566  -8.603  -3.350  1.00  0.00     0.051 A 
ATOM     45  C   UNL     1       0.488  -7.716  -3.166  1.00  0.00     0.160 A 
BRANCH  43  46
ATOM     46  O   UNL     1      -0.897  -6.418  -1.635  1.00  0.00    -0.504 OA
ATOM     47  H   UNL     1      -1.860  -6.694  -1.787  1.00  0.00     0.293 HD
ENDBRANCH  43  46
BRANCH  45  48
ATOM     48  O   UNL     1      -0.284  -7.248  -4.244  1.00  0.00    -0.493 OA
ATOM     49  C   UNL     1       0.114  -6.206  -5.129  1.00  0.00     0.278 C 
ENDBRANCH  45  48
ENDBRANCH  35  40
ENDBRANCH  26  27
ENDBRANCH   5  26
BRANCH   4  50
ATOM     50  O   UNL     1      -0.567  -7.659   5.735  1.00  0.00    -0.384 OA
ATOM     51  H   UNL     1       0.154  -8.047   5.173  1.00  0.00     0.211 HD
ENDBRANCH   4  50
TORSDOF 15
ENDMDL
MODEL 6
REMARK VINA RESULT:    -6.752      1.696      2.675
REMARK INTER + INTRA:         -12.739
REMARK INTER:                 -12.142
REMARK INTRA:                  -0.597
REMARK UNBOUND:                -1.645
REMARK SMILES COc1ccc([C@H]2CC(=O)c3c(O)cc(O[C@@H]4O[C@@H](CO[C@@H]5O[C@@H](C)[C@H](O)[C@H](O)[C@H]5O)[C@@H](O)[C@@H](O)[C@@H]4O)cc3O2)cc1O
REMARK SMILES IDX 19 1 32 2 34 3 36 4 17 5 18 6 20 7 21 8 22 9 25 10 24 11
REMARK SMILES IDX 26 12 23 13 28 14 30 15 27 16 29 18 31 20 33 22 35 24 16 26
REMARK SMILES IDX 15 27 14 28 38 29 12 30 39 31 11 32 40 33 9 34 7 35 10 36
REMARK SMILES IDX 8 37 13 38 6 40 41 41 5 42 42 43 4 44 3 45 43 46 2 48 1 49
REMARK SMILES IDX 37 50
REMARK H PARENT 27 17 29 19 31 21 33 23 35 25 13 39 43 47 37 51
REMARK Flexibility Score: inf
ROOT
ATOM      1  C   UNL     1      -6.165  -0.310  -4.163  1.00  0.00     0.180 C 
ATOM      2  C   UNL     1      -7.526  -1.046  -3.922  1.00  0.00     0.177 C 
ATOM      3  C   UNL     1      -8.045  -1.708  -5.210  1.00  0.00     0.180 C 
ATOM      4  C   UNL     1      -6.946  -2.597  -5.846  1.00  0.00     0.214 C 
ATOM      5  C   UNL     1      -5.529  -1.969  -5.710  1.00  0.00     0.339 C 
ATOM      6  O   UNL     1      -5.615  -0.578  -5.448  1.00  0.00    -0.332 OA
ENDROOT
BRANCH   1   7
ATOM      7  C   UNL     1      -6.240   1.217  -3.990  1.00  0.00     0.198 C 
BRANCH   7   8
ATOM      8  O   UNL     1      -7.366   1.733  -4.672  1.00  0.00    -0.347 OA
BRANCH   8   9
ATOM      9  C   UNL     1      -7.123   3.072  -5.082  1.00  0.00     0.281 C 
ATOM     10  C   UNL     1     -10.071   4.690  -3.599  1.00  0.00     0.041 C 
ATOM     11  C   UNL     1      -9.303   3.764  -4.543  1.00  0.00     0.150 C 
ATOM     12  C   UNL     1      -9.695   4.033  -6.016  1.00  0.00     0.174 C 
ATOM     13  O   UNL     1      -7.917   3.992  -4.344  1.00  0.00    -0.344 OA
ATOM     14  C   UNL     1      -8.840   3.181  -6.981  1.00  0.00     0.179 C 
ATOM     15  C   UNL     1      -7.344   3.228  -6.601  1.00  0.00     0.202 C 
BRANCH  12  16
ATOM     16  O   UNL     1     -11.055   3.747  -6.227  1.00  0.00    -0.388 OA
ATOM     17  H   UNL     1     -11.113   3.178  -7.038  1.00  0.00     0.211 HD
ENDBRANCH  12  16
BRANCH  14  18
ATOM     18  O   UNL     1      -9.299   1.852  -7.076  1.00  0.00    -0.387 OA
ATOM     19  H   UNL     1      -9.980   1.810  -7.793  1.00  0.00     0.211 HD
ENDBRANCH  14  18
BRANCH  15  20
ATOM     20  O   UNL     1      -6.793   4.454  -7.013  1.00  0.00    -0.385 OA
ATOM     21  H   UNL     1      -5.847   4.463  -6.708  1.00  0.00     0.211 HD
ENDBRANCH  15  20
ENDBRANCH   8   9
ENDBRANCH   7   8
ENDBRANCH   1   7
BRANCH   2  22
ATOM     22  O   UNL     1      -8.506  -0.184  -3.398  1.00  0.00    -0.387 OA
ATOM     23  H   UNL     1      -8.131   0.734  -3.429  1.00  0.00     0.211 HD
ENDBRANCH   2  22
BRANCH   3  24
ATOM     24  O   UNL     1      -8.446  -0.712  -6.114  1.00  0.00    -0.387 OA
ATOM     25  H   UNL     1      -8.922  -1.165  -6.856  1.00  0.00     0.211 HD
ENDBRANCH   3  24
BRANCH   5  26
ATOM     26  O   UNL     1      -4.726  -2.613  -4.710  1.00  0.00    -0.462 OA
BRANCH  26  27
ATOM     27  C   UNL     1      -4.020  -3.817  -4.872  1.00  0.00     0.130 A 
ATOM     28  C   UNL     1      -4.428  -4.684  -5.890  1.00  0.00     0.093 A 
ATOM     29  C   UNL     1      -2.930  -4.179  -4.057  1.00  0.00     0.094 A 
ATOM     30  C   UNL     1      -3.783  -5.911  -6.093  1.00  0.00     0.133 A 
ATOM     31  C   UNL     1      -2.272  -5.396  -4.258  1.00  0.00     0.138 A 
ATOM     32  C   UNL     1      -2.703  -6.280  -5.264  1.00  0.00     0.102 A 
ATOM     33  O   UNL     1      -1.186  -5.733  -3.440  1.00  0.00    -0.484 OA
ATOM     34  C   UNL     1      -2.017  -7.590  -5.373  1.00  0.00     0.174 C 
ATOM     35  C   UNL     1      -0.296  -6.808  -3.754  1.00  0.00     0.211 C 
ATOM     36  O   UNL     1      -2.252  -8.374  -6.333  1.00  0.00    -0.294 OA
ATOM     37  C   UNL     1      -1.078  -8.020  -4.284  1.00  0.00     0.131 C 
BRANCH  30  38
ATOM     38  O   UNL     1      -4.221  -6.760  -7.110  1.00  0.00    -0.507 OA
ATOM     39  H   UNL     1      -3.802  -6.744  -8.033  1.00  0.00     0.293 HD
ENDBRANCH  30  38
BRANCH  35  40
ATOM     40  C   UNL     1       0.512  -7.191  -2.536  1.00  0.00    -0.003 A 
ATOM     41  C   UNL     1       1.657  -6.455  -2.192  1.00  0.00     0.057 A 
ATOM     42  C   UNL     1       0.177  -8.325  -1.780  1.00  0.00     0.011 A 
ATOM     43  C   UNL     1       2.443  -6.830  -1.096  1.00  0.00     0.158 A 
ATOM     44  C   UNL     1       0.954  -8.702  -0.682  1.00  0.00     0.051 A 
ATOM     45  C   UNL     1       2.095  -7.957  -0.328  1.00  0.00     0.160 A 
BRANCH  43  46
ATOM     46  O   UNL     1       3.571  -6.071  -0.789  1.00  0.00    -0.504 OA
ATOM     47  H   UNL     1       4.443  -6.495  -0.493  1.00  0.00     0.293 HD
ENDBRANCH  43  46
BRANCH  45  48
ATOM     48  O   UNL     1       2.902  -8.307   0.770  1.00  0.00    -0.493 OA
ATOM     49  C   UNL     1       2.404  -8.756   2.026  1.00  0.00     0.278 C 
ENDBRANCH  45  48
ENDBRANCH  35  40
ENDBRANCH  26  27
ENDBRANCH   5  26
BRANCH   4  50
ATOM     50  O   UNL     1      -6.997  -3.906  -5.330  1.00  0.00    -0.384 OA
ATOM     51  H   UNL     1      -7.392  -4.494  -6.026  1.00  0.00     0.211 HD
ENDBRANCH   4  50
TORSDOF 15
ENDMDL
MODEL 7
REMARK VINA RESULT:    -6.744      2.354      3.321
REMARK INTER + INTRA:         -12.725
REMARK INTER:                 -12.541
REMARK INTRA:                  -0.185
REMARK UNBOUND:                -1.645
REMARK SMILES COc1ccc([C@H]2CC(=O)c3c(O)cc(O[C@@H]4O[C@@H](CO[C@@H]5O[C@@H](C)[C@H](O)[C@H](O)[C@H]5O)[C@@H](O)[C@@H](O)[C@@H]4O)cc3O2)cc1O
REMARK SMILES IDX 19 1 32 2 34 3 36 4 17 5 18 6 20 7 21 8 22 9 25 10 24 11
REMARK SMILES IDX 26 12 23 13 28 14 30 15 27 16 29 18 31 20 33 22 35 24 16 26
REMARK SMILES IDX 15 27 14 28 38 29 12 30 39 31 11 32 40 33 9 34 7 35 10 36
REMARK SMILES IDX 8 37 13 38 6 40 41 41 5 42 42 43 4 44 3 45 43 46 2 48 1 49
REMARK SMILES IDX 37 50
REMARK H PARENT 27 17 29 19 31 21 33 23 35 25 13 39 43 47 37 51
REMARK Flexibility Score: inf
ROOT
ATOM      1  C   UNL     1      -5.198   0.377  -5.273  1.00  0.00     0.180 C 
ATOM      2  C   UNL     1      -4.608   0.796  -6.661  1.00  0.00     0.177 C 
ATOM      3  C   UNL     1      -3.070   0.820  -6.636  1.00  0.00     0.180 C 
ATOM      4  C   UNL     1      -2.513  -0.518  -6.087  1.00  0.00     0.214 C 
ATOM      5  C   UNL     1      -3.386  -1.089  -4.932  1.00  0.00     0.339 C 
ATOM      6  O   UNL     1      -4.201  -0.076  -4.365  1.00  0.00    -0.332 OA
ENDROOT
BRANCH   1   7
ATOM      7  C   UNL     1      -6.004   1.487  -4.575  1.00  0.00     0.198 C 
BRANCH   7   8
ATOM      8  O   UNL     1      -7.364   1.418  -4.955  1.00  0.00    -0.347 OA
BRANCH   8   9
ATOM      9  C   UNL     1      -7.550   0.408  -5.939  1.00  0.00     0.281 C 
ATOM     10  C   UNL     1     -11.125   0.907  -6.631  1.00  0.00     0.041 C 
ATOM     11  C   UNL     1      -9.893   0.536  -5.805  1.00  0.00     0.150 C 
ATOM     12  C   UNL     1     -10.040  -0.883  -5.204  1.00  0.00     0.174 C 
ATOM     13  O   UNL     1      -8.761   0.603  -6.658  1.00  0.00    -0.344 OA
ATOM     14  C   UNL     1      -8.752  -1.308  -4.464  1.00  0.00     0.179 C 
ATOM     15  C   UNL     1      -7.492  -0.995  -5.300  1.00  0.00     0.202 C 
BRANCH  12  16
ATOM     16  O   UNL     1     -11.124  -0.932  -4.310  1.00  0.00    -0.388 OA
ATOM     17  H   UNL     1     -11.943  -0.721  -4.829  1.00  0.00     0.211 HD
ENDBRANCH  12  16
BRANCH  14  18
ATOM     18  O   UNL     1      -8.661  -0.745  -3.176  1.00  0.00    -0.387 OA
ATOM     19  H   UNL     1      -8.527   0.231  -3.273  1.00  0.00     0.211 HD
ENDBRANCH  14  18
BRANCH  15  20
ATOM     20  O   UNL     1      -7.357  -1.950  -6.322  1.00  0.00    -0.385 OA
ATOM     21  H   UNL     1      -8.069  -2.629  -6.179  1.00  0.00     0.211 HD
ENDBRANCH  15  20
ENDBRANCH   8   9
ENDBRANCH   7   8
ENDBRANCH   1   7
BRANCH   2  22
ATOM     22  O   UNL     1      -5.099   2.043  -7.089  1.00  0.00    -0.387 OA
ATOM     23  H   UNL     1      -4.356   2.693  -6.998  1.00  0.00     0.211 HD
ENDBRANCH   2  22
BRANCH   3  24
ATOM     24  O   UNL     1      -2.636   1.890  -5.836  1.00  0.00    -0.387 OA
ATOM     25  H   UNL     1      -2.338   1.506  -4.972  1.00  0.00     0.211 HD
ENDBRANCH   3  24
BRANCH   5  26
ATOM     26  O   UNL     1      -4.193  -2.203  -5.340  1.00  0.00    -0.462 OA
BRANCH  26  27
ATOM     27  C   UNL     1      -3.799  -3.552  -5.329  1.00  0.00     0.130 A 
ATOM     28  C   UNL     1      -4.552  -4.461  -6.079  1.00  0.00     0.093 A 
ATOM     29  C   UNL     1      -2.688  -4.018  -4.601  1.00  0.00     0.094 A 
ATOM     30  C   UNL     1      -4.229  -5.824  -6.096  1.00  0.00     0.133 A 
ATOM     31  C   UNL     1      -2.349  -5.374  -4.619  1.00  0.00     0.138 A 
ATOM     32  C   UNL     1      -3.126  -6.291  -5.350  1.00  0.00     0.102 A 
ATOM     33  O   UNL     1      -1.236  -5.814  -3.892  1.00  0.00    -0.484 OA
ATOM     34  C   UNL     1      -2.765  -7.726  -5.264  1.00  0.00     0.174 C 
ATOM     35  C   UNL     1      -0.663  -7.112  -4.080  1.00  0.00     0.211 C 
ATOM     36  O   UNL     1      -3.324  -8.587  -5.997  1.00  0.00    -0.294 OA
ATOM     37  C   UNL     1      -1.766  -8.171  -4.236  1.00  0.00     0.131 C 
BRANCH  30  38
ATOM     38  O   UNL     1      -5.007  -6.707  -6.845  1.00  0.00    -0.507 OA
ATOM     39  H   UNL     1      -4.595  -7.489  -7.341  1.00  0.00     0.293 HD
ENDBRANCH  30  38
BRANCH  35  40
ATOM     40  C   UNL     1       0.242  -7.457  -2.921  1.00  0.00    -0.003 A 
ATOM     41  C   UNL     1       1.198  -6.531  -2.475  1.00  0.00     0.057 A 
ATOM     42  C   UNL     1       0.193  -8.727  -2.326  1.00  0.00     0.011 A 
ATOM     43  C   UNL     1       2.078  -6.857  -1.436  1.00  0.00     0.158 A 
ATOM     44  C   UNL     1       1.064  -9.058  -1.284  1.00  0.00     0.051 A 
ATOM     45  C   UNL     1       2.015  -8.125  -0.828  1.00  0.00     0.160 A 
BRANCH  43  46
ATOM     46  O   UNL     1       3.012  -5.908  -1.025  1.00  0.00    -0.504 OA
ATOM     47  H   UNL     1       3.243  -5.765  -0.049  1.00  0.00     0.293 HD
ENDBRANCH  43  46
BRANCH  45  48
ATOM     48  O   UNL     1       2.909  -8.422   0.216  1.00  0.00    -0.493 OA
ATOM     49  C   UNL     1       2.516  -8.821   1.525  1.00  0.00     0.278 C 
ENDBRANCH  45  48
ENDBRANCH  35  40
ENDBRANCH  26  27
ENDBRANCH   5  26
BRANCH   4  50
ATOM     50  O   UNL     1      -2.334  -1.452  -7.125  1.00  0.00    -0.384 OA
ATOM     51  H   UNL     1      -1.453  -1.891  -6.992  1.00  0.00     0.211 HD
ENDBRANCH   4  50
TORSDOF 15
ENDMDL
MODEL 8
REMARK VINA RESULT:    -6.645      2.127     12.095
REMARK INTER + INTRA:         -12.564
REMARK INTER:                 -11.478
REMARK INTRA:                  -1.086
REMARK UNBOUND:                -1.645
REMARK SMILES COc1ccc([C@H]2CC(=O)c3c(O)cc(O[C@@H]4O[C@@H](CO[C@@H]5O[C@@H](C)[C@H](O)[C@H](O)[C@H]5O)[C@@H](O)[C@@H](O)[C@@H]4O)cc3O2)cc1O
REMARK SMILES IDX 19 1 32 2 34 3 36 4 17 5 18 6 20 7 21 8 22 9 25 10 24 11
REMARK SMILES IDX 26 12 23 13 28 14 30 15 27 16 29 18 31 20 33 22 35 24 16 26
REMARK SMILES IDX 15 27 14 28 38 29 12 30 39 31 11 32 40 33 9 34 7 35 10 36
REMARK SMILES IDX 8 37 13 38 6 40 41 41 5 42 42 43 4 44 3 45 43 46 2 48 1 49
REMARK SMILES IDX 37 50
REMARK H PARENT 27 17 29 19 31 21 33 23 35 25 13 39 43 47 37 51
REMARK Flexibility Score: inf
ROOT
ATOM      1  C   UNL     1      -3.521  -4.729  -4.514  1.00  0.00     0.180 C 
ATOM      2  C   UNL     1      -2.401  -3.923  -3.774  1.00  0.00     0.177 C 
ATOM      3  C   UNL     1      -1.772  -2.858  -4.690  1.00  0.00     0.180 C 
ATOM      4  C   UNL     1      -2.872  -1.975  -5.332  1.00  0.00     0.214 C 
ATOM      5  C   UNL     1      -4.142  -2.794  -5.705  1.00  0.00     0.339 C 
ATOM      6  O   UNL     1      -3.846  -4.178  -5.785  1.00  0.00    -0.332 OA
ENDROOT
BRANCH   1   7
ATOM      7  C   UNL     1      -3.192  -6.219  -4.714  1.00  0.00     0.198 C 
BRANCH   7   8
ATOM      8  O   UNL     1      -2.231  -6.640  -3.767  1.00  0.00    -0.347 OA
BRANCH   8   9
ATOM      9  C   UNL     1      -1.715  -7.916  -4.122  1.00  0.00     0.281 C 
ATOM     10  C   UNL     1       0.524  -8.467  -1.260  1.00  0.00     0.041 C 
ATOM     11  C   UNL     1       0.015  -7.795  -2.536  1.00  0.00     0.150 C 
ATOM     12  C   UNL     1       1.132  -7.726  -3.606  1.00  0.00     0.174 C 
ATOM     13  O   UNL     1      -1.089  -8.548  -3.014  1.00  0.00    -0.344 OA
ATOM     14  C   UNL     1       0.592  -7.153  -4.935  1.00  0.00     0.179 C 
ATOM     15  C   UNL     1      -0.754  -7.802  -5.324  1.00  0.00     0.202 C 
BRANCH  12  16
ATOM     16  O   UNL     1       2.199  -6.928  -3.157  1.00  0.00    -0.388 OA
ATOM     17  H   UNL     1       2.734  -6.678  -3.953  1.00  0.00     0.211 HD
ENDBRANCH  12  16
BRANCH  14  18
ATOM     18  O   UNL     1       0.493  -5.748  -4.913  1.00  0.00    -0.387 OA
ATOM     19  H   UNL     1      -0.463  -5.506  -4.823  1.00  0.00     0.211 HD
ENDBRANCH  14  18
BRANCH  15  20
ATOM     20  O   UNL     1      -0.523  -9.089  -5.840  1.00  0.00    -0.385 OA
ATOM     21  H   UNL     1      -0.264  -8.976  -6.793  1.00  0.00     0.211 HD
ENDBRANCH  15  20
ENDBRANCH   8   9
ENDBRANCH   7   8
ENDBRANCH   1   7
BRANCH   2  22
ATOM     22  O   UNL     1      -1.398  -4.764  -3.260  1.00  0.00    -0.387 OA
ATOM     23  H   UNL     1      -1.849  -5.584  -2.930  1.00  0.00     0.211 HD
ENDBRANCH   2  22
BRANCH   3  24
ATOM     24  O   UNL     1      -1.018  -3.494  -5.689  1.00  0.00    -0.387 OA
ATOM     25  H   UNL     1      -1.582  -4.218  -6.065  1.00  0.00     0.211 HD
ENDBRANCH   3  24
BRANCH   5  26
ATOM     26  O   UNL     1      -5.235  -2.572  -4.802  1.00  0.00    -0.462 OA
BRANCH  26  27
ATOM     27  C   UNL     1      -6.465  -1.976  -5.130  1.00  0.00     0.130 A 
ATOM     28  C   UNL     1      -7.379  -2.727  -5.875  1.00  0.00     0.093 A 
ATOM     29  C   UNL     1      -6.808  -0.668  -4.740  1.00  0.00     0.094 A 
ATOM     30  C   UNL     1      -8.615  -2.188  -6.254  1.00  0.00     0.133 A 
ATOM     31  C   UNL     1      -8.043  -0.123  -5.104  1.00  0.00     0.138 A 
ATOM     32  C   UNL     1      -8.948  -0.870  -5.880  1.00  0.00     0.102 A 
ATOM     33  O   UNL     1      -8.365   1.179  -4.700  1.00  0.00    -0.484 OA
ATOM     34  C   UNL     1     -10.206  -0.208  -6.302  1.00  0.00     0.174 C 
ATOM     35  C   UNL     1      -9.696   1.699  -4.787  1.00  0.00     0.211 C 
ATOM     36  O   UNL     1     -11.125  -0.854  -6.877  1.00  0.00    -0.294 OA
ATOM     37  C   UNL     1     -10.358   1.272  -6.106  1.00  0.00     0.131 C 
BRANCH  30  38
ATOM     38  O   UNL     1      -9.501  -2.959  -7.008  1.00  0.00    -0.507 OA
ATOM     39  H   UNL     1      -9.545  -2.883  -8.017  1.00  0.00     0.293 HD
ENDBRANCH  30  38
BRANCH  35  40
ATOM     40  C   UNL     1      -9.676   3.206  -4.667  1.00  0.00    -0.003 A 
ATOM     41  C   UNL     1      -8.491   3.868  -4.314  1.00  0.00     0.057 A 
ATOM     42  C   UNL     1     -10.853   3.953  -4.832  1.00  0.00     0.011 A 
ATOM     43  C   UNL     1      -8.471   5.258  -4.149  1.00  0.00     0.158 A 
ATOM     44  C   UNL     1     -10.840   5.342  -4.674  1.00  0.00     0.051 A 
ATOM     45  C   UNL     1      -9.648   6.009  -4.332  1.00  0.00     0.160 A 
BRANCH  43  46
ATOM     46  O   UNL     1      -7.272   5.875  -3.798  1.00  0.00    -0.504 OA
ATOM     47  H   UNL     1      -7.244   6.773  -3.329  1.00  0.00     0.293 HD
ENDBRANCH  43  46
BRANCH  45  48
ATOM     48  O   UNL     1      -9.597   7.403  -4.164  1.00  0.00    -0.493 OA
ATOM     49  C   UNL     1     -10.740   8.247  -4.072  1.00  0.00     0.278 C 
ENDBRANCH  45  48
ENDBRANCH  35  40
ENDBRANCH  26  27
ENDBRANCH   5  26
BRANCH   4  50
ATOM     50  O   UNL     1      -3.176  -0.874  -4.510  1.00  0.00    -0.384 OA
ATOM     51  H   UNL     1      -3.065  -1.158  -3.564  1.00  0.00     0.211 HD
ENDBRANCH   4  50
TORSDOF 15
ENDMDL
MODEL 9
REMARK VINA RESULT:    -6.471      1.574      2.111
REMARK INTER + INTRA:         -12.278
REMARK INTER:                 -12.923
REMARK INTRA:                   0.644
REMARK UNBOUND:                -1.645
REMARK SMILES COc1ccc([C@H]2CC(=O)c3c(O)cc(O[C@@H]4O[C@@H](CO[C@@H]5O[C@@H](C)[C@H](O)[C@H](O)[C@H]5O)[C@@H](O)[C@@H](O)[C@@H]4O)cc3O2)cc1O
REMARK SMILES IDX 19 1 32 2 34 3 36 4 17 5 18 6 20 7 21 8 22 9 25 10 24 11
REMARK SMILES IDX 26 12 23 13 28 14 30 15 27 16 29 18 31 20 33 22 35 24 16 26
REMARK SMILES IDX 15 27 14 28 38 29 12 30 39 31 11 32 40 33 9 34 7 35 10 36
REMARK SMILES IDX 8 37 13 38 6 40 41 41 5 42 42 43 4 44 3 45 43 46 2 48 1 49
REMARK SMILES IDX 37 50
REMARK H PARENT 27 17 29 19 31 21 33 23 35 25 13 39 43 47 37 51
REMARK Flexibility Score: inf
ROOT
ATOM      1  C   UNL     1      -6.800   0.093  -4.859  1.00  0.00     0.180 C 
ATOM      2  C   UNL     1      -6.559   0.003  -6.404  1.00  0.00     0.177 C 
ATOM      3  C   UNL     1      -5.107   0.356  -6.770  1.00  0.00     0.180 C 
ATOM      4  C   UNL     1      -4.114  -0.480  -5.923  1.00  0.00     0.214 C 
ATOM      5  C   UNL     1      -4.611  -0.681  -4.462  1.00  0.00     0.339 C 
ATOM      6  O   UNL     1      -5.596   0.282  -4.125  1.00  0.00    -0.332 OA
ENDROOT
BRANCH   1   7
ATOM      7  C   UNL     1      -7.786   1.198  -4.443  1.00  0.00     0.198 C 
BRANCH   7   8
ATOM      8  O   UNL     1      -7.460   2.414  -5.086  1.00  0.00    -0.347 OA
BRANCH   8   9
ATOM      9  C   UNL     1      -8.554   2.862  -5.876  1.00  0.00     0.281 C 
ATOM     10  C   UNL     1      -7.347   6.234  -6.700  1.00  0.00     0.041 C 
ATOM     11  C   UNL     1      -7.849   5.102  -5.803  1.00  0.00     0.150 C 
ATOM     12  C   UNL     1      -9.062   5.566  -4.960  1.00  0.00     0.174 C 
ATOM     13  O   UNL     1      -8.206   4.012  -6.636  1.00  0.00    -0.344 OA
ATOM     14  C   UNL     1      -9.645   4.395  -4.137  1.00  0.00     0.179 C 
ATOM     15  C   UNL     1      -9.794   3.121  -4.996  1.00  0.00     0.202 C 
BRANCH  12  16
ATOM     16  O   UNL     1      -8.692   6.605  -4.089  1.00  0.00    -0.388 OA
ATOM     17  H   UNL     1      -7.864   6.319  -3.624  1.00  0.00     0.211 HD
ENDBRANCH  12  16
BRANCH  14  18
ATOM     18  O   UNL     1      -8.901   4.137  -2.969  1.00  0.00    -0.387 OA
ATOM     19  H   UNL     1      -7.998   3.832  -3.237  1.00  0.00     0.211 HD
ENDBRANCH  14  18
BRANCH  15  20
ATOM     20  O   UNL     1     -10.920   3.246  -5.829  1.00  0.00    -0.385 OA
ATOM     21  H   UNL     1     -11.681   3.513  -5.249  1.00  0.00     0.211 HD
ENDBRANCH  15  20
ENDBRANCH   8   9
ENDBRANCH   7   8
ENDBRANCH   1   7
BRANCH   2  22
ATOM     22  O   UNL     1      -7.447   0.822  -7.125  1.00  0.00    -0.387 OA
ATOM     23  H   UNL     1      -7.034   1.723  -7.175  1.00  0.00     0.211 HD
ENDBRANCH   2  22
BRANCH   3  24
ATOM     24  O   UNL     1      -4.894   1.727  -6.554  1.00  0.00    -0.387 OA
ATOM     25  H   UNL     1      -5.498   2.003  -5.817  1.00  0.00     0.211 HD
ENDBRANCH   3  24
BRANCH   5  26
ATOM     26  O   UNL     1      -5.108  -2.005  -4.219  1.00  0.00    -0.462 OA
BRANCH  26  27
ATOM     27  C   UNL     1      -4.449  -3.204  -4.541  1.00  0.00     0.130 A 
ATOM     28  C   UNL     1      -4.926  -3.941  -5.629  1.00  0.00     0.093 A 
ATOM     29  C   UNL     1      -3.341  -3.684  -3.819  1.00  0.00     0.094 A 
ATOM     30  C   UNL     1      -4.330  -5.156  -5.993  1.00  0.00     0.133 A 
ATOM     31  C   UNL     1      -2.732  -4.890  -4.179  1.00  0.00     0.138 A 
ATOM     32  C   UNL     1      -3.231  -5.645  -5.256  1.00  0.00     0.102 A 
ATOM     33  O   UNL     1      -1.626  -5.346  -3.450  1.00  0.00    -0.484 OA
ATOM     34  C   UNL     1      -2.594  -6.954  -5.537  1.00  0.00     0.174 C 
ATOM     35  C   UNL     1      -0.785  -6.405  -3.917  1.00  0.00     0.211 C 
ATOM     36  O   UNL     1      -2.893  -7.620  -6.566  1.00  0.00    -0.294 OA
ATOM     37  C   UNL     1      -1.627  -7.528  -4.542  1.00  0.00     0.131 C 
BRANCH  30  38
ATOM     38  O   UNL     1      -4.836  -5.874  -7.077  1.00  0.00    -0.507 OA
ATOM     39  H   UNL     1      -5.514  -5.470  -7.712  1.00  0.00     0.293 HD
ENDBRANCH  30  38
BRANCH  35  40
ATOM     40  C   UNL     1       0.058  -6.943  -2.784  1.00  0.00    -0.003 A 
ATOM     41  C   UNL     1       1.240  -6.284  -2.413  1.00  0.00     0.057 A 
ATOM     42  C   UNL     1      -0.287  -8.142  -2.141  1.00  0.00     0.011 A 
ATOM     43  C   UNL     1       2.056  -6.800  -1.399  1.00  0.00     0.158 A 
ATOM     44  C   UNL     1       0.520  -8.660  -1.125  1.00  0.00     0.051 A 
ATOM     45  C   UNL     1       1.700  -7.994  -0.742  1.00  0.00     0.160 A 
BRANCH  43  46
ATOM     46  O   UNL     1       3.222  -6.115  -1.062  1.00  0.00    -0.504 OA
ATOM     47  H   UNL     1       3.206  -5.175  -0.684  1.00  0.00     0.293 HD
ENDBRANCH  43  46
BRANCH  45  48
ATOM     48  O   UNL     1       2.537  -8.485   0.274  1.00  0.00    -0.493 OA
ATOM     49  C   UNL     1       2.146  -8.647   1.634  1.00  0.00     0.278 C 
ENDBRANCH  45  48
ENDBRANCH  35  40
ENDBRANCH  26  27
ENDBRANCH   5  26
BRANCH   4  50
ATOM     50  O   UNL     1      -3.819  -1.703  -6.555  1.00  0.00    -0.384 OA
ATOM     51  H   UNL     1      -3.269  -1.507  -7.359  1.00  0.00     0.211 HD
ENDBRANCH   4  50
TORSDOF 15
ENDMDL
