MODEL 1
REMARK VINA RESULT:    -5.065      0.000      0.000
REMARK INTER + INTRA:         -11.075
REMARK INTER:                  -8.915
REMARK INTRA:                  -2.160
REMARK UNBOUND:                -2.160
REMARK SMILES CCCCCCCCCCCCCCC(=O)[O-]
REMARK SMILES IDX 9 1 10 2 11 3 12 4 13 5 14 6 15 7 16 8 17 9 8 10 7 11 6 12
REMARK SMILES IDX 5 13 4 14 3 15 2 16 1 17
REMARK H PARENT
REMARK Flexibility Score: inf
ROOT
ATOM      1  C   UNL     1     -11.402  -6.650  15.384  1.00  0.00     0.000 C 
ENDROOT
BRANCH   1   2
ATOM      2  C   UNL     1     -10.371  -5.564  15.728  1.00  0.00     0.000 C 
BRANCH   2   3
ATOM      3  C   UNL     1     -10.883  -4.145  15.435  1.00  0.00     0.000 C 
BRANCH   3   4
ATOM      4  C   UNL     1     -12.091  -3.760  16.300  1.00  0.00     0.000 C 
BRANCH   4   5
ATOM      5  C   UNL     1     -13.312  -3.439  15.426  1.00  0.00     0.006 C 
BRANCH   5   6
ATOM      6  C   UNL     1     -12.916  -2.829  14.075  1.00  0.00     0.053 C 
BRANCH   6   7
ATOM      7  C   UNL     1     -13.935  -3.116  13.015  1.00  0.00     0.041 C 
ATOM      8  O   UNL     1     -13.884  -2.518  11.909  1.00  0.00    -0.550 OA
ATOM      9  O   UNL     1     -14.962  -4.019  13.262  1.00  0.00    -0.550 OA
ENDBRANCH   6   7
ENDBRANCH   5   6
ENDBRANCH   4   5
ENDBRANCH   3   4
ENDBRANCH   2   3
ENDBRANCH   1   2
BRANCH   1  10
ATOM     10  C   UNL     1     -11.315  -7.038  13.900  1.00  0.00     0.000 C 
BRANCH  10  11
ATOM     11  C   UNL     1     -12.545  -6.588  13.096  1.00  0.00    -0.000 C 
BRANCH  11  12
ATOM     12  C   UNL     1     -12.173  -5.963  11.743  1.00  0.00    -0.000 C 
BRANCH  12  13
ATOM     13  C   UNL     1     -10.895  -5.118  11.861  1.00  0.00    -0.000 C 
BRANCH  13  14
ATOM     14  C   UNL     1      -9.768  -5.620  10.946  1.00  0.00    -0.000 C 
BRANCH  14  15
ATOM     15  C   UNL     1      -8.498  -6.006  11.727  1.00  0.00    -0.000 C 
BRANCH  15  16
ATOM     16  C   UNL     1      -8.210  -5.045  12.891  1.00  0.00    -0.003 C 
ATOM     17  C   UNL     1      -7.042  -4.103  12.604  1.00  0.00     0.004 C 
ENDBRANCH  15  16
ENDBRANCH  14  15
ENDBRANCH  13  14
ENDBRANCH  12  13
ENDBRANCH  11  12
ENDBRANCH  10  11
ENDBRANCH   1  10
TORSDOF 13
ENDMDL
MODEL 2
REMARK VINA RESULT:    -5.049      1.830      4.131
REMARK INTER + INTRA:         -11.046
REMARK INTER:                  -9.068
REMARK INTRA:                  -1.978
REMARK UNBOUND:                -2.160
REMARK SMILES CCCCCCCCCCCCCCC(=O)[O-]
REMARK SMILES IDX 9 1 10 2 11 3 12 4 13 5 14 6 15 7 16 8 17 9 8 10 7 11 6 12
REMARK SMILES IDX 5 13 4 14 3 15 2 16 1 17
REMARK H PARENT
REMARK Flexibility Score: inf
ROOT
ATOM      1  C   UNL     1     -10.971  -7.106  13.509  1.00  0.00     0.000 C 
ENDROOT
BRANCH   1   2
ATOM      2  C   UNL     1     -12.288  -6.580  12.921  1.00  0.00     0.000 C 
BRANCH   2   3
ATOM      3  C   UNL     1     -12.086  -5.361  12.007  1.00  0.00     0.000 C 
BRANCH   3   4
ATOM      4  C   UNL     1     -10.736  -4.666  12.234  1.00  0.00     0.000 C 
BRANCH   4   5
ATOM      5  C   UNL     1     -10.936  -3.200  12.646  1.00  0.00     0.006 C 
BRANCH   5   6
ATOM      6  C   UNL     1     -12.046  -3.036  13.694  1.00  0.00     0.053 C 
BRANCH   6   7
ATOM      7  C   UNL     1     -12.998  -1.939  13.330  1.00  0.00     0.041 C 
ATOM      8  O   UNL     1     -14.056  -1.772  13.990  1.00  0.00    -0.550 OA
ATOM      9  O   UNL     1     -12.733  -1.121  12.237  1.00  0.00    -0.550 OA
ENDBRANCH   6   7
ENDBRANCH   5   6
ENDBRANCH   4   5
ENDBRANCH   3   4
ENDBRANCH   2   3
ENDBRANCH   1   2
BRANCH   1  10
ATOM     10  C   UNL     1     -11.069  -7.246  15.036  1.00  0.00     0.000 C 
BRANCH  10  11
ATOM     11  C   UNL     1     -10.695  -5.952  15.776  1.00  0.00    -0.000 C 
BRANCH  11  12
ATOM     12  C   UNL     1      -9.194  -5.860  16.086  1.00  0.00    -0.000 C 
BRANCH  12  13
ATOM     13  C   UNL     1      -8.534  -4.733  15.277  1.00  0.00    -0.000 C 
BRANCH  13  14
ATOM     14  C   UNL     1      -8.830  -3.339  15.852  1.00  0.00    -0.000 C 
BRANCH  14  15
ATOM     15  C   UNL     1      -8.244  -3.143  17.262  1.00  0.00    -0.000 C 
BRANCH  15  16
ATOM     16  C   UNL     1      -9.310  -2.732  18.290  1.00  0.00    -0.003 C 
ATOM     17  C   UNL     1     -10.701  -2.591  17.672  1.00  0.00     0.004 C 
ENDBRANCH  15  16
ENDBRANCH  14  15
ENDBRANCH  13  14
ENDBRANCH  12  13
ENDBRANCH  11  12
ENDBRANCH  10  11
ENDBRANCH   1  10
TORSDOF 13
ENDMDL
MODEL 3
REMARK VINA RESULT:    -5.025      3.091      4.305
REMARK INTER + INTRA:         -11.004
REMARK INTER:                  -9.145
REMARK INTRA:                  -1.859
REMARK UNBOUND:                -2.160
REMARK SMILES CCCCCCCCCCCCCCC(=O)[O-]
REMARK SMILES IDX 9 1 10 2 11 3 12 4 13 5 14 6 15 7 16 8 17 9 8 10 7 11 6 12
REMARK SMILES IDX 5 13 4 14 3 15 2 16 1 17
REMARK H PARENT
REMARK Flexibility Score: inf
ROOT
ATOM      1  C   UNL     1     -13.284  -3.126  14.890  1.00  0.00     0.000 C 
ENDROOT
BRANCH   1   2
ATOM      2  C   UNL     1     -12.855  -3.714  16.242  1.00  0.00     0.000 C 
BRANCH   2   3
ATOM      3  C   UNL     1     -11.335  -3.653  16.460  1.00  0.00     0.000 C 
BRANCH   3   4
ATOM      4  C   UNL     1     -10.930  -2.640  17.540  1.00  0.00     0.000 C 
BRANCH   4   5
ATOM      5  C   UNL     1      -9.432  -2.750  17.863  1.00  0.00     0.006 C 
BRANCH   5   6
ATOM      6  C   UNL     1      -8.700  -3.702  16.908  1.00  0.00     0.053 C 
BRANCH   6   7
ATOM      7  C   UNL     1      -7.775  -2.965  15.989  1.00  0.00     0.041 C 
ATOM      8  O   UNL     1      -8.198  -2.508  14.896  1.00  0.00    -0.550 OA
ATOM      9  O   UNL     1      -6.435  -2.814  16.325  1.00  0.00    -0.550 OA
ENDBRANCH   6   7
ENDBRANCH   5   6
ENDBRANCH   4   5
ENDBRANCH   3   4
ENDBRANCH   2   3
ENDBRANCH   1   2
BRANCH   1  10
ATOM     10  C   UNL     1     -12.086  -3.018  13.934  1.00  0.00     0.000 C 
BRANCH  10  11
ATOM     11  C   UNL     1     -12.375  -3.619  12.550  1.00  0.00    -0.000 C 
BRANCH  11  12
ATOM     12  C   UNL     1     -13.299  -4.844  12.616  1.00  0.00    -0.000 C 
BRANCH  12  13
ATOM     13  C   UNL     1     -12.499  -6.146  12.450  1.00  0.00    -0.000 C 
BRANCH  13  14
ATOM     14  C   UNL     1     -11.922  -6.659  13.779  1.00  0.00    -0.000 C 
BRANCH  14  15
ATOM     15  C   UNL     1     -10.383  -6.679  13.788  1.00  0.00    -0.000 C 
BRANCH  15  16
ATOM     16  C   UNL     1      -9.782  -6.290  12.429  1.00  0.00    -0.003 C 
ATOM     17  C   UNL     1      -8.886  -5.055  12.511  1.00  0.00     0.004 C 
ENDBRANCH  15  16
ENDBRANCH  14  15
ENDBRANCH  13  14
ENDBRANCH  12  13
ENDBRANCH  11  12
ENDBRANCH  10  11
ENDBRANCH   1  10
TORSDOF 13
ENDMDL
MODEL 4
REMARK VINA RESULT:    -5.001      2.780      4.417
REMARK INTER + INTRA:         -10.962
REMARK INTER:                  -8.582
REMARK INTRA:                  -2.380
REMARK UNBOUND:                -2.160
REMARK SMILES CCCCCCCCCCCCCCC(=O)[O-]
REMARK SMILES IDX 9 1 10 2 11 3 12 4 13 5 14 6 15 7 16 8 17 9 8 10 7 11 6 12
REMARK SMILES IDX 5 13 4 14 3 15 2 16 1 17
REMARK H PARENT
REMARK Flexibility Score: inf
ROOT
ATOM      1  C   UNL     1     -12.843  -3.651  15.700  1.00  0.00     0.000 C 
ENDROOT
BRANCH   1   2
ATOM      2  C   UNL     1     -11.679  -3.380  16.664  1.00  0.00     0.000 C 
BRANCH   2   3
ATOM      3  C   UNL     1     -10.328  -3.250  15.941  1.00  0.00     0.000 C 
BRANCH   3   4
ATOM      4  C   UNL     1      -9.159  -3.809  16.764  1.00  0.00     0.000 C 
BRANCH   4   5
ATOM      5  C   UNL     1      -7.812  -3.341  16.193  1.00  0.00     0.006 C 
BRANCH   5   6
ATOM      6  C   UNL     1      -7.423  -4.105  14.920  1.00  0.00     0.053 C 
BRANCH   6   7
ATOM      7  C   UNL     1      -7.279  -3.189  13.744  1.00  0.00     0.041 C 
ATOM      8  O   UNL     1      -7.451  -1.950  13.880  1.00  0.00    -0.550 OA
ATOM      9  O   UNL     1      -6.991  -3.709  12.487  1.00  0.00    -0.550 OA
ENDBRANCH   6   7
ENDBRANCH   5   6
ENDBRANCH   4   5
ENDBRANCH   3   4
ENDBRANCH   2   3
ENDBRANCH   1   2
BRANCH   1  10
ATOM     10  C   UNL     1     -12.424  -3.386  14.245  1.00  0.00     0.000 C 
BRANCH  10  11
ATOM     11  C   UNL     1     -13.184  -4.265  13.239  1.00  0.00    -0.000 C 
BRANCH  11  12
ATOM     12  C   UNL     1     -12.247  -5.035  12.298  1.00  0.00    -0.000 C 
BRANCH  12  13
ATOM     13  C   UNL     1     -10.775  -4.727  12.614  1.00  0.00    -0.000 C 
BRANCH  13  14
ATOM     14  C   UNL     1      -9.894  -5.986  12.610  1.00  0.00    -0.000 C 
BRANCH  14  15
ATOM     15  C   UNL     1     -10.457  -7.107  13.503  1.00  0.00    -0.000 C 
BRANCH  15  16
ATOM     16  C   UNL     1     -10.289  -6.805  15.000  1.00  0.00    -0.003 C 
ATOM     17  C   UNL     1     -11.558  -7.085  15.805  1.00  0.00     0.004 C 
ENDBRANCH  15  16
ENDBRANCH  14  15
ENDBRANCH  13  14
ENDBRANCH  12  13
ENDBRANCH  11  12
ENDBRANCH  10  11
ENDBRANCH   1  10
TORSDOF 13
ENDMDL
MODEL 5
REMARK VINA RESULT:    -4.967      2.307      4.600
REMARK INTER + INTRA:         -10.902
REMARK INTER:                  -8.818
REMARK INTRA:                  -2.084
REMARK UNBOUND:                -2.160
REMARK SMILES CCCCCCCCCCCCCCC(=O)[O-]
REMARK SMILES IDX 9 1 10 2 11 3 12 4 13 5 14 6 15 7 16 8 17 9 8 10 7 11 6 12
REMARK SMILES IDX 5 13 4 14 3 15 2 16 1 17
REMARK H PARENT
REMARK Flexibility Score: inf
ROOT
ATOM      1  C   UNL     1     -10.026  -5.679  10.480  1.00  0.00     0.000 C 
ENDROOT
BRANCH   1   2
ATOM      2  C   UNL     1      -8.836  -5.998  11.398  1.00  0.00     0.000 C 
BRANCH   2   3
ATOM      3  C   UNL     1      -8.679  -4.982  12.541  1.00  0.00     0.000 C 
BRANCH   3   4
ATOM      4  C   UNL     1      -7.300  -4.307  12.549  1.00  0.00     0.000 C 
BRANCH   4   5
ATOM      5  C   UNL     1      -7.371  -2.922  13.209  1.00  0.00     0.006 C 
BRANCH   5   6
ATOM      6  C   UNL     1      -8.810  -2.513  13.549  1.00  0.00     0.053 C 
BRANCH   6   7
ATOM      7  C   UNL     1      -9.091  -1.093  13.164  1.00  0.00     0.041 C 
ATOM      8  O   UNL     1     -10.228  -0.765  12.736  1.00  0.00    -0.550 OA
ATOM      9  O   UNL     1      -8.085  -0.138  13.243  1.00  0.00    -0.550 OA
ENDBRANCH   6   7
ENDBRANCH   5   6
ENDBRANCH   4   5
ENDBRANCH   3   4
ENDBRANCH   2   3
ENDBRANCH   1   2
BRANCH   1  10
ATOM     10  C   UNL     1     -11.072  -4.827  11.215  1.00  0.00     0.000 C 
BRANCH  10  11
ATOM     11  C   UNL     1     -12.334  -5.623  11.582  1.00  0.00    -0.000 C 
BRANCH  11  12
ATOM     12  C   UNL     1     -12.959  -5.164  12.908  1.00  0.00    -0.000 C 
BRANCH  12  13
ATOM     13  C   UNL     1     -12.087  -4.097  13.587  1.00  0.00    -0.000 C 
BRANCH  13  14
ATOM     14  C   UNL     1     -11.649  -4.505  15.002  1.00  0.00    -0.000 C 
BRANCH  14  15
ATOM     15  C   UNL     1     -11.336  -6.008  15.116  1.00  0.00    -0.000 C 
BRANCH  15  16
ATOM     16  C   UNL     1      -9.949  -6.276  15.720  1.00  0.00    -0.003 C 
ATOM     17  C   UNL     1      -9.265  -5.003  16.216  1.00  0.00     0.004 C 
ENDBRANCH  15  16
ENDBRANCH  14  15
ENDBRANCH  13  14
ENDBRANCH  12  13
ENDBRANCH  11  12
ENDBRANCH  10  11
ENDBRANCH   1  10
TORSDOF 13
ENDMDL
MODEL 6
REMARK VINA RESULT:    -4.964      1.912      3.610
REMARK INTER + INTRA:         -10.898
REMARK INTER:                  -8.921
REMARK INTRA:                  -1.977
REMARK UNBOUND:                -2.160
REMARK SMILES CCCCCCCCCCCCCCC(=O)[O-]
REMARK SMILES IDX 9 1 10 2 11 3 12 4 13 5 14 6 15 7 16 8 17 9 8 10 7 11 6 12
REMARK SMILES IDX 5 13 4 14 3 15 2 16 1 17
REMARK H PARENT
REMARK Flexibility Score: inf
ROOT
ATOM      1  C   UNL     1     -11.434  -3.319  16.746  1.00  0.00     0.000 C 
ENDROOT
BRANCH   1   2
ATOM      2  C   UNL     1     -12.847  -3.651  16.243  1.00  0.00     0.000 C 
BRANCH   2   3
ATOM      3  C   UNL     1     -12.974  -3.542  14.715  1.00  0.00     0.000 C 
BRANCH   3   4
ATOM      4  C   UNL     1     -13.992  -2.479  14.279  1.00  0.00     0.000 C 
BRANCH   4   5
ATOM      5  C   UNL     1     -13.568  -1.824  12.955  1.00  0.00     0.006 C 
BRANCH   5   6
ATOM      6  C   UNL     1     -12.128  -2.181  12.565  1.00  0.00     0.053 C 
BRANCH   6   7
ATOM      7  C   UNL     1     -11.309  -0.959  12.282  1.00  0.00     0.041 C 
ATOM      8  O   UNL     1     -10.200  -0.794  12.852  1.00  0.00    -0.550 OA
ATOM      9  O   UNL     1     -11.789   0.016  11.416  1.00  0.00    -0.550 OA
ENDBRANCH   6   7
ENDBRANCH   5   6
ENDBRANCH   4   5
ENDBRANCH   3   4
ENDBRANCH   2   3
ENDBRANCH   1   2
BRANCH   1  10
ATOM     10  C   UNL     1     -10.401  -3.470  15.618  1.00  0.00     0.000 C 
BRANCH  10  11
ATOM     11  C   UNL     1      -9.491  -4.694  15.807  1.00  0.00    -0.000 C 
BRANCH  11  12
ATOM     12  C   UNL     1      -8.367  -4.763  14.763  1.00  0.00    -0.000 C 
BRANCH  12  13
ATOM     13  C   UNL     1      -8.828  -4.177  13.419  1.00  0.00    -0.000 C 
BRANCH  13  14
ATOM     14  C   UNL     1      -8.586  -5.136  12.242  1.00  0.00    -0.000 C 
BRANCH  14  15
ATOM     15  C   UNL     1      -9.547  -6.339  12.251  1.00  0.00    -0.000 C 
BRANCH  15  16
ATOM     16  C   UNL     1     -11.008  -5.922  12.482  1.00  0.00    -0.003 C 
ATOM     17  C   UNL     1     -11.698  -6.760  13.559  1.00  0.00     0.004 C 
ENDBRANCH  15  16
ENDBRANCH  14  15
ENDBRANCH  13  14
ENDBRANCH  12  13
ENDBRANCH  11  12
ENDBRANCH  10  11
ENDBRANCH   1  10
TORSDOF 13
ENDMDL
MODEL 7
REMARK VINA RESULT:    -4.905      3.031      4.386
REMARK INTER + INTRA:         -10.793
REMARK INTER:                  -9.106
REMARK INTRA:                  -1.688
REMARK UNBOUND:                -2.160
REMARK SMILES CCCCCCCCCCCCCCC(=O)[O-]
REMARK SMILES IDX 9 1 10 2 11 3 12 4 13 5 14 6 15 7 16 8 17 9 8 10 7 11 6 12
REMARK SMILES IDX 5 13 4 14 3 15 2 16 1 17
REMARK H PARENT
REMARK Flexibility Score: inf
ROOT
ATOM      1  C   UNL     1     -13.668  -3.007  14.850  1.00  0.00     0.000 C 
ENDROOT
BRANCH   1   2
ATOM      2  C   UNL     1     -12.459  -3.287  15.754  1.00  0.00     0.000 C 
BRANCH   2   3
ATOM      3  C   UNL     1     -12.211  -4.789  15.966  1.00  0.00     0.000 C 
BRANCH   3   4
ATOM      4  C   UNL     1     -10.788  -5.215  15.579  1.00  0.00     0.000 C 
BRANCH   4   5
ATOM      5  C   UNL     1      -9.832  -4.013  15.588  1.00  0.00     0.006 C 
BRANCH   5   6
ATOM      6  C   UNL     1      -8.756  -4.133  16.676  1.00  0.00     0.053 C 
BRANCH   6   7
ATOM      7  C   UNL     1      -8.913  -3.084  17.733  1.00  0.00     0.041 C 
ATOM      8  O   UNL     1      -9.846  -2.244  17.658  1.00  0.00    -0.550 OA
ATOM      9  O   UNL     1      -8.005  -3.012  18.783  1.00  0.00    -0.550 OA
ENDBRANCH   6   7
ENDBRANCH   5   6
ENDBRANCH   4   5
ENDBRANCH   3   4
ENDBRANCH   2   3
ENDBRANCH   1   2
BRANCH   1  10
ATOM     10  C   UNL     1     -13.234  -2.296  13.559  1.00  0.00     0.000 C 
BRANCH  10  11
ATOM     11  C   UNL     1     -13.560  -3.110  12.296  1.00  0.00    -0.000 C 
BRANCH  11  12
ATOM     12  C   UNL     1     -13.994  -4.548  12.613  1.00  0.00    -0.000 C 
BRANCH  12  13
ATOM     13  C   UNL     1     -12.853  -5.540  12.340  1.00  0.00    -0.000 C 
BRANCH  13  14
ATOM     14  C   UNL     1     -12.412  -5.545  10.868  1.00  0.00    -0.000 C 
BRANCH  14  15
ATOM     15  C   UNL     1     -10.905  -5.283  10.699  1.00  0.00    -0.000 C 
BRANCH  15  16
ATOM     16  C   UNL     1     -10.101  -5.649  11.957  1.00  0.00    -0.003 C 
ATOM     17  C   UNL     1      -8.662  -6.057  11.639  1.00  0.00     0.004 C 
ENDBRANCH  15  16
ENDBRANCH  14  15
ENDBRANCH  13  14
ENDBRANCH  12  13
ENDBRANCH  11  12
ENDBRANCH  10  11
ENDBRANCH   1  10
TORSDOF 13
ENDMDL
MODEL 8
REMARK VINA RESULT:    -4.870      1.590      4.020
REMARK INTER + INTRA:         -10.732
REMARK INTER:                  -8.693
REMARK INTRA:                  -2.039
REMARK UNBOUND:                -2.160
REMARK SMILES CCCCCCCCCCCCCCC(=O)[O-]
REMARK SMILES IDX 9 1 10 2 11 3 12 4 13 5 14 6 15 7 16 8 17 9 8 10 7 11 6 12
REMARK SMILES IDX 5 13 4 14 3 15 2 16 1 17
REMARK H PARENT
REMARK Flexibility Score: inf
ROOT
ATOM      1  C   UNL     1     -10.107  -5.502  12.160  1.00  0.00     0.000 C 
ENDROOT
BRANCH   1   2
ATOM      2  C   UNL     1      -9.941  -5.634  10.639  1.00  0.00     0.000 C 
BRANCH   2   3
ATOM      3  C   UNL     1     -11.228  -5.297   9.869  1.00  0.00     0.000 C 
BRANCH   3   4
ATOM      4  C   UNL     1     -12.499  -5.625  10.666  1.00  0.00     0.000 C 
BRANCH   4   5
ATOM      5  C   UNL     1     -13.402  -4.388  10.792  1.00  0.00     0.006 C 
BRANCH   5   6
ATOM      6  C   UNL     1     -13.691  -4.027  12.256  1.00  0.00     0.053 C 
BRANCH   6   7
ATOM      7  C   UNL     1     -12.984  -2.773  12.669  1.00  0.00     0.041 C 
ATOM      8  O   UNL     1     -13.464  -2.045  13.577  1.00  0.00    -0.550 OA
ATOM      9  O   UNL     1     -11.813  -2.390  12.027  1.00  0.00    -0.550 OA
ENDBRANCH   6   7
ENDBRANCH   5   6
ENDBRANCH   4   5
ENDBRANCH   3   4
ENDBRANCH   2   3
ENDBRANCH   1   2
BRANCH   1  10
ATOM     10  C   UNL     1      -9.583  -6.754  12.879  1.00  0.00     0.000 C 
BRANCH  10  11
ATOM     11  C   UNL     1     -10.675  -7.474  13.687  1.00  0.00    -0.000 C 
BRANCH  11  12
ATOM     12  C   UNL     1     -11.771  -6.520  14.184  1.00  0.00    -0.000 C 
BRANCH  12  13
ATOM     13  C   UNL     1     -11.477  -6.043  15.615  1.00  0.00    -0.000 C 
BRANCH  13  14
ATOM     14  C   UNL     1     -11.828  -4.562  15.829  1.00  0.00    -0.000 C 
BRANCH  14  15
ATOM     15  C   UNL     1     -10.650  -3.623  15.512  1.00  0.00    -0.000 C 
BRANCH  15  16
ATOM     16  C   UNL     1      -9.299  -4.203  15.960  1.00  0.00    -0.003 C 
ATOM     17  C   UNL     1      -8.841  -3.657  17.312  1.00  0.00     0.004 C 
ENDBRANCH  15  16
ENDBRANCH  14  15
ENDBRANCH  13  14
ENDBRANCH  12  13
ENDBRANCH  11  12
ENDBRANCH  10  11
ENDBRANCH   1  10
TORSDOF 13
ENDMDL
MODEL 9
REMARK VINA RESULT:    -4.821      2.572      4.604
REMARK INTER + INTRA:         -10.645
REMARK INTER:                  -8.444
REMARK INTRA:                  -2.201
REMARK UNBOUND:                -2.160
REMARK SMILES CCCCCCCCCCCCCCC(=O)[O-]
REMARK SMILES IDX 9 1 10 2 11 3 12 4 13 5 14 6 15 7 16 8 17 9 8 10 7 11 6 12
REMARK SMILES IDX 5 13 4 14 3 15 2 16 1 17
REMARK H PARENT
REMARK Flexibility Score: inf
ROOT
ATOM      1  C   UNL     1     -12.516  -5.289  11.687  1.00  0.00     0.000 C 
ENDROOT
BRANCH   1   2
ATOM      2  C   UNL     1     -13.319  -3.989  11.531  1.00  0.00     0.000 C 
BRANCH   2   3
ATOM      3  C   UNL     1     -13.302  -3.125  12.801  1.00  0.00     0.000 C 
BRANCH   3   4
ATOM      4  C   UNL     1     -12.971  -1.653  12.514  1.00  0.00     0.000 C 
BRANCH   4   5
ATOM      5  C   UNL     1     -11.481  -1.481  12.180  1.00  0.00     0.006 C 
BRANCH   5   6
ATOM      6  C   UNL     1     -10.573  -2.197  13.188  1.00  0.00     0.053 C 
BRANCH   6   7
ATOM      7  C   UNL     1      -9.195  -1.611  13.210  1.00  0.00     0.041 C 
ATOM      8  O   UNL     1      -9.037  -0.363  13.219  1.00  0.00    -0.550 OA
ATOM      9  O   UNL     1      -8.083  -2.444  13.184  1.00  0.00    -0.550 OA
ENDBRANCH   6   7
ENDBRANCH   5   6
ENDBRANCH   4   5
ENDBRANCH   3   4
ENDBRANCH   2   3
ENDBRANCH   1   2
BRANCH   1  10
ATOM     10  C   UNL     1     -11.154  -5.179  10.983  1.00  0.00     0.000 C 
BRANCH  10  11
ATOM     11  C   UNL     1      -9.986  -5.624  11.878  1.00  0.00    -0.000 C 
BRANCH  11  12
ATOM     12  C   UNL     1     -10.442  -6.039  13.285  1.00  0.00    -0.000 C 
BRANCH  12  13
ATOM     13  C   UNL     1      -9.503  -5.466  14.358  1.00  0.00    -0.000 C 
BRANCH  13  14
ATOM     14  C   UNL     1     -10.242  -5.097  15.654  1.00  0.00    -0.000 C 
BRANCH  14  15
ATOM     15  C   UNL     1     -11.767  -5.006  15.461  1.00  0.00    -0.000 C 
BRANCH  15  16
ATOM     16  C   UNL     1     -12.396  -3.867  16.278  1.00  0.00    -0.003 C 
ATOM     17  C   UNL     1     -11.356  -3.034  17.026  1.00  0.00     0.004 C 
ENDBRANCH  15  16
ENDBRANCH  14  15
ENDBRANCH  13  14
ENDBRANCH  12  13
ENDBRANCH  11  12
ENDBRANCH  10  11
ENDBRANCH   1  10
TORSDOF 13
ENDMDL
