MODEL 1
REMARK VINA RESULT:    -4.411      0.000      0.000
REMARK INTER + INTRA:          -6.044
REMARK INTER:                  -5.958
REMARK INTRA:                  -0.087
REMARK UNBOUND:                -0.087
REMARK SMILES [NH3+]CCCC[C@@H]([NH3+])C(=O)[O-]
REMARK SMILES IDX 4 1 3 2 2 3 1 4 5 8 6 9 7 10 8 14 9 15 10 16
REMARK H PARENT 1 5 1 6 1 7 7 11 7 12 7 13
REMARK Flexibility Score: inf
ROOT
ATOM      1  C   UNL     1     -16.026  14.384  -9.262  1.00  0.00     0.012 C 
ENDROOT
BRANCH   1   2
ATOM      2  C   UNL     1     -14.987  15.170  -8.453  1.00  0.00     0.061 C 
BRANCH   2   3
ATOM      3  C   UNL     1     -14.246  16.181  -9.339  1.00  0.00     0.258 C 
BRANCH   3   4
ATOM      4  N   UNL     1     -13.279  16.950  -8.557  1.00  0.00    -0.358 N 
ATOM      5  H   UNL     1     -13.701  17.872  -8.304  1.00  0.00     0.344 HD
ATOM      6  H   UNL     1     -13.036  16.436  -7.680  1.00  0.00     0.344 HD
ATOM      7  H   UNL     1     -12.414  17.117  -9.122  1.00  0.00     0.344 HD
ENDBRANCH   3   4
ENDBRANCH   2   3
ENDBRANCH   1   2
BRANCH   1   8
ATOM      8  C   UNL     1     -15.511  12.975  -9.598  1.00  0.00     0.072 C 
BRANCH   8   9
ATOM      9  C   UNL     1     -16.167  12.402 -10.874  1.00  0.00     0.227 C 
BRANCH   9  10
ATOM     10  N   UNL     1     -15.145  11.870 -11.782  1.00  0.00    -0.350 N 
ATOM     11  H   UNL     1     -15.589  11.366 -12.584  1.00  0.00     0.345 HD
ATOM     12  H   UNL     1     -14.555  12.651 -12.152  1.00  0.00     0.345 HD
ATOM     13  H   UNL     1     -14.522  11.208 -11.267  1.00  0.00     0.345 HD
ENDBRANCH   9  10
BRANCH   9  14
ATOM     14  C   UNL     1     -17.171  11.331 -10.537  1.00  0.00     0.099 C 
ATOM     15  O   UNL     1     -18.096  11.045 -11.344  1.00  0.00    -0.544 OA
ATOM     16  O   UNL     1     -17.076  10.643  -9.333  1.00  0.00    -0.544 OA
ENDBRANCH   9  14
ENDBRANCH   8   9
ENDBRANCH   1   8
TORSDOF 7
ENDMDL
MODEL 2
REMARK VINA RESULT:    -4.313      3.743      5.570
REMARK INTER + INTRA:          -5.912
REMARK INTER:                  -5.821
REMARK INTRA:                  -0.091
REMARK UNBOUND:                -0.087
REMARK SMILES [NH3+]CCCC[C@@H]([NH3+])C(=O)[O-]
REMARK SMILES IDX 4 1 3 2 2 3 1 4 5 8 6 9 7 10 8 14 9 15 10 16
REMARK H PARENT 1 5 1 6 1 7 7 11 7 12 7 13
REMARK Flexibility Score: inf
ROOT
ATOM      1  C   UNL     1     -15.901  13.527  -9.199  1.00  0.00     0.012 C 
ENDROOT
BRANCH   1   2
ATOM      2  C   UNL     1     -15.433  12.629 -10.351  1.00  0.00     0.061 C 
BRANCH   2   3
ATOM      3  C   UNL     1     -15.697  11.150 -10.040  1.00  0.00     0.258 C 
BRANCH   3   4
ATOM      4  N   UNL     1     -14.450  10.386 -10.035  1.00  0.00    -0.358 N 
ATOM      5  H   UNL     1     -13.644  11.046 -10.125  1.00  0.00     0.344 HD
ATOM      6  H   UNL     1     -14.356   9.858  -9.138  1.00  0.00     0.344 HD
ATOM      7  H   UNL     1     -14.434   9.720 -10.842  1.00  0.00     0.344 HD
ENDBRANCH   3   4
ENDBRANCH   2   3
ENDBRANCH   1   2
BRANCH   1   8
ATOM      8  C   UNL     1     -15.136  14.860  -9.194  1.00  0.00     0.072 C 
BRANCH   8   9
ATOM      9  C   UNL     1     -14.984  15.442  -7.772  1.00  0.00     0.227 C 
BRANCH   9  10
ATOM     10  N   UNL     1     -14.845  14.362  -6.787  1.00  0.00    -0.350 N 
ATOM     11  H   UNL     1     -15.659  13.707  -6.839  1.00  0.00     0.345 HD
ATOM     12  H   UNL     1     -13.962  13.829  -6.965  1.00  0.00     0.345 HD
ATOM     13  H   UNL     1     -14.793  14.765  -5.824  1.00  0.00     0.345 HD
ENDBRANCH   9  10
BRANCH   9  14
ATOM     14  C   UNL     1     -13.806  16.376  -7.688  1.00  0.00     0.099 C 
ATOM     15  O   UNL     1     -13.065  16.562  -8.690  1.00  0.00    -0.544 OA
ATOM     16  O   UNL     1     -13.534  17.048  -6.502  1.00  0.00    -0.544 OA
ENDBRANCH   9  14
ENDBRANCH   8   9
ENDBRANCH   1   8
TORSDOF 7
ENDMDL
MODEL 3
REMARK VINA RESULT:    -4.234      3.670      5.626
REMARK INTER + INTRA:          -5.806
REMARK INTER:                  -5.712
REMARK INTRA:                  -0.094
REMARK UNBOUND:                -0.087
REMARK SMILES [NH3+]CCCC[C@@H]([NH3+])C(=O)[O-]
REMARK SMILES IDX 4 1 3 2 2 3 1 4 5 8 6 9 7 10 8 14 9 15 10 16
REMARK H PARENT 1 5 1 6 1 7 7 11 7 12 7 13
REMARK Flexibility Score: inf
ROOT
ATOM      1  C   UNL     1     -15.546  14.121  -8.662  1.00  0.00     0.012 C 
ENDROOT
BRANCH   1   2
ATOM      2  C   UNL     1     -16.180  13.346  -9.824  1.00  0.00     0.061 C 
BRANCH   2   3
ATOM      3  C   UNL     1     -15.377  12.080 -10.147  1.00  0.00     0.258 C 
BRANCH   3   4
ATOM      4  N   UNL     1     -15.382  11.810 -11.585  1.00  0.00    -0.358 N 
ATOM      5  H   UNL     1     -15.799  10.867 -11.754  1.00  0.00     0.344 HD
ATOM      6  H   UNL     1     -15.956  12.528 -12.083  1.00  0.00     0.344 HD
ATOM      7  H   UNL     1     -14.403  11.819 -11.954  1.00  0.00     0.344 HD
ENDBRANCH   3   4
ENDBRANCH   2   3
ENDBRANCH   1   2
BRANCH   1   8
ATOM      8  C   UNL     1     -15.102  15.521  -9.110  1.00  0.00     0.072 C 
BRANCH   8   9
ATOM      9  C   UNL     1     -13.828  15.994  -8.375  1.00  0.00     0.227 C 
BRANCH   9  10
ATOM     10  N   UNL     1     -12.882  16.596  -9.321  1.00  0.00    -0.350 N 
ATOM     11  H   UNL     1     -13.068  17.621  -9.429  1.00  0.00     0.345 HD
ATOM     12  H   UNL     1     -11.902  16.458  -8.982  1.00  0.00     0.345 HD
ATOM     13  H   UNL     1     -12.971  16.135 -10.255  1.00  0.00     0.345 HD
ENDBRANCH   9  10
BRANCH   9  14
ATOM     14  C   UNL     1     -14.163  16.974  -7.280  1.00  0.00     0.099 C 
ATOM     15  O   UNL     1     -15.196  17.691  -7.358  1.00  0.00    -0.544 OA
ATOM     16  O   UNL     1     -13.334  17.085  -6.171  1.00  0.00    -0.544 OA
ENDBRANCH   9  14
ENDBRANCH   8   9
ENDBRANCH   1   8
TORSDOF 7
ENDMDL
MODEL 4
REMARK VINA RESULT:    -4.204      3.446      4.288
REMARK INTER + INTRA:          -5.766
REMARK INTER:                  -5.530
REMARK INTRA:                  -0.236
REMARK UNBOUND:                -0.087
REMARK SMILES [NH3+]CCCC[C@@H]([NH3+])C(=O)[O-]
REMARK SMILES IDX 4 1 3 2 2 3 1 4 5 8 6 9 7 10 8 14 9 15 10 16
REMARK H PARENT 1 5 1 6 1 7 7 11 7 12 7 13
REMARK Flexibility Score: inf
ROOT
ATOM      1  C   UNL     1     -19.250  12.020 -11.880  1.00  0.00     0.012 C 
ENDROOT
BRANCH   1   2
ATOM      2  C   UNL     1     -19.258  13.548 -11.746  1.00  0.00     0.061 C 
BRANCH   2   3
ATOM      3  C   UNL     1     -20.279  14.006 -10.696  1.00  0.00     0.258 C 
BRANCH   3   4
ATOM      4  N   UNL     1     -19.627  14.756  -9.624  1.00  0.00    -0.358 N 
ATOM      5  H   UNL     1     -18.940  15.424 -10.044  1.00  0.00     0.344 HD
ATOM      6  H   UNL     1     -20.337  15.298  -9.081  1.00  0.00     0.344 HD
ATOM      7  H   UNL     1     -19.117  14.101  -8.987  1.00  0.00     0.344 HD
ENDBRANCH   3   4
ENDBRANCH   2   3
ENDBRANCH   1   2
BRANCH   1   8
ATOM      8  C   UNL     1     -18.543  11.366 -10.684  1.00  0.00     0.072 C 
BRANCH   8   9
ATOM      9  C   UNL     1     -17.258  12.122 -10.279  1.00  0.00     0.227 C 
BRANCH   9  10
ATOM     10  N   UNL     1     -17.228  12.343  -8.829  1.00  0.00    -0.350 N 
ATOM     11  H   UNL     1     -16.628  11.627  -8.358  1.00  0.00     0.345 HD
ATOM     12  H   UNL     1     -16.851  13.297  -8.622  1.00  0.00     0.345 HD
ATOM     13  H   UNL     1     -18.196  12.285  -8.440  1.00  0.00     0.345 HD
ENDBRANCH   9  10
BRANCH   9  14
ATOM     14  C   UNL     1     -16.026  11.375 -10.717  1.00  0.00     0.099 C 
ATOM     15  O   UNL     1     -15.373  11.754 -11.726  1.00  0.00    -0.544 OA
ATOM     16  O   UNL     1     -15.594  10.265 -10.001  1.00  0.00    -0.544 OA
ENDBRANCH   9  14
ENDBRANCH   8   9
ENDBRANCH   1   8
TORSDOF 7
ENDMDL
MODEL 5
REMARK VINA RESULT:    -4.181      3.371      4.221
REMARK INTER + INTRA:          -5.735
REMARK INTER:                  -5.202
REMARK INTRA:                  -0.532
REMARK UNBOUND:                -0.087
REMARK SMILES [NH3+]CCCC[C@@H]([NH3+])C(=O)[O-]
REMARK SMILES IDX 4 1 3 2 2 3 1 4 5 8 6 9 7 10 8 14 9 15 10 16
REMARK H PARENT 1 5 1 6 1 7 7 11 7 12 7 13
REMARK Flexibility Score: inf
ROOT
ATOM      1  C   UNL     1     -17.410  12.531 -10.866  1.00  0.00     0.012 C 
ENDROOT
BRANCH   1   2
ATOM      2  C   UNL     1     -16.025  12.052 -11.319  1.00  0.00     0.061 C 
BRANCH   2   3
ATOM      3  C   UNL     1     -15.136  11.714 -10.116  1.00  0.00     0.258 C 
BRANCH   3   4
ATOM      4  N   UNL     1     -14.911  10.272 -10.021  1.00  0.00    -0.358 N 
ATOM      5  H   UNL     1     -15.832   9.789  -9.916  1.00  0.00     0.344 HD
ATOM      6  H   UNL     1     -14.444   9.924 -10.889  1.00  0.00     0.344 HD
ATOM      7  H   UNL     1     -14.318  10.055  -9.188  1.00  0.00     0.344 HD
ENDBRANCH   3   4
ENDBRANCH   2   3
ENDBRANCH   1   2
BRANCH   1   8
ATOM      8  C   UNL     1     -18.464  11.429 -11.057  1.00  0.00     0.072 C 
BRANCH   8   9
ATOM      9  C   UNL     1     -19.305  11.199  -9.783  1.00  0.00     0.227 C 
BRANCH   9  10
ATOM     10  N   UNL     1     -20.342  10.190 -10.027  1.00  0.00    -0.350 N 
ATOM     11  H   UNL     1     -20.594  10.157 -11.042  1.00  0.00     0.345 HD
ATOM     12  H   UNL     1     -20.000   9.247  -9.727  1.00  0.00     0.345 HD
ATOM     13  H   UNL     1     -21.197  10.417  -9.471  1.00  0.00     0.345 HD
ENDBRANCH   9  10
BRANCH   9  14
ATOM     14  C   UNL     1     -18.437  10.782  -8.624  1.00  0.00     0.099 C 
ATOM     15  O   UNL     1     -18.451  11.436  -7.547  1.00  0.00    -0.544 OA
ATOM     16  O   UNL     1     -17.620   9.663  -8.735  1.00  0.00    -0.544 OA
ENDBRANCH   9  14
ENDBRANCH   8   9
ENDBRANCH   1   8
TORSDOF 7
ENDMDL
MODEL 6
REMARK VINA RESULT:    -4.180      2.216      2.832
REMARK INTER + INTRA:          -5.733
REMARK INTER:                  -5.246
REMARK INTRA:                  -0.486
REMARK UNBOUND:                -0.087
REMARK SMILES [NH3+]CCCC[C@@H]([NH3+])C(=O)[O-]
REMARK SMILES IDX 4 1 3 2 2 3 1 4 5 8 6 9 7 10 8 14 9 15 10 16
REMARK H PARENT 1 5 1 6 1 7 7 11 7 12 7 13
REMARK Flexibility Score: inf
ROOT
ATOM      1  C   UNL     1     -15.956  14.333  -9.253  1.00  0.00     0.012 C 
ENDROOT
BRANCH   1   2
ATOM      2  C   UNL     1     -16.555  14.361  -7.842  1.00  0.00     0.061 C 
BRANCH   2   3
ATOM      3  C   UNL     1     -17.969  13.767  -7.830  1.00  0.00     0.258 C 
BRANCH   3   4
ATOM      4  N   UNL     1     -17.988  12.477  -7.141  1.00  0.00    -0.358 N 
ATOM      5  H   UNL     1     -17.618  11.741  -7.785  1.00  0.00     0.344 HD
ATOM      6  H   UNL     1     -17.383  12.515  -6.290  1.00  0.00     0.344 HD
ATOM      7  H   UNL     1     -18.967  12.230  -6.870  1.00  0.00     0.344 HD
ENDBRANCH   3   4
ENDBRANCH   2   3
ENDBRANCH   1   2
BRANCH   1   8
ATOM      8  C   UNL     1     -15.479  12.920  -9.621  1.00  0.00     0.072 C 
BRANCH   8   9
ATOM      9  C   UNL     1     -16.174  12.380 -10.891  1.00  0.00     0.227 C 
BRANCH   9  10
ATOM     10  N   UNL     1     -15.184  11.844 -11.831  1.00  0.00    -0.350 N 
ATOM     11  H   UNL     1     -15.368  12.191 -12.801  1.00  0.00     0.345 HD
ATOM     12  H   UNL     1     -14.222  12.135 -11.539  1.00  0.00     0.345 HD
ATOM     13  H   UNL     1     -15.222  10.799 -11.830  1.00  0.00     0.345 HD
ENDBRANCH   9  10
BRANCH   9  14
ATOM     14  C   UNL     1     -17.190  11.323 -10.548  1.00  0.00     0.099 C 
ATOM     15  O   UNL     1     -17.108  10.684  -9.464  1.00  0.00    -0.544 OA
ATOM     16  O   UNL     1     -18.234  11.051 -11.424  1.00  0.00    -0.544 OA
ENDBRANCH   9  14
ENDBRANCH   8   9
ENDBRANCH   1   8
TORSDOF 7
ENDMDL
MODEL 7
REMARK VINA RESULT:    -4.154      2.670      3.628
REMARK INTER + INTRA:          -5.698
REMARK INTER:                  -5.195
REMARK INTRA:                  -0.503
REMARK UNBOUND:                -0.087
REMARK SMILES [NH3+]CCCC[C@@H]([NH3+])C(=O)[O-]
REMARK SMILES IDX 4 1 3 2 2 3 1 4 5 8 6 9 7 10 8 14 9 15 10 16
REMARK H PARENT 1 5 1 6 1 7 7 11 7 12 7 13
REMARK Flexibility Score: inf
ROOT
ATOM      1  C   UNL     1     -16.737  13.569  -8.964  1.00  0.00     0.012 C 
ENDROOT
BRANCH   1   2
ATOM      2  C   UNL     1     -15.526  13.197  -9.828  1.00  0.00     0.061 C 
BRANCH   2   3
ATOM      3  C   UNL     1     -15.458  11.682 -10.062  1.00  0.00     0.258 C 
BRANCH   3   4
ATOM      4  N   UNL     1     -15.470  11.373 -11.491  1.00  0.00    -0.358 N 
ATOM      5  H   UNL     1     -15.626  10.347 -11.617  1.00  0.00     0.344 HD
ATOM      6  H   UNL     1     -16.243  11.894 -11.965  1.00  0.00     0.344 HD
ATOM      7  H   UNL     1     -14.552  11.632 -11.921  1.00  0.00     0.344 HD
ENDBRANCH   3   4
ENDBRANCH   2   3
ENDBRANCH   1   2
BRANCH   1   8
ATOM      8  C   UNL     1     -17.873  12.549  -9.139  1.00  0.00     0.072 C 
BRANCH   8   9
ATOM      9  C   UNL     1     -18.983  13.067 -10.080  1.00  0.00     0.227 C 
BRANCH   9  10
ATOM     10  N   UNL     1     -18.916  14.528 -10.199  1.00  0.00    -0.350 N 
ATOM     11  H   UNL     1     -18.008  14.889  -9.823  1.00  0.00     0.345 HD
ATOM     12  H   UNL     1     -19.007  14.808 -11.203  1.00  0.00     0.345 HD
ATOM     13  H   UNL     1     -19.702  14.965  -9.667  1.00  0.00     0.345 HD
ENDBRANCH   9  10
BRANCH   9  14
ATOM     14  C   UNL     1     -18.886  12.430 -11.442  1.00  0.00     0.099 C 
ATOM     15  O   UNL     1     -19.112  13.105 -12.482  1.00  0.00    -0.544 OA
ATOM     16  O   UNL     1     -18.535  11.090 -11.558  1.00  0.00    -0.544 OA
ENDBRANCH   9  14
ENDBRANCH   8   9
ENDBRANCH   1   8
TORSDOF 7
ENDMDL
MODEL 8
REMARK VINA RESULT:    -4.072     16.285     17.207
REMARK INTER + INTRA:          -5.586
REMARK INTER:                  -5.460
REMARK INTRA:                  -0.126
REMARK UNBOUND:                -0.087
REMARK SMILES [NH3+]CCCC[C@@H]([NH3+])C(=O)[O-]
REMARK SMILES IDX 4 1 3 2 2 3 1 4 5 8 6 9 7 10 8 14 9 15 10 16
REMARK H PARENT 1 5 1 6 1 7 7 11 7 12 7 13
REMARK Flexibility Score: inf
ROOT
ATOM      1  C   UNL     1      -4.597  10.947 -21.875  1.00  0.00     0.012 C 
ENDROOT
BRANCH   1   2
ATOM      2  C   UNL     1      -4.173   9.876 -22.888  1.00  0.00     0.061 C 
BRANCH   2   3
ATOM      3  C   UNL     1      -3.869   8.544 -22.189  1.00  0.00     0.258 C 
BRANCH   3   4
ATOM      4  N   UNL     1      -4.602   8.437 -20.928  1.00  0.00    -0.358 N 
ATOM      5  H   UNL     1      -4.387   9.272 -20.336  1.00  0.00     0.344 HD
ATOM      6  H   UNL     1      -5.630   8.408 -21.112  1.00  0.00     0.344 HD
ATOM      7  H   UNL     1      -4.308   7.574 -20.415  1.00  0.00     0.344 HD
ENDBRANCH   3   4
ENDBRANCH   2   3
ENDBRANCH   1   2
BRANCH   1   8
ATOM      8  C   UNL     1      -3.632  12.143 -21.902  1.00  0.00     0.072 C 
BRANCH   8   9
ATOM      9  C   UNL     1      -3.340  12.690 -20.488  1.00  0.00     0.227 C 
BRANCH   9  10
ATOM     10  N   UNL     1      -1.904  12.615 -20.195  1.00  0.00    -0.350 N 
ATOM     11  H   UNL     1      -1.712  11.891 -19.464  1.00  0.00     0.345 HD
ATOM     12  H   UNL     1      -1.375  12.375 -21.065  1.00  0.00     0.345 HD
ATOM     13  H   UNL     1      -1.563  13.542 -19.852  1.00  0.00     0.345 HD
ENDBRANCH   9  10
BRANCH   9  14
ATOM     14  C   UNL     1      -3.827  14.108 -20.340  1.00  0.00     0.099 C 
ATOM     15  O   UNL     1      -4.746  14.548 -21.082  1.00  0.00    -0.544 OA
ATOM     16  O   UNL     1      -3.270  14.937 -19.375  1.00  0.00    -0.544 OA
ENDBRANCH   9  14
ENDBRANCH   8   9
ENDBRANCH   1   8
TORSDOF 7
ENDMDL
MODEL 9
REMARK VINA RESULT:    -4.016     16.125     16.838
REMARK INTER + INTRA:          -5.511
REMARK INTER:                  -5.383
REMARK INTRA:                  -0.127
REMARK UNBOUND:                -0.087
REMARK SMILES [NH3+]CCCC[C@@H]([NH3+])C(=O)[O-]
REMARK SMILES IDX 4 1 3 2 2 3 1 4 5 8 6 9 7 10 8 14 9 15 10 16
REMARK H PARENT 1 5 1 6 1 7 7 11 7 12 7 13
REMARK Flexibility Score: inf
ROOT
ATOM      1  C   UNL     1      -2.479  18.019 -19.636  1.00  0.00     0.012 C 
ENDROOT
BRANCH   1   2
ATOM      2  C   UNL     1      -1.664  19.245 -20.068  1.00  0.00     0.061 C 
BRANCH   2   3
ATOM      3  C   UNL     1      -2.507  20.524 -19.988  1.00  0.00     0.258 C 
BRANCH   3   4
ATOM      4  N   UNL     1      -3.822  20.249 -19.411  1.00  0.00    -0.358 N 
ATOM      5  H   UNL     1      -4.151  21.094 -18.891  1.00  0.00     0.344 HD
ATOM      6  H   UNL     1      -4.508  20.030 -20.169  1.00  0.00     0.344 HD
ATOM      7  H   UNL     1      -3.760  19.444 -18.746  1.00  0.00     0.344 HD
ENDBRANCH   3   4
ENDBRANCH   2   3
ENDBRANCH   1   2
BRANCH   1   8
ATOM      8  C   UNL     1      -2.437  16.923 -20.712  1.00  0.00     0.072 C 
BRANCH   8   9
ATOM      9  C   UNL     1      -3.826  16.295 -20.960  1.00  0.00     0.227 C 
BRANCH   9  10
ATOM     10  N   UNL     1      -4.122  16.254 -22.396  1.00  0.00    -0.350 N 
ATOM     11  H   UNL     1      -3.469  15.603 -22.891  1.00  0.00     0.345 HD
ATOM     12  H   UNL     1      -5.107  15.933 -22.548  1.00  0.00     0.345 HD
ATOM     13  H   UNL     1      -4.025  17.210 -22.806  1.00  0.00     0.345 HD
ENDBRANCH   9  10
BRANCH   9  14
ATOM     14  C   UNL     1      -3.911  14.910 -20.372  1.00  0.00     0.099 C 
ATOM     15  O   UNL     1      -3.233  14.605 -19.354  1.00  0.00    -0.544 OA
ATOM     16  O   UNL     1      -4.748  13.961 -20.947  1.00  0.00    -0.544 OA
ENDBRANCH   9  14
ENDBRANCH   8   9
ENDBRANCH   1   8
TORSDOF 7
ENDMDL
