MODEL 1
REMARK VINA RESULT:    -3.779      0.000      0.000
REMARK INTER + INTRA:          -4.252
REMARK INTER:                  -4.221
REMARK INTRA:                  -0.031
REMARK UNBOUND:                -0.031
REMARK SMILES CCCC(=O)[O-]
REMARK SMILES IDX 3 1 4 2 5 3 6 4 2 5 1 6
REMARK H PARENT
REMARK Flexibility Score: inf
ROOT
ATOM      1  C   UNL     1      86.239 -70.539  14.261  1.00  0.00     0.052 C 
ENDROOT
BRANCH   1   2
ATOM      2  C   UNL     1      85.624 -69.203  14.542  1.00  0.00     0.041 C 
ATOM      3  O   UNL     1      84.671 -69.102  15.359  1.00  0.00    -0.550 OA
ATOM      4  O   UNL     1      86.082 -68.072  13.877  1.00  0.00    -0.550 OA
ENDBRANCH   1   2
BRANCH   1   5
ATOM      5  C   UNL     1      87.629 -70.669  14.898  1.00  0.00     0.003 C 
ATOM      6  C   UNL     1      88.752 -70.355  13.910  1.00  0.00     0.004 C 
ENDBRANCH   1   5
TORSDOF 2
ENDMDL
MODEL 2
REMARK VINA RESULT:    -3.067     15.511     16.522
REMARK INTER + INTRA:          -3.457
REMARK INTER:                  -3.425
REMARK INTRA:                  -0.032
REMARK UNBOUND:                -0.031
REMARK SMILES CCCC(=O)[O-]
REMARK SMILES IDX 3 1 4 2 5 3 6 4 2 5 1 6
REMARK H PARENT
REMARK Flexibility Score: inf
ROOT
ATOM      1  C   UNL     1      77.847 -62.661   2.498  1.00  0.00     0.052 C 
ENDROOT
BRANCH   1   2
ATOM      2  C   UNL     1      78.966 -62.312   3.430  1.00  0.00     0.041 C 
ATOM      3  O   UNL     1      78.884 -61.293   4.165  1.00  0.00    -0.550 OA
ATOM      4  O   UNL     1      80.114 -63.093   3.462  1.00  0.00    -0.550 OA
ENDBRANCH   1   2
BRANCH   1   5
ATOM      5  C   UNL     1      77.534 -61.513   1.531  1.00  0.00     0.003 C 
ATOM      6  C   UNL     1      76.065 -61.093   1.584  1.00  0.00     0.004 C 
ENDBRANCH   1   5
TORSDOF 2
ENDMDL
MODEL 3
REMARK VINA RESULT:    -3.043     12.111     12.634
REMARK INTER + INTRA:          -3.430
REMARK INTER:                  -3.421
REMARK INTRA:                  -0.009
REMARK UNBOUND:                -0.031
REMARK SMILES CCCC(=O)[O-]
REMARK SMILES IDX 3 1 4 2 5 3 6 4 2 5 1 6
REMARK H PARENT
REMARK Flexibility Score: inf
ROOT
ATOM      1  C   UNL     1      87.593 -74.962   4.142  1.00  0.00     0.052 C 
ENDROOT
BRANCH   1   2
ATOM      2  C   UNL     1      88.080 -76.368   3.970  1.00  0.00     0.041 C 
ATOM      3  O   UNL     1      87.781 -77.251   4.817  1.00  0.00    -0.550 OA
ATOM      4  O   UNL     1      88.890 -76.696   2.890  1.00  0.00    -0.550 OA
ENDBRANCH   1   2
BRANCH   1   5
ATOM      5  C   UNL     1      88.191 -74.021   3.089  1.00  0.00     0.003 C 
ATOM      6  C   UNL     1      87.532 -72.642   3.101  1.00  0.00     0.004 C 
ENDBRANCH   1   5
TORSDOF 2
ENDMDL
MODEL 4
REMARK VINA RESULT:    -3.030     12.058     12.465
REMARK INTER + INTRA:          -3.416
REMARK INTER:                  -3.360
REMARK INTRA:                  -0.056
REMARK UNBOUND:                -0.031
REMARK SMILES CCCC(=O)[O-]
REMARK SMILES IDX 3 1 4 2 5 3 6 4 2 5 1 6
REMARK H PARENT
REMARK Flexibility Score: inf
ROOT
ATOM      1  C   UNL     1      87.586 -75.408   2.484  1.00  0.00     0.052 C 
ENDROOT
BRANCH   1   2
ATOM      2  C   UNL     1      87.474 -74.034   3.069  1.00  0.00     0.041 C 
ATOM      3  O   UNL     1      86.365 -73.613   3.492  1.00  0.00    -0.550 OA
ATOM      4  O   UNL     1      88.588 -73.206   3.118  1.00  0.00    -0.550 OA
ENDBRANCH   1   2
BRANCH   1   5
ATOM      5  C   UNL     1      88.546 -76.292   3.289  1.00  0.00     0.003 C 
ATOM      6  C   UNL     1      87.905 -76.835   4.565  1.00  0.00     0.004 C 
ENDBRANCH   1   5
TORSDOF 2
ENDMDL
MODEL 5
REMARK VINA RESULT:    -2.983     12.055     12.570
REMARK INTER + INTRA:          -3.363
REMARK INTER:                  -3.305
REMARK INTRA:                  -0.057
REMARK UNBOUND:                -0.031
REMARK SMILES CCCC(=O)[O-]
REMARK SMILES IDX 3 1 4 2 5 3 6 4 2 5 1 6
REMARK H PARENT
REMARK Flexibility Score: inf
ROOT
ATOM      1  C   UNL     1      87.681 -75.473   2.335  1.00  0.00     0.052 C 
ENDROOT
BRANCH   1   2
ATOM      2  C   UNL     1      87.446 -74.184   3.062  1.00  0.00     0.041 C 
ATOM      3  O   UNL     1      88.398 -73.383   3.257  1.00  0.00    -0.550 OA
ATOM      4  O   UNL     1      86.182 -73.882   3.552  1.00  0.00    -0.550 OA
ENDBRANCH   1   2
BRANCH   1   5
ATOM      5  C   UNL     1      88.548 -76.436   3.155  1.00  0.00     0.003 C 
ATOM      6  C   UNL     1      87.975 -76.691   4.549  1.00  0.00     0.004 C 
ENDBRANCH   1   5
TORSDOF 2
ENDMDL
MODEL 6
REMARK VINA RESULT:    -2.861     15.929     16.759
REMARK INTER + INTRA:          -3.227
REMARK INTER:                  -3.221
REMARK INTRA:                  -0.006
REMARK UNBOUND:                -0.031
REMARK SMILES CCCC(=O)[O-]
REMARK SMILES IDX 3 1 4 2 5 3 6 4 2 5 1 6
REMARK H PARENT
REMARK Flexibility Score: inf
ROOT
ATOM      1  C   UNL     1      77.793 -62.685   2.527  1.00  0.00     0.052 C 
ENDROOT
BRANCH   1   2
ATOM      2  C   UNL     1      77.254 -61.626   1.616  1.00  0.00     0.041 C 
ATOM      3  O   UNL     1      76.012 -61.431   1.536  1.00  0.00    -0.550 OA
ATOM      4  O   UNL     1      78.120 -60.875   0.832  1.00  0.00    -0.550 OA
ENDBRANCH   1   2
BRANCH   1   5
ATOM      5  C   UNL     1      79.013 -62.190   3.314  1.00  0.00     0.003 C 
ATOM      6  C   UNL     1      79.373 -63.119   4.473  1.00  0.00     0.004 C 
ENDBRANCH   1   5
TORSDOF 2
ENDMDL
MODEL 7
REMARK VINA RESULT:    -2.733     12.963     13.445
REMARK INTER + INTRA:          -3.084
REMARK INTER:                  -3.048
REMARK INTRA:                  -0.036
REMARK UNBOUND:                -0.031
REMARK SMILES CCCC(=O)[O-]
REMARK SMILES IDX 3 1 4 2 5 3 6 4 2 5 1 6
REMARK H PARENT
REMARK Flexibility Score: inf
ROOT
ATOM      1  C   UNL     1      88.159 -76.949   2.731  1.00  0.00     0.052 C 
ENDROOT
BRANCH   1   2
ATOM      2  C   UNL     1      87.922 -76.294   4.057  1.00  0.00     0.041 C 
ATOM      3  O   UNL     1      87.715 -76.994   5.082  1.00  0.00    -0.550 OA
ATOM      4  O   UNL     1      87.899 -74.908   4.154  1.00  0.00    -0.550 OA
ENDBRANCH   1   2
BRANCH   1   5
ATOM      5  C   UNL     1      88.059 -78.476   2.827  1.00  0.00     0.003 C 
ATOM      6  C   UNL     1      86.710 -79.002   2.337  1.00  0.00     0.004 C 
ENDBRANCH   1   5
TORSDOF 2
ENDMDL
MODEL 8
REMARK VINA RESULT:    -2.628     19.863     20.389
REMARK INTER + INTRA:          -2.966
REMARK INTER:                  -2.929
REMARK INTRA:                  -0.037
REMARK UNBOUND:                -0.031
REMARK SMILES CCCC(=O)[O-]
REMARK SMILES IDX 3 1 4 2 5 3 6 4 2 5 1 6
REMARK H PARENT
REMARK Flexibility Score: inf
ROOT
ATOM      1  C   UNL     1      77.411 -73.062  -3.468  1.00  0.00     0.052 C 
ENDROOT
BRANCH   1   2
ATOM      2  C   UNL     1      77.381 -73.945  -2.259  1.00  0.00     0.041 C 
ATOM      3  O   UNL     1      78.315 -74.763  -2.047  1.00  0.00    -0.550 OA
ATOM      4  O   UNL     1      76.305 -73.888  -1.383  1.00  0.00    -0.550 OA
ENDBRANCH   1   2
BRANCH   1   5
ATOM      5  C   UNL     1      75.999 -72.753  -3.980  1.00  0.00     0.003 C 
ATOM      6  C   UNL     1      75.666 -71.263  -3.899  1.00  0.00     0.004 C 
ENDBRANCH   1   5
TORSDOF 2
ENDMDL
