MODEL 1
REMARK VINA RESULT:    -3.231      0.000      0.000
REMARK INTER + INTRA:          -3.325
REMARK INTER:                  -3.325
REMARK INTRA:                   0.000
REMARK UNBOUND:                 0.000
REMARK SMILES Oc1ccc2[nH]ccc2c1
REMARK SMILES IDX 3 1 4 2 5 3 9 4 8 5 7 6 6 7 10 8 2 9 1 11
REMARK H PARENT 6 10 1 12
REMARK Flexibility Score: inf
ROOT
ATOM      1  C   UNL     1     230.530 233.112 231.875  1.00  0.00     0.048 A 
ATOM      2  C   UNL     1     229.130 233.249 231.901  1.00  0.00     0.030 A 
ATOM      3  C   UNL     1     228.420 232.511 232.845  1.00  0.00     0.046 A 
ATOM      4  C   UNL     1     229.051 231.674 233.726  1.00  0.00     0.003 A 
ATOM      5  C   UNL     1     228.081 231.099 234.516  1.00  0.00     0.028 A 
ATOM      6  C   UNL     1     226.879 231.631 234.061  1.00  0.00     0.083 A 
ATOM      7  N   UNL     1     227.092 232.493 233.039  1.00  0.00    -0.361 N 
ATOM      8  C   UNL     1     230.435 231.514 233.728  1.00  0.00     0.056 A 
ATOM      9  C   UNL     1     231.184 232.249 232.784  1.00  0.00     0.116 A 
ATOM     10  H   UNL     1     226.369 233.032 232.513  1.00  0.00     0.166 HD
ENDROOT
BRANCH   9  11
ATOM     11  O   UNL     1     232.572 232.131 232.737  1.00  0.00    -0.508 OA
ATOM     12  H   UNL     1     233.118 231.993 233.579  1.00  0.00     0.293 HD
ENDBRANCH   9  11
TORSDOF 1
ENDMDL
MODEL 2
REMARK VINA RESULT:    -3.228      6.953      7.963
REMARK INTER + INTRA:          -3.322
REMARK INTER:                  -3.322
REMARK INTRA:                   0.000
REMARK UNBOUND:                 0.000
REMARK SMILES Oc1ccc2[nH]ccc2c1
REMARK SMILES IDX 3 1 4 2 5 3 9 4 8 5 7 6 6 7 10 8 2 9 1 11
REMARK H PARENT 6 10 1 12
REMARK Flexibility Score: inf
ROOT
ATOM      1  C   UNL     1     233.066 237.906 231.875  1.00  0.00     0.048 A 
ATOM      2  C   UNL     1     233.246 239.301 231.911  1.00  0.00     0.030 A 
ATOM      3  C   UNL     1     232.537 240.025 232.866  1.00  0.00     0.046 A 
ATOM      4  C   UNL     1     231.687 239.413 233.748  1.00  0.00     0.003 A 
ATOM      5  C   UNL     1     231.148 240.394 234.550  1.00  0.00     0.028 A 
ATOM      6  C   UNL     1     231.713 241.583 234.100  1.00  0.00     0.083 A 
ATOM      7  N   UNL     1     232.561 241.352 233.071  1.00  0.00    -0.361 N 
ATOM      8  C   UNL     1     231.486 238.035 233.741  1.00  0.00     0.056 A 
ATOM      9  C   UNL     1     232.190 237.271 232.786  1.00  0.00     0.116 A 
ATOM     10  H   UNL     1     233.118 242.062 232.546  1.00  0.00     0.166 HD
ENDROOT
BRANCH   9  11
ATOM     11  O   UNL     1     232.029 235.888 232.729  1.00  0.00    -0.508 OA
ATOM     12  H   UNL     1     232.789 235.280 232.448  1.00  0.00     0.293 HD
ENDBRANCH   9  11
TORSDOF 1
ENDMDL
MODEL 3
REMARK VINA RESULT:    -3.197      7.585      8.561
REMARK INTER + INTRA:          -3.290
REMARK INTER:                  -3.290
REMARK INTRA:                   0.000
REMARK UNBOUND:                 0.000
REMARK SMILES Oc1ccc2[nH]ccc2c1
REMARK SMILES IDX 3 1 4 2 5 3 9 4 8 5 7 6 6 7 10 8 2 9 1 11
REMARK H PARENT 6 10 1 12
REMARK Flexibility Score: inf
ROOT
ATOM      1  C   UNL     1     231.547 241.511 234.367  1.00  0.00     0.048 A 
ATOM      2  C   UNL     1     232.434 241.124 233.346  1.00  0.00     0.030 A 
ATOM      3  C   UNL     1     232.439 239.785 232.960  1.00  0.00     0.046 A 
ATOM      4  C   UNL     1     231.614 238.864 233.548  1.00  0.00     0.003 A 
ATOM      5  C   UNL     1     231.860 237.648 232.949  1.00  0.00     0.028 A 
ATOM      6  C   UNL     1     232.850 237.902 232.005  1.00  0.00     0.083 A 
ATOM      7  N   UNL     1     233.200 239.210 232.016  1.00  0.00    -0.361 N 
ATOM      8  C   UNL     1     230.724 239.213 234.561  1.00  0.00     0.056 A 
ATOM      9  C   UNL     1     230.693 240.561 234.975  1.00  0.00     0.116 A 
ATOM     10  H   UNL     1     233.915 239.672 231.412  1.00  0.00     0.166 HD
ENDROOT
BRANCH   9  11
ATOM     11  O   UNL     1     229.824 240.970 235.985  1.00  0.00    -0.508 OA
ATOM     12  H   UNL     1     229.866 240.566 236.913  1.00  0.00     0.293 HD
ENDBRANCH   9  11
TORSDOF 1
ENDMDL
MODEL 4
REMARK VINA RESULT:    -3.170      7.390      8.752
REMARK INTER + INTRA:          -3.263
REMARK INTER:                  -3.263
REMARK INTRA:                   0.000
REMARK UNBOUND:                 0.000
REMARK SMILES Oc1ccc2[nH]ccc2c1
REMARK SMILES IDX 3 1 4 2 5 3 9 4 8 5 7 6 6 7 10 8 2 9 1 11
REMARK H PARENT 6 10 1 12
REMARK Flexibility Score: inf
ROOT
ATOM      1  C   UNL     1     237.134 226.928 234.621  1.00  0.00     0.048 A 
ATOM      2  C   UNL     1     236.212 227.243 233.607  1.00  0.00     0.030 A 
ATOM      3  C   UNL     1     236.162 228.561 233.158  1.00  0.00     0.046 A 
ATOM      4  C   UNL     1     236.977 229.530 233.679  1.00  0.00     0.003 A 
ATOM      5  C   UNL     1     236.684 230.709 233.031  1.00  0.00     0.028 A 
ATOM      6  C   UNL     1     235.678 230.385 232.126  1.00  0.00     0.083 A 
ATOM      7  N   UNL     1     235.363 229.071 232.208  1.00  0.00    -0.361 N 
ATOM      8  C   UNL     1     237.901 229.252 234.685  1.00  0.00     0.056 A 
ATOM      9  C   UNL     1     237.978 227.926 235.161  1.00  0.00     0.116 A 
ATOM     10  H   UNL     1     234.645 228.564 231.646  1.00  0.00     0.166 HD
ENDROOT
BRANCH   9  11
ATOM     11  O   UNL     1     238.883 227.587 236.165  1.00  0.00    -0.508 OA
ATOM     12  H   UNL     1     239.874 227.504 235.976  1.00  0.00     0.293 HD
ENDBRANCH   9  11
TORSDOF 1
ENDMDL
MODEL 5
REMARK VINA RESULT:    -3.151      2.216      3.492
REMARK INTER + INTRA:          -3.243
REMARK INTER:                  -3.243
REMARK INTRA:                   0.000
REMARK UNBOUND:                 0.000
REMARK SMILES Oc1ccc2[nH]ccc2c1
REMARK SMILES IDX 3 1 4 2 5 3 9 4 8 5 7 6 6 7 10 8 2 9 1 11
REMARK H PARENT 6 10 1 12
REMARK Flexibility Score: inf
ROOT
ATOM      1  C   UNL     1     227.141 231.602 234.445  1.00  0.00     0.048 A 
ATOM      2  C   UNL     1     227.440 232.448 233.361  1.00  0.00     0.030 A 
ATOM      3  C   UNL     1     228.762 232.506 232.924  1.00  0.00     0.046 A 
ATOM      4  C   UNL     1     229.749 231.769 233.521  1.00  0.00     0.003 A 
ATOM      5  C   UNL     1     230.927 232.047 232.863  1.00  0.00     0.028 A 
ATOM      6  C   UNL     1     230.583 232.964 231.875  1.00  0.00     0.083 A 
ATOM      7  N   UNL     1     229.258 233.241 231.917  1.00  0.00    -0.361 N 
ATOM      8  C   UNL     1     229.489 230.922 234.596  1.00  0.00     0.056 A 
ATOM      9  C   UNL     1     228.160 230.839 235.063  1.00  0.00     0.116 A 
ATOM     10  H   UNL     1     228.734 233.892 231.291  1.00  0.00     0.166 HD
ENDROOT
BRANCH   9  11
ATOM     11  O   UNL     1     227.838 230.010 236.135  1.00  0.00    -0.508 OA
ATOM     12  H   UNL     1     227.247 230.332 236.892  1.00  0.00     0.293 HD
ENDBRANCH   9  11
TORSDOF 1
ENDMDL
MODEL 6
REMARK VINA RESULT:    -3.125      2.634      4.048
REMARK INTER + INTRA:          -3.216
REMARK INTER:                  -3.216
REMARK INTRA:                   0.000
REMARK UNBOUND:                 0.000
REMARK SMILES Oc1ccc2[nH]ccc2c1
REMARK SMILES IDX 3 1 4 2 5 3 9 4 8 5 7 6 6 7 10 8 2 9 1 11
REMARK H PARENT 6 10 1 12
REMARK Flexibility Score: inf
ROOT
ATOM      1  C   UNL     1     228.377 230.575 235.005  1.00  0.00     0.048 A 
ATOM      2  C   UNL     1     229.651 230.635 234.411  1.00  0.00     0.030 A 
ATOM      3  C   UNL     1     229.862 231.586 233.415  1.00  0.00     0.046 A 
ATOM      4  C   UNL     1     228.870 232.442 233.017  1.00  0.00     0.003 A 
ATOM      5  C   UNL     1     229.392 233.248 232.029  1.00  0.00     0.028 A 
ATOM      6  C   UNL     1     230.709 232.826 231.875  1.00  0.00     0.083 A 
ATOM      7  N   UNL     1     230.991 231.810 232.725  1.00  0.00    -0.361 N 
ATOM      8  C   UNL     1     227.598 232.411 233.583  1.00  0.00     0.056 A 
ATOM      9  C   UNL     1     227.351 231.459 234.596  1.00  0.00     0.116 A 
ATOM     10  H   UNL     1     231.901 231.308 232.820  1.00  0.00     0.166 HD
ENDROOT
BRANCH   9  11
ATOM     11  O   UNL     1     226.098 231.379 235.200  1.00  0.00    -0.508 OA
ATOM     12  H   UNL     1     225.956 231.667 236.161  1.00  0.00     0.293 HD
ENDBRANCH   9  11
TORSDOF 1
ENDMDL
MODEL 7
REMARK VINA RESULT:    -3.122      7.323      8.478
REMARK INTER + INTRA:          -3.213
REMARK INTER:                  -3.213
REMARK INTRA:                   0.000
REMARK UNBOUND:                 0.000
REMARK SMILES Oc1ccc2[nH]ccc2c1
REMARK SMILES IDX 3 1 4 2 5 3 9 4 8 5 7 6 6 7 10 8 2 9 1 11
REMARK H PARENT 6 10 1 12
REMARK Flexibility Score: inf
ROOT
ATOM      1  C   UNL     1     230.587 240.041 234.905  1.00  0.00     0.048 A 
ATOM      2  C   UNL     1     230.689 238.743 234.371  1.00  0.00     0.030 A 
ATOM      3  C   UNL     1     231.643 238.519 233.381  1.00  0.00     0.046 A 
ATOM      4  C   UNL     1     232.461 239.520 232.931  1.00  0.00     0.003 A 
ATOM      5  C   UNL     1     233.280 238.980 231.964  1.00  0.00     0.028 A 
ATOM      6  C   UNL     1     232.905 237.643 231.875  1.00  0.00     0.083 A 
ATOM      7  N   UNL     1     231.904 237.367 232.744  1.00  0.00    -0.361 N 
ATOM      8  C   UNL     1     232.387 240.816 233.437  1.00  0.00     0.056 A 
ATOM      9  C   UNL     1     231.432 241.077 234.442  1.00  0.00     0.116 A 
ATOM     10  H   UNL     1     231.434 236.445 232.885  1.00  0.00     0.166 HD
ENDROOT
BRANCH   9  11
ATOM     11  O   UNL     1     231.310 242.353 234.987  1.00  0.00    -0.508 OA
ATOM     12  H   UNL     1     232.064 243.028 234.923  1.00  0.00     0.293 HD
ENDBRANCH   9  11
TORSDOF 1
ENDMDL
MODEL 8
REMARK VINA RESULT:    -3.087      8.046      8.671
REMARK INTER + INTRA:          -3.177
REMARK INTER:                  -3.177
REMARK INTRA:                   0.000
REMARK UNBOUND:                 0.000
REMARK SMILES Oc1ccc2[nH]ccc2c1
REMARK SMILES IDX 3 1 4 2 5 3 9 4 8 5 7 6 6 7 10 8 2 9 1 11
REMARK H PARENT 6 10 1 12
REMARK Flexibility Score: inf
ROOT
ATOM      1  C   UNL     1     232.069 239.627 233.553  1.00  0.00     0.048 A 
ATOM      2  C   UNL     1     231.159 238.887 234.331  1.00  0.00     0.030 A 
ATOM      3  C   UNL     1     230.154 239.584 234.998  1.00  0.00     0.046 A 
ATOM      4  C   UNL     1     230.043 240.946 234.909  1.00  0.00     0.003 A 
ATOM      5  C   UNL     1     228.961 241.322 235.674  1.00  0.00     0.028 A 
ATOM      6  C   UNL     1     228.460 240.137 236.203  1.00  0.00     0.083 A 
ATOM      7  N   UNL     1     229.193 239.077 235.786  1.00  0.00    -0.361 N 
ATOM      8  C   UNL     1     230.926 241.709 234.148  1.00  0.00     0.056 A 
ATOM      9  C   UNL     1     231.955 241.034 233.459  1.00  0.00     0.116 A 
ATOM     10  H   UNL     1     229.039 238.074 236.030  1.00  0.00     0.166 HD
ENDROOT
BRANCH   9  11
ATOM     11  O   UNL     1     232.869 241.743 232.682  1.00  0.00    -0.508 OA
ATOM     12  H   UNL     1     232.868 242.756 232.660  1.00  0.00     0.293 HD
ENDBRANCH   9  11
TORSDOF 1
ENDMDL
MODEL 9
REMARK VINA RESULT:    -3.023      9.411     11.071
REMARK INTER + INTRA:          -3.111
REMARK INTER:                  -3.111
REMARK INTRA:                   0.000
REMARK UNBOUND:                 0.000
REMARK SMILES Oc1ccc2[nH]ccc2c1
REMARK SMILES IDX 3 1 4 2 5 3 9 4 8 5 7 6 6 7 10 8 2 9 1 11
REMARK H PARENT 6 10 1 12
REMARK Flexibility Score: inf
ROOT
ATOM      1  C   UNL     1     236.974 236.226 234.241  1.00  0.00     0.048 A 
ATOM      2  C   UNL     1     237.943 236.229 235.262  1.00  0.00     0.030 A 
ATOM      3  C   UNL     1     239.284 236.207 234.887  1.00  0.00     0.046 A 
ATOM      4  C   UNL     1     239.663 236.182 233.572  1.00  0.00     0.003 A 
ATOM      5  C   UNL     1     241.040 236.165 233.539  1.00  0.00     0.028 A 
ATOM      6  C   UNL     1     241.435 236.179 234.873  1.00  0.00     0.083 A 
ATOM      7  N   UNL     1     240.358 236.205 235.693  1.00  0.00    -0.361 N 
ATOM      8  C   UNL     1     238.731 236.179 232.536  1.00  0.00     0.056 A 
ATOM      9  C   UNL     1     237.363 236.202 232.881  1.00  0.00     0.116 A 
ATOM     10  H   UNL     1     240.366 236.220 236.736  1.00  0.00     0.166 HD
ENDROOT
BRANCH   9  11
ATOM     11  O   UNL     1     236.384 236.199 231.890  1.00  0.00    -0.508 OA
ATOM     12  H   UNL     1     235.411 236.018 232.110  1.00  0.00     0.293 HD
ENDBRANCH   9  11
TORSDOF 1
ENDMDL
