MODEL 1
REMARK VINA RESULT:    -3.624      0.000      0.000
REMARK INTER + INTRA:          -8.220
REMARK INTER:                  -6.166
REMARK INTRA:                  -2.054
REMARK UNBOUND:                -2.054
REMARK SMILES CCCCCCCCCCCCCC(=O)[O-]
REMARK SMILES IDX 8 1 9 2 10 3 11 4 12 5 13 6 14 7 15 8 16 9 7 10 6 11 5 12
REMARK SMILES IDX 4 13 3 14 2 15 1 16
REMARK H PARENT
REMARK Flexibility Score: inf
ROOT
ATOM      1  C   UNL     1       1.431 125.978 113.360  1.00  0.00     0.000 C 
ENDROOT
BRANCH   1   2
ATOM      2  C   UNL     1       1.640 124.555 112.813  1.00  0.00     0.000 C 
BRANCH   2   3
ATOM      3  C   UNL     1       2.998 124.389 112.111  1.00  0.00     0.000 C 
BRANCH   3   4
ATOM      4  C   UNL     1       2.987 124.937 110.673  1.00  0.00     0.000 C 
BRANCH   4   5
ATOM      5  C   UNL     1       4.384 125.372 110.192  1.00  0.00     0.006 C 
BRANCH   5   6
ATOM      6  C   UNL     1       5.512 125.115 111.204  1.00  0.00     0.053 C 
BRANCH   6   7
ATOM      7  C   UNL     1       6.721 124.515 110.556  1.00  0.00     0.041 C 
ATOM      8  O   UNL     1       7.403 125.186 109.738  1.00  0.00    -0.550 OA
ATOM      9  O   UNL     1       7.112 123.221 110.879  1.00  0.00    -0.550 OA
ENDBRANCH   6   7
ENDBRANCH   5   6
ENDBRANCH   4   5
ENDBRANCH   3   4
ENDBRANCH   2   3
ENDBRANCH   1   2
BRANCH   1  10
ATOM     10  C   UNL     1       2.715 126.585 113.958  1.00  0.00     0.000 C 
BRANCH  10  11
ATOM     11  C   UNL     1       2.940 128.076 113.641  1.00  0.00    -0.000 C 
BRANCH  11  12
ATOM     12  C   UNL     1       3.723 128.348 112.342  1.00  0.00    -0.000 C 
BRANCH  12  13
ATOM     13  C   UNL     1       2.960 129.240 111.335  1.00  0.00    -0.000 C 
BRANCH  13  14
ATOM     14  C   UNL     1       2.312 128.452 110.180  1.00  0.00    -0.000 C 
BRANCH  14  15
ATOM     15  C   UNL     1       0.835 128.091 110.422  1.00  0.00    -0.003 C 
ATOM     16  C   UNL     1       0.136 129.059 111.376  1.00  0.00     0.004 C 
ENDBRANCH  14  15
ENDBRANCH  13  14
ENDBRANCH  12  13
ENDBRANCH  11  12
ENDBRANCH  10  11
ENDBRANCH   1  10
TORSDOF 12
ENDMDL
MODEL 2
REMARK VINA RESULT:    -3.459      1.528      3.101
REMARK INTER + INTRA:          -7.940
REMARK INTER:                  -6.568
REMARK INTRA:                  -1.372
REMARK UNBOUND:                -2.054
REMARK SMILES CCCCCCCCCCCCCC(=O)[O-]
REMARK SMILES IDX 8 1 9 2 10 3 11 4 12 5 13 6 14 7 15 8 16 9 7 10 6 11 5 12
REMARK SMILES IDX 4 13 3 14 2 15 1 16
REMARK H PARENT
REMARK Flexibility Score: inf
ROOT
ATOM      1  C   UNL     1       2.663 124.854 112.127  1.00  0.00     0.000 C 
ENDROOT
BRANCH   1   2
ATOM      2  C   UNL     1       3.072 125.045 110.657  1.00  0.00     0.000 C 
BRANCH   2   3
ATOM      3  C   UNL     1       4.550 125.443 110.506  1.00  0.00     0.000 C 
BRANCH   3   4
ATOM      4  C   UNL     1       5.320 125.362 111.836  1.00  0.00     0.000 C 
BRANCH   4   5
ATOM      5  C   UNL     1       6.728 125.981 111.747  1.00  0.00     0.006 C 
BRANCH   5   6
ATOM      6  C   UNL     1       7.793 125.050 111.146  1.00  0.00     0.053 C 
BRANCH   6   7
ATOM      7  C   UNL     1       7.603 123.628 111.578  1.00  0.00     0.041 C 
ATOM      8  O   UNL     1       7.905 123.275 112.748  1.00  0.00    -0.550 OA
ATOM      9  O   UNL     1       7.063 122.700 110.697  1.00  0.00    -0.550 OA
ENDBRANCH   6   7
ENDBRANCH   5   6
ENDBRANCH   4   5
ENDBRANCH   3   4
ENDBRANCH   2   3
ENDBRANCH   1   2
BRANCH   1  10
ATOM     10  C   UNL     1       1.440 125.704 112.525  1.00  0.00     0.000 C 
BRANCH  10  11
ATOM     11  C   UNL     1       1.290 127.030 111.755  1.00  0.00    -0.000 C 
BRANCH  11  12
ATOM     12  C   UNL     1       1.857 128.265 112.481  1.00  0.00    -0.000 C 
BRANCH  12  13
ATOM     13  C   UNL     1       3.180 128.787 111.874  1.00  0.00    -0.000 C 
BRANCH  13  14
ATOM     14  C   UNL     1       4.368 128.747 112.855  1.00  0.00    -0.000 C 
BRANCH  14  15
ATOM     15  C   UNL     1       4.786 130.130 113.386  1.00  0.00    -0.003 C 
ATOM     16  C   UNL     1       6.296 130.254 113.591  1.00  0.00     0.004 C 
ENDBRANCH  14  15
ENDBRANCH  13  14
ENDBRANCH  12  13
ENDBRANCH  11  12
ENDBRANCH  10  11
ENDBRANCH   1  10
TORSDOF 12
ENDMDL
MODEL 3
REMARK VINA RESULT:    -3.336      3.364      5.417
REMARK INTER + INTRA:          -7.731
REMARK INTER:                  -6.158
REMARK INTRA:                  -1.573
REMARK UNBOUND:                -2.054
REMARK SMILES CCCCCCCCCCCCCC(=O)[O-]
REMARK SMILES IDX 8 1 9 2 10 3 11 4 12 5 13 6 14 7 15 8 16 9 7 10 6 11 5 12
REMARK SMILES IDX 4 13 3 14 2 15 1 16
REMARK H PARENT
REMARK Flexibility Score: inf
ROOT
ATOM      1  C   UNL     1       2.131 127.105 113.712  1.00  0.00     0.000 C 
ENDROOT
BRANCH   1   2
ATOM      2  C   UNL     1       3.438 126.558 114.310  1.00  0.00     0.000 C 
BRANCH   2   3
ATOM      3  C   UNL     1       4.669 127.373 113.878  1.00  0.00     0.000 C 
BRANCH   3   4
ATOM      4  C   UNL     1       4.286 128.712 113.223  1.00  0.00     0.000 C 
BRANCH   4   5
ATOM      5  C   UNL     1       5.397 129.772 113.343  1.00  0.00     0.006 C 
BRANCH   5   6
ATOM      6  C   UNL     1       5.827 130.079 114.786  1.00  0.00     0.053 C 
BRANCH   6   7
ATOM      7  C   UNL     1       7.176 130.726 114.844  1.00  0.00     0.041 C 
ATOM      8  O   UNL     1       7.554 131.314 115.891  1.00  0.00    -0.550 OA
ATOM      9  O   UNL     1       8.029 130.652 113.750  1.00  0.00    -0.550 OA
ENDBRANCH   6   7
ENDBRANCH   5   6
ENDBRANCH   4   5
ENDBRANCH   3   4
ENDBRANCH   2   3
ENDBRANCH   1   2
BRANCH   1  10
ATOM     10  C   UNL     1       1.574 126.222 112.579  1.00  0.00     0.000 C 
BRANCH  10  11
ATOM     11  C   UNL     1       1.766 126.786 111.158  1.00  0.00    -0.000 C 
BRANCH  11  12
ATOM     12  C   UNL     1       3.076 126.362 110.467  1.00  0.00    -0.000 C 
BRANCH  12  13
ATOM     13  C   UNL     1       3.390 124.854 110.609  1.00  0.00    -0.000 C 
BRANCH  13  14
ATOM     14  C   UNL     1       4.703 124.564 111.362  1.00  0.00    -0.000 C 
BRANCH  14  15
ATOM     15  C   UNL     1       5.966 125.041 110.622  1.00  0.00    -0.003 C 
ATOM     16  C   UNL     1       6.968 125.733 111.546  1.00  0.00     0.004 C 
ENDBRANCH  14  15
ENDBRANCH  13  14
ENDBRANCH  12  13
ENDBRANCH  11  12
ENDBRANCH  10  11
ENDBRANCH   1  10
TORSDOF 12
ENDMDL
MODEL 4
REMARK VINA RESULT:    -3.258      1.785      4.370
REMARK INTER + INTRA:          -7.597
REMARK INTER:                  -6.344
REMARK INTRA:                  -1.254
REMARK UNBOUND:                -2.054
REMARK SMILES CCCCCCCCCCCCCC(=O)[O-]
REMARK SMILES IDX 8 1 9 2 10 3 11 4 12 5 13 6 14 7 15 8 16 9 7 10 6 11 5 12
REMARK SMILES IDX 4 13 3 14 2 15 1 16
REMARK H PARENT
REMARK Flexibility Score: inf
ROOT
ATOM      1  C   UNL     1       2.213 126.881 111.383  1.00  0.00     0.000 C 
ENDROOT
BRANCH   1   2
ATOM      2  C   UNL     1       2.649 125.608 110.639  1.00  0.00     0.000 C 
BRANCH   2   3
ATOM      3  C   UNL     1       4.178 125.444 110.600  1.00  0.00     0.000 C 
BRANCH   3   4
ATOM      4  C   UNL     1       4.756 124.997 111.954  1.00  0.00     0.000 C 
BRANCH   4   5
ATOM      5  C   UNL     1       6.089 125.692 112.290  1.00  0.00     0.006 C 
BRANCH   5   6
ATOM      6  C   UNL     1       7.281 125.221 111.443  1.00  0.00     0.053 C 
BRANCH   6   7
ATOM      7  C   UNL     1       7.481 123.739 111.530  1.00  0.00     0.041 C 
ATOM      8  O   UNL     1       7.154 122.997 110.567  1.00  0.00    -0.550 OA
ATOM      9  O   UNL     1       8.057 123.182 112.665  1.00  0.00    -0.550 OA
ENDBRANCH   6   7
ENDBRANCH   5   6
ENDBRANCH   4   5
ENDBRANCH   3   4
ENDBRANCH   2   3
ENDBRANCH   1   2
BRANCH   1  10
ATOM     10  C   UNL     1       1.126 126.614 112.443  1.00  0.00     0.000 C 
BRANCH  10  11
ATOM     11  C   UNL     1       1.631 125.959 113.744  1.00  0.00    -0.000 C 
BRANCH  11  12
ATOM     12  C   UNL     1       0.835 124.719 114.193  1.00  0.00    -0.000 C 
BRANCH  12  13
ATOM     13  C   UNL     1       1.063 123.480 113.297  1.00  0.00    -0.000 C 
BRANCH  13  14
ATOM     14  C   UNL     1       0.965 122.142 114.056  1.00  0.00    -0.000 C 
BRANCH  14  15
ATOM     15  C   UNL     1       2.216 121.255 113.924  1.00  0.00    -0.003 C 
ATOM     16  C   UNL     1       3.518 122.055 113.978  1.00  0.00     0.004 C 
ENDBRANCH  14  15
ENDBRANCH  13  14
ENDBRANCH  12  13
ENDBRANCH  11  12
ENDBRANCH  10  11
ENDBRANCH   1  10
TORSDOF 12
ENDMDL
MODEL 5
REMARK VINA RESULT:    -3.250      1.613      2.574
REMARK INTER + INTRA:          -7.584
REMARK INTER:                  -6.029
REMARK INTRA:                  -1.556
REMARK UNBOUND:                -2.054
REMARK SMILES CCCCCCCCCCCCCC(=O)[O-]
REMARK SMILES IDX 8 1 9 2 10 3 11 4 12 5 13 6 14 7 15 8 16 9 7 10 6 11 5 12
REMARK SMILES IDX 4 13 3 14 2 15 1 16
REMARK H PARENT
REMARK Flexibility Score: inf
ROOT
ATOM      1  C   UNL     1       1.832 123.768 113.085  1.00  0.00     0.000 C 
ENDROOT
BRANCH   1   2
ATOM      2  C   UNL     1       3.049 123.480 113.980  1.00  0.00     0.000 C 
BRANCH   2   3
ATOM      3  C   UNL     1       3.938 122.356 113.421  1.00  0.00     0.000 C 
BRANCH   3   4
ATOM      4  C   UNL     1       5.038 122.887 112.486  1.00  0.00     0.000 C 
BRANCH   4   5
ATOM      5  C   UNL     1       5.835 124.050 113.106  1.00  0.00     0.006 C 
BRANCH   5   6
ATOM      6  C   UNL     1       7.319 124.085 112.708  1.00  0.00     0.053 C 
BRANCH   6   7
ATOM      7  C   UNL     1       7.538 124.822 111.423  1.00  0.00     0.041 C 
ATOM      8  O   UNL     1       7.669 124.190 110.342  1.00  0.00    -0.550 OA
ATOM      9  O   UNL     1       7.565 126.211 111.415  1.00  0.00    -0.550 OA
ENDBRANCH   6   7
ENDBRANCH   5   6
ENDBRANCH   4   5
ENDBRANCH   3   4
ENDBRANCH   2   3
ENDBRANCH   1   2
BRANCH   1  10
ATOM     10  C   UNL     1       1.930 125.121 112.355  1.00  0.00     0.000 C 
BRANCH  10  11
ATOM     11  C   UNL     1       2.632 125.073 110.984  1.00  0.00    -0.000 C 
BRANCH  11  12
ATOM     12  C   UNL     1       3.546 126.277 110.684  1.00  0.00    -0.000 C 
BRANCH  12  13
ATOM     13  C   UNL     1       4.087 126.974 111.954  1.00  0.00    -0.000 C 
BRANCH  13  14
ATOM     14  C   UNL     1       3.572 128.415 112.135  1.00  0.00    -0.000 C 
BRANCH  14  15
ATOM     15  C   UNL     1       2.737 128.933 110.950  1.00  0.00    -0.003 C 
ATOM     16  C   UNL     1       1.260 129.115 111.299  1.00  0.00     0.004 C 
ENDBRANCH  14  15
ENDBRANCH  13  14
ENDBRANCH  12  13
ENDBRANCH  11  12
ENDBRANCH  10  11
ENDBRANCH   1  10
TORSDOF 12
ENDMDL
MODEL 6
REMARK VINA RESULT:    -3.243      3.238      5.224
REMARK INTER + INTRA:          -7.572
REMARK INTER:                  -5.984
REMARK INTRA:                  -1.589
REMARK UNBOUND:                -2.054
REMARK SMILES CCCCCCCCCCCCCC(=O)[O-]
REMARK SMILES IDX 8 1 9 2 10 3 11 4 12 5 13 6 14 7 15 8 16 9 7 10 6 11 5 12
REMARK SMILES IDX 4 13 3 14 2 15 1 16
REMARK H PARENT
REMARK Flexibility Score: inf
ROOT
ATOM      1  C   UNL     1       1.613 128.745 112.111  1.00  0.00     0.000 C 
ENDROOT
BRANCH   1   2
ATOM      2  C   UNL     1       1.835 128.006 113.441  1.00  0.00     0.000 C 
BRANCH   2   3
ATOM      3  C   UNL     1       3.218 128.295 114.051  1.00  0.00     0.000 C 
BRANCH   3   4
ATOM      4  C   UNL     1       4.243 128.744 112.996  1.00  0.00     0.000 C 
BRANCH   4   5
ATOM      5  C   UNL     1       5.630 129.033 113.599  1.00  0.00     0.006 C 
BRANCH   5   6
ATOM      6  C   UNL     1       5.866 130.506 113.970  1.00  0.00     0.053 C 
BRANCH   6   7
ATOM      7  C   UNL     1       7.277 130.757 114.403  1.00  0.00     0.041 C 
ATOM      8  O   UNL     1       8.228 130.594 113.594  1.00  0.00    -0.550 OA
ATOM      9  O   UNL     1       7.539 131.201 115.693  1.00  0.00    -0.550 OA
ENDBRANCH   6   7
ENDBRANCH   5   6
ENDBRANCH   4   5
ENDBRANCH   3   4
ENDBRANCH   2   3
ENDBRANCH   1   2
BRANCH   1  10
ATOM     10  C   UNL     1       1.344 127.791 110.931  1.00  0.00     0.000 C 
BRANCH  10  11
ATOM     11  C   UNL     1       2.511 127.638 109.937  1.00  0.00    -0.000 C 
BRANCH  11  12
ATOM     12  C   UNL     1       3.391 126.393 110.162  1.00  0.00    -0.000 C 
BRANCH  12  13
ATOM     13  C   UNL     1       2.662 125.245 110.898  1.00  0.00    -0.000 C 
BRANCH  13  14
ATOM     14  C   UNL     1       3.515 124.571 111.990  1.00  0.00    -0.000 C 
BRANCH  14  15
ATOM     15  C   UNL     1       2.830 124.504 113.366  1.00  0.00    -0.003 C 
ATOM     16  C   UNL     1       1.331 124.222 113.269  1.00  0.00     0.004 C 
ENDBRANCH  14  15
ENDBRANCH  13  14
ENDBRANCH  12  13
ENDBRANCH  11  12
ENDBRANCH  10  11
ENDBRANCH   1  10
TORSDOF 12
ENDMDL
MODEL 7
REMARK VINA RESULT:    -3.223      2.048      3.371
REMARK INTER + INTRA:          -7.539
REMARK INTER:                  -5.338
REMARK INTRA:                  -2.201
REMARK UNBOUND:                -2.054
REMARK SMILES CCCCCCCCCCCCCC(=O)[O-]
REMARK SMILES IDX 8 1 9 2 10 3 11 4 12 5 13 6 14 7 15 8 16 9 7 10 6 11 5 12
REMARK SMILES IDX 4 13 3 14 2 15 1 16
REMARK H PARENT
REMARK Flexibility Score: inf
ROOT
ATOM      1  C   UNL     1       1.896 125.154 112.285  1.00  0.00     0.000 C 
ENDROOT
BRANCH   1   2
ATOM      2  C   UNL     1       1.808 123.882 113.146  1.00  0.00     0.000 C 
BRANCH   2   3
ATOM      3  C   UNL     1       3.078 123.649 113.982  1.00  0.00     0.000 C 
BRANCH   3   4
ATOM      4  C   UNL     1       4.011 122.601 113.352  1.00  0.00     0.000 C 
BRANCH   4   5
ATOM      5  C   UNL     1       5.401 123.171 113.009  1.00  0.00     0.006 C 
BRANCH   5   6
ATOM      6  C   UNL     1       5.809 123.003 111.537  1.00  0.00     0.053 C 
BRANCH   6   7
ATOM      7  C   UNL     1       7.091 123.713 111.226  1.00  0.00     0.041 C 
ATOM      8  O   UNL     1       8.094 123.569 111.972  1.00  0.00    -0.550 OA
ATOM      9  O   UNL     1       7.185 124.510 110.092  1.00  0.00    -0.550 OA
ENDBRANCH   6   7
ENDBRANCH   5   6
ENDBRANCH   4   5
ENDBRANCH   3   4
ENDBRANCH   2   3
ENDBRANCH   1   2
BRANCH   1  10
ATOM     10  C   UNL     1       2.691 124.941 110.982  1.00  0.00     0.000 C 
BRANCH  10  11
ATOM     11  C   UNL     1       3.756 126.015 110.684  1.00  0.00    -0.000 C 
BRANCH  11  12
ATOM     12  C   UNL     1       4.031 126.989 111.845  1.00  0.00    -0.000 C 
BRANCH  12  13
ATOM     13  C   UNL     1       5.349 126.698 112.599  1.00  0.00    -0.000 C 
BRANCH  13  14
ATOM     14  C   UNL     1       5.230 126.835 114.129  1.00  0.00    -0.000 C 
BRANCH  14  15
ATOM     15  C   UNL     1       3.866 127.368 114.604  1.00  0.00    -0.003 C 
ATOM     16  C   UNL     1       3.359 126.663 115.862  1.00  0.00     0.004 C 
ENDBRANCH  14  15
ENDBRANCH  13  14
ENDBRANCH  12  13
ENDBRANCH  11  12
ENDBRANCH  10  11
ENDBRANCH   1  10
TORSDOF 12
ENDMDL
MODEL 8
REMARK VINA RESULT:    -3.173      1.549      3.111
REMARK INTER + INTRA:          -7.452
REMARK INTER:                  -5.702
REMARK INTRA:                  -1.751
REMARK UNBOUND:                -2.054
REMARK SMILES CCCCCCCCCCCCCC(=O)[O-]
REMARK SMILES IDX 8 1 9 2 10 3 11 4 12 5 13 6 14 7 15 8 16 9 7 10 6 11 5 12
REMARK SMILES IDX 4 13 3 14 2 15 1 16
REMARK H PARENT
REMARK Flexibility Score: inf
ROOT
ATOM      1  C   UNL     1       1.493 127.337 112.212  1.00  0.00     0.000 C 
ENDROOT
BRANCH   1   2
ATOM      2  C   UNL     1       2.249 127.103 110.893  1.00  0.00     0.000 C 
BRANCH   2   3
ATOM      3  C   UNL     1       2.603 125.622 110.674  1.00  0.00     0.000 C 
BRANCH   3   4
ATOM      4  C   UNL     1       4.092 125.415 110.349  1.00  0.00     0.000 C 
BRANCH   4   5
ATOM      5  C   UNL     1       4.805 124.514 111.375  1.00  0.00     0.006 C 
BRANCH   5   6
ATOM      6  C   UNL     1       6.310 124.791 111.525  1.00  0.00     0.053 C 
BRANCH   6   7
ATOM      7  C   UNL     1       7.113 123.528 111.543  1.00  0.00     0.041 C 
ATOM      8  O   UNL     1       7.731 123.183 112.584  1.00  0.00    -0.550 OA
ATOM      9  O   UNL     1       7.154 122.714 110.417  1.00  0.00    -0.550 OA
ENDBRANCH   6   7
ENDBRANCH   5   6
ENDBRANCH   4   5
ENDBRANCH   3   4
ENDBRANCH   2   3
ENDBRANCH   1   2
BRANCH   1  10
ATOM     10  C   UNL     1       1.247 126.037 113.002  1.00  0.00     0.000 C 
BRANCH  10  11
ATOM     11  C   UNL     1       2.108 125.872 114.270  1.00  0.00    -0.000 C 
BRANCH  11  12
ATOM     12  C   UNL     1       3.054 127.051 114.566  1.00  0.00    -0.000 C 
BRANCH  12  13
ATOM     13  C   UNL     1       4.531 126.765 114.207  1.00  0.00    -0.000 C 
BRANCH  13  14
ATOM     14  C   UNL     1       5.174 127.852 113.325  1.00  0.00    -0.000 C 
BRANCH  14  15
ATOM     15  C   UNL     1       4.735 129.284 113.678  1.00  0.00    -0.003 C 
ATOM     16  C   UNL     1       5.861 130.306 113.521  1.00  0.00     0.004 C 
ENDBRANCH  14  15
ENDBRANCH  13  14
ENDBRANCH  12  13
ENDBRANCH  11  12
ENDBRANCH  10  11
ENDBRANCH   1  10
TORSDOF 12
ENDMDL
MODEL 9
REMARK VINA RESULT:    -3.109      3.287      4.731
REMARK INTER + INTRA:          -7.344
REMARK INTER:                  -5.356
REMARK INTRA:                  -1.989
REMARK UNBOUND:                -2.054
REMARK SMILES CCCCCCCCCCCCCC(=O)[O-]
REMARK SMILES IDX 8 1 9 2 10 3 11 4 12 5 13 6 14 7 15 8 16 9 7 10 6 11 5 12
REMARK SMILES IDX 4 13 3 14 2 15 1 16
REMARK H PARENT
REMARK Flexibility Score: inf
ROOT
ATOM      1  C   UNL     1       3.862 124.355 113.868  1.00  0.00     0.000 C 
ENDROOT
BRANCH   1   2
ATOM      2  C   UNL     1       4.993 125.286 114.336  1.00  0.00     0.000 C 
BRANCH   2   3
ATOM      3  C   UNL     1       4.554 126.759 114.398  1.00  0.00     0.000 C 
BRANCH   3   4
ATOM      4  C   UNL     1       5.161 127.602 113.262  1.00  0.00     0.000 C 
BRANCH   4   5
ATOM      5  C   UNL     1       4.602 129.037 113.222  1.00  0.00     0.006 C 
BRANCH   5   6
ATOM      6  C   UNL     1       5.656 130.133 113.445  1.00  0.00     0.053 C 
BRANCH   6   7
ATOM      7  C   UNL     1       6.265 130.057 114.811  1.00  0.00     0.041 C 
ATOM      8  O   UNL     1       7.515 130.100 114.952  1.00  0.00    -0.550 OA
ATOM      9  O   UNL     1       5.448 129.969 115.932  1.00  0.00    -0.550 OA
ENDBRANCH   6   7
ENDBRANCH   5   6
ENDBRANCH   4   5
ENDBRANCH   3   4
ENDBRANCH   2   3
ENDBRANCH   1   2
BRANCH   1  10
ATOM     10  C   UNL     1       4.256 123.497 112.650  1.00  0.00     0.000 C 
BRANCH  10  11
ATOM     11  C   UNL     1       4.528 124.287 111.355  1.00  0.00    -0.000 C 
BRANCH  11  12
ATOM     12  C   UNL     1       3.265 124.790 110.630  1.00  0.00    -0.000 C 
BRANCH  12  13
ATOM     13  C   UNL     1       3.310 126.296 110.281  1.00  0.00    -0.000 C 
BRANCH  13  14
ATOM     14  C   UNL     1       2.128 127.099 110.856  1.00  0.00    -0.000 C 
BRANCH  14  15
ATOM     15  C   UNL     1       1.477 126.454 112.093  1.00  0.00    -0.003 C 
ATOM     16  C   UNL     1       1.136 127.471 113.182  1.00  0.00     0.004 C 
ENDBRANCH  14  15
ENDBRANCH  13  14
ENDBRANCH  12  13
ENDBRANCH  11  12
ENDBRANCH  10  11
ENDBRANCH   1  10
TORSDOF 12
ENDMDL
