MODEL 1
REMARK VINA RESULT:    -4.409      0.000      0.000
REMARK INTER + INTRA:          -6.996
REMARK INTER:                  -6.470
REMARK INTRA:                  -0.525
REMARK UNBOUND:                -0.525
REMARK SMILES O=C([O-])CCCCCCCC(=O)[O-]
REMARK SMILES IDX 7 1 6 2 5 3 4 4 2 5 1 6 3 7 8 8 9 9 10 10 11 11 12 12 13 13
REMARK H PARENT
REMARK Flexibility Score: inf
ROOT
ATOM      1  C   UNL     1      -4.924  10.035  -4.658  1.00  0.00     0.000 C 
ENDROOT
BRANCH   1   2
ATOM      2  C   UNL     1      -6.033   8.977  -4.703  1.00  0.00     0.000 C 
BRANCH   2   3
ATOM      3  C   UNL     1      -5.722   7.897  -5.744  1.00  0.00     0.006 C 
BRANCH   3   4
ATOM      4  C   UNL     1      -6.124   6.509  -5.233  1.00  0.00     0.053 C 
BRANCH   4   5
ATOM      5  C   UNL     1      -7.302   5.991  -5.995  1.00  0.00     0.041 C 
ATOM      6  O   UNL     1      -7.135   5.406  -7.098  1.00  0.00    -0.550 OA
ATOM      7  O   UNL     1      -8.588   6.197  -5.512  1.00  0.00    -0.550 OA
ENDBRANCH   4   5
ENDBRANCH   3   4
ENDBRANCH   2   3
ENDBRANCH   1   2
BRANCH   1   8
ATOM      8  C   UNL     1      -4.185  10.001  -3.313  1.00  0.00     0.000 C 
BRANCH   8   9
ATOM      9  C   UNL     1      -2.980   9.046  -3.323  1.00  0.00     0.006 C 
BRANCH   9  10
ATOM     10  C   UNL     1      -1.857   9.521  -4.254  1.00  0.00     0.053 C 
BRANCH  10  11
ATOM     11  C   UNL     1      -1.371   8.391  -5.104  1.00  0.00     0.041 C 
ATOM     12  O   UNL     1      -0.176   8.001  -5.018  1.00  0.00    -0.550 OA
ATOM     13  O   UNL     1      -2.249   7.733  -5.956  1.00  0.00    -0.550 OA
ENDBRANCH  10  11
ENDBRANCH   9  10
ENDBRANCH   8   9
ENDBRANCH   1   8
TORSDOF 8
ENDMDL
MODEL 2
REMARK VINA RESULT:    -4.371      0.184      5.512
REMARK INTER + INTRA:          -6.941
REMARK INTER:                  -6.422
REMARK INTRA:                  -0.519
REMARK UNBOUND:                -0.525
REMARK SMILES O=C([O-])CCCCCCCC(=O)[O-]
REMARK SMILES IDX 7 1 6 2 5 3 4 4 2 5 1 6 3 7 8 8 9 9 10 10 11 11 12 12 13 13
REMARK H PARENT
REMARK Flexibility Score: inf
ROOT
ATOM      1  C   UNL     1      -4.829   9.959  -4.743  1.00  0.00     0.000 C 
ENDROOT
BRANCH   1   2
ATOM      2  C   UNL     1      -4.220   9.970  -3.335  1.00  0.00     0.000 C 
BRANCH   2   3
ATOM      3  C   UNL     1      -2.963   9.097  -3.272  1.00  0.00     0.006 C 
BRANCH   3   4
ATOM      4  C   UNL     1      -1.933   9.538  -4.317  1.00  0.00     0.053 C 
BRANCH   4   5
ATOM      5  C   UNL     1      -1.467   8.366  -5.120  1.00  0.00     0.041 C 
ATOM      6  O   UNL     1      -0.253   8.031  -5.107  1.00  0.00    -0.550 OA
ATOM      7  O   UNL     1      -2.363   7.672  -5.923  1.00  0.00    -0.550 OA
ENDBRANCH   4   5
ENDBRANCH   3   4
ENDBRANCH   2   3
ENDBRANCH   1   2
BRANCH   1   8
ATOM      8  C   UNL     1      -6.071   9.057  -4.798  1.00  0.00     0.000 C 
BRANCH   8   9
ATOM      9  C   UNL     1      -5.911   7.888  -5.781  1.00  0.00     0.006 C 
BRANCH   9  10
ATOM     10  C   UNL     1      -6.318   6.540  -5.170  1.00  0.00     0.053 C 
BRANCH  10  11
ATOM     11  C   UNL     1      -7.551   6.017  -5.833  1.00  0.00     0.041 C 
ATOM     12  O   UNL     1      -8.689   6.297  -5.370  1.00  0.00    -0.550 OA
ATOM     13  O   UNL     1      -7.449   5.259  -6.994  1.00  0.00    -0.550 OA
ENDBRANCH  10  11
ENDBRANCH   9  10
ENDBRANCH   8   9
ENDBRANCH   1   8
TORSDOF 8
ENDMDL
MODEL 3
REMARK VINA RESULT:    -4.335      0.715      5.368
REMARK INTER + INTRA:          -6.888
REMARK INTER:                  -6.370
REMARK INTRA:                  -0.518
REMARK UNBOUND:                -0.525
REMARK SMILES O=C([O-])CCCCCCCC(=O)[O-]
REMARK SMILES IDX 7 1 6 2 5 3 4 4 2 5 1 6 3 7 8 8 9 9 10 10 11 11 12 12 13 13
REMARK H PARENT
REMARK Flexibility Score: inf
ROOT
ATOM      1  C   UNL     1      -5.005   9.870  -4.704  1.00  0.00     0.000 C 
ENDROOT
BRANCH   1   2
ATOM      2  C   UNL     1      -4.331   9.895  -3.327  1.00  0.00     0.000 C 
BRANCH   2   3
ATOM      3  C   UNL     1      -2.961   9.208  -3.371  1.00  0.00     0.006 C 
BRANCH   3   4
ATOM      4  C   UNL     1      -2.203   9.576  -4.651  1.00  0.00     0.053 C 
BRANCH   4   5
ATOM      5  C   UNL     1      -1.561   8.364  -5.246  1.00  0.00     0.041 C 
ATOM      6  O   UNL     1      -2.182   7.669  -6.094  1.00  0.00    -0.550 OA
ATOM      7  O   UNL     1      -0.295   7.972  -4.830  1.00  0.00    -0.550 OA
ENDBRANCH   4   5
ENDBRANCH   3   4
ENDBRANCH   2   3
ENDBRANCH   1   2
BRANCH   1   8
ATOM      8  C   UNL     1      -6.126   8.821  -4.749  1.00  0.00     0.000 C 
BRANCH   8   9
ATOM      9  C   UNL     1      -5.652   7.472  -5.311  1.00  0.00     0.006 C 
BRANCH   9  10
ATOM     10  C   UNL     1      -6.751   6.401  -5.283  1.00  0.00     0.053 C 
BRANCH  10  11
ATOM     11  C   UNL     1      -7.056   5.930  -6.669  1.00  0.00     0.041 C 
ATOM     12  O   UNL     1      -6.420   6.394  -7.652  1.00  0.00    -0.550 OA
ATOM     13  O   UNL     1      -8.009   4.939  -6.873  1.00  0.00    -0.550 OA
ENDBRANCH  10  11
ENDBRANCH   9  10
ENDBRANCH   8   9
ENDBRANCH   1   8
TORSDOF 8
ENDMDL
MODEL 4
REMARK VINA RESULT:    -3.890      1.339      1.870
REMARK INTER + INTRA:          -6.235
REMARK INTER:                  -5.830
REMARK INTRA:                  -0.405
REMARK UNBOUND:                -0.525
REMARK SMILES O=C([O-])CCCCCCCC(=O)[O-]
REMARK SMILES IDX 7 1 6 2 5 3 4 4 2 5 1 6 3 7 8 8 9 9 10 10 11 11 12 12 13 13
REMARK H PARENT
REMARK Flexibility Score: inf
ROOT
ATOM      1  C   UNL     1      -5.384   9.474  -4.265  1.00  0.00     0.000 C 
ENDROOT
BRANCH   1   2
ATOM      2  C   UNL     1      -5.024   8.125  -4.900  1.00  0.00     0.000 C 
BRANCH   2   3
ATOM      3  C   UNL     1      -6.100   7.680  -5.896  1.00  0.00     0.006 C 
BRANCH   3   4
ATOM      4  C   UNL     1      -7.295   7.054  -5.170  1.00  0.00     0.053 C 
BRANCH   4   5
ATOM      5  C   UNL     1      -8.526   7.877  -5.380  1.00  0.00     0.041 C 
ATOM      6  O   UNL     1      -9.398   7.956  -4.474  1.00  0.00    -0.550 OA
ATOM      7  O   UNL     1      -8.735   8.518  -6.594  1.00  0.00    -0.550 OA
ENDBRANCH   4   5
ENDBRANCH   3   4
ENDBRANCH   2   3
ENDBRANCH   1   2
BRANCH   1   8
ATOM      8  C   UNL     1      -4.189  10.057  -3.497  1.00  0.00     0.000 C 
BRANCH   8   9
ATOM      9  C   UNL     1      -3.020   9.067  -3.380  1.00  0.00     0.006 C 
BRANCH   9  10
ATOM     10  C   UNL     1      -1.747   9.569  -4.075  1.00  0.00     0.053 C 
BRANCH  10  11
ATOM     11  C   UNL     1      -1.215   8.528  -5.007  1.00  0.00     0.041 C 
ATOM     12  O   UNL     1      -1.823   8.264  -6.078  1.00  0.00    -0.550 OA
ATOM     13  O   UNL     1      -0.018   7.882  -4.719  1.00  0.00    -0.550 OA
ENDBRANCH  10  11
ENDBRANCH   9  10
ENDBRANCH   8   9
ENDBRANCH   1   8
TORSDOF 8
ENDMDL
MODEL 5
REMARK VINA RESULT:    -3.876      1.041      1.675
REMARK INTER + INTRA:          -6.214
REMARK INTER:                  -5.702
REMARK INTRA:                  -0.512
REMARK UNBOUND:                -0.525
REMARK SMILES O=C([O-])CCCCCCCC(=O)[O-]
REMARK SMILES IDX 7 1 6 2 5 3 4 4 2 5 1 6 3 7 8 8 9 9 10 10 11 11 12 12 13 13
REMARK H PARENT
REMARK Flexibility Score: inf
ROOT
ATOM      1  C   UNL     1      -4.442   9.957  -3.322  1.00  0.00     0.000 C 
ENDROOT
BRANCH   1   2
ATOM      2  C   UNL     1      -5.012   9.854  -4.742  1.00  0.00     0.000 C 
BRANCH   2   3
ATOM      3  C   UNL     1      -5.981   8.673  -4.862  1.00  0.00     0.006 C 
BRANCH   3   4
ATOM      4  C   UNL     1      -5.288   7.453  -5.477  1.00  0.00     0.053 C 
BRANCH   4   5
ATOM      5  C   UNL     1      -6.285   6.379  -5.777  1.00  0.00     0.041 C 
ATOM      6  O   UNL     1      -7.084   5.990  -4.885  1.00  0.00    -0.550 OA
ATOM      7  O   UNL     1      -6.300   5.773  -7.026  1.00  0.00    -0.550 OA
ENDBRANCH   4   5
ENDBRANCH   3   4
ENDBRANCH   2   3
ENDBRANCH   1   2
BRANCH   1   8
ATOM      8  C   UNL     1      -3.044   9.327  -3.244  1.00  0.00     0.000 C 
BRANCH   8   9
ATOM      9  C   UNL     1      -2.180   9.648  -4.474  1.00  0.00     0.006 C 
BRANCH   9  10
ATOM     10  C   UNL     1      -1.505   8.402  -5.064  1.00  0.00     0.053 C 
BRANCH  10  11
ATOM     11  C   UNL     1      -0.885   8.721  -6.387  1.00  0.00     0.041 C 
ATOM     12  O   UNL     1       0.367   8.715  -6.520  1.00  0.00    -0.550 OA
ATOM     13  O   UNL     1      -1.692   8.976  -7.489  1.00  0.00    -0.550 OA
ENDBRANCH  10  11
ENDBRANCH   9  10
ENDBRANCH   8   9
ENDBRANCH   1   8
TORSDOF 8
ENDMDL
MODEL 6
REMARK VINA RESULT:    -3.860      3.705      5.540
REMARK INTER + INTRA:          -6.190
REMARK INTER:                  -5.909
REMARK INTRA:                  -0.282
REMARK UNBOUND:                -0.525
REMARK SMILES O=C([O-])CCCCCCCC(=O)[O-]
REMARK SMILES IDX 7 1 6 2 5 3 4 4 2 5 1 6 3 7 8 8 9 9 10 10 11 11 12 12 13 13
REMARK H PARENT
REMARK Flexibility Score: inf
ROOT
ATOM      1  C   UNL     1      -0.701   9.213  -6.104  1.00  0.00     0.000 C 
ENDROOT
BRANCH   1   2
ATOM      2  C   UNL     1      -1.976   8.635  -6.730  1.00  0.00     0.000 C 
BRANCH   2   3
ATOM      3  C   UNL     1      -2.919   8.087  -5.653  1.00  0.00     0.006 C 
BRANCH   3   4
ATOM      4  C   UNL     1      -3.822   9.194  -5.098  1.00  0.00     0.053 C 
BRANCH   4   5
ATOM      5  C   UNL     1      -3.546   9.414  -3.644  1.00  0.00     0.041 C 
ATOM      6  O   UNL     1      -2.517   8.920  -3.112  1.00  0.00    -0.550 OA
ATOM      7  O   UNL     1      -4.449  10.125  -2.864  1.00  0.00    -0.550 OA
ENDBRANCH   4   5
ENDBRANCH   3   4
ENDBRANCH   2   3
ENDBRANCH   1   2
BRANCH   1   8
ATOM      8  C   UNL     1       0.405   9.373  -7.157  1.00  0.00     0.000 C 
BRANCH   8   9
ATOM      9  C   UNL     1       1.370   8.178  -7.188  1.00  0.00     0.006 C 
BRANCH   9  10
ATOM     10  C   UNL     1       2.441   8.310  -8.280  1.00  0.00     0.053 C 
BRANCH  10  11
ATOM     11  C   UNL     1       3.394   7.159  -8.220  1.00  0.00     0.041 C 
ATOM     12  O   UNL     1       3.186   6.204  -7.425  1.00  0.00    -0.550 OA
ATOM     13  O   UNL     1       4.486   7.115  -9.077  1.00  0.00    -0.550 OA
ENDBRANCH  10  11
ENDBRANCH   9  10
ENDBRANCH   8   9
ENDBRANCH   1   8
TORSDOF 8
ENDMDL
MODEL 7
REMARK VINA RESULT:    -3.785      2.819      4.586
REMARK INTER + INTRA:          -6.080
REMARK INTER:                  -5.668
REMARK INTRA:                  -0.412
REMARK UNBOUND:                -0.525
REMARK SMILES O=C([O-])CCCCCCCC(=O)[O-]
REMARK SMILES IDX 7 1 6 2 5 3 4 4 2 5 1 6 3 7 8 8 9 9 10 10 11 11 12 12 13 13
REMARK H PARENT
REMARK Flexibility Score: inf
ROOT
ATOM      1  C   UNL     1      -1.277   8.490  -5.299  1.00  0.00     0.000 C 
ENDROOT
BRANCH   1   2
ATOM      2  C   UNL     1      -1.620   9.465  -4.166  1.00  0.00     0.000 C 
BRANCH   2   3
ATOM      3  C   UNL     1      -2.843   8.984  -3.376  1.00  0.00     0.006 C 
BRANCH   3   4
ATOM      4  C   UNL     1      -4.007   9.970  -3.512  1.00  0.00     0.053 C 
BRANCH   4   5
ATOM      5  C   UNL     1      -4.868   9.607  -4.680  1.00  0.00     0.041 C 
ATOM      6  O   UNL     1      -5.821   8.796  -4.537  1.00  0.00    -0.550 OA
ATOM      7  O   UNL     1      -4.588  10.125  -5.938  1.00  0.00    -0.550 OA
ENDBRANCH   4   5
ENDBRANCH   3   4
ENDBRANCH   2   3
ENDBRANCH   1   2
BRANCH   1   8
ATOM      8  C   UNL     1      -1.114   9.233  -6.633  1.00  0.00     0.000 C 
BRANCH   8   9
ATOM      9  C   UNL     1       0.331   9.202  -7.156  1.00  0.00     0.006 C 
BRANCH   9  10
ATOM     10  C   UNL     1       1.143   8.032  -6.582  1.00  0.00     0.053 C 
BRANCH  10  11
ATOM     11  C   UNL     1       2.295   7.707  -7.477  1.00  0.00     0.041 C 
ATOM     12  O   UNL     1       2.951   6.645  -7.307  1.00  0.00    -0.550 OA
ATOM     13  O   UNL     1       2.616   8.552  -8.533  1.00  0.00    -0.550 OA
ENDBRANCH  10  11
ENDBRANCH   9  10
ENDBRANCH   8   9
ENDBRANCH   1   8
TORSDOF 8
ENDMDL
MODEL 8
REMARK VINA RESULT:    -3.655      2.170      3.067
REMARK INTER + INTRA:          -5.889
REMARK INTER:                  -5.251
REMARK INTRA:                  -0.639
REMARK UNBOUND:                -0.525
REMARK SMILES O=C([O-])CCCCCCCC(=O)[O-]
REMARK SMILES IDX 7 1 6 2 5 3 4 4 2 5 1 6 3 7 8 8 9 9 10 10 11 11 12 12 13 13
REMARK H PARENT
REMARK Flexibility Score: inf
ROOT
ATOM      1  C   UNL     1      -2.929   9.029  -3.279  1.00  0.00     0.000 C 
ENDROOT
BRANCH   1   2
ATOM      2  C   UNL     1      -4.145   9.948  -3.446  1.00  0.00     0.000 C 
BRANCH   2   3
ATOM      3  C   UNL     1      -4.823   9.725  -4.802  1.00  0.00     0.006 C 
BRANCH   3   4
ATOM      4  C   UNL     1      -5.029   8.231  -5.074  1.00  0.00     0.053 C 
BRANCH   4   5
ATOM      5  C   UNL     1      -4.474   7.862  -6.413  1.00  0.00     0.041 C 
ATOM      6  O   UNL     1      -4.906   8.424  -7.455  1.00  0.00    -0.550 OA
ATOM      7  O   UNL     1      -3.516   6.862  -6.518  1.00  0.00    -0.550 OA
ENDBRANCH   4   5
ENDBRANCH   3   4
ENDBRANCH   2   3
ENDBRANCH   1   2
BRANCH   1   8
ATOM      8  C   UNL     1      -1.680   9.647  -3.925  1.00  0.00     0.000 C 
BRANCH   8   9
ATOM      9  C   UNL     1      -1.009   8.705  -4.936  1.00  0.00     0.006 C 
BRANCH   9  10
ATOM     10  C   UNL     1      -0.746   9.380  -6.289  1.00  0.00     0.053 C 
BRANCH  10  11
ATOM     11  C   UNL     1       0.514   8.854  -6.899  1.00  0.00     0.041 C 
ATOM     12  O   UNL     1       1.134   7.902  -6.355  1.00  0.00    -0.550 OA
ATOM     13  O   UNL     1       0.979   9.381  -8.098  1.00  0.00    -0.550 OA
ENDBRANCH  10  11
ENDBRANCH   9  10
ENDBRANCH   8   9
ENDBRANCH   1   8
TORSDOF 8
ENDMDL
MODEL 9
REMARK VINA RESULT:    -3.603      2.637      6.292
REMARK INTER + INTRA:          -5.813
REMARK INTER:                  -5.365
REMARK INTRA:                  -0.449
REMARK UNBOUND:                -0.525
REMARK SMILES O=C([O-])CCCCCCCC(=O)[O-]
REMARK SMILES IDX 7 1 6 2 5 3 4 4 2 5 1 6 3 7 8 8 9 9 10 10 11 11 12 12 13 13
REMARK H PARENT
REMARK Flexibility Score: inf
ROOT
ATOM      1  C   UNL     1      -1.377   8.719  -4.789  1.00  0.00     0.000 C 
ENDROOT
BRANCH   1   2
ATOM      2  C   UNL     1      -0.722  10.008  -5.301  1.00  0.00     0.000 C 
BRANCH   2   3
ATOM      3  C   UNL     1      -0.021   9.773  -6.644  1.00  0.00     0.006 C 
BRANCH   3   4
ATOM      4  C   UNL     1       0.625   8.385  -6.692  1.00  0.00     0.053 C 
BRANCH   4   5
ATOM      5  C   UNL     1       1.753   8.366  -7.673  1.00  0.00     0.041 C 
ATOM      6  O   UNL     1       1.831   9.251  -8.566  1.00  0.00    -0.550 OA
ATOM      7  O   UNL     1       2.692   7.344  -7.634  1.00  0.00    -0.550 OA
ENDBRANCH   4   5
ENDBRANCH   3   4
ENDBRANCH   2   3
ENDBRANCH   1   2
BRANCH   1   8
ATOM      8  C   UNL     1      -2.617   9.032  -3.939  1.00  0.00     0.000 C 
BRANCH   8   9
ATOM      9  C   UNL     1      -3.930   8.667  -4.650  1.00  0.00     0.006 C 
BRANCH   9  10
ATOM     10  C   UNL     1      -3.700   8.021  -6.023  1.00  0.00     0.053 C 
BRANCH  10  11
ATOM     11  C   UNL     1      -4.332   6.667  -6.076  1.00  0.00     0.041 C 
ATOM     12  O   UNL     1      -3.805   5.747  -6.756  1.00  0.00    -0.550 OA
ATOM     13  O   UNL     1      -5.477   6.404  -5.334  1.00  0.00    -0.550 OA
ENDBRANCH  10  11
ENDBRANCH   9  10
ENDBRANCH   8   9
ENDBRANCH   1   8
TORSDOF 8
ENDMDL
