MODEL 1
REMARK VINA RESULT:    -3.779      0.000      0.000
REMARK INTER + INTRA:          -4.619
REMARK INTER:                  -5.768
REMARK INTRA:                   1.148
REMARK UNBOUND:                 1.148
REMARK SMILES CC1=CCC[C@@H](C)C(=O)C[C@@H](C(C)C)C(=O)C1
REMARK SMILES IDX 8 1 9 2 6 3 7 4 5 5 4 6 3 7 2 8 1 9 10 11 11 12 15 13 16 14
REMARK SMILES IDX 17 15 12 17 13 18 14 19
REMARK H PARENT
REMARK Flexibility Score: 70.00
ROOT
ATOM      1  C   UNL     1      -3.452  30.004  27.917  1.00  0.00     0.136 C 
ATOM      2  O   UNL     1      -3.125  30.961  28.603  1.00  0.00    -0.299 OA
ENDROOT
BRANCH   1   3
ATOM      3  C   UNL     1      -4.895  29.858  27.466  1.00  0.00     0.053 C 
ATOM      4  C   UNL     1      -5.280  31.036  26.564  1.00  0.00     0.016 C 
BRANCH   3   5
ATOM      5  C   UNL     1      -5.889  29.737  28.648  1.00  0.00     0.015 C 
BRANCH   5   6
ATOM      6  C   UNL     1      -5.466  28.777  29.779  1.00  0.00     0.028 C 
BRANCH   6   7
ATOM      7  C   UNL     1      -4.618  29.450  30.835  1.00  0.00    -0.028 C 
ATOM      8  C   UNL     1      -3.461  28.960  31.343  1.00  0.00    -0.070 CG0
ATOM      9  C   UNL     1      -2.771  29.756  32.422  1.00  0.00     0.039 C 
ATOM     10  G   UNL     1      -2.814  27.673  30.856  1.00  0.00     0.000 G0
ENDBRANCH   6   7
ENDBRANCH   5   6
ENDBRANCH   3   5
ENDBRANCH   1   3
BRANCH   1  11
ATOM     11  C   UNL     1      -2.405  29.007  27.464  1.00  0.00     0.087 C 
BRANCH  11  12
ATOM     12  C   UNL     1      -2.396  27.658  28.240  1.00  0.00     0.066 C 
BRANCH  12  13
ATOM     13  C   UNL     1      -1.905  27.865  29.666  1.00  0.00     0.140 C 
ATOM     14  O   UNL     1      -0.747  28.207  29.863  1.00  0.00    -0.299 OA
BRANCH  13  15
ATOM     15  C   UNL     1      -2.812  27.662  30.855  1.00  0.00     0.106 CG0
ATOM     16  G   UNL     1      -3.442  28.957  31.344  1.00  0.00     0.000 G0
ENDBRANCH  13  15
ENDBRANCH  12  13
BRANCH  12  17
ATOM     17  C   UNL     1      -1.613  26.506  27.520  1.00  0.00    -0.006 C 
ATOM     18  C   UNL     1      -2.395  25.178  27.497  1.00  0.00     0.008 C 
ATOM     19  C   UNL     1      -0.252  26.259  28.201  1.00  0.00     0.008 C 
ENDBRANCH  12  17
ENDBRANCH  11  12
ENDBRANCH   1  11
TORSDOF 1
ENDMDL
MODEL 2
REMARK VINA RESULT:    -3.581      1.629      4.170
REMARK INTER + INTRA:          -4.318
REMARK INTER:                  -5.613
REMARK INTRA:                   1.296
REMARK UNBOUND:                 1.148
REMARK SMILES CC1=CCC[C@@H](C)C(=O)C[C@@H](C(C)C)C(=O)C1
REMARK SMILES IDX 8 1 9 2 6 3 7 4 5 5 4 6 3 7 2 8 1 9 10 11 11 12 15 13 16 14
REMARK SMILES IDX 17 15 12 17 13 18 14 19
REMARK H PARENT
REMARK Flexibility Score: 70.00
ROOT
ATOM      1  C   UNL     1      -3.262  27.676  28.250  1.00  0.00     0.136 C 
ATOM      2  O   UNL     1      -3.897  26.801  28.821  1.00  0.00    -0.299 OA
ENDROOT
BRANCH   1   3
ATOM      3  C   UNL     1      -1.810  27.433  27.878  1.00  0.00     0.053 C 
ATOM      4  C   UNL     1      -1.580  25.939  27.624  1.00  0.00     0.016 C 
BRANCH   3   5
ATOM      5  C   UNL     1      -0.817  27.957  28.944  1.00  0.00     0.015 C 
BRANCH   5   6
ATOM      6  C   UNL     1      -1.110  27.527  30.397  1.00  0.00     0.028 C 
BRANCH   6   7
ATOM      7  C   UNL     1      -1.410  28.698  31.307  1.00  0.00    -0.028 C 
ATOM      8  C   UNL     1      -2.648  29.148  31.625  1.00  0.00    -0.070 CG0
ATOM      9  C   UNL     1      -2.751  30.357  32.520  1.00  0.00     0.039 C 
ATOM     10  G   UNL     1      -3.927  28.475  31.154  1.00  0.00     0.000 G0
ENDBRANCH   6   7
ENDBRANCH   5   6
ENDBRANCH   3   5
ENDBRANCH   1   3
BRANCH   1  11
ATOM     11  C   UNL     1      -3.946  28.969  27.855  1.00  0.00     0.087 C 
BRANCH  11  12
ATOM     12  C   UNL     1      -4.094  30.015  28.998  1.00  0.00     0.066 C 
BRANCH  12  13
ATOM     13  C   UNL     1      -4.725  29.377  30.228  1.00  0.00     0.140 C 
ATOM     14  O   UNL     1      -5.906  29.579  30.476  1.00  0.00    -0.299 OA
BRANCH  13  15
ATOM     15  C   UNL     1      -3.931  28.494  31.160  1.00  0.00     0.106 CG0
ATOM     16  G   UNL     1      -2.640  29.144  31.631  1.00  0.00     0.000 G0
ENDBRANCH  13  15
ENDBRANCH  12  13
BRANCH  12  17
ATOM     17  C   UNL     1      -4.843  31.326  28.578  1.00  0.00    -0.006 C 
ATOM     18  C   UNL     1      -6.111  31.047  27.746  1.00  0.00     0.008 C 
ATOM     19  C   UNL     1      -3.918  32.251  27.763  1.00  0.00     0.008 C 
ENDBRANCH  12  17
ENDBRANCH  11  12
ENDBRANCH   1  11
TORSDOF 1
ENDMDL
MODEL 3
REMARK VINA RESULT:    -3.439      1.708      3.216
REMARK INTER + INTRA:          -4.101
REMARK INTER:                  -6.846
REMARK INTRA:                   2.745
REMARK UNBOUND:                 1.148
REMARK SMILES CC1=CCC[C@@H](C)C(=O)C[C@@H](C(C)C)C(=O)C1
REMARK SMILES IDX 8 1 9 2 6 3 7 4 5 5 4 6 3 7 2 8 1 9 10 11 11 12 15 13 16 14
REMARK SMILES IDX 17 15 12 17 13 18 14 19
REMARK H PARENT
REMARK Flexibility Score: 70.00
ROOT
ATOM      1  C   UNL     1      -2.859  28.248  30.857  1.00  0.00     0.136 C 
ATOM      2  O   UNL     1      -2.430  29.265  31.383  1.00  0.00    -0.299 OA
ENDROOT
BRANCH   1   3
ATOM      3  C   UNL     1      -4.348  27.953  30.890  1.00  0.00     0.053 C 
ATOM      4  C   UNL     1      -4.659  26.742  30.003  1.00  0.00     0.016 C 
BRANCH   3   5
ATOM      5  C   UNL     1      -5.214  29.166  30.470  1.00  0.00     0.015 C 
BRANCH   5   6
ATOM      6  C   UNL     1      -5.865  29.069  29.074  1.00  0.00     0.028 C 
BRANCH   6   7
ATOM      7  C   UNL     1      -5.447  30.192  28.151  1.00  0.00    -0.028 C 
ATOM      8  C   UNL     1      -4.179  30.644  27.989  1.00  0.00    -0.070 CG0
ATOM      9  C   UNL     1      -3.959  31.803  27.050  1.00  0.00     0.039 C 
ATOM     10  G   UNL     1      -2.976  30.019  28.677  1.00  0.00     0.000 G0
ENDBRANCH   6   7
ENDBRANCH   5   6
ENDBRANCH   3   5
ENDBRANCH   1   3
BRANCH   1  11
ATOM     11  C   UNL     1      -1.913  27.326  30.114  1.00  0.00     0.087 C 
BRANCH  11  12
ATOM     12  C   UNL     1      -1.445  27.840  28.721  1.00  0.00     0.066 C 
BRANCH  12  13
ATOM     13  C   UNL     1      -2.526  28.698  28.078  1.00  0.00     0.140 C 
ATOM     14  O   UNL     1      -3.082  28.309  27.060  1.00  0.00    -0.299 OA
BRANCH  13  15
ATOM     15  C   UNL     1      -2.939  30.026  28.664  1.00  0.00     0.106 CG0
ATOM     16  G   UNL     1      -4.163  30.617  27.982  1.00  0.00     0.000 G0
ENDBRANCH  13  15
ENDBRANCH  12  13
BRANCH  12  17
ATOM     17  C   UNL     1      -0.950  26.712  27.752  1.00  0.00    -0.006 C 
ATOM     18  C   UNL     1      -2.006  25.613  27.527  1.00  0.00     0.008 C 
ATOM     19  C   UNL     1       0.335  26.052  28.289  1.00  0.00     0.008 C 
ENDBRANCH  12  17
ENDBRANCH  11  12
ENDBRANCH   1  11
TORSDOF 1
ENDMDL
MODEL 4
REMARK VINA RESULT:    -2.887      1.719      4.446
REMARK INTER + INTRA:          -3.257
REMARK INTER:                  -5.947
REMARK INTRA:                   2.690
REMARK UNBOUND:                 1.148
REMARK SMILES CC1=CCC[C@@H](C)C(=O)C[C@@H](C(C)C)C(=O)C1
REMARK SMILES IDX 8 1 9 2 6 3 7 4 5 5 4 6 3 7 2 8 1 9 10 11 11 12 15 13 16 14
REMARK SMILES IDX 17 15 12 17 13 18 14 19
REMARK H PARENT
REMARK Flexibility Score: 70.00
ROOT
ATOM      1  C   UNL     1      -5.035  29.056  30.476  1.00  0.00     0.136 C 
ATOM      2  O   UNL     1      -5.949  29.782  30.840  1.00  0.00    -0.299 OA
ENDROOT
BRANCH   1   3
ATOM      3  C   UNL     1      -3.914  28.714  31.440  1.00  0.00     0.053 C 
ATOM      4  C   UNL     1      -3.180  29.992  31.861  1.00  0.00     0.016 C 
BRANCH   3   5
ATOM      5  C   UNL     1      -2.912  27.683  30.861  1.00  0.00     0.015 C 
BRANCH   5   6
ATOM      6  C   UNL     1      -1.498  28.224  30.560  1.00  0.00     0.028 C 
BRANCH   6   7
ATOM      7  C   UNL     1      -0.737  27.361  29.578  1.00  0.00    -0.028 C 
ATOM      8  C   UNL     1      -1.225  26.889  28.406  1.00  0.00    -0.070 CG0
ATOM      9  C   UNL     1      -0.327  26.009  27.572  1.00  0.00     0.039 C 
ATOM     10  G   UNL     1      -2.610  27.230  27.879  1.00  0.00     0.000 G0
ENDBRANCH   6   7
ENDBRANCH   5   6
ENDBRANCH   3   5
ENDBRANCH   1   3
BRANCH   1  11
ATOM     11  C   UNL     1      -5.063  28.447  29.089  1.00  0.00     0.087 C 
BRANCH  11  12
ATOM     12  C   UNL     1      -4.313  29.260  27.994  1.00  0.00     0.066 C 
BRANCH  12  13
ATOM     13  C   UNL     1      -2.911  28.703  27.782  1.00  0.00     0.140 C 
ATOM     14  O   UNL     1      -1.989  29.467  27.532  1.00  0.00    -0.299 OA
BRANCH  13  15
ATOM     15  C   UNL     1      -2.622  27.225  27.873  1.00  0.00     0.106 CG0
ATOM     16  G   UNL     1      -1.236  26.929  28.422  1.00  0.00     0.000 G0
ENDBRANCH  13  15
ENDBRANCH  12  13
BRANCH  12  17
ATOM     17  C   UNL     1      -4.289  30.807  28.243  1.00  0.00    -0.006 C 
ATOM     18  C   UNL     1      -5.701  31.412  28.371  1.00  0.00     0.008 C 
ATOM     19  C   UNL     1      -3.548  31.536  27.105  1.00  0.00     0.008 C 
ENDBRANCH  12  17
ENDBRANCH  11  12
ENDBRANCH   1  11
TORSDOF 1
ENDMDL
MODEL 5
REMARK VINA RESULT:    -2.002      1.616      1.870
REMARK INTER + INTRA:          -1.908
REMARK INTER:                  -3.733
REMARK INTRA:                   1.825
REMARK UNBOUND:                 1.148
REMARK SMILES CC1=CCC[C@@H](C)C(=O)C[C@@H](C(C)C)C(=O)C1
REMARK SMILES IDX 8 1 9 2 6 3 7 4 5 5 4 6 3 7 2 8 1 9 10 11 11 12 15 13 16 14
REMARK SMILES IDX 17 15 12 17 13 18 14 19
REMARK H PARENT
REMARK Flexibility Score: 70.00
ROOT
ATOM      1  C   UNL     1      -4.204  29.702  27.504  1.00  0.00     0.136 C 
ATOM      2  O   UNL     1      -4.644  29.041  26.574  1.00  0.00    -0.299 OA
ENDROOT
BRANCH   1   3
ATOM      3  C   UNL     1      -4.921  30.970  27.932  1.00  0.00     0.053 C 
ATOM      4  C   UNL     1      -3.902  32.005  28.421  1.00  0.00     0.016 C 
BRANCH   3   5
ATOM      5  C   UNL     1      -5.997  30.719  29.017  1.00  0.00     0.015 C 
BRANCH   5   6
ATOM      6  C   UNL     1      -5.680  29.593  30.023  1.00  0.00     0.028 C 
BRANCH   6   7
ATOM      7  C   UNL     1      -4.516  29.926  30.931  1.00  0.00    -0.028 C 
ATOM      8  C   UNL     1      -3.620  29.034  31.418  1.00  0.00    -0.070 CG0
ATOM      9  C   UNL     1      -2.545  29.548  32.343  1.00  0.00     0.039 C 
ATOM     10  G   UNL     1      -3.626  27.559  31.050  1.00  0.00     0.000 G0
ENDBRANCH   6   7
ENDBRANCH   5   6
ENDBRANCH   3   5
ENDBRANCH   1   3
BRANCH   1  11
ATOM     11  C   UNL     1      -2.989  29.216  28.267  1.00  0.00     0.087 C 
BRANCH  11  12
ATOM     12  C   UNL     1      -2.934  27.680  28.514  1.00  0.00     0.066 C 
BRANCH  12  13
ATOM     13  C   UNL     1      -3.911  27.280  29.611  1.00  0.00     0.140 C 
ATOM     14  O   UNL     1      -4.966  26.737  29.313  1.00  0.00    -0.299 OA
BRANCH  13  15
ATOM     15  C   UNL     1      -3.616  27.534  31.069  1.00  0.00     0.106 CG0
ATOM     16  G   UNL     1      -3.613  29.013  31.421  1.00  0.00     0.000 G0
ENDBRANCH  13  15
ENDBRANCH  12  13
BRANCH  12  17
ATOM     17  C   UNL     1      -1.495  27.124  28.792  1.00  0.00    -0.006 C 
ATOM     18  C   UNL     1      -0.426  28.234  28.840  1.00  0.00     0.008 C 
ATOM     19  C   UNL     1      -1.085  26.099  27.716  1.00  0.00     0.008 C 
ENDBRANCH  12  17
ENDBRANCH  11  12
ENDBRANCH   1  11
TORSDOF 1
ENDMDL
MODEL 6
REMARK VINA RESULT:    -1.245      1.947      3.672
REMARK INTER + INTRA:          -0.752
REMARK INTER:                  -2.561
REMARK INTRA:                   1.809
REMARK UNBOUND:                 1.148
REMARK SMILES CC1=CCC[C@@H](C)C(=O)C[C@@H](C(C)C)C(=O)C1
REMARK SMILES IDX 8 1 9 2 6 3 7 4 5 5 4 6 3 7 2 8 1 9 10 11 11 12 15 13 16 14
REMARK SMILES IDX 17 15 12 17 13 18 14 19
REMARK H PARENT
REMARK Flexibility Score: 70.00
ROOT
ATOM      1  C   UNL     1      -5.648  30.398  29.625  1.00  0.00     0.136 C 
ATOM      2  O   UNL     1      -6.125  31.069  30.529  1.00  0.00    -0.299 OA
ENDROOT
BRANCH   1   3
ATOM      3  C   UNL     1      -5.116  31.081  28.378  1.00  0.00     0.053 C 
ATOM      4  C   UNL     1      -5.900  30.607  27.150  1.00  0.00     0.016 C 
BRANCH   3   5
ATOM      5  C   UNL     1      -3.598  30.857  28.167  1.00  0.00     0.015 C 
BRANCH   5   6
ATOM      6  C   UNL     1      -3.217  29.626  27.318  1.00  0.00     0.028 C 
BRANCH   6   7
ATOM      7  C   UNL     1      -1.930  28.973  27.773  1.00  0.00    -0.028 C 
ATOM      8  C   UNL     1      -1.809  27.696  28.209  1.00  0.00    -0.070 CG0
ATOM      9  C   UNL     1      -0.447  27.231  28.661  1.00  0.00     0.039 C 
ATOM     10  G   UNL     1      -2.965  26.708  28.231  1.00  0.00     0.000 G0
ENDBRANCH   6   7
ENDBRANCH   5   6
ENDBRANCH   3   5
ENDBRANCH   1   3
BRANCH   1  11
ATOM     11  C   UNL     1      -5.526  28.896  29.785  1.00  0.00     0.087 C 
BRANCH  11  12
ATOM     12  C   UNL     1      -4.073  28.364  29.955  1.00  0.00     0.066 C 
BRANCH  12  13
ATOM     13  C   UNL     1      -3.936  26.979  29.336  1.00  0.00     0.140 C 
ATOM     14  O   UNL     1      -4.644  26.065  29.734  1.00  0.00    -0.299 OA
BRANCH  13  15
ATOM     15  C   UNL     1      -2.944  26.698  28.234  1.00  0.00     0.106 CG0
ATOM     16  G   UNL     1      -1.792  27.690  28.210  1.00  0.00     0.000 G0
ENDBRANCH  13  15
ENDBRANCH  12  13
BRANCH  12  17
ATOM     17  C   UNL     1      -3.546  28.391  31.431  1.00  0.00    -0.006 C 
ATOM     18  C   UNL     1      -3.035  29.783  31.855  1.00  0.00     0.008 C 
ATOM     19  C   UNL     1      -2.405  27.373  31.626  1.00  0.00     0.008 C 
ENDBRANCH  12  17
ENDBRANCH  11  12
ENDBRANCH   1  11
TORSDOF 1
ENDMDL
MODEL 7
REMARK VINA RESULT:    -1.199      1.720      4.427
REMARK INTER + INTRA:          -0.682
REMARK INTER:                  -4.536
REMARK INTRA:                   3.854
REMARK UNBOUND:                 1.148
REMARK SMILES CC1=CCC[C@@H](C)C(=O)C[C@@H](C(C)C)C(=O)C1
REMARK SMILES IDX 8 1 9 2 6 3 7 4 5 5 4 6 3 7 2 8 1 9 10 11 11 12 15 13 16 14
REMARK SMILES IDX 17 15 12 17 13 18 14 19
REMARK H PARENT
REMARK Flexibility Score: 70.00
ROOT
ATOM      1  C   UNL     1      -2.598  27.109  29.190  1.00  0.00     0.136 C 
ATOM      2  O   UNL     1      -1.526  27.083  29.777  1.00  0.00    -0.299 OA
ENDROOT
BRANCH   1   3
ATOM      3  C   UNL     1      -2.628  27.059  27.673  1.00  0.00     0.053 C 
ATOM      4  C   UNL     1      -1.531  26.119  27.161  1.00  0.00     0.016 C 
BRANCH   3   5
ATOM      5  C   UNL     1      -2.488  28.457  27.020  1.00  0.00     0.015 C 
BRANCH   5   6
ATOM      6  C   UNL     1      -2.430  29.648  27.998  1.00  0.00     0.028 C 
BRANCH   6   7
ATOM      7  C   UNL     1      -3.503  30.680  27.732  1.00  0.00    -0.028 C 
ATOM      8  C   UNL     1      -4.825  30.521  27.982  1.00  0.00    -0.070 CG0
ATOM      9  C   UNL     1      -5.754  31.651  27.614  1.00  0.00     0.039 C 
ATOM     10  G   UNL     1      -5.406  29.282  28.644  1.00  0.00     0.000 G0
ENDBRANCH   6   7
ENDBRANCH   5   6
ENDBRANCH   3   5
ENDBRANCH   1   3
BRANCH   1  11
ATOM     11  C   UNL     1      -3.890  27.119  29.980  1.00  0.00     0.087 C 
BRANCH  11  12
ATOM     12  C   UNL     1      -4.149  28.412  30.809  1.00  0.00     0.066 C 
BRANCH  12  13
ATOM     13  C   UNL     1      -5.227  29.261  30.149  1.00  0.00     0.140 C 
ATOM     14  O   UNL     1      -5.960  29.955  30.842  1.00  0.00    -0.299 OA
BRANCH  13  15
ATOM     15  C   UNL     1      -5.421  29.277  28.653  1.00  0.00     0.106 CG0
ATOM     16  G   UNL     1      -4.849  30.524  27.997  1.00  0.00     0.000 G0
ENDBRANCH  13  15
ENDBRANCH  12  13
BRANCH  12  17
ATOM     17  C   UNL     1      -2.860  29.249  31.116  1.00  0.00    -0.006 C 
ATOM     18  C   UNL     1      -1.614  28.367  31.330  1.00  0.00     0.008 C 
ATOM     19  C   UNL     1      -3.060  30.124  32.369  1.00  0.00     0.008 C 
ENDBRANCH  12  17
ENDBRANCH  11  12
ENDBRANCH   1  11
TORSDOF 1
ENDMDL
