MODEL 1
REMARK VINA RESULT:    -4.342      0.000      0.000
REMARK INTER + INTRA:         -12.926
REMARK INTER:                  -9.419
REMARK INTRA:                  -3.507
REMARK UNBOUND:                -3.507
REMARK SMILES CCCCCCCCCCCCCCCCCCCCCC(=O)[O-]
REMARK SMILES IDX 12 1 11 2 10 3 9 4 8 5 7 6 6 7 5 8 4 9 3 10 2 11 1 12 13 13
REMARK SMILES IDX 14 14 15 15 16 16 17 17 18 18 19 19 20 20 21 21 22 22 23 23
REMARK SMILES IDX 24 24
REMARK H PARENT
REMARK Flexibility Score: inf
ROOT
ATOM      1  C   UNL     1      19.510  54.491 158.617  1.00  0.00     0.000 C 
ENDROOT
BRANCH   1   2
ATOM      2  C   UNL     1      18.844  53.700 157.478  1.00  0.00     0.000 C 
BRANCH   2   3
ATOM      3  C   UNL     1      18.055  54.607 156.516  1.00  0.00     0.000 C 
BRANCH   3   4
ATOM      4  C   UNL     1      17.444  55.831 157.220  1.00  0.00    -0.000 C 
BRANCH   4   5
ATOM      5  C   UNL     1      15.917  55.729 157.366  1.00  0.00    -0.000 C 
BRANCH   5   6
ATOM      6  C   UNL     1      15.239  55.176 156.102  1.00  0.00    -0.000 C 
BRANCH   6   7
ATOM      7  C   UNL     1      13.892  54.493 156.403  1.00  0.00    -0.000 C 
BRANCH   7   8
ATOM      8  C   UNL     1      14.060  53.177 157.178  1.00  0.00    -0.000 C 
BRANCH   8   9
ATOM      9  C   UNL     1      15.140  52.267 156.568  1.00  0.00    -0.000 C 
BRANCH   9  10
ATOM     10  C   UNL     1      16.019  51.596 157.635  1.00  0.00    -0.000 C 
BRANCH  10  11
ATOM     11  C   UNL     1      15.893  52.267 159.010  1.00  0.00    -0.003 C 
ATOM     12  C   UNL     1      15.585  51.241 160.096  1.00  0.00     0.004 C 
ENDBRANCH  10  11
ENDBRANCH   9  10
ENDBRANCH   8   9
ENDBRANCH   7   8
ENDBRANCH   6   7
ENDBRANCH   5   6
ENDBRANCH   4   5
ENDBRANCH   3   4
ENDBRANCH   2   3
ENDBRANCH   1   2
BRANCH   1  13
ATOM     13  C   UNL     1      19.578  53.688 159.929  1.00  0.00     0.000 C 
BRANCH  13  14
ATOM     14  C   UNL     1      18.937  54.433 161.112  1.00  0.00     0.000 C 
BRANCH  14  15
ATOM     15  C   UNL     1      17.736  55.297 160.688  1.00  0.00     0.000 C 
BRANCH  15  16
ATOM     16  C   UNL     1      17.872  56.757 161.148  1.00  0.00     0.000 C 
BRANCH  16  17
ATOM     17  C   UNL     1      18.776  57.590 160.222  1.00  0.00     0.000 C 
BRANCH  17  18
ATOM     18  C   UNL     1      20.017  58.150 160.940  1.00  0.00     0.000 C 
BRANCH  18  19
ATOM     19  C   UNL     1      21.297  57.310 160.774  1.00  0.00     0.000 C 
BRANCH  19  20
ATOM     20  C   UNL     1      22.065  57.124 162.094  1.00  0.00     0.006 C 
BRANCH  20  21
ATOM     21  C   UNL     1      22.533  55.675 162.293  1.00  0.00     0.053 C 
BRANCH  21  22
ATOM     22  C   UNL     1      23.815  55.397 161.567  1.00  0.00     0.041 C 
ATOM     23  O   UNL     1      23.999  54.280 161.015  1.00  0.00    -0.550 OA
ATOM     24  O   UNL     1      24.813  56.362 161.519  1.00  0.00    -0.550 OA
ENDBRANCH  21  22
ENDBRANCH  20  21
ENDBRANCH  19  20
ENDBRANCH  18  19
ENDBRANCH  17  18
ENDBRANCH  16  17
ENDBRANCH  15  16
ENDBRANCH  14  15
ENDBRANCH  13  14
ENDBRANCH   1  13
TORSDOF 20
ENDMDL
MODEL 2
REMARK VINA RESULT:    -4.337      2.765      7.094
REMARK INTER + INTRA:         -12.915
REMARK INTER:                  -9.619
REMARK INTRA:                  -3.296
REMARK UNBOUND:                -3.507
REMARK SMILES CCCCCCCCCCCCCCCCCCCCCC(=O)[O-]
REMARK SMILES IDX 12 1 11 2 10 3 9 4 8 5 7 6 6 7 5 8 4 9 3 10 2 11 1 12 13 13
REMARK SMILES IDX 14 14 15 15 16 16 17 17 18 18 19 19 20 20 21 21 22 22 23 23
REMARK SMILES IDX 24 24
REMARK H PARENT
REMARK Flexibility Score: inf
ROOT
ATOM      1  C   UNL     1      18.139  53.161 158.088  1.00  0.00     0.000 C 
ENDROOT
BRANCH   1   2
ATOM      2  C   UNL     1      19.452  53.881 158.439  1.00  0.00     0.000 C 
BRANCH   2   3
ATOM      3  C   UNL     1      20.022  53.435 159.797  1.00  0.00     0.000 C 
BRANCH   3   4
ATOM      4  C   UNL     1      21.222  54.286 160.245  1.00  0.00    -0.000 C 
BRANCH   4   5
ATOM      5  C   UNL     1      21.048  54.859 161.662  1.00  0.00    -0.000 C 
BRANCH   5   6
ATOM      6  C   UNL     1      19.651  54.583 162.242  1.00  0.00    -0.000 C 
BRANCH   6   7
ATOM      7  C   UNL     1      18.817  55.866 162.411  1.00  0.00    -0.000 C 
BRANCH   7   8
ATOM      8  C   UNL     1      18.017  56.219 161.147  1.00  0.00    -0.000 C 
BRANCH   8   9
ATOM      9  C   UNL     1      18.171  57.697 160.746  1.00  0.00    -0.000 C 
BRANCH   9  10
ATOM     10  C   UNL     1      19.566  58.255 161.070  1.00  0.00    -0.000 C 
BRANCH  10  11
ATOM     11  C   UNL     1      20.545  58.116 159.897  1.00  0.00    -0.003 C 
ATOM     12  C   UNL     1      21.991  58.200 160.374  1.00  0.00     0.004 C 
ENDBRANCH  10  11
ENDBRANCH   9  10
ENDBRANCH   8   9
ENDBRANCH   7   8
ENDBRANCH   6   7
ENDBRANCH   5   6
ENDBRANCH   4   5
ENDBRANCH   3   4
ENDBRANCH   2   3
ENDBRANCH   1   2
BRANCH   1  13
ATOM     13  C   UNL     1      17.374  52.690 159.337  1.00  0.00     0.000 C 
BRANCH  13  14
ATOM     14  C   UNL     1      16.353  51.583 159.025  1.00  0.00     0.000 C 
BRANCH  14  15
ATOM     15  C   UNL     1      14.963  51.875 159.617  1.00  0.00     0.000 C 
BRANCH  15  16
ATOM     16  C   UNL     1      14.048  52.617 158.629  1.00  0.00     0.000 C 
BRANCH  16  17
ATOM     17  C   UNL     1      14.500  52.456 157.166  1.00  0.00     0.000 C 
BRANCH  17  18
ATOM     18  C   UNL     1      13.706  53.345 156.193  1.00  0.00     0.000 C 
BRANCH  18  19
ATOM     19  C   UNL     1      14.084  54.837 156.219  1.00  0.00     0.000 C 
BRANCH  19  20
ATOM     20  C   UNL     1      15.606  55.068 156.238  1.00  0.00     0.006 C 
BRANCH  20  21
ATOM     21  C   UNL     1      16.033  56.023 157.360  1.00  0.00     0.053 C 
BRANCH  21  22
ATOM     22  C   UNL     1      16.843  57.172 156.839  1.00  0.00     0.041 C 
ATOM     23  O   UNL     1      16.393  57.894 155.911  1.00  0.00    -0.550 OA
ATOM     24  O   UNL     1      18.103  57.432 157.365  1.00  0.00    -0.550 OA
ENDBRANCH  21  22
ENDBRANCH  20  21
ENDBRANCH  19  20
ENDBRANCH  18  19
ENDBRANCH  17  18
ENDBRANCH  16  17
ENDBRANCH  15  16
ENDBRANCH  14  15
ENDBRANCH  13  14
ENDBRANCH   1  13
TORSDOF 20
ENDMDL
MODEL 3
REMARK VINA RESULT:    -4.315      1.348      4.250
REMARK INTER + INTRA:         -12.866
REMARK INTER:                  -9.728
REMARK INTRA:                  -3.138
REMARK UNBOUND:                -3.507
REMARK SMILES CCCCCCCCCCCCCCCCCCCCCC(=O)[O-]
REMARK SMILES IDX 12 1 11 2 10 3 9 4 8 5 7 6 6 7 5 8 4 9 3 10 2 11 1 12 13 13
REMARK SMILES IDX 14 14 15 15 16 16 17 17 18 18 19 19 20 20 21 21 22 22 23 23
REMARK SMILES IDX 24 24
REMARK H PARENT
REMARK Flexibility Score: inf
ROOT
ATOM      1  C   UNL     1      15.377  51.693 159.490  1.00  0.00     0.000 C 
ENDROOT
BRANCH   1   2
ATOM      2  C   UNL     1      14.153  52.374 158.854  1.00  0.00     0.000 C 
BRANCH   2   3
ATOM      3  C   UNL     1      14.331  52.608 157.342  1.00  0.00     0.000 C 
BRANCH   3   4
ATOM      4  C   UNL     1      13.771  53.964 156.882  1.00  0.00    -0.000 C 
BRANCH   4   5
ATOM      5  C   UNL     1      14.691  54.675 155.875  1.00  0.00    -0.000 C 
BRANCH   5   6
ATOM      6  C   UNL     1      16.116  54.872 156.416  1.00  0.00    -0.000 C 
BRANCH   6   7
ATOM      7  C   UNL     1      16.157  55.766 157.668  1.00  0.00    -0.000 C 
BRANCH   7   8
ATOM      8  C   UNL     1      17.495  56.506 157.821  1.00  0.00    -0.000 C 
BRANCH   8   9
ATOM      9  C   UNL     1      17.410  57.681 158.811  1.00  0.00    -0.000 C 
BRANCH   9  10
ATOM     10  C   UNL     1      18.709  58.500 158.868  1.00  0.00    -0.000 C 
BRANCH  10  11
ATOM     11  C   UNL     1      19.962  57.615 158.937  1.00  0.00    -0.003 C 
ATOM     12  C   UNL     1      21.170  58.324 158.331  1.00  0.00     0.004 C 
ENDBRANCH  10  11
ENDBRANCH   9  10
ENDBRANCH   8   9
ENDBRANCH   7   8
ENDBRANCH   6   7
ENDBRANCH   5   6
ENDBRANCH   4   5
ENDBRANCH   3   4
ENDBRANCH   2   3
ENDBRANCH   1   2
BRANCH   1  13
ATOM     13  C   UNL     1      16.567  51.595 158.519  1.00  0.00     0.000 C 
BRANCH  13  14
ATOM     14  C   UNL     1      17.702  52.569 158.873  1.00  0.00     0.000 C 
BRANCH  14  15
ATOM     15  C   UNL     1      17.405  53.388 160.143  1.00  0.00     0.000 C 
BRANCH  15  16
ATOM     16  C   UNL     1      18.586  54.281 160.555  1.00  0.00     0.000 C 
BRANCH  16  17
ATOM     17  C   UNL     1      19.848  54.022 159.711  1.00  0.00     0.000 C 
BRANCH  17  18
ATOM     18  C   UNL     1      21.130  53.945 160.560  1.00  0.00     0.000 C 
BRANCH  18  19
ATOM     19  C   UNL     1      21.151  54.872 161.789  1.00  0.00     0.000 C 
BRANCH  19  20
ATOM     20  C   UNL     1      21.980  56.149 161.561  1.00  0.00     0.006 C 
BRANCH  20  21
ATOM     21  C   UNL     1      23.272  55.869 160.783  1.00  0.00     0.053 C 
BRANCH  21  22
ATOM     22  C   UNL     1      24.421  55.565 161.696  1.00  0.00     0.041 C 
ATOM     23  O   UNL     1      24.882  54.395 161.763  1.00  0.00    -0.550 OA
ATOM     24  O   UNL     1      24.967  56.568 162.487  1.00  0.00    -0.550 OA
ENDBRANCH  21  22
ENDBRANCH  20  21
ENDBRANCH  19  20
ENDBRANCH  18  19
ENDBRANCH  17  18
ENDBRANCH  16  17
ENDBRANCH  15  16
ENDBRANCH  14  15
ENDBRANCH  13  14
ENDBRANCH   1  13
TORSDOF 20
ENDMDL
MODEL 4
REMARK VINA RESULT:    -4.288      2.699      4.687
REMARK INTER + INTRA:         -12.809
REMARK INTER:                 -10.146
REMARK INTRA:                  -2.663
REMARK UNBOUND:                -3.507
REMARK SMILES CCCCCCCCCCCCCCCCCCCCCC(=O)[O-]
REMARK SMILES IDX 12 1 11 2 10 3 9 4 8 5 7 6 6 7 5 8 4 9 3 10 2 11 1 12 13 13
REMARK SMILES IDX 14 14 15 15 16 16 17 17 18 18 19 19 20 20 21 21 22 22 23 23
REMARK SMILES IDX 24 24
REMARK H PARENT
REMARK Flexibility Score: inf
ROOT
ATOM      1  C   UNL     1      17.267  52.753 159.387  1.00  0.00     0.000 C 
ENDROOT
BRANCH   1   2
ATOM      2  C   UNL     1      16.434  51.519 159.002  1.00  0.00     0.000 C 
BRANCH   2   3
ATOM      3  C   UNL     1      15.033  51.532 159.639  1.00  0.00     0.000 C 
BRANCH   3   4
ATOM      4  C   UNL     1      14.057  52.468 158.906  1.00  0.00    -0.000 C 
BRANCH   4   5
ATOM      5  C   UNL     1      14.365  52.589 157.404  1.00  0.00    -0.000 C 
BRANCH   5   6
ATOM      6  C   UNL     1      13.368  53.499 156.669  1.00  0.00    -0.000 C 
BRANCH   6   7
ATOM      7  C   UNL     1      14.005  54.822 156.204  1.00  0.00    -0.000 C 
BRANCH   7   8
ATOM      8  C   UNL     1      15.360  55.091 156.877  1.00  0.00    -0.000 C 
BRANCH   8   9
ATOM      9  C   UNL     1      15.703  56.590 156.934  1.00  0.00    -0.000 C 
BRANCH   9  10
ATOM     10  C   UNL     1      16.922  56.884 157.823  1.00  0.00    -0.000 C 
BRANCH  10  11
ATOM     11  C   UNL     1      17.997  57.706 157.099  1.00  0.00    -0.003 C 
ATOM     12  C   UNL     1      19.396  57.203 157.440  1.00  0.00     0.004 C 
ENDBRANCH  10  11
ENDBRANCH   9  10
ENDBRANCH   8   9
ENDBRANCH   7   8
ENDBRANCH   6   7
ENDBRANCH   5   6
ENDBRANCH   4   5
ENDBRANCH   3   4
ENDBRANCH   2   3
ENDBRANCH   1   2
BRANCH   1  13
ATOM     13  C   UNL     1      18.070  53.315 158.201  1.00  0.00     0.000 C 
BRANCH  13  14
ATOM     14  C   UNL     1      19.509  53.697 158.589  1.00  0.00     0.000 C 
BRANCH  14  15
ATOM     15  C   UNL     1      19.720  53.740 160.113  1.00  0.00     0.000 C 
BRANCH  15  16
ATOM     16  C   UNL     1      19.782  55.176 160.657  1.00  0.00     0.000 C 
BRANCH  16  17
ATOM     17  C   UNL     1      20.772  55.325 161.826  1.00  0.00     0.000 C 
BRANCH  17  18
ATOM     18  C   UNL     1      21.023  56.793 162.214  1.00  0.00     0.000 C 
BRANCH  18  19
ATOM     19  C   UNL     1      20.595  57.827 161.156  1.00  0.00     0.000 C 
BRANCH  19  20
ATOM     20  C   UNL     1      19.487  58.771 161.655  1.00  0.00     0.006 C 
BRANCH  20  21
ATOM     21  C   UNL     1      18.258  58.759 160.736  1.00  0.00     0.053 C 
BRANCH  21  22
ATOM     22  C   UNL     1      18.191  59.985 159.877  1.00  0.00     0.041 C 
ATOM     23  O   UNL     1      19.228  60.417 159.309  1.00  0.00    -0.550 OA
ATOM     24  O   UNL     1      16.987  60.661 159.719  1.00  0.00    -0.550 OA
ENDBRANCH  21  22
ENDBRANCH  20  21
ENDBRANCH  19  20
ENDBRANCH  18  19
ENDBRANCH  17  18
ENDBRANCH  16  17
ENDBRANCH  15  16
ENDBRANCH  14  15
ENDBRANCH  13  14
ENDBRANCH   1  13
TORSDOF 20
ENDMDL
MODEL 5
REMARK VINA RESULT:    -4.272      2.738      7.129
REMARK INTER + INTRA:         -12.773
REMARK INTER:                 -10.310
REMARK INTRA:                  -2.463
REMARK UNBOUND:                -3.507
REMARK SMILES CCCCCCCCCCCCCCCCCCCCCC(=O)[O-]
REMARK SMILES IDX 12 1 11 2 10 3 9 4 8 5 7 6 6 7 5 8 4 9 3 10 2 11 1 12 13 13
REMARK SMILES IDX 14 14 15 15 16 16 17 17 18 18 19 19 20 20 21 21 22 22 23 23
REMARK SMILES IDX 24 24
REMARK H PARENT
REMARK Flexibility Score: inf
ROOT
ATOM      1  C   UNL     1      15.623  51.471 159.639  1.00  0.00     0.000 C 
ENDROOT
BRANCH   1   2
ATOM      2  C   UNL     1      16.976  52.097 159.260  1.00  0.00     0.000 C 
BRANCH   2   3
ATOM      3  C   UNL     1      17.207  53.456 159.944  1.00  0.00     0.000 C 
BRANCH   3   4
ATOM      4  C   UNL     1      18.687  53.710 160.276  1.00  0.00    -0.000 C 
BRANCH   4   5
ATOM      5  C   UNL     1      18.878  54.442 161.615  1.00  0.00    -0.000 C 
BRANCH   5   6
ATOM      6  C   UNL     1      20.342  54.442 162.083  1.00  0.00    -0.000 C 
BRANCH   6   7
ATOM      7  C   UNL     1      21.072  55.755 161.747  1.00  0.00    -0.000 C 
BRANCH   7   8
ATOM      8  C   UNL     1      21.925  55.646 160.474  1.00  0.00    -0.000 C 
BRANCH   8   9
ATOM      9  C   UNL     1      23.127  54.702 160.648  1.00  0.00    -0.000 C 
BRANCH   9  10
ATOM     10  C   UNL     1      24.032  55.109 161.822  1.00  0.00    -0.000 C 
BRANCH  10  11
ATOM     11  C   UNL     1      24.814  56.400 161.546  1.00  0.00    -0.003 C 
ATOM     12  C   UNL     1      26.255  56.285 162.034  1.00  0.00     0.004 C 
ENDBRANCH  10  11
ENDBRANCH   9  10
ENDBRANCH   8   9
ENDBRANCH   7   8
ENDBRANCH   6   7
ENDBRANCH   5   6
ENDBRANCH   4   5
ENDBRANCH   3   4
ENDBRANCH   2   3
ENDBRANCH   1   2
BRANCH   1  13
ATOM     13  C   UNL     1      14.434  52.204 158.993  1.00  0.00     0.000 C 
BRANCH  13  14
ATOM     14  C   UNL     1      14.677  52.535 157.511  1.00  0.00     0.000 C 
BRANCH  14  15
ATOM     15  C   UNL     1      13.742  53.641 156.990  1.00  0.00     0.000 C 
BRANCH  15  16
ATOM     16  C   UNL     1      14.510  54.796 156.328  1.00  0.00     0.000 C 
BRANCH  16  17
ATOM     17  C   UNL     1      16.012  54.780 156.666  1.00  0.00     0.000 C 
BRANCH  17  18
ATOM     18  C   UNL     1      16.444  55.978 157.530  1.00  0.00     0.000 C 
BRANCH  18  19
ATOM     19  C   UNL     1      17.869  56.493 157.261  1.00  0.00     0.000 C 
BRANCH  19  20
ATOM     20  C   UNL     1      18.597  56.938 158.542  1.00  0.00     0.006 C 
BRANCH  20  21
ATOM     21  C   UNL     1      17.646  57.602 159.547  1.00  0.00     0.053 C 
BRANCH  21  22
ATOM     22  C   UNL     1      17.655  59.096 159.424  1.00  0.00     0.041 C 
ATOM     23  O   UNL     1      18.681  59.689 158.998  1.00  0.00    -0.550 OA
ATOM     24  O   UNL     1      16.539  59.833 159.799  1.00  0.00    -0.550 OA
ENDBRANCH  21  22
ENDBRANCH  20  21
ENDBRANCH  19  20
ENDBRANCH  18  19
ENDBRANCH  17  18
ENDBRANCH  16  17
ENDBRANCH  15  16
ENDBRANCH  14  15
ENDBRANCH  13  14
ENDBRANCH   1  13
TORSDOF 20
ENDMDL
MODEL 6
REMARK VINA RESULT:    -4.267      1.878      5.728
REMARK INTER + INTRA:         -12.762
REMARK INTER:                  -9.674
REMARK INTRA:                  -3.087
REMARK UNBOUND:                -3.507
REMARK SMILES CCCCCCCCCCCCCCCCCCCCCC(=O)[O-]
REMARK SMILES IDX 12 1 11 2 10 3 9 4 8 5 7 6 6 7 5 8 4 9 3 10 2 11 1 12 13 13
REMARK SMILES IDX 14 14 15 15 16 16 17 17 18 18 19 19 20 20 21 21 22 22 23 23
REMARK SMILES IDX 24 24
REMARK H PARENT
REMARK Flexibility Score: inf
ROOT
ATOM      1  C   UNL     1      15.618  54.815 156.876  1.00  0.00     0.000 C 
ENDROOT
BRANCH   1   2
ATOM      2  C   UNL     1      15.478  56.341 156.747  1.00  0.00     0.000 C 
BRANCH   2   3
ATOM      3  C   UNL     1      16.704  57.092 157.295  1.00  0.00     0.000 C 
BRANCH   3   4
ATOM      4  C   UNL     1      17.791  56.144 157.830  1.00  0.00    -0.000 C 
BRANCH   4   5
ATOM      5  C   UNL     1      19.214  56.621 157.493  1.00  0.00    -0.000 C 
BRANCH   5   6
ATOM      6  C   UNL     1      19.230  57.695 156.393  1.00  0.00    -0.000 C 
BRANCH   6   7
ATOM      7  C   UNL     1      20.403  58.680 156.544  1.00  0.00    -0.000 C 
BRANCH   7   8
ATOM      8  C   UNL     1      20.619  59.120 158.001  1.00  0.00    -0.000 C 
BRANCH   8   9
ATOM      9  C   UNL     1      19.487  60.025 158.517  1.00  0.00    -0.000 C 
BRANCH   9  10
ATOM     10  C   UNL     1      19.197  59.814 160.012  1.00  0.00    -0.000 C 
BRANCH  10  11
ATOM     11  C   UNL     1      17.895  59.040 160.257  1.00  0.00    -0.003 C 
ATOM     12  C   UNL     1      18.153  57.769 161.060  1.00  0.00     0.004 C 
ENDBRANCH  10  11
ENDBRANCH   9  10
ENDBRANCH   8   9
ENDBRANCH   7   8
ENDBRANCH   6   7
ENDBRANCH   5   6
ENDBRANCH   4   5
ENDBRANCH   3   4
ENDBRANCH   2   3
ENDBRANCH   1   2
BRANCH   1  13
ATOM     13  C   UNL     1      14.257  54.108 157.008  1.00  0.00     0.000 C 
BRANCH  13  14
ATOM     14  C   UNL     1      14.396  52.615 157.349  1.00  0.00     0.000 C 
BRANCH  14  15
ATOM     15  C   UNL     1      15.822  52.084 157.113  1.00  0.00     0.000 C 
BRANCH  15  16
ATOM     16  C   UNL     1      16.383  51.345 158.338  1.00  0.00     0.000 C 
BRANCH  16  17
ATOM     17  C   UNL     1      15.956  51.993 159.668  1.00  0.00     0.000 C 
BRANCH  17  18
ATOM     18  C   UNL     1      16.842  53.187 160.064  1.00  0.00     0.000 C 
BRANCH  18  19
ATOM     19  C   UNL     1      18.292  53.119 159.549  1.00  0.00     0.000 C 
BRANCH  19  20
ATOM     20  C   UNL     1      19.289  53.839 160.475  1.00  0.00     0.006 C 
BRANCH  20  21
ATOM     21  C   UNL     1      20.727  53.769 159.942  1.00  0.00     0.053 C 
BRANCH  21  22
ATOM     22  C   UNL     1      21.683  54.528 160.812  1.00  0.00     0.041 C 
ATOM     23  O   UNL     1      21.255  55.193 161.791  1.00  0.00    -0.550 OA
ATOM     24  O   UNL     1      23.043  54.517 160.528  1.00  0.00    -0.550 OA
ENDBRANCH  21  22
ENDBRANCH  20  21
ENDBRANCH  19  20
ENDBRANCH  18  19
ENDBRANCH  17  18
ENDBRANCH  16  17
ENDBRANCH  15  16
ENDBRANCH  14  15
ENDBRANCH  13  14
ENDBRANCH   1  13
TORSDOF 20
ENDMDL
MODEL 7
REMARK VINA RESULT:    -4.239      2.713      6.723
REMARK INTER + INTRA:         -12.701
REMARK INTER:                  -9.434
REMARK INTRA:                  -3.268
REMARK UNBOUND:                -3.507
REMARK SMILES CCCCCCCCCCCCCCCCCCCCCC(=O)[O-]
REMARK SMILES IDX 12 1 11 2 10 3 9 4 8 5 7 6 6 7 5 8 4 9 3 10 2 11 1 12 13 13
REMARK SMILES IDX 14 14 15 15 16 16 17 17 18 18 19 19 20 20 21 21 22 22 23 23
REMARK SMILES IDX 24 24
REMARK H PARENT
REMARK Flexibility Score: inf
ROOT
ATOM      1  C   UNL     1      15.748  52.157 159.666  1.00  0.00     0.000 C 
ENDROOT
BRANCH   1   2
ATOM      2  C   UNL     1      16.979  52.292 158.754  1.00  0.00     0.000 C 
BRANCH   2   3
ATOM      3  C   UNL     1      17.907  53.442 159.186  1.00  0.00     0.000 C 
BRANCH   3   4
ATOM      4  C   UNL     1      17.671  53.882 160.641  1.00  0.00    -0.000 C 
BRANCH   4   5
ATOM      5  C   UNL     1      18.949  54.402 161.319  1.00  0.00    -0.000 C 
BRANCH   5   6
ATOM      6  C   UNL     1      20.219  54.062 160.523  1.00  0.00    -0.000 C 
BRANCH   6   7
ATOM      7  C   UNL     1      21.183  55.256 160.405  1.00  0.00    -0.000 C 
BRANCH   7   8
ATOM      8  C   UNL     1      22.053  55.436 161.659  1.00  0.00    -0.000 C 
BRANCH   8   9
ATOM      9  C   UNL     1      21.690  56.705 162.452  1.00  0.00    -0.000 C 
BRANCH   9  10
ATOM     10  C   UNL     1      21.278  57.872 161.540  1.00  0.00    -0.000 C 
BRANCH  10  11
ATOM     11  C   UNL     1      20.147  58.720 162.140  1.00  0.00    -0.003 C 
ATOM     12  C   UNL     1      19.033  57.837 162.693  1.00  0.00     0.004 C 
ENDBRANCH  10  11
ENDBRANCH   9  10
ENDBRANCH   8   9
ENDBRANCH   7   8
ENDBRANCH   6   7
ENDBRANCH   5   6
ENDBRANCH   4   5
ENDBRANCH   3   4
ENDBRANCH   2   3
ENDBRANCH   1   2
BRANCH   1  13
ATOM     13  C   UNL     1      14.426  52.190 158.879  1.00  0.00     0.000 C 
BRANCH  13  14
ATOM     14  C   UNL     1      14.628  52.559 157.400  1.00  0.00     0.000 C 
BRANCH  14  15
ATOM     15  C   UNL     1      13.596  53.586 156.899  1.00  0.00     0.000 C 
BRANCH  15  16
ATOM     16  C   UNL     1      14.255  54.795 156.215  1.00  0.00     0.000 C 
BRANCH  16  17
ATOM     17  C   UNL     1      15.728  54.978 156.625  1.00  0.00     0.000 C 
BRANCH  17  18
ATOM     18  C   UNL     1      15.980  56.296 157.378  1.00  0.00     0.000 C 
BRANCH  18  19
ATOM     19  C   UNL     1      17.439  56.787 157.356  1.00  0.00     0.000 C 
BRANCH  19  20
ATOM     20  C   UNL     1      17.971  57.147 158.755  1.00  0.00     0.006 C 
BRANCH  20  21
ATOM     21  C   UNL     1      18.807  58.434 158.743  1.00  0.00     0.053 C 
BRANCH  21  22
ATOM     22  C   UNL     1      18.038  59.605 159.276  1.00  0.00     0.041 C 
ATOM     23  O   UNL     1      16.786  59.542 159.386  1.00  0.00    -0.550 OA
ATOM     24  O   UNL     1      18.703  60.772 159.630  1.00  0.00    -0.550 OA
ENDBRANCH  21  22
ENDBRANCH  20  21
ENDBRANCH  19  20
ENDBRANCH  18  19
ENDBRANCH  17  18
ENDBRANCH  16  17
ENDBRANCH  15  16
ENDBRANCH  14  15
ENDBRANCH  13  14
ENDBRANCH   1  13
TORSDOF 20
ENDMDL
MODEL 8
REMARK VINA RESULT:    -4.234      2.877      4.403
REMARK INTER + INTRA:         -12.690
REMARK INTER:                  -9.716
REMARK INTRA:                  -2.975
REMARK UNBOUND:                -3.507
REMARK SMILES CCCCCCCCCCCCCCCCCCCCCC(=O)[O-]
REMARK SMILES IDX 12 1 11 2 10 3 9 4 8 5 7 6 6 7 5 8 4 9 3 10 2 11 1 12 13 13
REMARK SMILES IDX 14 14 15 15 16 16 17 17 18 18 19 19 20 20 21 21 22 22 23 23
REMARK SMILES IDX 24 24
REMARK H PARENT
REMARK Flexibility Score: inf
ROOT
ATOM      1  C   UNL     1      17.174  53.685 160.251  1.00  0.00     0.000 C 
ENDROOT
BRANCH   1   2
ATOM      2  C   UNL     1      17.282  52.536 159.235  1.00  0.00     0.000 C 
BRANCH   2   3
ATOM      3  C   UNL     1      16.114  51.540 159.347  1.00  0.00     0.000 C 
BRANCH   3   4
ATOM      4  C   UNL     1      14.762  52.163 158.959  1.00  0.00    -0.000 C 
BRANCH   4   5
ATOM      5  C   UNL     1      14.665  52.481 157.457  1.00  0.00    -0.000 C 
BRANCH   5   6
ATOM      6  C   UNL     1      13.682  53.624 157.159  1.00  0.00    -0.000 C 
BRANCH   6   7
ATOM      7  C   UNL     1      14.353  54.813 156.447  1.00  0.00    -0.000 C 
BRANCH   7   8
ATOM      8  C   UNL     1      15.658  55.249 157.132  1.00  0.00    -0.000 C 
BRANCH   8   9
ATOM      9  C   UNL     1      16.843  55.319 156.153  1.00  0.00    -0.000 C 
BRANCH   9  10
ATOM     10  C   UNL     1      18.186  54.995 156.827  1.00  0.00    -0.000 C 
BRANCH  10  11
ATOM     11  C   UNL     1      19.019  56.250 157.119  1.00  0.00    -0.003 C 
ATOM     12  C   UNL     1      18.613  56.884 158.446  1.00  0.00     0.004 C 
ENDBRANCH  10  11
ENDBRANCH   9  10
ENDBRANCH   8   9
ENDBRANCH   7   8
ENDBRANCH   6   7
ENDBRANCH   5   6
ENDBRANCH   4   5
ENDBRANCH   3   4
ENDBRANCH   2   3
ENDBRANCH   1   2
BRANCH   1  13
ATOM     13  C   UNL     1      18.540  54.080 160.840  1.00  0.00     0.000 C 
BRANCH  13  14
ATOM     14  C   UNL     1      19.716  53.654 159.945  1.00  0.00     0.000 C 
BRANCH  14  15
ATOM     15  C   UNL     1      21.082  54.044 160.537  1.00  0.00     0.000 C 
BRANCH  15  16
ATOM     16  C   UNL     1      20.953  54.750 161.896  1.00  0.00     0.000 C 
BRANCH  16  17
ATOM     17  C   UNL     1      21.843  56.001 162.002  1.00  0.00     0.000 C 
BRANCH  17  18
ATOM     18  C   UNL     1      21.160  57.270 161.461  1.00  0.00     0.000 C 
BRANCH  18  19
ATOM     19  C   UNL     1      19.680  57.428 161.855  1.00  0.00     0.000 C 
BRANCH  19  20
ATOM     20  C   UNL     1      19.493  57.820 163.332  1.00  0.00     0.006 C 
BRANCH  20  21
ATOM     21  C   UNL     1      18.175  57.286 163.910  1.00  0.00     0.053 C 
BRANCH  21  22
ATOM     22  C   UNL     1      18.047  57.579 165.374  1.00  0.00     0.041 C 
ATOM     23  O   UNL     1      17.531  56.729 166.147  1.00  0.00    -0.550 OA
ATOM     24  O   UNL     1      18.478  58.799 165.881  1.00  0.00    -0.550 OA
ENDBRANCH  21  22
ENDBRANCH  20  21
ENDBRANCH  19  20
ENDBRANCH  18  19
ENDBRANCH  17  18
ENDBRANCH  16  17
ENDBRANCH  15  16
ENDBRANCH  14  15
ENDBRANCH  13  14
ENDBRANCH   1  13
TORSDOF 20
ENDMDL
MODEL 9
REMARK VINA RESULT:    -4.218      1.376      4.826
REMARK INTER + INTRA:         -12.657
REMARK INTER:                  -9.066
REMARK INTRA:                  -3.591
REMARK UNBOUND:                -3.507
REMARK SMILES CCCCCCCCCCCCCCCCCCCCCC(=O)[O-]
REMARK SMILES IDX 12 1 11 2 10 3 9 4 8 5 7 6 6 7 5 8 4 9 3 10 2 11 1 12 13 13
REMARK SMILES IDX 14 14 15 15 16 16 17 17 18 18 19 19 20 20 21 21 22 22 23 23
REMARK SMILES IDX 24 24
REMARK H PARENT
REMARK Flexibility Score: inf
ROOT
ATOM      1  C   UNL     1      14.682  53.547 157.379  1.00  0.00     0.000 C 
ENDROOT
BRANCH   1   2
ATOM      2  C   UNL     1      14.948  54.705 156.402  1.00  0.00     0.000 C 
BRANCH   2   3
ATOM      3  C   UNL     1      16.439  54.842 156.045  1.00  0.00     0.000 C 
BRANCH   3   4
ATOM      4  C   UNL     1      16.996  56.243 156.348  1.00  0.00    -0.000 C 
BRANCH   4   5
ATOM      5  C   UNL     1      16.157  57.002 157.390  1.00  0.00    -0.000 C 
BRANCH   5   6
ATOM      6  C   UNL     1      16.958  58.103 158.103  1.00  0.00    -0.000 C 
BRANCH   6   7
ATOM      7  C   UNL     1      18.468  58.022 157.809  1.00  0.00    -0.000 C 
BRANCH   7   8
ATOM      8  C   UNL     1      19.316  58.697 158.898  1.00  0.00    -0.000 C 
BRANCH   8   9
ATOM      9  C   UNL     1      18.625  58.691 160.273  1.00  0.00    -0.000 C 
BRANCH   9  10
ATOM     10  C   UNL     1      19.606  58.947 161.428  1.00  0.00    -0.000 C 
BRANCH  10  11
ATOM     11  C   UNL     1      19.405  57.976 162.600  1.00  0.00    -0.003 C 
ATOM     12  C   UNL     1      18.366  56.912 162.261  1.00  0.00     0.004 C 
ENDBRANCH  10  11
ENDBRANCH   9  10
ENDBRANCH   8   9
ENDBRANCH   7   8
ENDBRANCH   6   7
ENDBRANCH   5   6
ENDBRANCH   4   5
ENDBRANCH   3   4
ENDBRANCH   2   3
ENDBRANCH   1   2
BRANCH   1  13
ATOM     13  C   UNL     1      15.422  52.258 156.978  1.00  0.00     0.000 C 
BRANCH  13  14
ATOM     14  C   UNL     1      16.265  51.678 158.126  1.00  0.00     0.000 C 
BRANCH  14  15
ATOM     15  C   UNL     1      16.064  52.437 159.451  1.00  0.00     0.000 C 
BRANCH  15  16
ATOM     16  C   UNL     1      17.380  53.003 160.008  1.00  0.00     0.000 C 
BRANCH  16  17
ATOM     17  C   UNL     1      17.649  54.447 159.545  1.00  0.00     0.000 C 
BRANCH  17  18
ATOM     18  C   UNL     1      19.135  54.713 159.246  1.00  0.00     0.000 C 
BRANCH  18  19
ATOM     19  C   UNL     1      20.120  53.777 159.970  1.00  0.00     0.000 C 
BRANCH  19  20
ATOM     20  C   UNL     1      20.953  54.500 161.044  1.00  0.00     0.006 C 
BRANCH  20  21
ATOM     21  C   UNL     1      21.617  55.773 160.502  1.00  0.00     0.053 C 
BRANCH  21  22
ATOM     22  C   UNL     1      23.103  55.757 160.699  1.00  0.00     0.041 C 
ATOM     23  O   UNL     1      23.773  56.810 160.539  1.00  0.00    -0.550 OA
ATOM     24  O   UNL     1      23.748  54.574 161.038  1.00  0.00    -0.550 OA
ENDBRANCH  21  22
ENDBRANCH  20  21
ENDBRANCH  19  20
ENDBRANCH  18  19
ENDBRANCH  17  18
ENDBRANCH  16  17
ENDBRANCH  15  16
ENDBRANCH  14  15
ENDBRANCH  13  14
ENDBRANCH   1  13
TORSDOF 20
ENDMDL
