MODEL 1
REMARK VINA RESULT:    -4.122      0.000      0.000
REMARK INTER + INTRA:          -4.122
REMARK INTER:                  -4.122
REMARK INTRA:                   0.000
REMARK UNBOUND:                 0.000
REMARK SMILES C=C1CCC[C@]2(C)CC(=O)C(=C(C)C)C[C@@H]12
REMARK SMILES IDX 13 1 12 2 11 3 15 4 16 5 2 6 1 7 3 8 4 9 5 10 6 11 8 12 9 13
REMARK SMILES IDX 10 14 7 15 14 16
REMARK H PARENT
REMARK Flexibility Score: inf
ROOT
ATOM      1  C   UNL     1       0.144  -7.439  13.407  1.00  0.00     0.039 C 
ATOM      2  C   UNL     1       0.589  -6.614  14.593  1.00  0.00    -0.070 C 
ATOM      3  C   UNL     1      -0.205  -6.472  15.696  1.00  0.00    -0.006 C 
ATOM      4  C   UNL     1      -1.581  -7.121  15.766  1.00  0.00     0.047 C 
ATOM      5  C   UNL     1      -2.581  -6.317  16.634  1.00  0.00     0.025 C 
ATOM      6  C   UNL     1      -3.969  -6.942  16.773  1.00  0.00    -0.073 C 
ATOM      7  C   UNL     1      -4.331  -8.109  16.207  1.00  0.00     0.008 C 
ATOM      8  C   UNL     1      -4.982  -6.148  17.564  1.00  0.00     0.031 C 
ATOM      9  C   UNL     1      -4.416  -5.786  18.941  1.00  0.00     0.005 C 
ATOM     10  C   UNL     1      -3.037  -5.114  18.829  1.00  0.00     0.008 C 
ATOM     11  C   UNL     1      -2.001  -5.972  18.042  1.00  0.00    -0.018 C 
ATOM     12  C   UNL     1      -0.719  -5.125  17.854  1.00  0.00     0.088 C 
ATOM     13  C   UNL     1       0.267  -5.786  16.935  1.00  0.00     0.159 C 
ATOM     14  O   UNL     1       1.489  -5.759  17.241  1.00  0.00    -0.295 OA
ATOM     15  C   UNL     1      -1.660  -7.251  18.855  1.00  0.00     0.012 C 
ATOM     16  C   UNL     1       1.930  -5.927  14.483  1.00  0.00     0.039 C 
ENDROOT
TORSDOF 0
ENDMDL
MODEL 2
REMARK VINA RESULT:    -3.846      2.109      5.413
REMARK INTER + INTRA:          -3.846
REMARK INTER:                  -3.846
REMARK INTRA:                   0.000
REMARK UNBOUND:                 0.000
REMARK SMILES C=C1CCC[C@]2(C)CC(=O)C(=C(C)C)C[C@@H]12
REMARK SMILES IDX 13 1 12 2 11 3 15 4 16 5 2 6 1 7 3 8 4 9 5 10 6 11 8 12 9 13
REMARK SMILES IDX 10 14 7 15 14 16
REMARK H PARENT
REMARK Flexibility Score: inf
ROOT
ATOM      1  C   UNL     1      -5.280  -4.021  18.345  1.00  0.00     0.039 C 
ATOM      2  C   UNL     1      -5.300  -5.319  17.571  1.00  0.00    -0.070 C 
ATOM      3  C   UNL     1      -4.141  -5.944  17.203  1.00  0.00    -0.006 C 
ATOM      4  C   UNL     1      -2.783  -5.345  17.540  1.00  0.00     0.047 C 
ATOM      5  C   UNL     1      -1.695  -5.700  16.495  1.00  0.00     0.025 C 
ATOM      6  C   UNL     1      -0.298  -5.159  16.803  1.00  0.00    -0.073 C 
ATOM      7  C   UNL     1       0.006  -4.433  17.895  1.00  0.00     0.008 C 
ATOM      8  C   UNL     1       0.768  -5.439  15.770  1.00  0.00     0.031 C 
ATOM      9  C   UNL     1       0.829  -6.938  15.462  1.00  0.00     0.005 C 
ATOM     10  C   UNL     1      -0.557  -7.502  15.105  1.00  0.00     0.008 C 
ATOM     11  C   UNL     1      -1.627  -7.233  16.205  1.00  0.00    -0.018 C 
ATOM     12  C   UNL     1      -3.002  -7.694  15.662  1.00  0.00     0.088 C 
ATOM     13  C   UNL     1      -4.132  -7.294  16.567  1.00  0.00     0.159 C 
ATOM     14  O   UNL     1      -5.053  -8.125  16.783  1.00  0.00    -0.295 OA
ATOM     15  C   UNL     1      -1.278  -8.047  17.481  1.00  0.00     0.012 C 
ATOM     16  C   UNL     1      -6.656  -5.868  17.191  1.00  0.00     0.039 C 
ENDROOT
TORSDOF 0
ENDMDL
MODEL 3
REMARK VINA RESULT:    -3.641      1.561      4.839
REMARK INTER + INTRA:          -3.641
REMARK INTER:                  -3.641
REMARK INTRA:                   0.000
REMARK UNBOUND:                 0.000
REMARK SMILES C=C1CCC[C@]2(C)CC(=O)C(=C(C)C)C[C@@H]12
REMARK SMILES IDX 13 1 12 2 11 3 15 4 16 5 2 6 1 7 3 8 4 9 5 10 6 11 8 12 9 13
REMARK SMILES IDX 10 14 7 15 14 16
REMARK H PARENT
REMARK Flexibility Score: inf
ROOT
ATOM      1  C   UNL     1      -5.061  -7.686  16.077  1.00  0.00     0.039 C 
ATOM      2  C   UNL     1      -4.276  -7.037  17.194  1.00  0.00    -0.070 C 
ATOM      3  C   UNL     1      -2.945  -6.757  17.057  1.00  0.00    -0.006 C 
ATOM      4  C   UNL     1      -2.194  -7.108  15.780  1.00  0.00     0.047 C 
ATOM      5  C   UNL     1      -0.699  -7.426  16.030  1.00  0.00     0.025 C 
ATOM      6  C   UNL     1       0.116  -7.746  14.777  1.00  0.00    -0.073 C 
ATOM      7  C   UNL     1      -0.390  -7.752  13.530  1.00  0.00     0.008 C 
ATOM      8  C   UNL     1       1.563  -8.119  15.000  1.00  0.00     0.031 C 
ATOM      9  C   UNL     1       2.266  -7.047  15.837  1.00  0.00     0.005 C 
ATOM     10  C   UNL     1       1.490  -6.735  17.128  1.00  0.00     0.008 C 
ATOM     11  C   UNL     1       0.012  -6.316  16.867  1.00  0.00    -0.018 C 
ATOM     12  C   UNL     1      -0.703  -6.193  18.234  1.00  0.00     0.088 C 
ATOM     13  C   UNL     1      -2.183  -5.989  18.084  1.00  0.00     0.159 C 
ATOM     14  O   UNL     1      -2.754  -5.151  18.831  1.00  0.00    -0.295 OA
ATOM     15  C   UNL     1      -0.019  -4.941  16.145  1.00  0.00     0.012 C 
ATOM     16  C   UNL     1      -5.022  -6.751  18.477  1.00  0.00     0.039 C 
ENDROOT
TORSDOF 0
ENDMDL
MODEL 4
REMARK VINA RESULT:    -2.896      2.477      4.966
REMARK INTER + INTRA:          -2.896
REMARK INTER:                  -2.896
REMARK INTRA:                   0.000
REMARK UNBOUND:                 0.000
REMARK SMILES C=C1CCC[C@]2(C)CC(=O)C(=C(C)C)C[C@@H]12
REMARK SMILES IDX 13 1 12 2 11 3 15 4 16 5 2 6 1 7 3 8 4 9 5 10 6 11 8 12 9 13
REMARK SMILES IDX 10 14 7 15 14 16
REMARK H PARENT
REMARK Flexibility Score: inf
ROOT
ATOM      1  C   UNL     1      -5.386  -3.869  14.790  1.00  0.00     0.039 C 
ATOM      2  C   UNL     1      -5.661  -4.331  16.203  1.00  0.00    -0.070 C 
ATOM      3  C   UNL     1      -4.700  -4.959  16.943  1.00  0.00    -0.006 C 
ATOM      4  C   UNL     1      -3.319  -5.240  16.366  1.00  0.00     0.047 C 
ATOM      5  C   UNL     1      -2.668  -6.515  16.958  1.00  0.00     0.025 C 
ATOM      6  C   UNL     1      -1.262  -6.824  16.445  1.00  0.00    -0.073 C 
ATOM      7  C   UNL     1      -0.600  -6.065  15.552  1.00  0.00     0.008 C 
ATOM      8  C   UNL     1      -0.628  -8.095  16.961  1.00  0.00     0.031 C 
ATOM      9  C   UNL     1      -0.658  -8.121  18.492  1.00  0.00     0.005 C 
ATOM     10  C   UNL     1      -2.072  -7.855  19.038  1.00  0.00     0.008 C 
ATOM     11  C   UNL     1      -2.686  -6.520  18.520  1.00  0.00    -0.018 C 
ATOM     12  C   UNL     1      -4.156  -6.448  18.997  1.00  0.00     0.088 C 
ATOM     13  C   UNL     1      -4.897  -5.295  18.384  1.00  0.00     0.159 C 
ATOM     14  O   UNL     1      -5.669  -4.618  19.113  1.00  0.00    -0.295 OA
ATOM     15  C   UNL     1      -1.894  -5.320  19.109  1.00  0.00     0.012 C 
ATOM     16  C   UNL     1      -7.055  -4.099  16.739  1.00  0.00     0.039 C 
ENDROOT
TORSDOF 0
ENDMDL
MODEL 5
REMARK VINA RESULT:    -2.559     22.983     25.389
REMARK INTER + INTRA:          -2.559
REMARK INTER:                  -2.559
REMARK INTRA:                   0.000
REMARK UNBOUND:                 0.000
REMARK SMILES C=C1CCC[C@]2(C)CC(=O)C(=C(C)C)C[C@@H]12
REMARK SMILES IDX 13 1 12 2 11 3 15 4 16 5 2 6 1 7 3 8 4 9 5 10 6 11 8 12 9 13
REMARK SMILES IDX 10 14 7 15 14 16
REMARK H PARENT
REMARK Flexibility Score: inf
ROOT
ATOM      1  C   UNL     1      10.966   8.942   5.859  1.00  0.00     0.039 C 
ATOM      2  C   UNL     1      11.764   9.833   4.935  1.00  0.00    -0.070 C 
ATOM      3  C   UNL     1      11.856   9.567   3.597  1.00  0.00    -0.006 C 
ATOM      4  C   UNL     1      11.176   8.349   2.988  1.00  0.00     0.047 C 
ATOM      5  C   UNL     1      11.932   7.794   1.755  1.00  0.00     0.025 C 
ATOM      6  C   UNL     1      11.273   6.593   1.075  1.00  0.00    -0.073 C 
ATOM      7  C   UNL     1      10.117   6.037   1.483  1.00  0.00     0.008 C 
ATOM      8  C   UNL     1      12.021   5.994  -0.093  1.00  0.00     0.031 C 
ATOM      9  C   UNL     1      12.354   7.077  -1.123  1.00  0.00     0.005 C 
ATOM     10  C   UNL     1      13.058   8.281  -0.475  1.00  0.00     0.008 C 
ATOM     11  C   UNL     1      12.246   8.903   0.702  1.00  0.00    -0.018 C 
ATOM     12  C   UNL     1      13.125   9.986   1.373  1.00  0.00     0.088 C 
ATOM     13  C   UNL     1      12.513  10.507   2.642  1.00  0.00     0.159 C 
ATOM     14  O   UNL     1      12.557  11.745   2.868  1.00  0.00    -0.295 OA
ATOM     15  C   UNL     1      10.951   9.559   0.151  1.00  0.00     0.012 C 
ATOM     16  C   UNL     1      12.482  11.004   5.565  1.00  0.00     0.039 C 
ENDROOT
TORSDOF 0
ENDMDL
MODEL 6
REMARK VINA RESULT:    -2.416     22.723     25.542
REMARK INTER + INTRA:          -2.416
REMARK INTER:                  -2.416
REMARK INTRA:                   0.000
REMARK UNBOUND:                 0.000
REMARK SMILES C=C1CCC[C@]2(C)CC(=O)C(=C(C)C)C[C@@H]12
REMARK SMILES IDX 13 1 12 2 11 3 15 4 16 5 2 6 1 7 3 8 4 9 5 10 6 11 8 12 9 13
REMARK SMILES IDX 10 14 7 15 14 16
REMARK H PARENT
REMARK Flexibility Score: inf
ROOT
ATOM      1  C   UNL     1       8.734   4.039  -0.242  1.00  0.00     0.039 C 
ATOM      2  C   UNL     1      10.203   4.075  -0.595  1.00  0.00    -0.070 C 
ATOM      3  C   UNL     1      10.933   5.225  -0.474  1.00  0.00    -0.006 C 
ATOM      4  C   UNL     1      10.290   6.521  -0.000  1.00  0.00     0.047 C 
ATOM      5  C   UNL     1      10.964   7.780  -0.601  1.00  0.00     0.025 C 
ATOM      6  C   UNL     1      10.385   9.114  -0.128  1.00  0.00    -0.073 C 
ATOM      7  C   UNL     1       9.372   9.227   0.752  1.00  0.00     0.008 C 
ATOM      8  C   UNL     1      10.984  10.356  -0.745  1.00  0.00     0.031 C 
ATOM      9  C   UNL     1      12.507  10.347  -0.588  1.00  0.00     0.005 C 
ATOM     10  C   UNL     1      13.123   9.032  -1.097  1.00  0.00     0.008 C 
ATOM     11  C   UNL     1      12.514   7.769  -0.416  1.00  0.00    -0.018 C 
ATOM     12  C   UNL     1      13.087   6.517  -1.124  1.00  0.00     0.088 C 
ATOM     13  C   UNL     1      12.412   5.253  -0.676  1.00  0.00     0.159 C 
ATOM     14  O   UNL     1      13.121   4.234  -0.464  1.00  0.00    -0.295 OA
ATOM     15  C   UNL     1      12.917   7.742   1.084  1.00  0.00     0.012 C 
ATOM     16  C   UNL     1      10.812   2.796  -1.121  1.00  0.00     0.039 C 
ENDROOT
TORSDOF 0
ENDMDL
MODEL 7
REMARK VINA RESULT:    -2.198      1.701      2.817
REMARK INTER + INTRA:          -2.198
REMARK INTER:                  -2.198
REMARK INTRA:                   0.000
REMARK UNBOUND:                 0.000
REMARK SMILES C=C1CCC[C@]2(C)CC(=O)C(=C(C)C)C[C@@H]12
REMARK SMILES IDX 13 1 12 2 11 3 15 4 16 5 2 6 1 7 3 8 4 9 5 10 6 11 8 12 9 13
REMARK SMILES IDX 10 14 7 15 14 16
REMARK H PARENT
REMARK Flexibility Score: inf
ROOT
ATOM      1  C   UNL     1       0.183  -3.774  16.273  1.00  0.00     0.039 C 
ATOM      2  C   UNL     1       0.140  -5.280  16.390  1.00  0.00    -0.070 C 
ATOM      3  C   UNL     1      -1.025  -5.937  16.672  1.00  0.00    -0.006 C 
ATOM      4  C   UNL     1      -2.323  -5.175  16.901  1.00  0.00     0.047 C 
ATOM      5  C   UNL     1      -3.280  -5.900  17.880  1.00  0.00     0.025 C 
ATOM      6  C   UNL     1      -4.619  -5.200  18.118  1.00  0.00    -0.073 C 
ATOM      7  C   UNL     1      -4.980  -4.044  17.530  1.00  0.00     0.008 C 
ATOM      8  C   UNL     1      -5.545  -5.855  19.115  1.00  0.00     0.031 C 
ATOM      9  C   UNL     1      -5.766  -7.326  18.751  1.00  0.00     0.005 C 
ATOM     10  C   UNL     1      -4.433  -8.067  18.549  1.00  0.00     0.008 C 
ATOM     11  C   UNL     1      -3.514  -7.392  17.487  1.00  0.00    -0.018 C 
ATOM     12  C   UNL     1      -2.150  -8.125  17.495  1.00  0.00     0.088 C 
ATOM     13  C   UNL     1      -1.125  -7.426  16.650  1.00  0.00     0.159 C 
ATOM     14  O   UNL     1      -0.371  -8.121  15.919  1.00  0.00    -0.295 OA
ATOM     15  C   UNL     1      -4.160  -7.524  16.080  1.00  0.00     0.012 C 
ATOM     16  C   UNL     1       1.449  -6.017  16.220  1.00  0.00     0.039 C 
ENDROOT
TORSDOF 0
ENDMDL
MODEL 8
REMARK VINA RESULT:    -1.977     17.953     20.232
REMARK INTER + INTRA:          -1.977
REMARK INTER:                  -1.977
REMARK INTRA:                   0.000
REMARK UNBOUND:                 0.000
REMARK SMILES C=C1CCC[C@]2(C)CC(=O)C(=C(C)C)C[C@@H]12
REMARK SMILES IDX 13 1 12 2 11 3 15 4 16 5 2 6 1 7 3 8 4 9 5 10 6 11 8 12 9 13
REMARK SMILES IDX 10 14 7 15 14 16
REMARK H PARENT
REMARK Flexibility Score: inf
ROOT
ATOM      1  C   UNL     1      13.123  -2.919  -1.125  1.00  0.00     0.039 C 
ATOM      2  C   UNL     1      12.704  -2.779   0.321  1.00  0.00    -0.070 C 
ATOM      3  C   UNL     1      12.148  -3.826   1.002  1.00  0.00    -0.006 C 
ATOM      4  C   UNL     1      11.908  -5.168   0.325  1.00  0.00     0.047 C 
ATOM      5  C   UNL     1      10.687  -5.924   0.908  1.00  0.00     0.025 C 
ATOM      6  C   UNL     1      10.422  -7.299   0.293  1.00  0.00    -0.073 C 
ATOM      7  C   UNL     1      11.175  -7.850  -0.676  1.00  0.00     0.008 C 
ATOM      8  C   UNL     1       9.201  -8.031   0.801  1.00  0.00     0.031 C 
ATOM      9  C   UNL     1       9.234  -8.124   2.329  1.00  0.00     0.005 C 
ATOM     10  C   UNL     1       9.457  -6.747   2.978  1.00  0.00     0.008 C 
ATOM     11  C   UNL     1      10.743  -6.031   2.464  1.00  0.00    -0.018 C 
ATOM     12  C   UNL     1      10.767  -4.601   3.057  1.00  0.00     0.088 C 
ATOM     13  C   UNL     1      11.860  -3.760   2.465  1.00  0.00     0.159 C 
ATOM     14  O   UNL     1      12.530  -3.017   3.231  1.00  0.00    -0.295 OA
ATOM     15  C   UNL     1      11.998  -6.809   2.945  1.00  0.00     0.012 C 
ATOM     16  C   UNL     1      12.893  -1.423   0.960  1.00  0.00     0.039 C 
ENDROOT
TORSDOF 0
ENDMDL
