MODEL 1
REMARK VINA RESULT:     2.478      0.000      0.000
REMARK INTER + INTRA:           5.353
REMARK INTER:                   6.533
REMARK INTRA:                  -1.180
REMARK UNBOUND:                -1.180
REMARK SMILES CCCCCCCCCCCCCCCCCCCCCCCCCCCCCC(=O)[O-]
REMARK SMILES IDX 16 1 17 2 18 3 19 4 20 5 21 6 22 7 23 8 24 9 25 10 26 11
REMARK SMILES IDX 27 12 28 13 29 14 30 15 31 16 32 17 15 18 14 19 13 20 12 21
REMARK SMILES IDX 11 22 10 23 9 24 8 25 7 26 6 27 5 28 4 29 3 30 2 31 1 32
REMARK H PARENT
REMARK Flexibility Score: inf
ROOT
ATOM      1  C   UNL     1      35.199  -5.883 -18.547  1.00  0.00     0.000 C 
ENDROOT
BRANCH   1   2
ATOM      2  C   UNL     1      34.053  -5.042 -17.950  1.00  0.00     0.000 C 
BRANCH   2   3
ATOM      3  C   UNL     1      33.392  -5.629 -16.688  1.00  0.00     0.000 C 
BRANCH   3   4
ATOM      4  C   UNL     1      31.958  -5.122 -16.473  1.00  0.00     0.000 C 
BRANCH   4   5
ATOM      5  C   UNL     1      31.152  -6.006 -15.502  1.00  0.00     0.000 C 
BRANCH   5   6
ATOM      6  C   UNL     1      30.304  -7.108 -16.169  1.00  0.00     0.000 C 
BRANCH   6   7
ATOM      7  C   UNL     1      29.698  -8.140 -15.199  1.00  0.00     0.000 C 
BRANCH   7   8
ATOM      8  C   UNL     1      30.129  -7.978 -13.728  1.00  0.00     0.000 C 
BRANCH   8   9
ATOM      9  C   UNL     1      29.029  -7.461 -12.781  1.00  0.00     0.000 C 
BRANCH   9  10
ATOM     10  C   UNL     1      28.668  -5.975 -12.951  1.00  0.00     0.000 C 
BRANCH  10  11
ATOM     11  C   UNL     1      29.904  -5.076 -13.133  1.00  0.00     0.000 C 
BRANCH  11  12
ATOM     12  C   UNL     1      30.754  -4.984 -11.856  1.00  0.00     0.000 C 
BRANCH  12  13
ATOM     13  C   UNL     1      32.174  -5.544 -12.055  1.00  0.00     0.006 C 
BRANCH  13  14
ATOM     14  C   UNL     1      32.453  -6.749 -11.146  1.00  0.00     0.053 C 
BRANCH  14  15
ATOM     15  C   UNL     1      32.809  -6.329  -9.753  1.00  0.00     0.041 C 
ATOM     16  O   UNL     1      33.706  -6.941  -9.116  1.00  0.00    -0.550 OA
ATOM     17  O   UNL     1      32.141  -5.266  -9.154  1.00  0.00    -0.550 OA
ENDBRANCH  14  15
ENDBRANCH  13  14
ENDBRANCH  12  13
ENDBRANCH  11  12
ENDBRANCH  10  11
ENDBRANCH   9  10
ENDBRANCH   8   9
ENDBRANCH   7   8
ENDBRANCH   6   7
ENDBRANCH   5   6
ENDBRANCH   4   5
ENDBRANCH   3   4
ENDBRANCH   2   3
ENDBRANCH   1   2
BRANCH   1  18
ATOM     18  C   UNL     1      36.603  -5.265 -18.417  1.00  0.00     0.000 C 
BRANCH  18  19
ATOM     19  C   UNL     1      36.822  -4.557 -17.071  1.00  0.00     0.000 C 
BRANCH  19  20
ATOM     20  C   UNL     1      37.594  -5.460 -16.098  1.00  0.00     0.000 C 
BRANCH  20  21
ATOM     21  C   UNL     1      37.604  -6.932 -16.541  1.00  0.00     0.000 C 
BRANCH  21  22
ATOM     22  C   UNL     1      38.991  -7.580 -16.409  1.00  0.00     0.000 C 
BRANCH  22  23
ATOM     23  C   UNL     1      39.469  -7.698 -14.952  1.00  0.00     0.000 C 
BRANCH  23  24
ATOM     24  C   UNL     1      39.371  -9.125 -14.368  1.00  0.00    -0.000 C 
BRANCH  24  25
ATOM     25  C   UNL     1      39.651  -9.238 -12.854  1.00  0.00    -0.000 C 
BRANCH  25  26
ATOM     26  C   UNL     1      39.781 -10.672 -12.298  1.00  0.00    -0.000 C 
BRANCH  26  27
ATOM     27  C   UNL     1      38.572 -11.589 -12.560  1.00  0.00    -0.000 C 
BRANCH  27  28
ATOM     28  C   UNL     1      38.934 -13.058 -12.849  1.00  0.00    -0.000 C 
BRANCH  28  29
ATOM     29  C   UNL     1      37.704 -13.969 -13.051  1.00  0.00    -0.000 C 
BRANCH  29  30
ATOM     30  C   UNL     1      37.174 -13.925 -14.494  1.00  0.00    -0.000 C 
BRANCH  30  31
ATOM     31  C   UNL     1      35.961 -12.994 -14.645  1.00  0.00    -0.003 C 
ATOM     32  C   UNL     1      35.201 -13.229 -15.950  1.00  0.00     0.004 C 
ENDBRANCH  30  31
ENDBRANCH  29  30
ENDBRANCH  28  29
ENDBRANCH  27  28
ENDBRANCH  26  27
ENDBRANCH  25  26
ENDBRANCH  24  25
ENDBRANCH  23  24
ENDBRANCH  22  23
ENDBRANCH  21  22
ENDBRANCH  20  21
ENDBRANCH  19  20
ENDBRANCH  18  19
ENDBRANCH   1  18
TORSDOF 28
ENDMDL
MODEL 2
REMARK VINA RESULT:     2.956      0.870      2.082
REMARK INTER + INTRA:           6.614
REMARK INTER:                   7.941
REMARK INTRA:                  -1.326
REMARK UNBOUND:                -1.180
REMARK SMILES CCCCCCCCCCCCCCCCCCCCCCCCCCCCCC(=O)[O-]
REMARK SMILES IDX 16 1 17 2 18 3 19 4 20 5 21 6 22 7 23 8 24 9 25 10 26 11
REMARK SMILES IDX 27 12 28 13 29 14 30 15 31 16 32 17 15 18 14 19 13 20 12 21
REMARK SMILES IDX 11 22 10 23 9 24 8 25 7 26 6 27 5 28 4 29 3 30 2 31 1 32
REMARK H PARENT
REMARK Flexibility Score: inf
ROOT
ATOM      1  C   UNL     1      36.768  -4.220 -17.328  1.00  0.00     0.000 C 
ENDROOT
BRANCH   1   2
ATOM      2  C   UNL     1      36.392  -5.022 -18.590  1.00  0.00     0.000 C 
BRANCH   2   3
ATOM      3  C   UNL     1      35.092  -5.841 -18.488  1.00  0.00     0.000 C 
BRANCH   3   4
ATOM      4  C   UNL     1      33.881  -4.992 -18.069  1.00  0.00     0.000 C 
BRANCH   4   5
ATOM      5  C   UNL     1      33.341  -5.370 -16.677  1.00  0.00     0.000 C 
BRANCH   5   6
ATOM      6  C   UNL     1      31.807  -5.312 -16.531  1.00  0.00     0.000 C 
BRANCH   6   7
ATOM      7  C   UNL     1      31.242  -6.037 -15.294  1.00  0.00     0.000 C 
BRANCH   7   8
ATOM      8  C   UNL     1      30.007  -6.917 -15.567  1.00  0.00     0.000 C 
BRANCH   8   9
ATOM      9  C   UNL     1      29.778  -8.051 -14.549  1.00  0.00     0.000 C 
BRANCH   9  10
ATOM     10  C   UNL     1      29.523  -7.588 -13.103  1.00  0.00     0.000 C 
BRANCH  10  11
ATOM     11  C   UNL     1      28.690  -6.296 -13.028  1.00  0.00     0.000 C 
BRANCH  11  12
ATOM     12  C   UNL     1      29.402  -5.184 -12.241  1.00  0.00     0.000 C 
BRANCH  12  13
ATOM     13  C   UNL     1      30.929  -5.217 -12.431  1.00  0.00     0.006 C 
BRANCH  13  14
ATOM     14  C   UNL     1      31.680  -5.193 -11.093  1.00  0.00     0.053 C 
BRANCH  14  15
ATOM     15  C   UNL     1      32.586  -6.376 -10.939  1.00  0.00     0.041 C 
ATOM     16  O   UNL     1      33.087  -6.648  -9.816  1.00  0.00    -0.550 OA
ATOM     17  O   UNL     1      32.886  -7.173 -12.038  1.00  0.00    -0.550 OA
ENDBRANCH  14  15
ENDBRANCH  13  14
ENDBRANCH  12  13
ENDBRANCH  11  12
ENDBRANCH  10  11
ENDBRANCH   9  10
ENDBRANCH   8   9
ENDBRANCH   7   8
ENDBRANCH   6   7
ENDBRANCH   5   6
ENDBRANCH   4   5
ENDBRANCH   3   4
ENDBRANCH   2   3
ENDBRANCH   1   2
BRANCH   1  18
ATOM     18  C   UNL     1      36.975  -5.058 -16.054  1.00  0.00     0.000 C 
BRANCH  18  19
ATOM     19  C   UNL     1      37.300  -6.530 -16.354  1.00  0.00     0.000 C 
BRANCH  19  20
ATOM     20  C   UNL     1      38.815  -6.741 -16.482  1.00  0.00     0.000 C 
BRANCH  20  21
ATOM     21  C   UNL     1      39.260  -8.128 -15.987  1.00  0.00     0.000 C 
BRANCH  21  22
ATOM     22  C   UNL     1      39.435  -8.184 -14.461  1.00  0.00     0.000 C 
BRANCH  22  23
ATOM     23  C   UNL     1      39.345  -9.611 -13.893  1.00  0.00     0.000 C 
BRANCH  23  24
ATOM     24  C   UNL     1      39.547  -9.697 -12.364  1.00  0.00    -0.000 C 
BRANCH  24  25
ATOM     25  C   UNL     1      39.684 -11.125 -11.796  1.00  0.00    -0.000 C 
BRANCH  25  26
ATOM     26  C   UNL     1      39.280 -12.271 -12.748  1.00  0.00    -0.000 C 
BRANCH  26  27
ATOM     27  C   UNL     1      38.061 -13.098 -12.298  1.00  0.00    -0.000 C 
BRANCH  27  28
ATOM     28  C   UNL     1      37.445 -13.980 -13.400  1.00  0.00    -0.000 C 
BRANCH  28  29
ATOM     29  C   UNL     1      37.091 -13.203 -14.687  1.00  0.00    -0.000 C 
BRANCH  29  30
ATOM     30  C   UNL     1      35.581 -12.940 -14.813  1.00  0.00    -0.000 C 
BRANCH  30  31
ATOM     31  C   UNL     1      34.973 -13.603 -16.059  1.00  0.00    -0.003 C 
ATOM     32  C   UNL     1      35.301 -12.844 -17.345  1.00  0.00     0.004 C 
ENDBRANCH  30  31
ENDBRANCH  29  30
ENDBRANCH  28  29
ENDBRANCH  27  28
ENDBRANCH  26  27
ENDBRANCH  25  26
ENDBRANCH  24  25
ENDBRANCH  23  24
ENDBRANCH  22  23
ENDBRANCH  21  22
ENDBRANCH  20  21
ENDBRANCH  19  20
ENDBRANCH  18  19
ENDBRANCH   1  18
TORSDOF 28
ENDMDL
MODEL 3
REMARK VINA RESULT:     3.150      4.090      8.980
REMARK INTER + INTRA:           7.126
REMARK INTER:                   7.684
REMARK INTRA:                  -0.557
REMARK UNBOUND:                -1.180
REMARK SMILES CCCCCCCCCCCCCCCCCCCCCCCCCCCCCC(=O)[O-]
REMARK SMILES IDX 16 1 17 2 18 3 19 4 20 5 21 6 22 7 23 8 24 9 25 10 26 11
REMARK SMILES IDX 27 12 28 13 29 14 30 15 31 16 32 17 15 18 14 19 13 20 12 21
REMARK SMILES IDX 11 22 10 23 9 24 8 25 7 26 6 27 5 28 4 29 3 30 2 31 1 32
REMARK H PARENT
REMARK Flexibility Score: inf
ROOT
ATOM      1  C   UNL     1      29.993  -7.980 -13.785  1.00  0.00     0.000 C 
ENDROOT
BRANCH   1   2
ATOM      2  C   UNL     1      29.607  -9.299 -14.485  1.00  0.00     0.000 C 
BRANCH   2   3
ATOM      3  C   UNL     1      29.476  -9.219 -16.017  1.00  0.00     0.000 C 
BRANCH   3   4
ATOM      4  C   UNL     1      29.572  -7.782 -16.552  1.00  0.00     0.000 C 
BRANCH   4   5
ATOM      5  C   UNL     1      30.903  -7.097 -16.189  1.00  0.00     0.000 C 
BRANCH   5   6
ATOM      6  C   UNL     1      30.796  -5.599 -15.841  1.00  0.00     0.000 C 
BRANCH   6   7
ATOM      7  C   UNL     1      32.017  -4.748 -16.241  1.00  0.00     0.000 C 
BRANCH   7   8
ATOM      8  C   UNL     1      33.224  -5.552 -16.763  1.00  0.00     0.000 C 
BRANCH   8   9
ATOM      9  C   UNL     1      33.708  -5.158 -18.172  1.00  0.00     0.000 C 
BRANCH   9  10
ATOM     10  C   UNL     1      35.065  -5.754 -18.586  1.00  0.00     0.000 C 
BRANCH  10  11
ATOM     11  C   UNL     1      36.175  -4.695 -18.696  1.00  0.00     0.000 C 
BRANCH  11  12
ATOM     12  C   UNL     1      36.278  -3.819 -17.436  1.00  0.00     0.000 C 
BRANCH  12  13
ATOM     13  C   UNL     1      36.777  -4.608 -16.213  1.00  0.00     0.006 C 
BRANCH  13  14
ATOM     14  C   UNL     1      38.096  -5.339 -16.495  1.00  0.00     0.053 C 
BRANCH  14  15
ATOM     15  C   UNL     1      37.935  -6.828 -16.438  1.00  0.00     0.041 C 
ATOM     16  O   UNL     1      38.909  -7.560 -16.121  1.00  0.00    -0.550 OA
ATOM     17  O   UNL     1      36.708  -7.408 -16.744  1.00  0.00    -0.550 OA
ENDBRANCH  14  15
ENDBRANCH  13  14
ENDBRANCH  12  13
ENDBRANCH  11  12
ENDBRANCH  10  11
ENDBRANCH   9  10
ENDBRANCH   8   9
ENDBRANCH   7   8
ENDBRANCH   6   7
ENDBRANCH   5   6
ENDBRANCH   4   5
ENDBRANCH   3   4
ENDBRANCH   2   3
ENDBRANCH   1   2
BRANCH   1  18
ATOM     18  C   UNL     1      29.196  -7.655 -12.510  1.00  0.00     0.000 C 
BRANCH  18  19
ATOM     19  C   UNL     1      28.403  -6.343 -12.618  1.00  0.00     0.000 C 
BRANCH  19  20
ATOM     20  C   UNL     1      29.301  -5.201 -13.115  1.00  0.00     0.000 C 
BRANCH  20  21
ATOM     21  C   UNL     1      30.568  -5.033 -12.259  1.00  0.00     0.000 C 
BRANCH  21  22
ATOM     22  C   UNL     1      31.793  -5.728 -12.874  1.00  0.00     0.000 C 
BRANCH  22  23
ATOM     23  C   UNL     1      32.968  -5.866 -11.891  1.00  0.00     0.000 C 
BRANCH  23  24
ATOM     24  C   UNL     1      32.822  -7.033 -10.890  1.00  0.00    -0.000 C 
BRANCH  24  25
ATOM     25  C   UNL     1      32.963  -6.647  -9.402  1.00  0.00    -0.000 C 
BRANCH  25  26
ATOM     26  C   UNL     1      32.639  -5.179  -9.052  1.00  0.00    -0.000 C 
BRANCH  26  27
ATOM     27  C   UNL     1      31.149  -4.878  -8.807  1.00  0.00    -0.000 C 
BRANCH  27  28
ATOM     28  C   UNL     1      30.838  -4.275  -7.424  1.00  0.00    -0.000 C 
BRANCH  28  29
ATOM     29  C   UNL     1      29.496  -3.512  -7.370  1.00  0.00    -0.000 C 
BRANCH  29  30
ATOM     30  C   UNL     1      28.544  -3.924  -8.505  1.00  0.00    -0.000 C 
BRANCH  30  31
ATOM     31  C   UNL     1      27.586  -2.792  -8.907  1.00  0.00    -0.003 C 
ATOM     32  C   UNL     1      27.752  -2.376 -10.369  1.00  0.00     0.004 C 
ENDBRANCH  30  31
ENDBRANCH  29  30
ENDBRANCH  28  29
ENDBRANCH  27  28
ENDBRANCH  26  27
ENDBRANCH  25  26
ENDBRANCH  24  25
ENDBRANCH  23  24
ENDBRANCH  22  23
ENDBRANCH  21  22
ENDBRANCH  20  21
ENDBRANCH  19  20
ENDBRANCH  18  19
ENDBRANCH   1  18
TORSDOF 28
ENDMDL
MODEL 4
REMARK VINA RESULT:     3.186      2.342      8.888
REMARK INTER + INTRA:           7.220
REMARK INTER:                   8.589
REMARK INTRA:                  -1.368
REMARK UNBOUND:                -1.180
REMARK SMILES CCCCCCCCCCCCCCCCCCCCCCCCCCCCCC(=O)[O-]
REMARK SMILES IDX 16 1 17 2 18 3 19 4 20 5 21 6 22 7 23 8 24 9 25 10 26 11
REMARK SMILES IDX 27 12 28 13 29 14 30 15 31 16 32 17 15 18 14 19 13 20 12 21
REMARK SMILES IDX 11 22 10 23 9 24 8 25 7 26 6 27 5 28 4 29 3 30 2 31 1 32
REMARK H PARENT
REMARK Flexibility Score: inf
ROOT
ATOM      1  C   UNL     1      35.374  -4.441 -17.110  1.00  0.00     0.000 C 
ENDROOT
BRANCH   1   2
ATOM      2  C   UNL     1      36.725  -4.254 -17.830  1.00  0.00     0.000 C 
BRANCH   2   3
ATOM      3  C   UNL     1      37.502  -5.550 -18.124  1.00  0.00     0.000 C 
BRANCH   3   4
ATOM      4  C   UNL     1      37.274  -6.638 -17.062  1.00  0.00     0.000 C 
BRANCH   4   5
ATOM      5  C   UNL     1      38.223  -6.503 -15.857  1.00  0.00     0.000 C 
BRANCH   5   6
ATOM      6  C   UNL     1      39.379  -7.523 -15.815  1.00  0.00     0.000 C 
BRANCH   6   7
ATOM      7  C   UNL     1      39.079  -8.818 -15.036  1.00  0.00     0.000 C 
BRANCH   7   8
ATOM      8  C   UNL     1      39.859  -8.976 -13.717  1.00  0.00     0.000 C 
BRANCH   8   9
ATOM      9  C   UNL     1      39.119  -9.756 -12.612  1.00  0.00     0.000 C 
BRANCH   9  10
ATOM     10  C   UNL     1      39.897 -10.945 -12.022  1.00  0.00     0.000 C 
BRANCH  10  11
ATOM     11  C   UNL     1      39.067 -12.241 -11.982  1.00  0.00     0.000 C 
BRANCH  11  12
ATOM     12  C   UNL     1      38.655 -12.717 -13.384  1.00  0.00     0.000 C 
BRANCH  12  13
ATOM     13  C   UNL     1      37.212 -13.250 -13.422  1.00  0.00     0.006 C 
BRANCH  13  14
ATOM     14  C   UNL     1      36.805 -13.719 -14.825  1.00  0.00     0.053 C 
BRANCH  14  15
ATOM     15  C   UNL     1      35.577 -13.015 -15.316  1.00  0.00     0.041 C 
ATOM     16  O   UNL     1      34.823 -12.416 -14.505  1.00  0.00    -0.550 OA
ATOM     17  O   UNL     1      35.261 -13.028 -16.671  1.00  0.00    -0.550 OA
ENDBRANCH  14  15
ENDBRANCH  13  14
ENDBRANCH  12  13
ENDBRANCH  11  12
ENDBRANCH  10  11
ENDBRANCH   9  10
ENDBRANCH   8   9
ENDBRANCH   7   8
ENDBRANCH   6   7
ENDBRANCH   5   6
ENDBRANCH   4   5
ENDBRANCH   3   4
ENDBRANCH   2   3
ENDBRANCH   1   2
BRANCH   1  18
ATOM     18  C   UNL     1      34.208  -4.891 -18.009  1.00  0.00     0.000 C 
BRANCH  18  19
ATOM     19  C   UNL     1      33.215  -5.813 -17.283  1.00  0.00     0.000 C 
BRANCH  19  20
ATOM     20  C   UNL     1      32.559  -5.086 -16.100  1.00  0.00     0.000 C 
BRANCH  20  21
ATOM     21  C   UNL     1      31.129  -5.582 -15.825  1.00  0.00     0.000 C 
BRANCH  21  22
ATOM     22  C   UNL     1      30.957  -7.081 -16.117  1.00  0.00     0.000 C 
BRANCH  22  23
ATOM     23  C   UNL     1      29.564  -7.616 -15.740  1.00  0.00     0.000 C 
BRANCH  23  24
ATOM     24  C   UNL     1      29.540  -8.464 -14.450  1.00  0.00    -0.000 C 
BRANCH  24  25
ATOM     25  C   UNL     1      29.553  -7.660 -13.132  1.00  0.00    -0.000 C 
BRANCH  25  26
ATOM     26  C   UNL     1      28.850  -6.287 -13.173  1.00  0.00    -0.000 C 
BRANCH  26  27
ATOM     27  C   UNL     1      29.785  -5.068 -13.063  1.00  0.00    -0.000 C 
BRANCH  27  28
ATOM     28  C   UNL     1      30.796  -5.141 -11.904  1.00  0.00    -0.000 C 
BRANCH  28  29
ATOM     29  C   UNL     1      31.809  -6.299 -12.039  1.00  0.00    -0.000 C 
BRANCH  29  30
ATOM     30  C   UNL     1      33.065  -6.080 -11.179  1.00  0.00    -0.000 C 
BRANCH  30  31
ATOM     31  C   UNL     1      32.801  -6.324  -9.685  1.00  0.00    -0.003 C 
ATOM     32  C   UNL     1      33.720  -7.394  -9.095  1.00  0.00     0.004 C 
ENDBRANCH  30  31
ENDBRANCH  29  30
ENDBRANCH  28  29
ENDBRANCH  27  28
ENDBRANCH  26  27
ENDBRANCH  25  26
ENDBRANCH  24  25
ENDBRANCH  23  24
ENDBRANCH  22  23
ENDBRANCH  21  22
ENDBRANCH  20  21
ENDBRANCH  19  20
ENDBRANCH  18  19
ENDBRANCH   1  18
TORSDOF 28
ENDMDL
MODEL 5
REMARK VINA RESULT:     3.373      3.639      6.972
REMARK INTER + INTRA:           7.714
REMARK INTER:                   9.330
REMARK INTRA:                  -1.616
REMARK UNBOUND:                -1.180
REMARK SMILES CCCCCCCCCCCCCCCCCCCCCCCCCCCCCC(=O)[O-]
REMARK SMILES IDX 16 1 17 2 18 3 19 4 20 5 21 6 22 7 23 8 24 9 25 10 26 11
REMARK SMILES IDX 27 12 28 13 29 14 30 15 31 16 32 17 15 18 14 19 13 20 12 21
REMARK SMILES IDX 11 22 10 23 9 24 8 25 7 26 6 27 5 28 4 29 3 30 2 31 1 32
REMARK H PARENT
REMARK Flexibility Score: inf
ROOT
ATOM      1  C   UNL     1      30.189  -8.585 -13.809  1.00  0.00     0.000 C 
ENDROOT
BRANCH   1   2
ATOM      2  C   UNL     1      29.172  -8.468 -12.656  1.00  0.00     0.000 C 
BRANCH   2   3
ATOM      3  C   UNL     1      28.980  -7.050 -12.086  1.00  0.00     0.000 C 
BRANCH   3   4
ATOM      4  C   UNL     1      28.614  -6.017 -13.164  1.00  0.00     0.000 C 
BRANCH   4   5
ATOM      5  C   UNL     1      29.668  -4.903 -13.306  1.00  0.00     0.000 C 
BRANCH   5   6
ATOM      6  C   UNL     1      30.746  -4.875 -12.204  1.00  0.00     0.000 C 
BRANCH   6   7
ATOM      7  C   UNL     1      32.002  -5.716 -12.499  1.00  0.00     0.000 C 
BRANCH   7   8
ATOM      8  C   UNL     1      32.376  -6.731 -11.401  1.00  0.00     0.000 C 
BRANCH   8   9
ATOM      9  C   UNL     1      33.170  -6.145 -10.217  1.00  0.00     0.000 C 
BRANCH   9  10
ATOM     10  C   UNL     1      32.366  -5.968  -8.916  1.00  0.00     0.000 C 
BRANCH  10  11
ATOM     11  C   UNL     1      31.353  -4.812  -8.992  1.00  0.00     0.000 C 
BRANCH  11  12
ATOM     12  C   UNL     1      30.896  -4.340  -7.603  1.00  0.00     0.000 C 
BRANCH  12  13
ATOM     13  C   UNL     1      29.432  -3.867  -7.595  1.00  0.00     0.006 C 
BRANCH  13  14
ATOM     14  C   UNL     1      28.760  -4.042  -8.964  1.00  0.00     0.053 C 
BRANCH  14  15
ATOM     15  C   UNL     1      27.882  -2.879  -9.309  1.00  0.00     0.041 C 
ATOM     16  O   UNL     1      27.615  -2.620 -10.512  1.00  0.00    -0.550 OA
ATOM     17  O   UNL     1      27.364  -2.073  -8.300  1.00  0.00    -0.550 OA
ENDBRANCH  14  15
ENDBRANCH  13  14
ENDBRANCH  12  13
ENDBRANCH  11  12
ENDBRANCH  10  11
ENDBRANCH   9  10
ENDBRANCH   8   9
ENDBRANCH   7   8
ENDBRANCH   6   7
ENDBRANCH   5   6
ENDBRANCH   4   5
ENDBRANCH   3   4
ENDBRANCH   2   3
ENDBRANCH   1   2
BRANCH   1  18
ATOM     18  C   UNL     1      29.616  -9.107 -15.139  1.00  0.00     0.000 C 
BRANCH  18  19
ATOM     19  C   UNL     1      29.508  -8.012 -16.212  1.00  0.00     0.000 C 
BRANCH  19  20
ATOM     20  C   UNL     1      30.781  -7.156 -16.253  1.00  0.00     0.000 C 
BRANCH  20  21
ATOM     21  C   UNL     1      30.532  -5.708 -15.799  1.00  0.00     0.000 C 
BRANCH  21  22
ATOM     22  C   UNL     1      31.705  -4.773 -16.133  1.00  0.00     0.000 C 
BRANCH  22  23
ATOM     23  C   UNL     1      32.958  -5.522 -16.620  1.00  0.00     0.000 C 
BRANCH  23  24
ATOM     24  C   UNL     1      33.601  -4.921 -17.890  1.00  0.00    -0.000 C 
BRANCH  24  25
ATOM     25  C   UNL     1      34.308  -5.935 -18.814  1.00  0.00    -0.000 C 
BRANCH  25  26
ATOM     26  C   UNL     1      35.851  -5.906 -18.792  1.00  0.00    -0.000 C 
BRANCH  26  27
ATOM     27  C   UNL     1      36.478  -4.501 -18.726  1.00  0.00    -0.000 C 
BRANCH  27  28
ATOM     28  C   UNL     1      36.560  -3.904 -17.309  1.00  0.00    -0.000 C 
BRANCH  28  29
ATOM     29  C   UNL     1      36.446  -4.959 -16.187  1.00  0.00    -0.000 C 
BRANCH  29  30
ATOM     30  C   UNL     1      37.811  -5.559 -15.808  1.00  0.00    -0.000 C 
BRANCH  30  31
ATOM     31  C   UNL     1      38.036  -6.944 -16.434  1.00  0.00    -0.003 C 
ATOM     32  C   UNL     1      39.494  -7.395 -16.348  1.00  0.00     0.004 C 
ENDBRANCH  30  31
ENDBRANCH  29  30
ENDBRANCH  28  29
ENDBRANCH  27  28
ENDBRANCH  26  27
ENDBRANCH  25  26
ENDBRANCH  24  25
ENDBRANCH  23  24
ENDBRANCH  22  23
ENDBRANCH  21  22
ENDBRANCH  20  21
ENDBRANCH  19  20
ENDBRANCH  18  19
ENDBRANCH   1  18
TORSDOF 28
ENDMDL
MODEL 6
REMARK VINA RESULT:     3.466      3.947      7.882
REMARK INTER + INTRA:           7.959
REMARK INTER:                   8.970
REMARK INTRA:                  -1.011
REMARK UNBOUND:                -1.180
REMARK SMILES CCCCCCCCCCCCCCCCCCCCCCCCCCCCCC(=O)[O-]
REMARK SMILES IDX 16 1 17 2 18 3 19 4 20 5 21 6 22 7 23 8 24 9 25 10 26 11
REMARK SMILES IDX 27 12 28 13 29 14 30 15 31 16 32 17 15 18 14 19 13 20 12 21
REMARK SMILES IDX 11 22 10 23 9 24 8 25 7 26 6 27 5 28 4 29 3 30 2 31 1 32
REMARK H PARENT
REMARK Flexibility Score: inf
ROOT
ATOM      1  C   UNL     1      31.542  -5.363  -9.461  1.00  0.00     0.000 C 
ENDROOT
BRANCH   1   2
ATOM      2  C   UNL     1      31.774  -4.557  -8.167  1.00  0.00     0.000 C 
BRANCH   2   3
ATOM      3  C   UNL     1      30.603  -4.565  -7.166  1.00  0.00     0.000 C 
BRANCH   3   4
ATOM      4  C   UNL     1      29.604  -3.423  -7.405  1.00  0.00     0.000 C 
BRANCH   4   5
ATOM      5  C   UNL     1      28.411  -3.847  -8.281  1.00  0.00     0.000 C 
BRANCH   5   6
ATOM      6  C   UNL     1      27.826  -2.736  -9.177  1.00  0.00     0.000 C 
BRANCH   6   7
ATOM      7  C   UNL     1      27.901  -3.012 -10.690  1.00  0.00     0.000 C 
BRANCH   7   8
ATOM      8  C   UNL     1      28.341  -4.440 -11.068  1.00  0.00     0.000 C 
BRANCH   8   9
ATOM      9  C   UNL     1      29.026  -4.568 -12.442  1.00  0.00     0.000 C 
BRANCH   9  10
ATOM     10  C   UNL     1      28.590  -5.784 -13.278  1.00  0.00     0.000 C 
BRANCH  10  11
ATOM     11  C   UNL     1      28.744  -7.115 -12.521  1.00  0.00     0.000 C 
BRANCH  11  12
ATOM     12  C   UNL     1      29.667  -8.103 -13.253  1.00  0.00     0.000 C 
BRANCH  12  13
ATOM     13  C   UNL     1      29.555  -7.986 -14.783  1.00  0.00     0.006 C 
BRANCH  13  14
ATOM     14  C   UNL     1      29.937  -9.292 -15.493  1.00  0.00     0.053 C 
BRANCH  14  15
ATOM     15  C   UNL     1      29.566  -9.269 -16.944  1.00  0.00     0.041 C 
ATOM     16  O   UNL     1      30.402  -9.619 -17.818  1.00  0.00    -0.550 OA
ATOM     17  O   UNL     1      28.297  -8.852 -17.333  1.00  0.00    -0.550 OA
ENDBRANCH  14  15
ENDBRANCH  13  14
ENDBRANCH  12  13
ENDBRANCH  11  12
ENDBRANCH  10  11
ENDBRANCH   9  10
ENDBRANCH   8   9
ENDBRANCH   7   8
ENDBRANCH   6   7
ENDBRANCH   5   6
ENDBRANCH   4   5
ENDBRANCH   3   4
ENDBRANCH   2   3
ENDBRANCH   1   2
BRANCH   1  18
ATOM     18  C   UNL     1      32.711  -6.268  -9.889  1.00  0.00     0.000 C 
BRANCH  18  19
ATOM     19  C   UNL     1      32.614  -6.716 -11.355  1.00  0.00     0.000 C 
BRANCH  19  20
ATOM     20  C   UNL     1      32.135  -5.564 -12.249  1.00  0.00     0.000 C 
BRANCH  20  21
ATOM     21  C   UNL     1      32.215  -5.907 -13.746  1.00  0.00     0.000 C 
BRANCH  21  22
ATOM     22  C   UNL     1      31.090  -5.254 -14.564  1.00  0.00     0.000 C 
BRANCH  22  23
ATOM     23  C   UNL     1      31.400  -5.178 -16.069  1.00  0.00     0.000 C 
BRANCH  23  24
ATOM     24  C   UNL     1      32.705  -5.893 -16.483  1.00  0.00    -0.000 C 
BRANCH  24  25
ATOM     25  C   UNL     1      33.629  -5.088 -17.421  1.00  0.00    -0.000 C 
BRANCH  25  26
ATOM     26  C   UNL     1      34.529  -5.921 -18.359  1.00  0.00    -0.000 C 
BRANCH  26  27
ATOM     27  C   UNL     1      35.856  -5.249 -18.760  1.00  0.00    -0.000 C 
BRANCH  27  28
ATOM     28  C   UNL     1      36.418  -4.268 -17.714  1.00  0.00    -0.000 C 
BRANCH  28  29
ATOM     29  C   UNL     1      36.415  -4.832 -16.276  1.00  0.00    -0.000 C 
BRANCH  29  30
ATOM     30  C   UNL     1      37.766  -5.459 -15.892  1.00  0.00    -0.000 C 
BRANCH  30  31
ATOM     31  C   UNL     1      38.169  -6.605 -16.835  1.00  0.00    -0.003 C 
ATOM     32  C   UNL     1      39.076  -7.631 -16.155  1.00  0.00     0.004 C 
ENDBRANCH  30  31
ENDBRANCH  29  30
ENDBRANCH  28  29
ENDBRANCH  27  28
ENDBRANCH  26  27
ENDBRANCH  25  26
ENDBRANCH  24  25
ENDBRANCH  23  24
ENDBRANCH  22  23
ENDBRANCH  21  22
ENDBRANCH  20  21
ENDBRANCH  19  20
ENDBRANCH  18  19
ENDBRANCH   1  18
TORSDOF 28
ENDMDL
MODEL 7
REMARK VINA RESULT:     3.505      6.003     11.589
REMARK INTER + INTRA:           8.063
REMARK INTER:                   9.027
REMARK INTRA:                  -0.965
REMARK UNBOUND:                -1.180
REMARK SMILES CCCCCCCCCCCCCCCCCCCCCCCCCCCCCC(=O)[O-]
REMARK SMILES IDX 16 1 17 2 18 3 19 4 20 5 21 6 22 7 23 8 24 9 25 10 26 11
REMARK SMILES IDX 27 12 28 13 29 14 30 15 31 16 32 17 15 18 14 19 13 20 12 21
REMARK SMILES IDX 11 22 10 23 9 24 8 25 7 26 6 27 5 28 4 29 3 30 2 31 1 32
REMARK H PARENT
REMARK Flexibility Score: inf
ROOT
ATOM      1  C   UNL     1      30.706  -4.926 -11.883  1.00  0.00     0.000 C 
ENDROOT
BRANCH   1   2
ATOM      2  C   UNL     1      29.786  -4.880 -13.120  1.00  0.00     0.000 C 
BRANCH   2   3
ATOM      3  C   UNL     1      28.558  -5.807 -13.064  1.00  0.00     0.000 C 
BRANCH   3   4
ATOM      4  C   UNL     1      28.922  -7.263 -12.735  1.00  0.00     0.000 C 
BRANCH   4   5
ATOM      5  C   UNL     1      30.078  -7.799 -13.599  1.00  0.00     0.000 C 
BRANCH   5   6
ATOM      6  C   UNL     1      29.671  -8.819 -14.681  1.00  0.00     0.000 C 
BRANCH   6   7
ATOM      7  C   UNL     1      29.676  -8.277 -16.123  1.00  0.00     0.000 C 
BRANCH   7   8
ATOM      8  C   UNL     1      30.911  -7.431 -16.492  1.00  0.00     0.000 C 
BRANCH   8   9
ATOM      9  C   UNL     1      31.009  -6.074 -15.767  1.00  0.00     0.000 C 
BRANCH   9  10
ATOM     10  C   UNL     1      32.044  -5.096 -16.352  1.00  0.00     0.000 C 
BRANCH  10  11
ATOM     11  C   UNL     1      33.352  -5.790 -16.771  1.00  0.00     0.000 C 
BRANCH  11  12
ATOM     12  C   UNL     1      34.011  -5.115 -17.985  1.00  0.00     0.000 C 
BRANCH  12  13
ATOM     13  C   UNL     1      35.322  -4.398 -17.617  1.00  0.00     0.006 C 
BRANCH  13  14
ATOM     14  C   UNL     1      36.057  -5.092 -16.462  1.00  0.00     0.053 C 
BRANCH  14  15
ATOM     15  C   UNL     1      37.194  -5.937 -16.950  1.00  0.00     0.041 C 
ATOM     16  O   UNL     1      37.821  -6.680 -16.149  1.00  0.00    -0.550 OA
ATOM     17  O   UNL     1      37.567  -5.898 -18.289  1.00  0.00    -0.550 OA
ENDBRANCH  14  15
ENDBRANCH  13  14
ENDBRANCH  12  13
ENDBRANCH  11  12
ENDBRANCH  10  11
ENDBRANCH   9  10
ENDBRANCH   8   9
ENDBRANCH   7   8
ENDBRANCH   6   7
ENDBRANCH   5   6
ENDBRANCH   4   5
ENDBRANCH   3   4
ENDBRANCH   2   3
ENDBRANCH   1   2
BRANCH   1  18
ATOM     18  C   UNL     1      32.053  -5.641 -12.093  1.00  0.00     0.000 C 
BRANCH  18  19
ATOM     19  C   UNL     1      32.506  -6.436 -10.859  1.00  0.00     0.000 C 
BRANCH  19  20
ATOM     20  C   UNL     1      32.816  -5.496  -9.685  1.00  0.00     0.000 C 
BRANCH  20  21
ATOM     21  C   UNL     1      31.771  -5.593  -8.561  1.00  0.00     0.000 C 
BRANCH  21  22
ATOM     22  C   UNL     1      31.199  -4.223  -8.165  1.00  0.00     0.000 C 
BRANCH  22  23
ATOM     23  C   UNL     1      30.517  -4.226  -6.786  1.00  0.00     0.000 C 
BRANCH  23  24
ATOM     24  C   UNL     1      30.789  -2.961  -5.943  1.00  0.00    -0.000 C 
BRANCH  24  25
ATOM     25  C   UNL     1      30.378  -3.057  -4.458  1.00  0.00    -0.000 C 
BRANCH  25  26
ATOM     26  C   UNL     1      29.886  -1.746  -3.808  1.00  0.00    -0.000 C 
BRANCH  26  27
ATOM     27  C   UNL     1      29.075  -1.923  -2.511  1.00  0.00    -0.000 C 
BRANCH  27  28
ATOM     28  C   UNL     1      27.761  -1.121  -2.465  1.00  0.00    -0.000 C 
BRANCH  28  29
ATOM     29  C   UNL     1      26.874  -1.457  -1.246  1.00  0.00    -0.000 C 
BRANCH  29  30
ATOM     30  C   UNL     1      25.739  -2.433  -1.601  1.00  0.00    -0.000 C 
BRANCH  30  31
ATOM     31  C   UNL     1      24.897  -2.822  -0.375  1.00  0.00    -0.003 C 
ATOM     32  C   UNL     1      25.092  -1.862   0.798  1.00  0.00     0.004 C 
ENDBRANCH  30  31
ENDBRANCH  29  30
ENDBRANCH  28  29
ENDBRANCH  27  28
ENDBRANCH  26  27
ENDBRANCH  25  26
ENDBRANCH  24  25
ENDBRANCH  23  24
ENDBRANCH  22  23
ENDBRANCH  21  22
ENDBRANCH  20  21
ENDBRANCH  19  20
ENDBRANCH  18  19
ENDBRANCH   1  18
TORSDOF 28
ENDMDL
MODEL 8
REMARK VINA RESULT:     3.638      4.286      8.631
REMARK INTER + INTRA:           8.414
REMARK INTER:                   9.499
REMARK INTRA:                  -1.085
REMARK UNBOUND:                -1.180
REMARK SMILES CCCCCCCCCCCCCCCCCCCCCCCCCCCCCC(=O)[O-]
REMARK SMILES IDX 16 1 17 2 18 3 19 4 20 5 21 6 22 7 23 8 24 9 25 10 26 11
REMARK SMILES IDX 27 12 28 13 29 14 30 15 31 16 32 17 15 18 14 19 13 20 12 21
REMARK SMILES IDX 11 22 10 23 9 24 8 25 7 26 6 27 5 28 4 29 3 30 2 31 1 32
REMARK H PARENT
REMARK Flexibility Score: inf
ROOT
ATOM      1  C   UNL     1      28.277  -3.247  -8.503  1.00  0.00     0.000 C 
ENDROOT
BRANCH   1   2
ATOM      2  C   UNL     1      27.419  -3.208  -9.783  1.00  0.00     0.000 C 
BRANCH   2   3
ATOM      3  C   UNL     1      28.189  -2.925 -11.086  1.00  0.00     0.000 C 
BRANCH   3   4
ATOM      4  C   UNL     1      28.791  -4.192 -11.713  1.00  0.00     0.000 C 
BRANCH   4   5
ATOM      5  C   UNL     1      29.743  -3.885 -12.884  1.00  0.00     0.000 C 
BRANCH   5   6
ATOM      6  C   UNL     1      29.936  -5.035 -13.892  1.00  0.00     0.000 C 
BRANCH   6   7
ATOM      7  C   UNL     1      30.635  -4.640 -15.207  1.00  0.00     0.000 C 
BRANCH   7   8
ATOM      8  C   UNL     1      31.640  -5.678 -15.743  1.00  0.00     0.000 C 
BRANCH   8   9
ATOM      9  C   UNL     1      32.685  -5.121 -16.730  1.00  0.00     0.000 C 
BRANCH   9  10
ATOM     10  C   UNL     1      33.717  -6.146 -17.234  1.00  0.00     0.000 C 
BRANCH  10  11
ATOM     11  C   UNL     1      34.573  -5.611 -18.395  1.00  0.00     0.000 C 
BRANCH  11  12
ATOM     12  C   UNL     1      35.039  -4.165 -18.162  1.00  0.00     0.000 C 
BRANCH  12  13
ATOM     13  C   UNL     1      36.524  -4.084 -17.764  1.00  0.00     0.006 C 
BRANCH  13  14
ATOM     14  C   UNL     1      37.241  -5.431 -17.928  1.00  0.00     0.053 C 
BRANCH  14  15
ATOM     15  C   UNL     1      37.539  -6.071 -16.607  1.00  0.00     0.041 C 
ATOM     16  O   UNL     1      36.875  -5.754 -15.585  1.00  0.00    -0.550 OA
ATOM     17  O   UNL     1      38.557  -7.013 -16.502  1.00  0.00    -0.550 OA
ENDBRANCH  14  15
ENDBRANCH  13  14
ENDBRANCH  12  13
ENDBRANCH  11  12
ENDBRANCH  10  11
ENDBRANCH   9  10
ENDBRANCH   8   9
ENDBRANCH   7   8
ENDBRANCH   6   7
ENDBRANCH   5   6
ENDBRANCH   4   5
ENDBRANCH   3   4
ENDBRANCH   2   3
ENDBRANCH   1   2
BRANCH   1  18
ATOM     18  C   UNL     1      29.311  -4.386  -8.440  1.00  0.00     0.000 C 
BRANCH  18  19
ATOM     19  C   UNL     1      30.578  -4.000  -7.660  1.00  0.00     0.000 C 
BRANCH  19  20
ATOM     20  C   UNL     1      31.767  -4.875  -8.081  1.00  0.00     0.000 C 
BRANCH  20  21
ATOM     21  C   UNL     1      31.745  -5.218  -9.580  1.00  0.00     0.000 C 
BRANCH  21  22
ATOM     22  C   UNL     1      32.598  -6.452  -9.917  1.00  0.00     0.000 C 
BRANCH  22  23
ATOM     23  C   UNL     1      32.955  -6.552 -11.410  1.00  0.00     0.000 C 
BRANCH  23  24
ATOM     24  C   UNL     1      31.735  -6.512 -12.356  1.00  0.00    -0.000 C 
BRANCH  24  25
ATOM     25  C   UNL     1      30.604  -7.507 -12.017  1.00  0.00    -0.000 C 
BRANCH  25  26
ATOM     26  C   UNL     1      29.558  -7.743 -13.127  1.00  0.00    -0.000 C 
BRANCH  26  27
ATOM     27  C   UNL     1      29.969  -8.760 -14.208  1.00  0.00    -0.000 C 
BRANCH  27  28
ATOM     28  C   UNL     1      29.502  -8.403 -15.632  1.00  0.00    -0.000 C 
BRANCH  28  29
ATOM     29  C   UNL     1      30.364  -9.043 -16.743  1.00  0.00    -0.000 C 
BRANCH  29  30
ATOM     30  C   UNL     1      29.511  -9.613 -17.888  1.00  0.00    -0.000 C 
BRANCH  30  31
ATOM     31  C   UNL     1      28.266  -8.758 -18.173  1.00  0.00    -0.003 C 
ATOM     32  C   UNL     1      27.244  -9.485 -19.047  1.00  0.00     0.004 C 
ENDBRANCH  30  31
ENDBRANCH  29  30
ENDBRANCH  28  29
ENDBRANCH  27  28
ENDBRANCH  26  27
ENDBRANCH  25  26
ENDBRANCH  24  25
ENDBRANCH  23  24
ENDBRANCH  22  23
ENDBRANCH  21  22
ENDBRANCH  20  21
ENDBRANCH  19  20
ENDBRANCH  18  19
ENDBRANCH   1  18
TORSDOF 28
ENDMDL
MODEL 9
REMARK VINA RESULT:     3.715      6.249     10.004
REMARK INTER + INTRA:           8.617
REMARK INTER:                   9.221
REMARK INTRA:                  -0.604
REMARK UNBOUND:                -1.180
REMARK SMILES CCCCCCCCCCCCCCCCCCCCCCCCCCCCCC(=O)[O-]
REMARK SMILES IDX 16 1 17 2 18 3 19 4 20 5 21 6 22 7 23 8 24 9 25 10 26 11
REMARK SMILES IDX 27 12 28 13 29 14 30 15 31 16 32 17 15 18 14 19 13 20 12 21
REMARK SMILES IDX 11 22 10 23 9 24 8 25 7 26 6 27 5 28 4 29 3 30 2 31 1 32
REMARK H PARENT
REMARK Flexibility Score: inf
ROOT
ATOM      1  C   UNL     1      31.494  -6.521 -12.002  1.00  0.00     0.000 C 
ENDROOT
BRANCH   1   2
ATOM      2  C   UNL     1      32.653  -5.906 -11.191  1.00  0.00     0.000 C 
BRANCH   2   3
ATOM      3  C   UNL     1      32.560  -6.087  -9.665  1.00  0.00     0.000 C 
BRANCH   3   4
ATOM      4  C   UNL     1      32.245  -4.777  -8.925  1.00  0.00     0.000 C 
BRANCH   4   5
ATOM      5  C   UNL     1      30.935  -4.847  -8.119  1.00  0.00     0.000 C 
BRANCH   5   6
ATOM      6  C   UNL     1      30.683  -3.657  -7.172  1.00  0.00     0.000 C 
BRANCH   6   7
ATOM      7  C   UNL     1      30.380  -4.039  -5.711  1.00  0.00     0.000 C 
BRANCH   7   8
ATOM      8  C   UNL     1      30.810  -2.992  -4.665  1.00  0.00     0.000 C 
BRANCH   8   9
ATOM      9  C   UNL     1      30.007  -3.018  -3.349  1.00  0.00     0.000 C 
BRANCH   9  10
ATOM     10  C   UNL     1      29.274  -1.709  -3.007  1.00  0.00     0.000 C 
BRANCH  10  11
ATOM     11  C   UNL     1      28.270  -1.870  -1.852  1.00  0.00     0.000 C 
BRANCH  11  12
ATOM     12  C   UNL     1      27.025  -0.987  -2.030  1.00  0.00     0.000 C 
BRANCH  12  13
ATOM     13  C   UNL     1      25.733  -1.813  -2.155  1.00  0.00     0.006 C 
BRANCH  13  14
ATOM     14  C   UNL     1      25.492  -2.702  -0.927  1.00  0.00     0.053 C 
BRANCH  14  15
ATOM     15  C   UNL     1      25.163  -1.895   0.292  1.00  0.00     0.041 C 
ATOM     16  O   UNL     1      23.990  -1.889   0.751  1.00  0.00    -0.550 OA
ATOM     17  O   UNL     1      26.151  -1.141   0.917  1.00  0.00    -0.550 OA
ENDBRANCH  14  15
ENDBRANCH  13  14
ENDBRANCH  12  13
ENDBRANCH  11  12
ENDBRANCH  10  11
ENDBRANCH   9  10
ENDBRANCH   8   9
ENDBRANCH   7   8
ENDBRANCH   6   7
ENDBRANCH   5   6
ENDBRANCH   4   5
ENDBRANCH   3   4
ENDBRANCH   2   3
ENDBRANCH   1   2
BRANCH   1  18
ATOM     18  C   UNL     1      30.429  -5.520 -12.486  1.00  0.00     0.000 C 
BRANCH  18  19
ATOM     19  C   UNL     1      29.096  -6.194 -12.844  1.00  0.00     0.000 C 
BRANCH  19  20
ATOM     20  C   UNL     1      29.223  -7.723 -12.792  1.00  0.00     0.000 C 
BRANCH  20  21
ATOM     21  C   UNL     1      29.835  -8.307 -14.076  1.00  0.00     0.000 C 
BRANCH  21  22
ATOM     22  C   UNL     1      29.338  -7.597 -15.345  1.00  0.00     0.000 C 
BRANCH  22  23
ATOM     23  C   UNL     1      30.463  -6.901 -16.130  1.00  0.00     0.000 C 
BRANCH  23  24
ATOM     24  C   UNL     1      30.995  -5.613 -15.464  1.00  0.00    -0.000 C 
BRANCH  24  25
ATOM     25  C   UNL     1      31.973  -4.782 -16.323  1.00  0.00    -0.000 C 
BRANCH  25  26
ATOM     26  C   UNL     1      33.271  -5.499 -16.751  1.00  0.00    -0.000 C 
BRANCH  26  27
ATOM     27  C   UNL     1      33.819  -5.092 -18.131  1.00  0.00    -0.000 C 
BRANCH  27  28
ATOM     28  C   UNL     1      34.950  -5.993 -18.660  1.00  0.00    -0.000 C 
BRANCH  28  29
ATOM     29  C   UNL     1      36.364  -5.424 -18.405  1.00  0.00    -0.000 C 
BRANCH  29  30
ATOM     30  C   UNL     1      36.439  -4.608 -17.104  1.00  0.00    -0.000 C 
BRANCH  30  31
ATOM     31  C   UNL     1      37.486  -5.162 -16.125  1.00  0.00    -0.003 C 
ATOM     32  C   UNL     1      37.870  -6.609 -16.435  1.00  0.00     0.004 C 
ENDBRANCH  30  31
ENDBRANCH  29  30
ENDBRANCH  28  29
ENDBRANCH  27  28
ENDBRANCH  26  27
ENDBRANCH  25  26
ENDBRANCH  24  25
ENDBRANCH  23  24
ENDBRANCH  22  23
ENDBRANCH  21  22
ENDBRANCH  20  21
ENDBRANCH  19  20
ENDBRANCH  18  19
ENDBRANCH   1  18
TORSDOF 28
ENDMDL
