MODEL 1
REMARK VINA RESULT:    -4.697      0.000      0.000
REMARK INTER + INTRA:          -1.884
REMARK INTER:                  -5.796
REMARK INTRA:                   3.912
REMARK UNBOUND:                 3.912
REMARK SMILES C=C1CC[C@H]2[C@H]([C@@H]3[C@H](C)CC[C@H]13)C2(C)C
REMARK SMILES IDX 3 1 2 2 1 3 12 4 9 5 8 6 10 7 7 8 11 9 4 11 5 12 6 13 13 14
REMARK SMILES IDX 14 16 15 17
REMARK H PARENT
REMARK Flexibility Score: 80.00
ROOT
ATOM      1  C   UNL     1       3.237  12.366   3.511  1.00  0.00     0.031 C 
ENDROOT
BRANCH   1   2
ATOM      2  C   UNL     1       3.343  13.822   3.047  1.00  0.00    -0.074 C 
ATOM      3  C   UNL     1       4.418  14.536   3.421  1.00  0.00     0.008 C 
BRANCH   2   4
ATOM      4  C   UNL     1       2.208  14.515   2.262  1.00  0.00     0.018 C 
ATOM      5  C   UNL     1      -1.611  14.516   2.115  1.00  0.00     0.008 C 
ATOM      6  C   UNL     1      -0.138  14.816   1.802  1.00  0.00    -0.010 C 
ATOM      7  C   UNL     1       0.419  13.955   0.669  1.00  0.00     0.004 C 
ATOM      8  C   UNL     1       0.833  14.626   2.976  1.00  0.00     0.003 CG0
ATOM      9  C   UNL     1       1.930  13.873   0.894  1.00  0.00     0.008 C 
ATOM     10  G   UNL     1       0.530  13.339   3.778  1.00  0.00     0.000 G0
ENDBRANCH   2   4
ENDBRANCH   1   2
BRANCH   1  11
ATOM     11  C   UNL     1       2.465  12.205   4.846  1.00  0.00     0.009 C 
BRANCH  11  12
ATOM     12  C   UNL     1       1.425  13.320   5.030  1.00  0.00    -0.001 C 
ATOM     13  C   UNL     1       0.525  13.328   3.770  1.00  0.00     0.002 CG0
ATOM     14  C   UNL     1      -0.091  13.192   5.161  1.00  0.00    -0.029 C 
ATOM     15  G   UNL     1       0.831  14.620   2.977  1.00  0.00     0.000 G0
ATOM     16  C   UNL     1      -0.815  14.407   5.753  1.00  0.00     0.011 C 
ATOM     17  C   UNL     1      -0.634  11.810   5.544  1.00  0.00     0.011 C 
ENDBRANCH  11  12
ENDBRANCH   1  11
TORSDOF 0
ENDMDL
MODEL 2
REMARK VINA RESULT:    -4.598      0.937      3.530
REMARK INTER + INTRA:          -1.762
REMARK INTER:                  -5.598
REMARK INTRA:                   3.836
REMARK UNBOUND:                 3.912
REMARK SMILES C=C1CC[C@H]2[C@H]([C@@H]3[C@H](C)CC[C@H]13)C2(C)C
REMARK SMILES IDX 3 1 2 2 1 3 12 4 9 5 8 6 10 7 7 8 11 9 4 11 5 12 6 13 13 14
REMARK SMILES IDX 14 16 15 17
REMARK H PARENT
REMARK Flexibility Score: 80.00
ROOT
ATOM      1  C   UNL     1       3.506  14.021   3.622  1.00  0.00     0.031 C 
ENDROOT
BRANCH   1   2
ATOM      2  C   UNL     1       2.860  12.716   4.096  1.00  0.00    -0.074 C 
ATOM      3  C   UNL     1       3.495  11.559   3.845  1.00  0.00     0.008 C 
BRANCH   2   4
ATOM      4  C   UNL     1       1.462  12.686   4.752  1.00  0.00     0.018 C 
ATOM      5  C   UNL     1      -1.893  14.494   4.469  1.00  0.00     0.008 C 
ATOM      6  C   UNL     1      -0.778  13.554   4.947  1.00  0.00    -0.010 C 
ATOM      7  C   UNL     1       0.008  14.115   6.131  1.00  0.00     0.004 C 
ATOM      8  C   UNL     1       0.276  13.196   3.889  1.00  0.00     0.003 CG0
ATOM      9  C   UNL     1       1.391  13.462   6.077  1.00  0.00     0.008 C 
ATOM     10  G   UNL     1       0.699  14.426   3.052  1.00  0.00     0.000 G0
ENDBRANCH   2   4
ENDBRANCH   1   2
BRANCH   1  11
ATOM     11  C   UNL     1       3.034  14.460   2.212  1.00  0.00     0.009 C 
BRANCH  11  12
ATOM     12  C   UNL     1       1.625  13.933   1.904  1.00  0.00    -0.001 C 
ATOM     13  C   UNL     1       0.689  14.416   3.039  1.00  0.00     0.002 CG0
ATOM     14  C   UNL     1       0.362  14.729   1.580  1.00  0.00    -0.029 C 
ATOM     15  G   UNL     1       0.277  13.180   3.872  1.00  0.00     0.000 G0
ATOM     16  C   UNL     1      -0.769  13.943   0.908  1.00  0.00     0.011 C 
ATOM     17  C   UNL     1       0.563  16.179   1.123  1.00  0.00     0.011 C 
ENDBRANCH  11  12
ENDBRANCH   1  11
TORSDOF 0
ENDMDL
MODEL 3
REMARK VINA RESULT:    -4.534      1.008      3.364
REMARK INTER + INTRA:          -1.683
REMARK INTER:                  -5.479
REMARK INTRA:                   3.796
REMARK UNBOUND:                 3.912
REMARK SMILES C=C1CC[C@H]2[C@H]([C@@H]3[C@H](C)CC[C@H]13)C2(C)C
REMARK SMILES IDX 3 1 2 2 1 3 12 4 9 5 8 6 10 7 7 8 11 9 4 11 5 12 6 13 13 14
REMARK SMILES IDX 14 16 15 17
REMARK H PARENT
REMARK Flexibility Score: 80.00
ROOT
ATOM      1  C   UNL     1       0.250  15.072   1.693  1.00  0.00     0.031 C 
ENDROOT
BRANCH   1   2
ATOM      2  C   UNL     1       1.222  13.925   1.401  1.00  0.00    -0.074 C 
ATOM      3  C   UNL     1       1.050  13.210   0.277  1.00  0.00     0.008 C 
BRANCH   2   4
ATOM      4  C   UNL     1       2.316  13.504   2.407  1.00  0.00     0.018 C 
ATOM      5  C   UNL     1       2.838  13.323   6.189  1.00  0.00     0.008 C 
ATOM      6  C   UNL     1       3.088  13.251   4.676  1.00  0.00    -0.010 C 
ATOM      7  C   UNL     1       3.768  14.504   4.124  1.00  0.00     0.004 C 
ATOM      8  C   UNL     1       1.834  13.053   3.813  1.00  0.00     0.003 CG0
ATOM      9  C   UNL     1       3.377  14.590   2.647  1.00  0.00     0.008 C 
ATOM     10  G   UNL     1       0.654  13.929   4.293  1.00  0.00     0.000 G0
ENDBRANCH   2   4
ENDBRANCH   1   2
BRANCH   1  11
ATOM     11  C   UNL     1      -0.980  14.633   2.529  1.00  0.00     0.009 C 
BRANCH  11  12
ATOM     12  C   UNL     1      -0.625  13.487   3.488  1.00  0.00    -0.001 C 
ATOM     13  C   UNL     1       0.629  13.921   4.286  1.00  0.00     0.002 CG0
ATOM     14  C   UNL     1      -0.641  13.487   5.016  1.00  0.00    -0.029 C 
ATOM     15  G   UNL     1       1.815  13.044   3.819  1.00  0.00     0.000 G0
ATOM     16  C   UNL     1      -0.656  12.108   5.684  1.00  0.00     0.011 C 
ATOM     17  C   UNL     1      -1.459  14.593   5.694  1.00  0.00     0.011 C 
ENDBRANCH  11  12
ENDBRANCH   1  11
TORSDOF 0
ENDMDL
MODEL 4
REMARK VINA RESULT:    -4.344      1.315      3.560
REMARK INTER + INTRA:          -1.449
REMARK INTER:                  -5.178
REMARK INTRA:                   3.730
REMARK UNBOUND:                 3.912
REMARK SMILES C=C1CC[C@H]2[C@H]([C@@H]3[C@H](C)CC[C@H]13)C2(C)C
REMARK SMILES IDX 3 1 2 2 1 3 12 4 9 5 8 6 10 7 7 8 11 9 4 11 5 12 6 13 13 14
REMARK SMILES IDX 14 16 15 17
REMARK H PARENT
REMARK Flexibility Score: 80.00
ROOT
ATOM      1  C   UNL     1      -0.801  14.842   2.418  1.00  0.00     0.031 C 
ENDROOT
BRANCH   1   2
ATOM      2  C   UNL     1       0.033  14.468   1.189  1.00  0.00    -0.074 C 
ATOM      3  C   UNL     1      -0.523  13.679   0.254  1.00  0.00     0.008 C 
BRANCH   2   4
ATOM      4  C   UNL     1       1.515  14.879   1.050  1.00  0.00     0.018 C 
ATOM      5  C   UNL     1       4.605  15.311   3.256  1.00  0.00     0.008 C 
ATOM      6  C   UNL     1       3.670  15.309   2.039  1.00  0.00    -0.010 C 
ATOM      7  C   UNL     1       3.037  16.673   1.769  1.00  0.00     0.004 C 
ATOM      8  C   UNL     1       2.496  14.322   2.116  1.00  0.00     0.003 CG0
ATOM      9  C   UNL     1       1.728  16.401   1.025  1.00  0.00     0.008 C 
ATOM     10  G   UNL     1       1.836  14.314   3.515  1.00  0.00     0.000 G0
ENDBRANCH   2   4
ENDBRANCH   1   2
BRANCH   1  11
ATOM     11  C   UNL     1      -0.593  13.878   3.615  1.00  0.00     0.009 C 
BRANCH  11  12
ATOM     12  C   UNL     1       0.775  13.184   3.543  1.00  0.00    -0.001 C 
ATOM     13  C   UNL     1       1.858  14.291   3.537  1.00  0.00     0.002 CG0
ATOM     14  C   UNL     1       1.894  13.179   4.584  1.00  0.00    -0.029 C 
ATOM     15  G   UNL     1       2.509  14.311   2.134  1.00  0.00     0.000 G0
ATOM     16  C   UNL     1       2.945  12.074   4.430  1.00  0.00     0.011 C 
ATOM     17  C   UNL     1       1.501  13.565   6.015  1.00  0.00     0.011 C 
ENDBRANCH  11  12
ENDBRANCH   1  11
TORSDOF 0
ENDMDL
MODEL 5
REMARK VINA RESULT:    -4.258      1.138      3.644
REMARK INTER + INTRA:          -1.342
REMARK INTER:                  -5.214
REMARK INTRA:                   3.872
REMARK UNBOUND:                 3.912
REMARK SMILES C=C1CC[C@H]2[C@H]([C@@H]3[C@H](C)CC[C@H]13)C2(C)C
REMARK SMILES IDX 3 1 2 2 1 3 12 4 9 5 8 6 10 7 7 8 11 9 4 11 5 12 6 13 13 14
REMARK SMILES IDX 14 16 15 17
REMARK H PARENT
REMARK Flexibility Score: 80.00
ROOT
ATOM      1  C   UNL     1       0.503  13.853   6.362  1.00  0.00     0.031 C 
ENDROOT
BRANCH   1   2
ATOM      2  C   UNL     1      -0.257  12.925   5.410  1.00  0.00    -0.074 C 
ATOM      3  C   UNL     1      -0.828  11.819   5.915  1.00  0.00     0.008 C 
BRANCH   2   4
ATOM      4  C   UNL     1      -0.291  13.166   3.885  1.00  0.00     0.018 C 
ATOM      5  C   UNL     1       1.968  14.565   1.138  1.00  0.00     0.008 C 
ATOM      6  C   UNL     1       0.755  13.975   1.870  1.00  0.00    -0.010 C 
ATOM      7  C   UNL     1      -0.266  15.034   2.283  1.00  0.00     0.004 C 
ATOM      8  C   UNL     1       1.079  13.196   3.153  1.00  0.00     0.003 CG0
ATOM      9  C   UNL     1      -1.017  14.461   3.487  1.00  0.00     0.008 C 
ATOM     10  G   UNL     1       2.143  13.915   4.015  1.00  0.00     0.000 G0
ENDBRANCH   2   4
ENDBRANCH   1   2
BRANCH   1  11
ATOM     11  C   UNL     1       2.011  13.508   6.478  1.00  0.00     0.009 C 
BRANCH  11  12
ATOM     12  C   UNL     1       2.558  12.938   5.161  1.00  0.00    -0.001 C 
ATOM     13  C   UNL     1       2.149  13.911   4.028  1.00  0.00     0.002 CG0
ATOM     14  C   UNL     1       3.616  13.536   4.234  1.00  0.00    -0.029 C 
ATOM     15  G   UNL     1       1.089  13.201   3.154  1.00  0.00     0.000 G0
ATOM     16  C   UNL     1       4.259  12.562   3.240  1.00  0.00     0.011 C 
ATOM     17  C   UNL     1       4.526  14.613   4.835  1.00  0.00     0.011 C 
ENDBRANCH  11  12
ENDBRANCH   1  11
TORSDOF 0
ENDMDL
MODEL 6
REMARK VINA RESULT:    -4.215      1.274      3.632
REMARK INTER + INTRA:          -1.289
REMARK INTER:                  -5.128
REMARK INTRA:                   3.839
REMARK UNBOUND:                 3.912
REMARK SMILES C=C1CC[C@H]2[C@H]([C@@H]3[C@H](C)CC[C@H]13)C2(C)C
REMARK SMILES IDX 3 1 2 2 1 3 12 4 9 5 8 6 10 7 7 8 11 9 4 11 5 12 6 13 13 14
REMARK SMILES IDX 14 16 15 17
REMARK H PARENT
REMARK Flexibility Score: 80.00
ROOT
ATOM      1  C   UNL     1       3.644  14.013   4.624  1.00  0.00     0.031 C 
ENDROOT
BRANCH   1   2
ATOM      2  C   UNL     1       2.856  12.755   4.250  1.00  0.00    -0.074 C 
ATOM      3  C   UNL     1       3.517  11.589   4.158  1.00  0.00     0.008 C 
BRANCH   2   4
ATOM      4  C   UNL     1       1.359  12.809   3.873  1.00  0.00     0.018 C 
ATOM      5  C   UNL     1      -1.083  15.152   2.099  1.00  0.00     0.008 C 
ATOM      6  C   UNL     1      -0.510  13.963   2.882  1.00  0.00    -0.010 C 
ATOM      7  C   UNL     1      -0.658  14.117   4.395  1.00  0.00     0.004 C 
ATOM      8  C   UNL     1       0.980  13.679   2.644  1.00  0.00     0.003 CG0
ATOM      9  C   UNL     1       0.455  13.277   5.025  1.00  0.00     0.008 C 
ATOM     10  G   UNL     1       1.821  14.977   2.615  1.00  0.00     0.000 G0
ENDBRANCH   2   4
ENDBRANCH   1   2
BRANCH   1  11
ATOM     11  C   UNL     1       4.177  14.790   3.392  1.00  0.00     0.009 C 
BRANCH  11  12
ATOM     12  C   UNL     1       3.263  14.600   2.173  1.00  0.00    -0.001 C 
ATOM     13  C   UNL     1       1.827  14.985   2.603  1.00  0.00     0.002 CG0
ATOM     14  C   UNL     1       2.481  15.658   1.397  1.00  0.00    -0.029 C 
ATOM     15  G   UNL     1       0.979  13.692   2.639  1.00  0.00     0.000 G0
ATOM     16  C   UNL     1       2.010  15.248  -0.003  1.00  0.00     0.011 C 
ATOM     17  C   UNL     1       2.929  17.113   1.577  1.00  0.00     0.011 C 
ENDBRANCH  11  12
ENDBRANCH   1  11
TORSDOF 0
ENDMDL
MODEL 7
REMARK VINA RESULT:    -3.776      1.352      4.586
REMARK INTER + INTRA:          -0.748
REMARK INTER:                  -4.501
REMARK INTRA:                   3.753
REMARK UNBOUND:                 3.912
REMARK SMILES C=C1CC[C@H]2[C@H]([C@@H]3[C@H](C)CC[C@H]13)C2(C)C
REMARK SMILES IDX 3 1 2 2 1 3 12 4 9 5 8 6 10 7 7 8 11 9 4 11 5 12 6 13 13 14
REMARK SMILES IDX 14 16 15 17
REMARK H PARENT
REMARK Flexibility Score: 80.00
ROOT
ATOM      1  C   UNL     1      -0.893  13.714   2.013  1.00  0.00     0.031 C 
ENDROOT
BRANCH   1   2
ATOM      2  C   UNL     1      -0.666  14.115   3.473  1.00  0.00    -0.074 C 
ATOM      3  C   UNL     1      -1.624  14.819   4.100  1.00  0.00     0.008 C 
BRANCH   2   4
ATOM      4  C   UNL     1       0.665  13.829   4.203  1.00  0.00     0.018 C 
ATOM      5  C   UNL     1       4.398  13.622   3.412  1.00  0.00     0.008 C 
ATOM      6  C   UNL     1       3.060  13.564   4.162  1.00  0.00    -0.010 C 
ATOM      7  C   UNL     1       2.469  12.156   4.222  1.00  0.00     0.004 C 
ATOM      8  C   UNL     1       1.947  14.450   3.584  1.00  0.00     0.003 CG0
ATOM      9  C   UNL     1       0.956  12.330   4.377  1.00  0.00     0.008 C 
ATOM     10  G   UNL     1       1.894  14.384   2.040  1.00  0.00     0.000 G0
ENDBRANCH   2   4
ENDBRANCH   1   2
BRANCH   1  11
ATOM     11  C   UNL     1      -0.361  14.762   1.001  1.00  0.00     0.009 C 
BRANCH  11  12
ATOM     12  C   UNL     1       0.876  15.490   1.547  1.00  0.00    -0.001 C 
ATOM     13  C   UNL     1       1.879  14.409   2.021  1.00  0.00     0.002 CG0
ATOM     14  C   UNL     1       2.306  15.470   1.008  1.00  0.00    -0.029 C 
ATOM     15  G   UNL     1       1.950  14.472   3.565  1.00  0.00     0.000 G0
ATOM     16  C   UNL     1       3.217  16.604   1.489  1.00  0.00     0.011 C 
ATOM     17  C   UNL     1       2.485  15.005  -0.443  1.00  0.00     0.011 C 
ENDBRANCH  11  12
ENDBRANCH   1  11
TORSDOF 0
ENDMDL
MODEL 8
REMARK VINA RESULT:    -3.614      1.674      4.298
REMARK INTER + INTRA:          -0.548
REMARK INTER:                  -4.293
REMARK INTRA:                   3.745
REMARK UNBOUND:                 3.912
REMARK SMILES C=C1CC[C@H]2[C@H]([C@@H]3[C@H](C)CC[C@H]13)C2(C)C
REMARK SMILES IDX 3 1 2 2 1 3 12 4 9 5 8 6 10 7 7 8 11 9 4 11 5 12 6 13 13 14
REMARK SMILES IDX 14 16 15 17
REMARK H PARENT
REMARK Flexibility Score: 80.00
ROOT
ATOM      1  C   UNL     1       0.712  13.721   6.204  1.00  0.00     0.031 C 
ENDROOT
BRANCH   1   2
ATOM      2  C   UNL     1      -0.695  13.116   6.202  1.00  0.00    -0.074 C 
ATOM      3  C   UNL     1      -0.840  11.830   6.562  1.00  0.00     0.008 C 
BRANCH   2   4
ATOM      4  C   UNL     1      -1.924  13.905   5.699  1.00  0.00     0.018 C 
ATOM      5  C   UNL     1      -2.793  16.479   3.011  1.00  0.00     0.008 C 
ATOM      6  C   UNL     1      -2.905  15.523   4.206  1.00  0.00    -0.010 C 
ATOM      7  C   UNL     1      -2.728  16.226   5.552  1.00  0.00     0.004 C 
ATOM      8  C   UNL     1      -1.899  14.363   4.215  1.00  0.00     0.003 CG0
ATOM      9  C   UNL     1      -2.225  15.163   6.530  1.00  0.00     0.008 C 
ATOM     10  G   UNL     1      -0.479  14.824   3.810  1.00  0.00     0.000 G0
ENDBRANCH   2   4
ENDBRANCH   1   2
BRANCH   1  11
ATOM     11  C   UNL     1       1.438  13.583   4.840  1.00  0.00     0.009 C 
BRANCH  11  12
ATOM     12  C   UNL     1       0.440  13.568   3.673  1.00  0.00    -0.001 C 
ATOM     13  C   UNL     1      -0.454  14.826   3.810  1.00  0.00     0.002 CG0
ATOM     14  C   UNL     1       0.315  14.559   2.517  1.00  0.00    -0.029 C 
ATOM     15  G   UNL     1      -1.876  14.356   4.196  1.00  0.00     0.000 G0
ATOM     16  C   UNL     1      -0.471  14.066   1.297  1.00  0.00     0.011 C 
ATOM     17  C   UNL     1       1.532  15.449   2.241  1.00  0.00     0.011 C 
ENDBRANCH  11  12
ENDBRANCH   1  11
TORSDOF 0
ENDMDL
MODEL 9
REMARK VINA RESULT:    -3.395      1.842      5.284
REMARK INTER + INTRA:          -0.277
REMARK INTER:                  -4.125
REMARK INTRA:                   3.848
REMARK UNBOUND:                 3.912
REMARK SMILES C=C1CC[C@H]2[C@H]([C@@H]3[C@H](C)CC[C@H]13)C2(C)C
REMARK SMILES IDX 3 1 2 2 1 3 12 4 9 5 8 6 10 7 7 8 11 9 4 11 5 12 6 13 13 14
REMARK SMILES IDX 14 16 15 17
REMARK H PARENT
REMARK Flexibility Score: 80.00
ROOT
ATOM      1  C   UNL     1      -2.961  13.920   0.704  1.00  0.00     0.031 C 
ENDROOT
BRANCH   1   2
ATOM      2  C   UNL     1      -2.452  15.196   1.382  1.00  0.00    -0.074 C 
ATOM      3  C   UNL     1      -3.120  16.342   1.172  1.00  0.00     0.008 C 
BRANCH   2   4
ATOM      4  C   UNL     1      -1.145  15.219   2.204  1.00  0.00     0.018 C 
ATOM      5  C   UNL     1       2.264  13.491   2.249  1.00  0.00     0.008 C 
ATOM      6  C   UNL     1       1.076  14.385   2.630  1.00  0.00    -0.010 C 
ATOM      7  C   UNL     1       0.166  13.753   3.682  1.00  0.00     0.004 C 
ATOM      8  C   UNL     1       0.149  14.775   1.470  1.00  0.00     0.003 CG0
ATOM      9  C   UNL     1      -1.216  14.381   3.491  1.00  0.00     0.008 C 
ATOM     10  G   UNL     1      -0.139  13.580   0.531  1.00  0.00     0.000 G0
ENDBRANCH   2   4
ENDBRANCH   1   2
BRANCH   1  11
ATOM     11  C   UNL     1      -2.324  13.673  -0.688  1.00  0.00     0.009 C 
BRANCH  11  12
ATOM     12  C   UNL     1      -0.871  14.167  -0.736  1.00  0.00    -0.001 C 
ATOM     13  C   UNL     1      -0.142  13.586   0.501  1.00  0.00     0.002 CG0
ATOM     14  C   UNL     1       0.407  13.347  -0.905  1.00  0.00    -0.029 C 
ATOM     15  G   UNL     1       0.163  14.757   1.464  1.00  0.00     0.000 G0
ATOM     16  C   UNL     1       1.650  14.131  -1.339  1.00  0.00     0.011 C 
ATOM     17  C   UNL     1       0.245  11.935  -1.479  1.00  0.00     0.011 C 
ENDBRANCH  11  12
ENDBRANCH   1  11
TORSDOF 0
ENDMDL
