MODEL 1
REMARK VINA RESULT:    -4.244      0.000      0.000
REMARK INTER + INTRA:          -4.991
REMARK INTER:                  -4.864
REMARK INTRA:                  -0.127
REMARK UNBOUND:                -0.127
REMARK SMILES COc1cc(C(C)=O)ccc1O
REMARK SMILES IDX 5 1 4 2 3 3 11 4 10 5 9 6 6 7 7 8 8 9 2 10 1 11 12 12
REMARK H PARENT 12 13
REMARK Flexibility Score: inf
ROOT
ATOM      1  C   UNL     1      39.783 -40.631  -4.182  1.00  0.00     0.021 A 
ATOM      2  C   UNL     1      40.710 -40.243  -3.196  1.00  0.00     0.062 A 
ATOM      3  C   UNL     1      42.097 -40.376  -3.412  1.00  0.00     0.161 A 
ATOM      4  C   UNL     1      42.554 -40.904  -4.632  1.00  0.00     0.157 A 
ATOM      5  C   UNL     1      41.639 -41.290  -5.613  1.00  0.00     0.051 A 
ATOM      6  C   UNL     1      40.267 -41.156  -5.394  1.00  0.00     0.016 A 
ENDROOT
BRANCH   1   7
ATOM      7  C   UNL     1      38.323 -40.482  -3.933  1.00  0.00     0.159 C 
ATOM      8  C   UNL     1      37.298 -41.121  -4.821  1.00  0.00     0.093 C 
ATOM      9  O   UNL     1      37.922 -39.802  -2.951  1.00  0.00    -0.295 OA
ENDBRANCH   1   7
BRANCH   3  10
ATOM     10  O   UNL     1      43.041 -39.997  -2.444  1.00  0.00    -0.493 OA
ATOM     11  C   UNL     1      43.081 -40.498  -1.112  1.00  0.00     0.278 C 
ENDBRANCH   3  10
BRANCH   4  12
ATOM     12  O   UNL     1      43.917 -41.053  -4.888  1.00  0.00    -0.504 OA
ATOM     13  H   UNL     1      44.368 -40.623  -5.686  1.00  0.00     0.293 HD
ENDBRANCH   4  12
TORSDOF 3
ENDMDL
MODEL 2
REMARK VINA RESULT:    -4.023      2.939      3.918
REMARK INTER + INTRA:          -4.738
REMARK INTER:                  -4.648
REMARK INTRA:                  -0.090
REMARK UNBOUND:                -0.127
REMARK SMILES COc1cc(C(C)=O)ccc1O
REMARK SMILES IDX 5 1 4 2 3 3 11 4 10 5 9 6 6 7 7 8 8 9 2 10 1 11 12 12
REMARK H PARENT 12 13
REMARK Flexibility Score: inf
ROOT
ATOM      1  C   UNL     1      42.671 -40.155  -4.139  1.00  0.00     0.021 A 
ATOM      2  C   UNL     1      42.815 -40.568  -2.800  1.00  0.00     0.062 A 
ATOM      3  C   UNL     1      42.897 -39.626  -1.755  1.00  0.00     0.161 A 
ATOM      4  C   UNL     1      42.832 -38.255  -2.061  1.00  0.00     0.157 A 
ATOM      5  C   UNL     1      42.690 -37.840  -3.386  1.00  0.00     0.051 A 
ATOM      6  C   UNL     1      42.610 -38.777  -4.417  1.00  0.00     0.016 A 
ENDROOT
BRANCH   1   7
ATOM      7  C   UNL     1      42.588 -41.167  -5.227  1.00  0.00     0.159 C 
ATOM      8  C   UNL     1      43.795 -41.917  -5.706  1.00  0.00     0.093 C 
ATOM      9  O   UNL     1      41.478 -41.413  -5.771  1.00  0.00    -0.295 OA
ENDBRANCH   1   7
BRANCH   3  10
ATOM     10  O   UNL     1      43.039 -40.013  -0.413  1.00  0.00    -0.493 OA
ATOM     11  C   UNL     1      43.204 -41.357   0.029  1.00  0.00     0.278 C 
ENDBRANCH   3  10
BRANCH   4  12
ATOM     12  O   UNL     1      42.909 -37.288  -1.057  1.00  0.00    -0.504 OA
ATOM     13  H   UNL     1      43.775 -36.819  -0.824  1.00  0.00     0.293 HD
ENDBRANCH   4  12
TORSDOF 3
ENDMDL
MODEL 3
REMARK VINA RESULT:    -3.931      1.874      2.668
REMARK INTER + INTRA:          -4.633
REMARK INTER:                  -4.524
REMARK INTRA:                  -0.109
REMARK UNBOUND:                -0.127
REMARK SMILES COc1cc(C(C)=O)ccc1O
REMARK SMILES IDX 5 1 4 2 3 3 11 4 10 5 9 6 6 7 7 8 8 9 2 10 1 11 12 12
REMARK H PARENT 12 13
REMARK Flexibility Score: inf
ROOT
ATOM      1  C   UNL     1      39.634 -39.739  -5.075  1.00  0.00     0.021 A 
ATOM      2  C   UNL     1      40.702 -40.656  -5.038  1.00  0.00     0.062 A 
ATOM      3  C   UNL     1      41.968 -40.275  -4.549  1.00  0.00     0.161 A 
ATOM      4  C   UNL     1      42.160 -38.959  -4.093  1.00  0.00     0.157 A 
ATOM      5  C   UNL     1      41.105 -38.046  -4.128  1.00  0.00     0.051 A 
ATOM      6  C   UNL     1      39.853 -38.428  -4.613  1.00  0.00     0.016 A 
ENDROOT
BRANCH   1   7
ATOM      7  C   UNL     1      38.306 -40.162  -5.595  1.00  0.00     0.159 C 
ATOM      8  C   UNL     1      37.387 -41.043  -4.801  1.00  0.00     0.093 C 
ATOM      9  O   UNL     1      37.928 -39.779  -6.735  1.00  0.00    -0.295 OA
ENDBRANCH   1   7
BRANCH   3  10
ATOM     10  O   UNL     1      43.048 -41.171  -4.502  1.00  0.00    -0.493 OA
ATOM     11  C   UNL     1      43.694 -41.722  -5.646  1.00  0.00     0.278 C 
ENDBRANCH   3  10
BRANCH   4  12
ATOM     12  O   UNL     1      43.397 -38.540  -3.602  1.00  0.00    -0.504 OA
ATOM     13  H   UNL     1      44.225 -39.119  -3.657  1.00  0.00     0.293 HD
ENDBRANCH   4  12
TORSDOF 3
ENDMDL
MODEL 4
REMARK VINA RESULT:    -3.817      3.006      4.471
REMARK INTER + INTRA:          -4.502
REMARK INTER:                  -4.404
REMARK INTRA:                  -0.098
REMARK UNBOUND:                -0.127
REMARK SMILES COc1cc(C(C)=O)ccc1O
REMARK SMILES IDX 5 1 4 2 3 3 11 4 10 5 9 6 6 7 7 8 8 9 2 10 1 11 12 12
REMARK H PARENT 12 13
REMARK Flexibility Score: inf
ROOT
ATOM      1  C   UNL     1      42.690 -40.107  -3.967  1.00  0.00     0.021 A 
ATOM      2  C   UNL     1      42.590 -38.728  -4.231  1.00  0.00     0.062 A 
ATOM      3  C   UNL     1      42.659 -37.783  -3.187  1.00  0.00     0.161 A 
ATOM      4  C   UNL     1      42.830 -38.232  -1.866  1.00  0.00     0.157 A 
ATOM      5  C   UNL     1      42.929 -39.599  -1.599  1.00  0.00     0.051 A 
ATOM      6  C   UNL     1      42.860 -40.530  -2.636  1.00  0.00     0.016 A 
ENDROOT
BRANCH   1   7
ATOM      7  C   UNL     1      42.614 -41.087  -5.085  1.00  0.00     0.159 C 
ATOM      8  C   UNL     1      43.822 -41.834  -5.568  1.00  0.00     0.093 C 
ATOM      9  O   UNL     1      41.510 -41.306  -5.653  1.00  0.00    -0.295 OA
ENDBRANCH   1   7
BRANCH   3  10
ATOM     10  O   UNL     1      42.563 -36.403  -3.424  1.00  0.00    -0.493 OA
ATOM     11  C   UNL     1      41.904 -35.818  -4.543  1.00  0.00     0.278 C 
ENDBRANCH   3  10
BRANCH   4  12
ATOM     12  O   UNL     1      42.903 -37.332  -0.802  1.00  0.00    -0.504 OA
ATOM     13  H   UNL     1      42.674 -37.598   0.148  1.00  0.00     0.293 HD
ENDBRANCH   4  12
TORSDOF 3
ENDMDL
MODEL 5
REMARK VINA RESULT:    -3.796      1.761      5.068
REMARK INTER + INTRA:          -4.478
REMARK INTER:                  -4.387
REMARK INTRA:                  -0.091
REMARK UNBOUND:                -0.127
REMARK SMILES COc1cc(C(C)=O)ccc1O
REMARK SMILES IDX 5 1 4 2 3 3 11 4 10 5 9 6 6 7 7 8 8 9 2 10 1 11 12 12
REMARK H PARENT 12 13
REMARK Flexibility Score: inf
ROOT
ATOM      1  C   UNL     1      40.879 -40.322  -4.394  1.00  0.00     0.021 A 
ATOM      2  C   UNL     1      40.010 -40.132  -5.487  1.00  0.00     0.062 A 
ATOM      3  C   UNL     1      38.612 -40.181  -5.318  1.00  0.00     0.161 A 
ATOM      4  C   UNL     1      38.083 -40.422  -4.038  1.00  0.00     0.157 A 
ATOM      5  C   UNL     1      38.939 -40.611  -2.952  1.00  0.00     0.051 A 
ATOM      6  C   UNL     1      40.323 -40.562  -3.124  1.00  0.00     0.016 A 
ENDROOT
BRANCH   1   7
ATOM      7  C   UNL     1      42.352 -40.267  -4.595  1.00  0.00     0.159 C 
ATOM      8  C   UNL     1      43.096 -41.356  -5.309  1.00  0.00     0.093 C 
ATOM      9  O   UNL     1      43.008 -39.284  -4.158  1.00  0.00    -0.295 OA
ENDBRANCH   1   7
BRANCH   3  10
ATOM     10  O   UNL     1      37.726 -39.994  -6.391  1.00  0.00    -0.493 OA
ATOM     11  C   UNL     1      38.076 -39.395  -7.635  1.00  0.00     0.278 C 
ENDBRANCH   3  10
BRANCH   4  12
ATOM     12  O   UNL     1      36.705 -40.478  -3.827  1.00  0.00    -0.504 OA
ATOM     13  H   UNL     1      36.038 -40.160  -4.519  1.00  0.00     0.293 HD
ENDBRANCH   4  12
TORSDOF 3
ENDMDL
MODEL 6
REMARK VINA RESULT:    -3.760      1.432      4.215
REMARK INTER + INTRA:          -4.437
REMARK INTER:                  -4.312
REMARK INTRA:                  -0.125
REMARK UNBOUND:                -0.127
REMARK SMILES COc1cc(C(C)=O)ccc1O
REMARK SMILES IDX 5 1 4 2 3 3 11 4 10 5 9 6 6 7 7 8 8 9 2 10 1 11 12 12
REMARK H PARENT 12 13
REMARK Flexibility Score: inf
ROOT
ATOM      1  C   UNL     1      41.150 -40.532  -4.106  1.00  0.00     0.021 A 
ATOM      2  C   UNL     1      40.538 -40.142  -2.899  1.00  0.00     0.062 A 
ATOM      3  C   UNL     1      39.135 -40.163  -2.758  1.00  0.00     0.161 A 
ATOM      4  C   UNL     1      38.343 -40.582  -3.841  1.00  0.00     0.157 A 
ATOM      5  C   UNL     1      38.945 -40.970  -5.039  1.00  0.00     0.051 A 
ATOM      6  C   UNL     1      40.334 -40.947  -5.174  1.00  0.00     0.016 A 
ENDROOT
BRANCH   1   7
ATOM      7  C   UNL     1      42.633 -40.501  -4.233  1.00  0.00     0.159 C 
ATOM      8  C   UNL     1      43.361 -41.356  -5.227  1.00  0.00     0.093 C 
ATOM      9  O   UNL     1      43.310 -39.740  -3.491  1.00  0.00    -0.295 OA
ENDBRANCH   1   7
BRANCH   3  10
ATOM     10  O   UNL     1      38.502 -39.778  -1.566  1.00  0.00    -0.493 OA
ATOM     11  C   UNL     1      38.768 -40.347  -0.287  1.00  0.00     0.278 C 
ENDBRANCH   3  10
BRANCH   4  12
ATOM     12  O   UNL     1      36.951 -40.618  -3.744  1.00  0.00    -0.504 OA
ATOM     13  H   UNL     1      36.412 -39.828  -3.415  1.00  0.00     0.293 HD
ENDBRANCH   4  12
TORSDOF 3
ENDMDL
MODEL 7
REMARK VINA RESULT:    -3.647      1.901      4.855
REMARK INTER + INTRA:          -4.307
REMARK INTER:                  -4.219
REMARK INTRA:                  -0.088
REMARK UNBOUND:                -0.127
REMARK SMILES COc1cc(C(C)=O)ccc1O
REMARK SMILES IDX 5 1 4 2 3 3 11 4 10 5 9 6 6 7 7 8 8 9 2 10 1 11 12 12
REMARK H PARENT 12 13
REMARK Flexibility Score: inf
ROOT
ATOM      1  C   UNL     1      42.045 -40.562  -4.859  1.00  0.00     0.021 A 
ATOM      2  C   UNL     1      40.733 -40.727  -5.344  1.00  0.00     0.062 A 
ATOM      3  C   UNL     1      39.714 -39.815  -5.004  1.00  0.00     0.161 A 
ATOM      4  C   UNL     1      40.018 -38.726  -4.168  1.00  0.00     0.157 A 
ATOM      5  C   UNL     1      41.316 -38.558  -3.684  1.00  0.00     0.051 A 
ATOM      6  C   UNL     1      42.322 -39.465  -4.023  1.00  0.00     0.016 A 
ENDROOT
BRANCH   1   7
ATOM      7  C   UNL     1      43.105 -41.538  -5.230  1.00  0.00     0.159 C 
ATOM      8  C   UNL     1      43.031 -42.348  -6.490  1.00  0.00     0.093 C 
ATOM      9  O   UNL     1      44.101 -41.699  -4.474  1.00  0.00    -0.295 OA
ENDBRANCH   1   7
BRANCH   3  10
ATOM     10  O   UNL     1      38.399 -39.958  -5.476  1.00  0.00    -0.493 OA
ATOM     11  C   UNL     1      37.889 -39.336  -6.652  1.00  0.00     0.278 C 
ENDBRANCH   3  10
BRANCH   4  12
ATOM     12  O   UNL     1      39.040 -37.800  -3.806  1.00  0.00    -0.504 OA
ATOM     13  H   UNL     1      39.128 -37.212  -2.987  1.00  0.00     0.293 HD
ENDBRANCH   4  12
TORSDOF 3
ENDMDL
MODEL 8
REMARK VINA RESULT:    -3.577      1.604      1.899
REMARK INTER + INTRA:          -4.226
REMARK INTER:                  -4.101
REMARK INTRA:                  -0.125
REMARK UNBOUND:                -0.127
REMARK SMILES COc1cc(C(C)=O)ccc1O
REMARK SMILES IDX 5 1 4 2 3 3 11 4 10 5 9 6 6 7 7 8 8 9 2 10 1 11 12 12
REMARK H PARENT 12 13
REMARK Flexibility Score: inf
ROOT
ATOM      1  C   UNL     1      39.314 -40.567  -4.531  1.00  0.00     0.021 A 
ATOM      2  C   UNL     1      39.410 -40.476  -3.129  1.00  0.00     0.062 A 
ATOM      3  C   UNL     1      40.666 -40.441  -2.489  1.00  0.00     0.161 A 
ATOM      4  C   UNL     1      41.835 -40.497  -3.268  1.00  0.00     0.157 A 
ATOM      5  C   UNL     1      41.745 -40.588  -4.658  1.00  0.00     0.051 A 
ATOM      6  C   UNL     1      40.499 -40.623  -5.287  1.00  0.00     0.016 A 
ENDROOT
BRANCH   1   7
ATOM      7  C   UNL     1      37.978 -40.604  -5.186  1.00  0.00     0.159 C 
ATOM      8  C   UNL     1      37.647 -39.734  -6.362  1.00  0.00     0.093 C 
ATOM      9  O   UNL     1      37.088 -41.383  -4.750  1.00  0.00    -0.295 OA
ENDBRANCH   1   7
BRANCH   3  10
ATOM     10  O   UNL     1      40.788 -40.350  -1.094  1.00  0.00    -0.493 OA
ATOM     11  C   UNL     1      40.473 -41.399  -0.183  1.00  0.00     0.278 C 
ENDBRANCH   3  10
BRANCH   4  12
ATOM     12  O   UNL     1      43.098 -40.465  -2.676  1.00  0.00    -0.504 OA
ATOM     13  H   UNL     1      43.254 -40.071  -1.757  1.00  0.00     0.293 HD
ENDBRANCH   4  12
TORSDOF 3
ENDMDL
