MODEL 1
REMARK VINA RESULT:    -3.747      0.000      0.000
REMARK INTER + INTRA:          -6.772
REMARK INTER:                  -5.718
REMARK INTRA:                  -1.053
REMARK UNBOUND:                -1.053
REMARK SMILES CCCCCCCCCCC(=O)[O-]
REMARK SMILES IDX 7 1 8 2 9 3 10 4 11 5 12 6 13 7 6 8 5 9 4 10 3 11 2 12 1 13
REMARK H PARENT
REMARK Flexibility Score: inf
ROOT
ATOM      1  C   UNL     1       6.082  38.082  -6.260  1.00  0.00     0.000 C 
ENDROOT
BRANCH   1   2
ATOM      2  C   UNL     1       5.895  39.322  -7.150  1.00  0.00     0.000 C 
BRANCH   2   3
ATOM      3  C   UNL     1       4.473  39.898  -7.078  1.00  0.00     0.006 C 
BRANCH   3   4
ATOM      4  C   UNL     1       3.568  39.257  -8.134  1.00  0.00     0.053 C 
BRANCH   4   5
ATOM      5  C   UNL     1       2.667  38.240  -7.506  1.00  0.00     0.041 C 
ATOM      6  O   UNL     1       2.005  38.530  -6.476  1.00  0.00    -0.550 OA
ATOM      7  O   UNL     1       2.597  36.956  -8.032  1.00  0.00    -0.550 OA
ENDBRANCH   4   5
ENDBRANCH   3   4
ENDBRANCH   2   3
ENDBRANCH   1   2
BRANCH   1   8
ATOM      8  C   UNL     1       5.360  38.211  -4.908  1.00  0.00     0.000 C 
BRANCH   8   9
ATOM      9  C   UNL     1       4.549  36.954  -4.551  1.00  0.00    -0.000 C 
BRANCH   9  10
ATOM     10  C   UNL     1       4.858  35.768  -5.481  1.00  0.00    -0.000 C 
BRANCH  10  11
ATOM     11  C   UNL     1       5.485  34.579  -4.733  1.00  0.00    -0.000 C 
BRANCH  11  12
ATOM     12  C   UNL     1       6.837  34.153  -5.324  1.00  0.00    -0.003 C 
ATOM     13  C   UNL     1       6.932  34.524  -6.801  1.00  0.00     0.004 C 
ENDBRANCH  11  12
ENDBRANCH  10  11
ENDBRANCH   9  10
ENDBRANCH   8   9
ENDBRANCH   1   8
TORSDOF 9
ENDMDL
MODEL 2
REMARK VINA RESULT:    -3.730      2.490      5.451
REMARK INTER + INTRA:          -6.746
REMARK INTER:                  -6.054
REMARK INTRA:                  -0.692
REMARK UNBOUND:                -1.053
REMARK SMILES CCCCCCCCCCC(=O)[O-]
REMARK SMILES IDX 7 1 8 2 9 3 10 4 11 5 12 6 13 7 6 8 5 9 4 10 3 11 2 12 1 13
REMARK H PARENT
REMARK Flexibility Score: inf
ROOT
ATOM      1  C   UNL     1       4.958  35.720  -5.334  1.00  0.00     0.000 C 
ENDROOT
BRANCH   1   2
ATOM      2  C   UNL     1       5.757  34.725  -4.476  1.00  0.00     0.000 C 
BRANCH   2   3
ATOM      3  C   UNL     1       6.852  33.998  -5.272  1.00  0.00     0.006 C 
BRANCH   3   4
ATOM      4  C   UNL     1       7.001  34.600  -6.672  1.00  0.00     0.053 C 
BRANCH   4   5
ATOM      5  C   UNL     1       6.943  33.527  -7.713  1.00  0.00     0.041 C 
ATOM      6  O   UNL     1       7.478  32.407  -7.501  1.00  0.00    -0.550 OA
ATOM      7  O   UNL     1       6.339  33.781  -8.938  1.00  0.00    -0.550 OA
ENDBRANCH   4   5
ENDBRANCH   3   4
ENDBRANCH   2   3
ENDBRANCH   1   2
BRANCH   1   8
ATOM      8  C   UNL     1       4.516  36.962  -4.542  1.00  0.00     0.000 C 
BRANCH   8   9
ATOM      9  C   UNL     1       5.337  38.212  -4.900  1.00  0.00    -0.000 C 
BRANCH   9  10
ATOM     10  C   UNL     1       5.995  38.110  -6.287  1.00  0.00    -0.000 C 
BRANCH  10  11
ATOM     11  C   UNL     1       5.816  39.389  -7.121  1.00  0.00    -0.000 C 
BRANCH  11  12
ATOM     12  C   UNL     1       4.371  39.909  -7.107  1.00  0.00    -0.003 C 
ATOM     13  C   UNL     1       4.268  41.265  -7.800  1.00  0.00     0.004 C 
ENDBRANCH  11  12
ENDBRANCH  10  11
ENDBRANCH   9  10
ENDBRANCH   8   9
ENDBRANCH   1   8
TORSDOF 9
ENDMDL
MODEL 3
REMARK VINA RESULT:    -3.696      2.409      4.769
REMARK INTER + INTRA:          -6.694
REMARK INTER:                  -5.464
REMARK INTRA:                  -1.230
REMARK UNBOUND:                -1.053
REMARK SMILES CCCCCCCCCCC(=O)[O-]
REMARK SMILES IDX 7 1 8 2 9 3 10 4 11 5 12 6 13 7 6 8 5 9 4 10 3 11 2 12 1 13
REMARK H PARENT
REMARK Flexibility Score: inf
ROOT
ATOM      1  C   UNL     1       6.216  38.489  -6.271  1.00  0.00     0.000 C 
ENDROOT
BRANCH   1   2
ATOM      2  C   UNL     1       5.302  38.244  -5.058  1.00  0.00     0.000 C 
BRANCH   2   3
ATOM      3  C   UNL     1       5.142  36.753  -4.725  1.00  0.00     0.006 C 
BRANCH   3   4
ATOM      4  C   UNL     1       5.267  35.894  -5.987  1.00  0.00     0.053 C 
BRANCH   4   5
ATOM      5  C   UNL     1       6.377  34.902  -5.839  1.00  0.00     0.041 C 
ATOM      6  O   UNL     1       7.176  34.699  -6.790  1.00  0.00    -0.550 OA
ATOM      7  O   UNL     1       6.500  34.167  -4.667  1.00  0.00    -0.550 OA
ENDBRANCH   4   5
ENDBRANCH   3   4
ENDBRANCH   2   3
ENDBRANCH   1   2
BRANCH   1   8
ATOM      8  C   UNL     1       5.654  39.553  -7.229  1.00  0.00     0.000 C 
BRANCH   8   9
ATOM      9  C   UNL     1       4.129  39.709  -7.108  1.00  0.00    -0.000 C 
BRANCH   9  10
ATOM     10  C   UNL     1       3.365  38.886  -8.160  1.00  0.00    -0.000 C 
BRANCH  10  11
ATOM     11  C   UNL     1       2.470  37.807  -7.529  1.00  0.00    -0.000 C 
BRANCH  11  12
ATOM     12  C   UNL     1       1.879  38.241  -6.179  1.00  0.00    -0.003 C 
ATOM     13  C   UNL     1       1.184  37.075  -5.483  1.00  0.00     0.004 C 
ENDBRANCH  11  12
ENDBRANCH  10  11
ENDBRANCH   9  10
ENDBRANCH   8   9
ENDBRANCH   1   8
TORSDOF 9
ENDMDL
MODEL 4
REMARK VINA RESULT:    -3.578      9.313     11.072
REMARK INTER + INTRA:          -6.514
REMARK INTER:                  -5.981
REMARK INTRA:                  -0.534
REMARK UNBOUND:                -1.053
REMARK SMILES CCCCCCCCCCC(=O)[O-]
REMARK SMILES IDX 7 1 8 2 9 3 10 4 11 5 12 6 13 7 6 8 5 9 4 10 3 11 2 12 1 13
REMARK H PARENT
REMARK Flexibility Score: inf
ROOT
ATOM      1  C   UNL     1      13.154  40.539   1.662  1.00  0.00     0.000 C 
ENDROOT
BRANCH   1   2
ATOM      2  C   UNL     1      12.415  40.382   3.001  1.00  0.00     0.000 C 
BRANCH   2   3
ATOM      3  C   UNL     1      11.256  39.376   2.926  1.00  0.00     0.006 C 
BRANCH   3   4
ATOM      4  C   UNL     1      11.458  38.393   1.769  1.00  0.00     0.053 C 
BRANCH   4   5
ATOM      5  C   UNL     1      10.183  38.207   1.010  1.00  0.00     0.041 C 
ATOM      6  O   UNL     1       9.438  39.193   0.770  1.00  0.00    -0.550 OA
ATOM      7  O   UNL     1       9.794  36.935   0.608  1.00  0.00    -0.550 OA
ENDBRANCH   4   5
ENDBRANCH   3   4
ENDBRANCH   2   3
ENDBRANCH   1   2
BRANCH   1   8
ATOM      8  C   UNL     1      13.030  41.958   1.080  1.00  0.00     0.000 C 
BRANCH   8   9
ATOM      9  C   UNL     1      12.624  41.953  -0.403  1.00  0.00    -0.000 C 
BRANCH   9  10
ATOM     10  C   UNL     1      11.847  43.218  -0.807  1.00  0.00    -0.000 C 
BRANCH  10  11
ATOM     11  C   UNL     1      10.709  42.920  -1.798  1.00  0.00    -0.000 C 
BRANCH  11  12
ATOM     12  C   UNL     1       9.459  42.350  -1.111  1.00  0.00    -0.003 C 
ATOM     13  C   UNL     1       8.433  43.447  -0.840  1.00  0.00     0.004 C 
ENDBRANCH  11  12
ENDBRANCH  10  11
ENDBRANCH   9  10
ENDBRANCH   8   9
ENDBRANCH   1   8
TORSDOF 9
ENDMDL
MODEL 5
REMARK VINA RESULT:    -3.553      2.004      2.919
REMARK INTER + INTRA:          -6.476
REMARK INTER:                  -5.204
REMARK INTRA:                  -1.271
REMARK UNBOUND:                -1.053
REMARK SMILES CCCCCCCCCCC(=O)[O-]
REMARK SMILES IDX 7 1 8 2 9 3 10 4 11 5 12 6 13 7 6 8 5 9 4 10 3 11 2 12 1 13
REMARK H PARENT
REMARK Flexibility Score: inf
ROOT
ATOM      1  C   UNL     1       2.073  38.143  -6.499  1.00  0.00     0.000 C 
ENDROOT
BRANCH   1   2
ATOM      2  C   UNL     1       2.765  37.355  -7.623  1.00  0.00     0.000 C 
BRANCH   2   3
ATOM      3  C   UNL     1       3.831  38.181  -8.360  1.00  0.00     0.006 C 
BRANCH   3   4
ATOM      4  C   UNL     1       3.393  39.642  -8.497  1.00  0.00     0.053 C 
BRANCH   4   5
ATOM      5  C   UNL     1       4.393  40.551  -7.855  1.00  0.00     0.041 C 
ATOM      6  O   UNL     1       5.393  40.074  -7.258  1.00  0.00    -0.550 OA
ATOM      7  O   UNL     1       4.194  41.926  -7.876  1.00  0.00    -0.550 OA
ENDBRANCH   4   5
ENDBRANCH   3   4
ENDBRANCH   2   3
ENDBRANCH   1   2
BRANCH   1   8
ATOM      8  C   UNL     1       2.516  37.688  -5.098  1.00  0.00     0.000 C 
BRANCH   8   9
ATOM      9  C   UNL     1       3.741  38.464  -4.586  1.00  0.00    -0.000 C 
BRANCH   9  10
ATOM     10  C   UNL     1       5.054  37.683  -4.766  1.00  0.00    -0.000 C 
BRANCH  10  11
ATOM     11  C   UNL     1       4.887  36.178  -4.502  1.00  0.00    -0.000 C 
BRANCH  11  12
ATOM     12  C   UNL     1       5.325  35.314  -5.694  1.00  0.00    -0.003 C 
ATOM     13  C   UNL     1       6.266  36.086  -6.615  1.00  0.00     0.004 C 
ENDBRANCH  11  12
ENDBRANCH  10  11
ENDBRANCH   9  10
ENDBRANCH   8   9
ENDBRANCH   1   8
TORSDOF 9
ENDMDL
MODEL 6
REMARK VINA RESULT:    -3.547      2.596      4.555
REMARK INTER + INTRA:          -6.467
REMARK INTER:                  -5.129
REMARK INTRA:                  -1.338
REMARK UNBOUND:                -1.053
REMARK SMILES CCCCCCCCCCC(=O)[O-]
REMARK SMILES IDX 7 1 8 2 9 3 10 4 11 5 12 6 13 7 6 8 5 9 4 10 3 11 2 12 1 13
REMARK H PARENT
REMARK Flexibility Score: inf
ROOT
ATOM      1  C   UNL     1       5.103  38.073  -4.710  1.00  0.00     0.000 C 
ENDROOT
BRANCH   1   2
ATOM      2  C   UNL     1       5.958  38.453  -5.930  1.00  0.00     0.000 C 
BRANCH   2   3
ATOM      3  C   UNL     1       6.314  37.242  -6.806  1.00  0.00     0.006 C 
BRANCH   3   4
ATOM      4  C   UNL     1       5.745  35.951  -6.213  1.00  0.00     0.053 C 
BRANCH   4   5
ATOM      5  C   UNL     1       6.732  34.834  -6.343  1.00  0.00     0.041 C 
ATOM      6  O   UNL     1       7.144  34.229  -5.319  1.00  0.00    -0.550 OA
ATOM      7  O   UNL     1       7.234  34.494  -7.593  1.00  0.00    -0.550 OA
ENDBRANCH   4   5
ENDBRANCH   3   4
ENDBRANCH   2   3
ENDBRANCH   1   2
BRANCH   1   8
ATOM      8  C   UNL     1       3.724  38.756  -4.719  1.00  0.00     0.000 C 
BRANCH   8   9
ATOM      9  C   UNL     1       2.617  37.841  -5.270  1.00  0.00    -0.000 C 
BRANCH   9  10
ATOM     10  C   UNL     1       2.120  38.283  -6.657  1.00  0.00    -0.000 C 
BRANCH  10  11
ATOM     11  C   UNL     1       2.731  37.451  -7.796  1.00  0.00    -0.000 C 
BRANCH  11  12
ATOM     12  C   UNL     1       3.360  38.320  -8.895  1.00  0.00    -0.003 C 
ATOM     13  C   UNL     1       3.670  39.721  -8.376  1.00  0.00     0.004 C 
ENDBRANCH  11  12
ENDBRANCH  10  11
ENDBRANCH   9  10
ENDBRANCH   8   9
ENDBRANCH   1   8
TORSDOF 9
ENDMDL
MODEL 7
REMARK VINA RESULT:    -3.544      1.404      2.470
REMARK INTER + INTRA:          -6.461
REMARK INTER:                  -5.564
REMARK INTRA:                  -0.897
REMARK UNBOUND:                -1.053
REMARK SMILES CCCCCCCCCCC(=O)[O-]
REMARK SMILES IDX 7 1 8 2 9 3 10 4 11 5 12 6 13 7 6 8 5 9 4 10 3 11 2 12 1 13
REMARK H PARENT
REMARK Flexibility Score: inf
ROOT
ATOM      1  C   UNL     1       4.048  37.280  -4.729  1.00  0.00     0.000 C 
ENDROOT
BRANCH   1   2
ATOM      2  C   UNL     1       5.282  38.145  -5.039  1.00  0.00     0.000 C 
BRANCH   2   3
ATOM      3  C   UNL     1       5.833  37.910  -6.453  1.00  0.00     0.006 C 
BRANCH   3   4
ATOM      4  C   UNL     1       5.978  39.233  -7.211  1.00  0.00     0.053 C 
BRANCH   4   5
ATOM      5  C   UNL     1       4.633  39.800  -7.539  1.00  0.00     0.041 C 
ATOM      6  O   UNL     1       4.391  41.018  -7.331  1.00  0.00    -0.550 OA
ATOM      7  O   UNL     1       3.631  38.972  -8.029  1.00  0.00    -0.550 OA
ENDBRANCH   4   5
ENDBRANCH   3   4
ENDBRANCH   2   3
ENDBRANCH   1   2
BRANCH   1   8
ATOM      8  C   UNL     1       4.257  35.800  -5.093  1.00  0.00     0.000 C 
BRANCH   8   9
ATOM      9  C   UNL     1       5.420  35.161  -4.316  1.00  0.00    -0.000 C 
BRANCH   9  10
ATOM     10  C   UNL     1       6.054  33.978  -5.067  1.00  0.00    -0.000 C 
BRANCH  10  11
ATOM     11  C   UNL     1       7.045  34.430  -6.153  1.00  0.00    -0.000 C 
BRANCH  11  12
ATOM     12  C   UNL     1       6.799  33.742  -7.504  1.00  0.00    -0.003 C 
ATOM     13  C   UNL     1       5.652  34.408  -8.259  1.00  0.00     0.004 C 
ENDBRANCH  11  12
ENDBRANCH  10  11
ENDBRANCH   9  10
ENDBRANCH   8   9
ENDBRANCH   1   8
TORSDOF 9
ENDMDL
MODEL 8
REMARK VINA RESULT:    -3.488      1.637      3.052
REMARK INTER + INTRA:          -6.377
REMARK INTER:                  -5.486
REMARK INTRA:                  -0.891
REMARK UNBOUND:                -1.053
REMARK SMILES CCCCCCCCCCC(=O)[O-]
REMARK SMILES IDX 7 1 8 2 9 3 10 4 11 5 12 6 13 7 6 8 5 9 4 10 3 11 2 12 1 13
REMARK H PARENT
REMARK Flexibility Score: inf
ROOT
ATOM      1  C   UNL     1       4.216  35.647  -5.443  1.00  0.00     0.000 C 
ENDROOT
BRANCH   1   2
ATOM      2  C   UNL     1       4.908  36.727  -4.596  1.00  0.00     0.000 C 
BRANCH   2   3
ATOM      3  C   UNL     1       4.272  38.115  -4.767  1.00  0.00     0.006 C 
BRANCH   3   4
ATOM      4  C   UNL     1       5.080  38.970  -5.748  1.00  0.00     0.053 C 
BRANCH   4   5
ATOM      5  C   UNL     1       4.199  39.491  -6.839  1.00  0.00     0.041 C 
ATOM      6  O   UNL     1       3.180  38.843  -7.195  1.00  0.00    -0.550 OA
ATOM      7  O   UNL     1       4.532  40.668  -7.497  1.00  0.00    -0.550 OA
ENDBRANCH   4   5
ENDBRANCH   3   4
ENDBRANCH   2   3
ENDBRANCH   1   2
BRANCH   1   8
ATOM      8  C   UNL     1       4.859  35.482  -6.831  1.00  0.00     0.000 C 
BRANCH   8   9
ATOM      9  C   UNL     1       6.388  35.643  -6.796  1.00  0.00    -0.000 C 
BRANCH   9  10
ATOM     10  C   UNL     1       7.102  34.389  -6.262  1.00  0.00    -0.000 C 
BRANCH  10  11
ATOM     11  C   UNL     1       7.145  33.250  -7.295  1.00  0.00    -0.000 C 
BRANCH  11  12
ATOM     12  C   UNL     1       6.612  31.922  -6.735  1.00  0.00    -0.003 C 
ATOM     13  C   UNL     1       6.117  32.089  -5.301  1.00  0.00     0.004 C 
ENDBRANCH  11  12
ENDBRANCH  10  11
ENDBRANCH   9  10
ENDBRANCH   8   9
ENDBRANCH   1   8
TORSDOF 9
ENDMDL
MODEL 9
REMARK VINA RESULT:    -3.465     10.843     12.585
REMARK INTER + INTRA:          -6.342
REMARK INTER:                  -5.869
REMARK INTRA:                  -0.472
REMARK UNBOUND:                -1.053
REMARK SMILES CCCCCCCCCCC(=O)[O-]
REMARK SMILES IDX 7 1 8 2 9 3 10 4 11 5 12 6 13 7 6 8 5 9 4 10 3 11 2 12 1 13
REMARK H PARENT
REMARK Flexibility Score: inf
ROOT
ATOM      1  C   UNL     1      12.585  41.000   1.769  1.00  0.00     0.000 C 
ENDROOT
BRANCH   1   2
ATOM      2  C   UNL     1      11.683  39.927   2.404  1.00  0.00     0.000 C 
BRANCH   2   3
ATOM      3  C   UNL     1      12.319  39.271   3.639  1.00  0.00     0.006 C 
BRANCH   3   4
ATOM      4  C   UNL     1      13.369  38.235   3.229  1.00  0.00     0.053 C 
BRANCH   4   5
ATOM      5  C   UNL     1      14.749  38.761   3.470  1.00  0.00     0.041 C 
ATOM      6  O   UNL     1      15.650  38.596   2.607  1.00  0.00    -0.550 OA
ATOM      7  O   UNL     1      15.051  39.392   4.670  1.00  0.00    -0.550 OA
ENDBRANCH   4   5
ENDBRANCH   3   4
ENDBRANCH   2   3
ENDBRANCH   1   2
BRANCH   1   8
ATOM      8  C   UNL     1      12.273  41.228   0.280  1.00  0.00     0.000 C 
BRANCH   8   9
ATOM      9  C   UNL     1      10.979  40.527  -0.165  1.00  0.00    -0.000 C 
BRANCH   9  10
ATOM     10  C   UNL     1       9.867  41.522  -0.540  1.00  0.00    -0.000 C 
BRANCH  10  11
ATOM     11  C   UNL     1      10.161  42.271  -1.850  1.00  0.00    -0.000 C 
BRANCH  11  12
ATOM     12  C   UNL     1       9.424  43.616  -1.942  1.00  0.00    -0.003 C 
ATOM     13  C   UNL     1       8.315  43.708  -0.899  1.00  0.00     0.004 C 
ENDBRANCH  11  12
ENDBRANCH  10  11
ENDBRANCH   9  10
ENDBRANCH   8   9
ENDBRANCH   1   8
TORSDOF 9
ENDMDL
