MODEL 1
REMARK VINA RESULT:    -3.146      0.000      0.000
REMARK INTER + INTRA:          -6.156
REMARK INTER:                  -4.801
REMARK INTRA:                  -1.355
REMARK UNBOUND:                -1.355
REMARK SMILES CCCCCCCCCCC(=O)[O-]
REMARK SMILES IDX 7 1 8 2 9 3 10 4 11 5 12 6 13 7 6 8 5 9 4 10 3 11 2 12 1 13
REMARK H PARENT
REMARK Flexibility Score: inf
ROOT
ATOM      1  C   UNL     1      42.843  31.296  88.217  1.00  0.00     0.000 C 
ENDROOT
BRANCH   1   2
ATOM      2  C   UNL     1      44.050  30.356  88.043  1.00  0.00     0.000 C 
BRANCH   2   3
ATOM      3  C   UNL     1      44.583  29.811  89.376  1.00  0.00     0.006 C 
BRANCH   3   4
ATOM      4  C   UNL     1      43.865  30.461  90.562  1.00  0.00     0.053 C 
BRANCH   4   5
ATOM      5  C   UNL     1      44.819  31.291  91.361  1.00  0.00     0.041 C 
ATOM      6  O   UNL     1      45.957  31.570  90.899  1.00  0.00    -0.550 OA
ATOM      7  O   UNL     1      44.434  31.798  92.596  1.00  0.00    -0.550 OA
ENDBRANCH   4   5
ENDBRANCH   3   4
ENDBRANCH   2   3
ENDBRANCH   1   2
BRANCH   1   8
ATOM      8  C   UNL     1      41.623  30.968  87.336  1.00  0.00     0.000 C 
BRANCH   8   9
ATOM      9  C   UNL     1      40.311  30.890  88.133  1.00  0.00    -0.000 C 
BRANCH   9  10
ATOM     10  C   UNL     1      40.452  30.090  89.441  1.00  0.00    -0.000 C 
BRANCH  10  11
ATOM     11  C   UNL     1      40.202  28.573  89.318  1.00  0.00    -0.000 C 
BRANCH  11  12
ATOM     12  C   UNL     1      41.426  27.687  89.604  1.00  0.00    -0.003 C 
ATOM     13  C   UNL     1      42.095  27.166  88.333  1.00  0.00     0.004 C 
ENDBRANCH  11  12
ENDBRANCH  10  11
ENDBRANCH   9  10
ENDBRANCH   8   9
ENDBRANCH   1   8
TORSDOF 9
ENDMDL
MODEL 2
REMARK VINA RESULT:    -3.086      1.281      2.303
REMARK INTER + INTRA:          -6.064
REMARK INTER:                  -4.891
REMARK INTRA:                  -1.173
REMARK UNBOUND:                -1.355
REMARK SMILES CCCCCCCCCCC(=O)[O-]
REMARK SMILES IDX 7 1 8 2 9 3 10 4 11 5 12 6 13 7 6 8 5 9 4 10 3 11 2 12 1 13
REMARK H PARENT
REMARK Flexibility Score: inf
ROOT
ATOM      1  C   UNL     1      43.494  28.942  89.200  1.00  0.00     0.000 C 
ENDROOT
BRANCH   1   2
ATOM      2  C   UNL     1      42.756  29.476  90.441  1.00  0.00     0.000 C 
BRANCH   2   3
ATOM      3  C   UNL     1      43.457  29.116  91.759  1.00  0.00     0.006 C 
BRANCH   3   4
ATOM      4  C   UNL     1      44.913  29.589  91.752  1.00  0.00     0.053 C 
BRANCH   4   5
ATOM      5  C   UNL     1      44.978  31.083  91.703  1.00  0.00     0.041 C 
ATOM      6  O   UNL     1      45.592  31.660  90.767  1.00  0.00    -0.550 OA
ATOM      7  O   UNL     1      44.319  31.840  92.663  1.00  0.00    -0.550 OA
ENDBRANCH   4   5
ENDBRANCH   3   4
ENDBRANCH   2   3
ENDBRANCH   1   2
BRANCH   1   8
ATOM      8  C   UNL     1      43.783  29.988  88.107  1.00  0.00     0.000 C 
BRANCH   8   9
ATOM      9  C   UNL     1      42.924  31.255  88.248  1.00  0.00    -0.000 C 
BRANCH   9  10
ATOM     10  C   UNL     1      41.665  31.228  87.363  1.00  0.00    -0.000 C 
BRANCH  10  11
ATOM     11  C   UNL     1      40.333  31.019  88.115  1.00  0.00    -0.000 C 
BRANCH  11  12
ATOM     12  C   UNL     1      39.815  29.571  88.132  1.00  0.00    -0.003 C 
ATOM     13  C   UNL     1      40.449  28.699  87.050  1.00  0.00     0.004 C 
ENDBRANCH  11  12
ENDBRANCH  10  11
ENDBRANCH   9  10
ENDBRANCH   8   9
ENDBRANCH   1   8
TORSDOF 9
ENDMDL
MODEL 3
REMARK VINA RESULT:    -3.026      1.549      2.178
REMARK INTER + INTRA:          -5.972
REMARK INTER:                  -4.866
REMARK INTRA:                  -1.106
REMARK UNBOUND:                -1.355
REMARK SMILES CCCCCCCCCCC(=O)[O-]
REMARK SMILES IDX 7 1 8 2 9 3 10 4 11 5 12 6 13 7 6 8 5 9 4 10 3 11 2 12 1 13
REMARK H PARENT
REMARK Flexibility Score: inf
ROOT
ATOM      1  C   UNL     1      44.164  30.401  88.296  1.00  0.00     0.000 C 
ENDROOT
BRANCH   1   2
ATOM      2  C   UNL     1      44.034  31.519  89.346  1.00  0.00     0.000 C 
BRANCH   2   3
ATOM      3  C   UNL     1      44.573  31.113  90.726  1.00  0.00     0.006 C 
BRANCH   3   4
ATOM      4  C   UNL     1      43.619  30.138  91.422  1.00  0.00     0.053 C 
BRANCH   4   5
ATOM      5  C   UNL     1      44.388  29.119  92.201  1.00  0.00     0.041 C 
ATOM      6  O   UNL     1      43.818  28.445  93.100  1.00  0.00    -0.550 OA
ATOM      7  O   UNL     1      45.723  28.876  91.903  1.00  0.00    -0.550 OA
ENDBRANCH   4   5
ENDBRANCH   3   4
ENDBRANCH   2   3
ENDBRANCH   1   2
BRANCH   1   8
ATOM      8  C   UNL     1      42.880  30.092  87.503  1.00  0.00     0.000 C 
BRANCH   8   9
ATOM      9  C   UNL     1      41.854  31.236  87.554  1.00  0.00    -0.000 C 
BRANCH   9  10
ATOM     10  C   UNL     1      40.475  30.782  88.065  1.00  0.00    -0.000 C 
BRANCH  10  11
ATOM     11  C   UNL     1      40.477  30.093  89.445  1.00  0.00    -0.000 C 
BRANCH  11  12
ATOM     12  C   UNL     1      40.145  28.591  89.422  1.00  0.00    -0.003 C 
ATOM     13  C   UNL     1      41.272  27.724  89.980  1.00  0.00     0.004 C 
ENDBRANCH  11  12
ENDBRANCH  10  11
ENDBRANCH   9  10
ENDBRANCH   8   9
ENDBRANCH   1   8
TORSDOF 9
ENDMDL
MODEL 4
REMARK VINA RESULT:    -2.990      2.911      4.991
REMARK INTER + INTRA:          -5.918
REMARK INTER:                  -5.076
REMARK INTRA:                  -0.842
REMARK UNBOUND:                -1.355
REMARK SMILES CCCCCCCCCCC(=O)[O-]
REMARK SMILES IDX 7 1 8 2 9 3 10 4 11 5 12 6 13 7 6 8 5 9 4 10 3 11 2 12 1 13
REMARK H PARENT
REMARK Flexibility Score: inf
ROOT
ATOM      1  C   UNL     1      43.922  30.052  87.871  1.00  0.00     0.000 C 
ENDROOT
BRANCH   1   2
ATOM      2  C   UNL     1      42.959  31.172  88.305  1.00  0.00     0.000 C 
BRANCH   2   3
ATOM      3  C   UNL     1      41.732  31.298  87.390  1.00  0.00     0.006 C 
BRANCH   3   4
ATOM      4  C   UNL     1      40.450  30.918  88.136  1.00  0.00     0.053 C 
BRANCH   4   5
ATOM      5  C   UNL     1      40.282  29.432  88.167  1.00  0.00     0.041 C 
ATOM      6  O   UNL     1      40.206  28.780  87.091  1.00  0.00    -0.550 OA
ATOM      7  O   UNL     1      40.259  28.759  89.382  1.00  0.00    -0.550 OA
ENDBRANCH   4   5
ENDBRANCH   3   4
ENDBRANCH   2   3
ENDBRANCH   1   2
BRANCH   1   8
ATOM      8  C   UNL     1      45.357  30.172  88.417  1.00  0.00     0.000 C 
BRANCH   8   9
ATOM      9  C   UNL     1      45.605  31.491  89.168  1.00  0.00    -0.000 C 
BRANCH   9  10
ATOM     10  C   UNL     1      45.931  31.281  90.657  1.00  0.00    -0.000 C 
BRANCH  10  11
ATOM     11  C   UNL     1      44.752  31.495  91.629  1.00  0.00    -0.000 C 
BRANCH  11  12
ATOM     12  C   UNL     1      44.287  30.235  92.376  1.00  0.00    -0.003 C 
ATOM     13  C   UNL     1      45.062  28.982  91.972  1.00  0.00     0.004 C 
ENDBRANCH  11  12
ENDBRANCH  10  11
ENDBRANCH   9  10
ENDBRANCH   8   9
ENDBRANCH   1   8
TORSDOF 9
ENDMDL
MODEL 5
REMARK VINA RESULT:    -2.937      1.505      2.053
REMARK INTER + INTRA:          -5.836
REMARK INTER:                  -5.054
REMARK INTRA:                  -0.783
REMARK UNBOUND:                -1.355
REMARK SMILES CCCCCCCCCCC(=O)[O-]
REMARK SMILES IDX 7 1 8 2 9 3 10 4 11 5 12 6 13 7 6 8 5 9 4 10 3 11 2 12 1 13
REMARK H PARENT
REMARK Flexibility Score: inf
ROOT
ATOM      1  C   UNL     1      42.592  30.110  87.544  1.00  0.00     0.000 C 
ENDROOT
BRANCH   1   2
ATOM      2  C   UNL     1      43.969  30.520  88.095  1.00  0.00     0.000 C 
BRANCH   2   3
ATOM      3  C   UNL     1      43.885  31.222  89.459  1.00  0.00     0.006 C 
BRANCH   3   4
ATOM      4  C   UNL     1      43.640  30.210  90.582  1.00  0.00     0.053 C 
BRANCH   4   5
ATOM      5  C   UNL     1      44.396  30.600  91.813  1.00  0.00     0.041 C 
ATOM      6  O   UNL     1      44.638  29.745  92.706  1.00  0.00    -0.550 OA
ATOM      7  O   UNL     1      44.879  31.895  91.952  1.00  0.00    -0.550 OA
ENDBRANCH   4   5
ENDBRANCH   3   4
ENDBRANCH   2   3
ENDBRANCH   1   2
BRANCH   1   8
ATOM      8  C   UNL     1      41.544  31.237  87.488  1.00  0.00     0.000 C 
BRANCH   8   9
ATOM      9  C   UNL     1      40.243  30.883  88.227  1.00  0.00    -0.000 C 
BRANCH   9  10
ATOM     10  C   UNL     1      40.365  29.606  89.077  1.00  0.00    -0.000 C 
BRANCH  10  11
ATOM     11  C   UNL     1      39.542  28.399  88.579  1.00  0.00    -0.000 C 
BRANCH  11  12
ATOM     12  C   UNL     1      38.747  28.644  87.286  1.00  0.00    -0.003 C 
ATOM     13  C   UNL     1      37.266  28.295  87.422  1.00  0.00     0.004 C 
ENDBRANCH  11  12
ENDBRANCH  10  11
ENDBRANCH   9  10
ENDBRANCH   8   9
ENDBRANCH   1   8
TORSDOF 9
ENDMDL
MODEL 6
REMARK VINA RESULT:    -2.923      1.544      2.910
REMARK INTER + INTRA:          -5.815
REMARK INTER:                  -4.467
REMARK INTRA:                  -1.348
REMARK UNBOUND:                -1.355
REMARK SMILES CCCCCCCCCCC(=O)[O-]
REMARK SMILES IDX 7 1 8 2 9 3 10 4 11 5 12 6 13 7 6 8 5 9 4 10 3 11 2 12 1 13
REMARK H PARENT
REMARK Flexibility Score: inf
ROOT
ATOM      1  C   UNL     1      42.509  28.591  90.239  1.00  0.00     0.000 C 
ENDROOT
BRANCH   1   2
ATOM      2  C   UNL     1      43.928  29.166  90.079  1.00  0.00     0.000 C 
BRANCH   2   3
ATOM      3  C   UNL     1      44.038  30.630  90.530  1.00  0.00     0.006 C 
BRANCH   3   4
ATOM      4  C   UNL     1      44.561  31.515  89.396  1.00  0.00     0.053 C 
BRANCH   4   5
ATOM      5  C   UNL     1      46.050  31.413  89.295  1.00  0.00     0.041 C 
ATOM      6  O   UNL     1      46.761  31.473  90.332  1.00  0.00    -0.550 OA
ATOM      7  O   UNL     1      46.651  31.201  88.060  1.00  0.00    -0.550 OA
ENDBRANCH   4   5
ENDBRANCH   3   4
ENDBRANCH   2   3
ENDBRANCH   1   2
BRANCH   1   8
ATOM      8  C   UNL     1      41.372  29.629  90.202  1.00  0.00     0.000 C 
BRANCH   8   9
ATOM      9  C   UNL     1      40.600  29.625  88.872  1.00  0.00    -0.000 C 
BRANCH   9  10
ATOM     10  C   UNL     1      40.699  30.963  88.117  1.00  0.00    -0.000 C 
BRANCH  10  11
ATOM     11  C   UNL     1      41.855  31.063  87.101  1.00  0.00    -0.000 C 
BRANCH  11  12
ATOM     12  C   UNL     1      42.172  29.762  86.344  1.00  0.00    -0.003 C 
ATOM     13  C   UNL     1      43.646  29.371  86.423  1.00  0.00     0.004 C 
ENDBRANCH  11  12
ENDBRANCH  10  11
ENDBRANCH   9  10
ENDBRANCH   8   9
ENDBRANCH   1   8
TORSDOF 9
ENDMDL
MODEL 7
REMARK VINA RESULT:    -2.883      2.936      5.106
REMARK INTER + INTRA:          -5.754
REMARK INTER:                  -4.368
REMARK INTRA:                  -1.386
REMARK UNBOUND:                -1.355
REMARK SMILES CCCCCCCCCCC(=O)[O-]
REMARK SMILES IDX 7 1 8 2 9 3 10 4 11 5 12 6 13 7 6 8 5 9 4 10 3 11 2 12 1 13
REMARK H PARENT
REMARK Flexibility Score: inf
ROOT
ATOM      1  C   UNL     1      43.910  27.785  91.176  1.00  0.00     0.000 C 
ENDROOT
BRANCH   1   2
ATOM      2  C   UNL     1      42.430  28.207  91.167  1.00  0.00     0.000 C 
BRANCH   2   3
ATOM      3  C   UNL     1      41.928  28.611  89.773  1.00  0.00     0.006 C 
BRANCH   3   4
ATOM      4  C   UNL     1      41.092  29.893  89.841  1.00  0.00     0.053 C 
BRANCH   4   5
ATOM      5  C   UNL     1      40.552  30.238  88.490  1.00  0.00     0.041 C 
ATOM      6  O   UNL     1      41.075  31.166  87.817  1.00  0.00    -0.550 OA
ATOM      7  O   UNL     1      39.504  29.504  87.950  1.00  0.00    -0.550 OA
ENDBRANCH   4   5
ENDBRANCH   3   4
ENDBRANCH   2   3
ENDBRANCH   1   2
BRANCH   1   8
ATOM      8  C   UNL     1      44.868  28.765  91.878  1.00  0.00     0.000 C 
BRANCH   8   9
ATOM      9  C   UNL     1      44.136  29.925  92.573  1.00  0.00    -0.000 C 
BRANCH   9  10
ATOM     10  C   UNL     1      44.470  31.297  91.960  1.00  0.00    -0.000 C 
BRANCH  10  11
ATOM     11  C   UNL     1      45.253  31.253  90.631  1.00  0.00    -0.000 C 
BRANCH  11  12
ATOM     12  C   UNL     1      44.398  31.438  89.366  1.00  0.00    -0.003 C 
ATOM     13  C   UNL     1      44.743  30.440  88.262  1.00  0.00     0.004 C 
ENDBRANCH  11  12
ENDBRANCH  10  11
ENDBRANCH   9  10
ENDBRANCH   8   9
ENDBRANCH   1   8
TORSDOF 9
ENDMDL
MODEL 8
REMARK VINA RESULT:    -2.868      2.946      4.407
REMARK INTER + INTRA:          -5.731
REMARK INTER:                  -4.391
REMARK INTRA:                  -1.340
REMARK UNBOUND:                -1.355
REMARK SMILES CCCCCCCCCCC(=O)[O-]
REMARK SMILES IDX 7 1 8 2 9 3 10 4 11 5 12 6 13 7 6 8 5 9 4 10 3 11 2 12 1 13
REMARK H PARENT
REMARK Flexibility Score: inf
ROOT
ATOM      1  C   UNL     1      44.301  31.403  89.355  1.00  0.00     0.000 C 
ENDROOT
BRANCH   1   2
ATOM      2  C   UNL     1      44.296  30.174  88.428  1.00  0.00     0.000 C 
BRANCH   2   3
ATOM      3  C   UNL     1      42.942  29.448  88.399  1.00  0.00     0.006 C 
BRANCH   3   4
ATOM      4  C   UNL     1      41.864  30.270  89.111  1.00  0.00     0.053 C 
BRANCH   4   5
ATOM      5  C   UNL     1      40.937  30.893  88.115  1.00  0.00     0.041 C 
ATOM      6  O   UNL     1      39.692  30.735  88.222  1.00  0.00    -0.550 OA
ATOM      7  O   UNL     1      41.444  31.689  87.096  1.00  0.00    -0.550 OA
ENDBRANCH   4   5
ENDBRANCH   3   4
ENDBRANCH   2   3
ENDBRANCH   1   2
BRANCH   1   8
ATOM      8  C   UNL     1      45.235  31.301  90.575  1.00  0.00     0.000 C 
BRANCH   8   9
ATOM      9  C   UNL     1      44.478  31.311  91.913  1.00  0.00    -0.000 C 
BRANCH   9  10
ATOM     10  C   UNL     1      44.454  29.932  92.598  1.00  0.00    -0.000 C 
BRANCH  10  11
ATOM     11  C   UNL     1      43.295  29.005  92.175  1.00  0.00    -0.000 C 
BRANCH  11  12
ATOM     12  C   UNL     1      43.723  27.620  91.662  1.00  0.00    -0.003 C 
ATOM     13  C   UNL     1      45.180  27.578  91.207  1.00  0.00     0.004 C 
ENDBRANCH  11  12
ENDBRANCH  10  11
ENDBRANCH   9  10
ENDBRANCH   8   9
ENDBRANCH   1   8
TORSDOF 9
ENDMDL
MODEL 9
REMARK VINA RESULT:    -2.867      3.051      5.224
REMARK INTER + INTRA:          -5.730
REMARK INTER:                  -4.858
REMARK INTRA:                  -0.872
REMARK UNBOUND:                -1.355
REMARK SMILES CCCCCCCCCCC(=O)[O-]
REMARK SMILES IDX 7 1 8 2 9 3 10 4 11 5 12 6 13 7 6 8 5 9 4 10 3 11 2 12 1 13
REMARK H PARENT
REMARK Flexibility Score: inf
ROOT
ATOM      1  C   UNL     1      42.553  29.870  90.049  1.00  0.00     0.000 C 
ENDROOT
BRANCH   1   2
ATOM      2  C   UNL     1      41.042  29.791  89.765  1.00  0.00     0.000 C 
BRANCH   2   3
ATOM      3  C   UNL     1      40.629  30.546  88.494  1.00  0.00     0.006 C 
BRANCH   3   4
ATOM      4  C   UNL     1      41.834  30.778  87.577  1.00  0.00     0.053 C 
BRANCH   4   5
ATOM      5  C   UNL     1      41.882  29.738  86.503  1.00  0.00     0.041 C 
ATOM      6  O   UNL     1      42.884  29.657  85.744  1.00  0.00    -0.550 OA
ATOM      7  O   UNL     1      40.844  28.825  86.371  1.00  0.00    -0.550 OA
ENDBRANCH   4   5
ENDBRANCH   3   4
ENDBRANCH   2   3
ENDBRANCH   1   2
BRANCH   1   8
ATOM      8  C   UNL     1      42.974  29.479  91.478  1.00  0.00     0.000 C 
BRANCH   8   9
ATOM      9  C   UNL     1      44.203  30.258  91.974  1.00  0.00    -0.000 C 
BRANCH   9  10
ATOM     10  C   UNL     1      44.603  31.410  91.034  1.00  0.00    -0.000 C 
BRANCH  10  11
ATOM     11  C   UNL     1      46.057  31.367  90.518  1.00  0.00    -0.000 C 
BRANCH  11  12
ATOM     12  C   UNL     1      46.327  30.327  89.418  1.00  0.00    -0.003 C 
ATOM     13  C   UNL     1      45.605  30.644  88.109  1.00  0.00     0.004 C 
ENDBRANCH  11  12
ENDBRANCH  10  11
ENDBRANCH   9  10
ENDBRANCH   8   9
ENDBRANCH   1   8
TORSDOF 9
ENDMDL
