MODEL 1
REMARK VINA RESULT:    -5.055      0.000      0.000
REMARK INTER + INTRA:          -6.585
REMARK INTER:                  -7.124
REMARK INTRA:                   0.539
REMARK UNBOUND:                 0.539
REMARK SMILES CC1=CCC(=C(C)C)C(=O)CC(C)=CCC1
REMARK SMILES IDX 12 1 14 2 13 3 15 4 16 5 2 6 1 7 3 8 11 10 9 11 10 12 5 13
REMARK SMILES IDX 6 14 7 15 8 16 4 17
REMARK H PARENT
REMARK Flexibility Score: 60.00
ROOT
ATOM      1  C   UNL     1     -10.380 -16.388  32.055  1.00  0.00    -0.070 C 
ATOM      2  C   UNL     1      -9.952 -15.743  30.944  1.00  0.00    -0.027 C 
ATOM      3  C   UNL     1     -10.250 -15.681  33.380  1.00  0.00     0.039 C 
ENDROOT
BRANCH   2   4
ATOM      4  C   UNL     1      -9.950 -16.322  29.547  1.00  0.00     0.032 C 
BRANCH   4   5
ATOM      5  C   UNL     1     -11.155 -15.834  28.729  1.00  0.00     0.034 C 
BRANCH   5   6
ATOM      6  C   UNL     1     -11.787 -16.921  27.872  1.00  0.00    -0.077 C 
ATOM      7  C   UNL     1     -11.150 -17.267  26.549  1.00  0.00     0.039 C 
ATOM      8  C   UNL     1     -12.910 -17.588  28.224  1.00  0.00    -0.023 CG0
ATOM      9  G   UNL     1     -13.647 -17.431  29.534  1.00  0.00     0.000 G0
ENDBRANCH   5   6
ENDBRANCH   4   5
ENDBRANCH   2   4
BRANCH   1  10
ATOM     10  C   UNL     1     -10.984 -17.779  32.020  1.00  0.00     0.111 C 
BRANCH  10  11
ATOM     11  C   UNL     1     -12.474 -17.716  31.833  1.00  0.00     0.163 C 
ATOM     12  O   UNL     1     -13.184 -17.152  32.709  1.00  0.00    -0.294 OA
BRANCH  11  13
ATOM     13  C   UNL     1     -13.130 -18.326  30.648  1.00  0.00    -0.002 C 
ATOM     14  C   UNL     1     -13.271 -19.676  30.560  1.00  0.00    -0.069 C 
ATOM     15  C   UNL     1     -12.686 -20.594  31.611  1.00  0.00     0.039 C 
ATOM     16  C   UNL     1     -13.981 -20.313  29.388  1.00  0.00     0.039 C 
BRANCH  13  17
ATOM     17  C   UNL     1     -13.640 -17.419  29.533  1.00  0.00     0.066 CG0
ATOM     18  G   UNL     1     -12.895 -17.581  28.228  1.00  0.00     0.000 G0
ENDBRANCH  13  17
ENDBRANCH  11  13
ENDBRANCH  10  11
ENDBRANCH   1  10
TORSDOF 0
ENDMDL
MODEL 2
REMARK VINA RESULT:    -5.017      2.266      4.081
REMARK INTER + INTRA:          -6.531
REMARK INTER:                  -6.858
REMARK INTRA:                   0.327
REMARK UNBOUND:                 0.539
REMARK SMILES CC1=CCC(=C(C)C)C(=O)CC(C)=CCC1
REMARK SMILES IDX 12 1 14 2 13 3 15 4 16 5 2 6 1 7 3 8 11 10 9 11 10 12 5 13
REMARK SMILES IDX 6 14 7 15 8 16 4 17
REMARK H PARENT
REMARK Flexibility Score: 60.00
ROOT
ATOM      1  C   UNL     1     -13.977 -15.726  31.607  1.00  0.00    -0.070 C 
ATOM      2  C   UNL     1     -13.142 -15.942  32.650  1.00  0.00    -0.027 C 
ATOM      3  C   UNL     1     -15.007 -14.633  31.739  1.00  0.00     0.039 C 
ENDROOT
BRANCH   2   4
ATOM      4  C   UNL     1     -12.094 -17.031  32.715  1.00  0.00     0.032 C 
BRANCH   4   5
ATOM      5  C   UNL     1     -10.822 -16.641  31.949  1.00  0.00     0.034 C 
BRANCH   5   6
ATOM      6  C   UNL     1     -10.385 -17.682  30.929  1.00  0.00    -0.077 C 
ATOM      7  C   UNL     1      -9.956 -19.044  31.417  1.00  0.00     0.039 C 
ATOM      8  C   UNL     1     -10.340 -17.447  29.598  1.00  0.00    -0.023 CG0
ATOM      9  G   UNL     1     -10.794 -16.177  28.917  1.00  0.00     0.000 G0
ENDBRANCH   5   6
ENDBRANCH   4   5
ENDBRANCH   2   4
BRANCH   1  10
ATOM     10  C   UNL     1     -13.918 -16.528  30.321  1.00  0.00     0.111 C 
BRANCH  10  11
ATOM     11  C   UNL     1     -13.334 -15.712  29.202  1.00  0.00     0.163 C 
ATOM     12  O   UNL     1     -13.809 -14.570  28.957  1.00  0.00    -0.294 OA
BRANCH  11  13
ATOM     13  C   UNL     1     -12.224 -16.234  28.364  1.00  0.00    -0.002 C 
ATOM     14  C   UNL     1     -12.480 -16.756  27.134  1.00  0.00    -0.069 C 
ATOM     15  C   UNL     1     -13.897 -16.907  26.627  1.00  0.00     0.039 C 
ATOM     16  C   UNL     1     -11.359 -17.243  26.244  1.00  0.00     0.039 C 
BRANCH  13  17
ATOM     17  C   UNL     1     -10.798 -16.175  28.901  1.00  0.00     0.066 CG0
ATOM     18  G   UNL     1     -10.362 -17.438  29.606  1.00  0.00     0.000 G0
ENDBRANCH  13  17
ENDBRANCH  11  13
ENDBRANCH  10  11
ENDBRANCH   1  10
TORSDOF 0
ENDMDL
MODEL 3
REMARK VINA RESULT:    -4.924      2.251      4.816
REMARK INTER + INTRA:          -6.399
REMARK INTER:                  -7.172
REMARK INTRA:                   0.773
REMARK UNBOUND:                 0.539
REMARK SMILES CC1=CCC(=C(C)C)C(=O)CC(C)=CCC1
REMARK SMILES IDX 12 1 14 2 13 3 15 4 16 5 2 6 1 7 3 8 11 10 9 11 10 12 5 13
REMARK SMILES IDX 6 14 7 15 8 16 4 17
REMARK H PARENT
REMARK Flexibility Score: 60.00
ROOT
ATOM      1  C   UNL     1     -13.207 -19.227  29.593  1.00  0.00    -0.070 C 
ATOM      2  C   UNL     1     -13.520 -19.445  30.891  1.00  0.00    -0.027 C 
ATOM      3  C   UNL     1     -14.279 -19.456  28.557  1.00  0.00     0.039 C 
ENDROOT
BRANCH   2   4
ATOM      4  C   UNL     1     -12.557 -19.325  32.051  1.00  0.00     0.032 C 
BRANCH   4   5
ATOM      5  C   UNL     1     -12.138 -17.868  32.292  1.00  0.00     0.034 C 
BRANCH   5   6
ATOM      6  C   UNL     1     -13.286 -16.876  32.159  1.00  0.00    -0.077 C 
ATOM      7  C   UNL     1     -14.405 -16.919  33.169  1.00  0.00     0.039 C 
ATOM      8  C   UNL     1     -13.368 -15.963  31.165  1.00  0.00    -0.023 CG0
ATOM      9  G   UNL     1     -12.317 -15.723  30.106  1.00  0.00     0.000 G0
ENDBRANCH   5   6
ENDBRANCH   4   5
ENDBRANCH   2   4
BRANCH   1  10
ATOM     10  C   UNL     1     -11.837 -18.762  29.140  1.00  0.00     0.111 C 
BRANCH  10  11
ATOM     11  C   UNL     1     -11.939 -17.537  28.275  1.00  0.00     0.163 C 
ATOM     12  O   UNL     1     -11.387 -17.532  27.142  1.00  0.00    -0.294 OA
BRANCH  11  13
ATOM     13  C   UNL     1     -12.662 -16.324  28.738  1.00  0.00    -0.002 C 
ATOM     14  C   UNL     1     -13.620 -15.757  27.956  1.00  0.00    -0.069 C 
ATOM     15  C   UNL     1     -13.910 -16.282  26.568  1.00  0.00     0.039 C 
ATOM     16  C   UNL     1     -14.403 -14.554  28.431  1.00  0.00     0.039 C 
BRANCH  13  17
ATOM     17  C   UNL     1     -12.314 -15.725  30.096  1.00  0.00     0.066 CG0
ATOM     18  G   UNL     1     -13.369 -15.960  31.152  1.00  0.00     0.000 G0
ENDBRANCH  13  17
ENDBRANCH  11  13
ENDBRANCH  10  11
ENDBRANCH   1  10
TORSDOF 0
ENDMDL
MODEL 4
REMARK VINA RESULT:    -4.558      1.691      2.424
REMARK INTER + INTRA:          -5.885
REMARK INTER:                  -7.174
REMARK INTRA:                   1.289
REMARK UNBOUND:                 0.539
REMARK SMILES CC1=CCC(=C(C)C)C(=O)CC(C)=CCC1
REMARK SMILES IDX 12 1 14 2 13 3 15 4 16 5 2 6 1 7 3 8 11 10 9 11 10 12 5 13
REMARK SMILES IDX 6 14 7 15 8 16 4 17
REMARK H PARENT
REMARK Flexibility Score: 60.00
ROOT
ATOM      1  C   UNL     1     -13.417 -16.082  31.653  1.00  0.00    -0.070 C 
ATOM      2  C   UNL     1     -14.287 -15.507  30.791  1.00  0.00    -0.027 C 
ATOM      3  C   UNL     1     -13.973 -16.744  32.887  1.00  0.00     0.039 C 
ENDROOT
BRANCH   2   4
ATOM      4  C   UNL     1     -13.902 -14.749  29.540  1.00  0.00     0.032 C 
BRANCH   4   5
ATOM      5  C   UNL     1     -12.690 -15.383  28.843  1.00  0.00     0.034 C 
BRANCH   5   6
ATOM      6  C   UNL     1     -13.063 -16.473  27.849  1.00  0.00    -0.077 C 
ATOM      7  C   UNL     1     -14.092 -16.170  26.788  1.00  0.00     0.039 C 
ATOM      8  C   UNL     1     -12.534 -17.717  27.875  1.00  0.00    -0.023 CG0
ATOM      9  G   UNL     1     -11.446 -18.186  28.813  1.00  0.00     0.000 G0
ENDBRANCH   5   6
ENDBRANCH   4   5
ENDBRANCH   2   4
BRANCH   1  10
ATOM     10  C   UNL     1     -11.917 -16.091  31.428  1.00  0.00     0.111 C 
BRANCH  10  11
ATOM     11  C   UNL     1     -11.397 -17.496  31.308  1.00  0.00     0.163 C 
ATOM     12  O   UNL     1     -10.518 -17.902  32.115  1.00  0.00    -0.294 OA
BRANCH  11  13
ATOM     13  C   UNL     1     -11.883 -18.411  30.243  1.00  0.00    -0.002 C 
ATOM     14  C   UNL     1     -12.723 -19.436  30.550  1.00  0.00    -0.069 C 
ATOM     15  C   UNL     1     -13.108 -19.730  31.983  1.00  0.00     0.039 C 
ATOM     16  C   UNL     1     -13.271 -20.345  29.474  1.00  0.00     0.039 C 
BRANCH  13  17
ATOM     17  C   UNL     1     -11.428 -18.185  28.805  1.00  0.00     0.066 CG0
ATOM     18  G   UNL     1     -12.535 -17.733  27.881  1.00  0.00     0.000 G0
ENDBRANCH  13  17
ENDBRANCH  11  13
ENDBRANCH  10  11
ENDBRANCH   1  10
TORSDOF 0
ENDMDL
MODEL 5
REMARK VINA RESULT:    -4.558      1.703      2.180
REMARK INTER + INTRA:          -5.884
REMARK INTER:                  -6.792
REMARK INTRA:                   0.909
REMARK UNBOUND:                 0.539
REMARK SMILES CC1=CCC(=C(C)C)C(=O)CC(C)=CCC1
REMARK SMILES IDX 12 1 14 2 13 3 15 4 16 5 2 6 1 7 3 8 11 10 9 11 10 12 5 13
REMARK SMILES IDX 6 14 7 15 8 16 4 17
REMARK H PARENT
REMARK Flexibility Score: 60.00
ROOT
ATOM      1  C   UNL     1     -12.529 -17.096  31.961  1.00  0.00    -0.070 C 
ATOM      2  C   UNL     1     -12.342 -15.932  31.296  1.00  0.00    -0.027 C 
ATOM      3  C   UNL     1     -13.812 -17.274  32.732  1.00  0.00     0.039 C 
ENDROOT
BRANCH   2   4
ATOM      4  C   UNL     1     -11.095 -15.560  30.526  1.00  0.00     0.032 C 
BRANCH   4   5
ATOM      5  C   UNL     1     -11.336 -15.586  29.010  1.00  0.00     0.034 C 
BRANCH   5   6
ATOM      6  C   UNL     1     -12.783 -15.865  28.630  1.00  0.00    -0.077 C 
ATOM      7  C   UNL     1     -13.761 -14.717  28.591  1.00  0.00     0.039 C 
ATOM      8  C   UNL     1     -13.251 -17.101  28.342  1.00  0.00    -0.023 CG0
ATOM      9  G   UNL     1     -12.416 -18.357  28.261  1.00  0.00     0.000 G0
ENDBRANCH   5   6
ENDBRANCH   4   5
ENDBRANCH   2   4
BRANCH   1  10
ATOM     10  C   UNL     1     -11.512 -18.221  31.959  1.00  0.00     0.111 C 
BRANCH  10  11
ATOM     11  C   UNL     1     -11.196 -18.662  30.557  1.00  0.00     0.163 C 
ATOM     12  O   UNL     1      -9.999 -18.660  30.162  1.00  0.00    -0.294 OA
BRANCH  11  13
ATOM     13  C   UNL     1     -12.270 -19.079  29.619  1.00  0.00    -0.002 C 
ATOM     14  C   UNL     1     -13.119 -20.088  29.953  1.00  0.00    -0.069 C 
ATOM     15  C   UNL     1     -12.937 -20.871  31.235  1.00  0.00     0.039 C 
ATOM     16  C   UNL     1     -14.251 -20.492  29.036  1.00  0.00     0.039 C 
BRANCH  13  17
ATOM     17  C   UNL     1     -12.407 -18.362  28.280  1.00  0.00     0.066 CG0
ATOM     18  G   UNL     1     -13.253 -17.112  28.343  1.00  0.00     0.000 G0
ENDBRANCH  13  17
ENDBRANCH  11  13
ENDBRANCH  10  11
ENDBRANCH   1  10
TORSDOF 0
ENDMDL
MODEL 6
REMARK VINA RESULT:    -4.547      2.254      4.224
REMARK INTER + INTRA:          -5.869
REMARK INTER:                  -7.195
REMARK INTRA:                   1.326
REMARK UNBOUND:                 0.539
REMARK SMILES CC1=CCC(=C(C)C)C(=O)CC(C)=CCC1
REMARK SMILES IDX 12 1 14 2 13 3 15 4 16 5 2 6 1 7 3 8 11 10 9 11 10 12 5 13
REMARK SMILES IDX 6 14 7 15 8 16 4 17
REMARK H PARENT
REMARK Flexibility Score: 60.00
ROOT
ATOM      1  C   UNL     1     -13.211 -15.519  29.413  1.00  0.00    -0.070 C 
ATOM      2  C   UNL     1     -14.031 -15.362  30.479  1.00  0.00    -0.027 C 
ATOM      3  C   UNL     1     -13.812 -15.414  28.034  1.00  0.00     0.039 C 
ENDROOT
BRANCH   2   4
ATOM      4  C   UNL     1     -13.613 -15.495  31.926  1.00  0.00     0.032 C 
BRANCH   4   5
ATOM      5  C   UNL     1     -13.050 -16.891  32.227  1.00  0.00     0.034 C 
BRANCH   5   6
ATOM      6  C   UNL     1     -11.608 -16.873  32.715  1.00  0.00    -0.077 C 
ATOM      7  C   UNL     1     -11.223 -15.912  33.812  1.00  0.00     0.039 C 
ATOM      8  C   UNL     1     -10.639 -17.664  32.201  1.00  0.00    -0.023 CG0
ATOM      9  G   UNL     1     -10.845 -18.732  31.152  1.00  0.00     0.000 G0
ENDBRANCH   5   6
ENDBRANCH   4   5
ENDBRANCH   2   4
BRANCH   1  10
ATOM     10  C   UNL     1     -11.725 -15.789  29.547  1.00  0.00     0.111 C 
BRANCH  10  11
ATOM     11  C   UNL     1     -11.392 -17.197  29.138  1.00  0.00     0.163 C 
ATOM     12  O   UNL     1     -10.814 -17.400  28.036  1.00  0.00    -0.294 OA
BRANCH  11  13
ATOM     13  C   UNL     1     -11.750 -18.356  29.995  1.00  0.00    -0.002 C 
ATOM     14  C   UNL     1     -12.894 -19.055  29.761  1.00  0.00    -0.069 C 
ATOM     15  C   UNL     1     -13.871 -18.621  28.691  1.00  0.00     0.039 C 
ATOM     16  C   UNL     1     -13.249 -20.269  30.588  1.00  0.00     0.039 C 
BRANCH  13  17
ATOM     17  C   UNL     1     -10.822 -18.748  31.139  1.00  0.00     0.066 CG0
ATOM     18  G   UNL     1     -10.653 -17.669  32.183  1.00  0.00     0.000 G0
ENDBRANCH  13  17
ENDBRANCH  11  13
ENDBRANCH  10  11
ENDBRANCH   1  10
TORSDOF 0
ENDMDL
MODEL 7
REMARK VINA RESULT:    -4.496      1.809      3.568
REMARK INTER + INTRA:          -5.797
REMARK INTER:                  -6.398
REMARK INTRA:                   0.601
REMARK UNBOUND:                 0.539
REMARK SMILES CC1=CCC(=C(C)C)C(=O)CC(C)=CCC1
REMARK SMILES IDX 12 1 14 2 13 3 15 4 16 5 2 6 1 7 3 8 11 10 9 11 10 12 5 13
REMARK SMILES IDX 6 14 7 15 8 16 4 17
REMARK H PARENT
REMARK Flexibility Score: 60.00
ROOT
ATOM      1  C   UNL     1     -12.320 -19.683  30.892  1.00  0.00    -0.070 C 
ATOM      2  C   UNL     1     -13.330 -19.844  30.006  1.00  0.00    -0.027 C 
ATOM      3  C   UNL     1     -12.560 -20.089  32.323  1.00  0.00     0.039 C 
ENDROOT
BRANCH   2   4
ATOM      4  C   UNL     1     -13.286 -19.435  28.550  1.00  0.00     0.032 C 
BRANCH   4   5
ATOM      5  C   UNL     1     -14.251 -18.277  28.257  1.00  0.00     0.034 C 
BRANCH   5   6
ATOM      6  C   UNL     1     -13.548 -16.953  27.994  1.00  0.00    -0.077 C 
ATOM      7  C   UNL     1     -13.320 -16.522  26.566  1.00  0.00     0.039 C 
ATOM      8  C   UNL     1     -13.096 -16.142  28.977  1.00  0.00    -0.023 CG0
ATOM      9  G   UNL     1     -13.292 -16.368  30.458  1.00  0.00     0.000 G0
ENDBRANCH   5   6
ENDBRANCH   4   5
ENDBRANCH   2   4
BRANCH   1  10
ATOM     10  C   UNL     1     -10.966 -19.119  30.506  1.00  0.00     0.111 C 
BRANCH  10  11
ATOM     11  C   UNL     1     -11.007 -17.618  30.429  1.00  0.00     0.163 C 
ATOM     12  O   UNL     1     -10.155 -17.011  29.727  1.00  0.00    -0.294 OA
BRANCH  11  13
ATOM     13  C   UNL     1     -12.020 -16.834  31.183  1.00  0.00    -0.002 C 
ATOM     14  C   UNL     1     -11.822 -16.541  32.497  1.00  0.00    -0.069 C 
ATOM     15  C   UNL     1     -10.624 -17.080  33.247  1.00  0.00     0.039 C 
ATOM     16  C   UNL     1     -12.814 -15.699  33.266  1.00  0.00     0.039 C 
BRANCH  13  17
ATOM     17  C   UNL     1     -13.280 -16.364  30.464  1.00  0.00     0.066 CG0
ATOM     18  G   UNL     1     -13.092 -16.157  28.979  1.00  0.00     0.000 G0
ENDBRANCH  13  17
ENDBRANCH  11  13
ENDBRANCH  10  11
ENDBRANCH   1  10
TORSDOF 0
ENDMDL
MODEL 8
REMARK VINA RESULT:    -4.474      1.768      3.857
REMARK INTER + INTRA:          -5.765
REMARK INTER:                  -6.858
REMARK INTRA:                   1.093
REMARK UNBOUND:                 0.539
REMARK SMILES CC1=CCC(=C(C)C)C(=O)CC(C)=CCC1
REMARK SMILES IDX 12 1 14 2 13 3 15 4 16 5 2 6 1 7 3 8 11 10 9 11 10 12 5 13
REMARK SMILES IDX 6 14 7 15 8 16 4 17
REMARK H PARENT
REMARK Flexibility Score: 60.00
ROOT
ATOM      1  C   UNL     1     -13.055 -17.086  31.673  1.00  0.00    -0.070 C 
ATOM      2  C   UNL     1     -13.574 -18.304  31.952  1.00  0.00    -0.027 C 
ATOM      3  C   UNL     1     -13.975 -15.893  31.731  1.00  0.00     0.039 C 
ENDROOT
BRANCH   2   4
ATOM      4  C   UNL     1     -12.815 -19.611  31.883  1.00  0.00     0.032 C 
BRANCH   4   5
ATOM      5  C   UNL     1     -12.166 -19.817  30.507  1.00  0.00     0.034 C 
BRANCH   5   6
ATOM      6  C   UNL     1     -13.154 -19.738  29.352  1.00  0.00    -0.077 C 
ATOM      7  C   UNL     1     -14.363 -20.640  29.365  1.00  0.00     0.039 C 
ATOM      8  C   UNL     1     -12.998 -18.910  28.294  1.00  0.00    -0.023 CG0
ATOM      9  G   UNL     1     -11.895 -17.890  28.137  1.00  0.00     0.000 G0
ENDBRANCH   5   6
ENDBRANCH   4   5
ENDBRANCH   2   4
BRANCH   1  10
ATOM     10  C   UNL     1     -11.598 -16.872  31.312  1.00  0.00     0.111 C 
BRANCH  10  11
ATOM     11  C   UNL     1     -11.467 -16.133  30.010  1.00  0.00     0.163 C 
ATOM     12  O   UNL     1     -10.708 -15.128  29.943  1.00  0.00    -0.294 OA
BRANCH  11  13
ATOM     13  C   UNL     1     -12.230 -16.549  28.805  1.00  0.00    -0.002 C 
ATOM     14  C   UNL     1     -13.207 -15.747  28.301  1.00  0.00    -0.069 C 
ATOM     15  C   UNL     1     -13.605 -14.465  28.999  1.00  0.00     0.039 C 
ATOM     16  C   UNL     1     -13.958 -16.127  27.046  1.00  0.00     0.039 C 
BRANCH  13  17
ATOM     17  C   UNL     1     -11.904 -17.884  28.144  1.00  0.00     0.066 CG0
ATOM     18  G   UNL     1     -12.998 -18.916  28.289  1.00  0.00     0.000 G0
ENDBRANCH  13  17
ENDBRANCH  11  13
ENDBRANCH  10  11
ENDBRANCH   1  10
TORSDOF 0
ENDMDL
MODEL 9
REMARK VINA RESULT:    -4.276      1.950      2.803
REMARK INTER + INTRA:          -5.487
REMARK INTER:                  -6.069
REMARK INTRA:                   0.582
REMARK UNBOUND:                 0.539
REMARK SMILES CC1=CCC(=C(C)C)C(=O)CC(C)=CCC1
REMARK SMILES IDX 12 1 14 2 13 3 15 4 16 5 2 6 1 7 3 8 11 10 9 11 10 12 5 13
REMARK SMILES IDX 6 14 7 15 8 16 4 17
REMARK H PARENT
REMARK Flexibility Score: 60.00
ROOT
ATOM      1  C   UNL     1     -10.683 -18.006  31.293  1.00  0.00    -0.070 C 
ATOM      2  C   UNL     1     -10.043 -17.237  30.382  1.00  0.00    -0.027 C 
ATOM      3  C   UNL     1     -10.458 -19.495  31.248  1.00  0.00     0.039 C 
ENDROOT
BRANCH   2   4
ATOM      4  C   UNL     1     -10.199 -15.739  30.242  1.00  0.00     0.032 C 
BRANCH   4   5
ATOM      5  C   UNL     1     -10.910 -15.363  28.935  1.00  0.00     0.034 C 
BRANCH   5   6
ATOM      6  C   UNL     1     -12.035 -16.317  28.559  1.00  0.00    -0.077 C 
ATOM      7  C   UNL     1     -11.825 -17.273  27.412  1.00  0.00     0.039 C 
ATOM      8  C   UNL     1     -13.231 -16.341  29.189  1.00  0.00    -0.023 CG0
ATOM      9  G   UNL     1     -13.602 -15.513  30.397  1.00  0.00     0.000 G0
ENDBRANCH   5   6
ENDBRANCH   4   5
ENDBRANCH   2   4
BRANCH   1  10
ATOM     10  C   UNL     1     -11.606 -17.435  32.352  1.00  0.00     0.111 C 
BRANCH  10  11
ATOM     11  C   UNL     1     -13.044 -17.527  31.923  1.00  0.00     0.163 C 
ATOM     12  O   UNL     1     -13.569 -18.661  31.760  1.00  0.00    -0.294 OA
BRANCH  11  13
ATOM     13  C   UNL     1     -13.853 -16.308  31.666  1.00  0.00    -0.002 C 
ATOM     14  C   UNL     1     -14.809 -15.919  32.552  1.00  0.00    -0.069 C 
ATOM     15  C   UNL     1     -15.139 -16.760  33.766  1.00  0.00     0.039 C 
ATOM     16  C   UNL     1     -15.606 -14.653  32.336  1.00  0.00     0.039 C 
BRANCH  13  17
ATOM     17  C   UNL     1     -13.597 -15.500  30.398  1.00  0.00     0.066 CG0
ATOM     18  G   UNL     1     -13.252 -16.348  29.196  1.00  0.00     0.000 G0
ENDBRANCH  13  17
ENDBRANCH  11  13
ENDBRANCH  10  11
ENDBRANCH   1  10
TORSDOF 0
ENDMDL
