MODEL 1
REMARK VINA RESULT:    -3.111      0.000      0.000
REMARK INTER + INTRA:          -5.865
REMARK INTER:                  -4.930
REMARK INTRA:                  -0.935
REMARK UNBOUND:                -0.935
REMARK SMILES CCCCCCCCCCCC(=O)[O-]
REMARK SMILES IDX 7 1 8 2 9 3 10 4 11 5 12 6 13 7 14 8 6 9 5 10 4 11 3 12 2 13
REMARK SMILES IDX 1 14
REMARK H PARENT
REMARK Flexibility Score: inf
ROOT
ATOM      1  C   UNL     1      -5.130  13.464  -4.055  1.00  0.00     0.000 C 
ENDROOT
BRANCH   1   2
ATOM      2  C   UNL     1      -4.988  11.932  -4.039  1.00  0.00     0.000 C 
BRANCH   2   3
ATOM      3  C   UNL     1      -3.525  11.477  -3.924  1.00  0.00     0.000 C 
BRANCH   3   4
ATOM      4  C   UNL     1      -3.374   9.946  -3.957  1.00  0.00     0.006 C 
BRANCH   4   5
ATOM      5  C   UNL     1      -2.929   9.437  -5.335  1.00  0.00     0.053 C 
BRANCH   5   6
ATOM      6  C   UNL     1      -3.648   8.180  -5.720  1.00  0.00     0.041 C 
ATOM      7  O   UNL     1      -3.051   7.282  -6.370  1.00  0.00    -0.550 OA
ATOM      8  O   UNL     1      -4.987   8.016  -5.389  1.00  0.00    -0.550 OA
ENDBRANCH   5   6
ENDBRANCH   4   5
ENDBRANCH   3   4
ENDBRANCH   2   3
ENDBRANCH   1   2
BRANCH   1   9
ATOM      9  C   UNL     1      -6.302  13.958  -3.190  1.00  0.00     0.000 C 
BRANCH   9  10
ATOM     10  C   UNL     1      -5.834  14.620  -1.882  1.00  0.00    -0.000 C 
BRANCH  10  11
ATOM     11  C   UNL     1      -6.381  13.910  -0.632  1.00  0.00    -0.000 C 
BRANCH  11  12
ATOM     12  C   UNL     1      -5.265  13.428   0.311  1.00  0.00    -0.000 C 
BRANCH  12  13
ATOM     13  C   UNL     1      -4.227  12.551  -0.406  1.00  0.00    -0.003 C 
ATOM     14  C   UNL     1      -2.799  13.076  -0.254  1.00  0.00     0.004 C 
ENDBRANCH  12  13
ENDBRANCH  11  12
ENDBRANCH  10  11
ENDBRANCH   9  10
ENDBRANCH   1   9
TORSDOF 10
ENDMDL
MODEL 2
REMARK VINA RESULT:    -3.045      2.577      3.018
REMARK INTER + INTRA:          -5.760
REMARK INTER:                  -4.973
REMARK INTRA:                  -0.787
REMARK UNBOUND:                -0.935
REMARK SMILES CCCCCCCCCCCC(=O)[O-]
REMARK SMILES IDX 7 1 8 2 9 3 10 4 11 5 12 6 13 7 14 8 6 9 5 10 4 11 3 12 2 13
REMARK SMILES IDX 1 14
REMARK H PARENT
REMARK Flexibility Score: inf
ROOT
ATOM      1  C   UNL     1      -5.166  11.819  -4.296  1.00  0.00     0.000 C 
ENDROOT
BRANCH   1   2
ATOM      2  C   UNL     1      -3.861  11.343  -3.635  1.00  0.00     0.000 C 
BRANCH   2   3
ATOM      3  C   UNL     1      -3.331  10.037  -4.249  1.00  0.00     0.000 C 
BRANCH   3   4
ATOM      4  C   UNL     1      -2.123  10.263  -5.174  1.00  0.00     0.006 C 
BRANCH   4   5
ATOM      5  C   UNL     1      -1.366  11.554  -4.832  1.00  0.00     0.053 C 
BRANCH   5   6
ATOM      6  C   UNL     1      -0.019  11.597  -5.488  1.00  0.00     0.041 C 
ATOM      7  O   UNL     1       1.028  11.553  -4.790  1.00  0.00    -0.550 OA
ATOM      8  O   UNL     1       0.078  11.720  -6.868  1.00  0.00    -0.550 OA
ENDBRANCH   5   6
ENDBRANCH   4   5
ENDBRANCH   3   4
ENDBRANCH   2   3
ENDBRANCH   1   2
BRANCH   1   9
ATOM      9  C   UNL     1      -5.627  13.190  -3.774  1.00  0.00     0.000 C 
BRANCH   9  10
ATOM     10  C   UNL     1      -4.877  13.621  -2.501  1.00  0.00    -0.000 C 
BRANCH  10  11
ATOM     11  C   UNL     1      -5.746  13.507  -1.237  1.00  0.00    -0.000 C 
BRANCH  11  12
ATOM     12  C   UNL     1      -4.929  13.126   0.010  1.00  0.00    -0.000 C 
BRANCH  12  13
ATOM     13  C   UNL     1      -3.455  12.843  -0.316  1.00  0.00    -0.003 C 
ATOM     14  C   UNL     1      -2.497  13.814   0.375  1.00  0.00     0.004 C 
ENDBRANCH  12  13
ENDBRANCH  11  12
ENDBRANCH  10  11
ENDBRANCH   9  10
ENDBRANCH   1   9
TORSDOF 10
ENDMDL
MODEL 3
REMARK VINA RESULT:    -3.044     13.192     14.809
REMARK INTER + INTRA:          -5.760
REMARK INTER:                  -4.770
REMARK INTRA:                  -0.989
REMARK UNBOUND:                -0.935
REMARK SMILES CCCCCCCCCCCC(=O)[O-]
REMARK SMILES IDX 7 1 8 2 9 3 10 4 11 5 12 6 13 7 14 8 6 9 5 10 4 11 3 12 2 13
REMARK SMILES IDX 1 14
REMARK H PARENT
REMARK Flexibility Score: inf
ROOT
ATOM      1  C   UNL     1       8.735   8.151   2.196  1.00  0.00     0.000 C 
ENDROOT
BRANCH   1   2
ATOM      2  C   UNL     1       9.699   7.375   1.280  1.00  0.00     0.000 C 
BRANCH   2   3
ATOM      3  C   UNL     1       9.233   5.934   1.020  1.00  0.00     0.000 C 
BRANCH   3   4
ATOM      4  C   UNL     1      10.275   5.102   0.253  1.00  0.00     0.006 C 
BRANCH   4   5
ATOM      5  C   UNL     1      10.722   3.865   1.043  1.00  0.00     0.053 C 
BRANCH   5   6
ATOM      6  C   UNL     1       9.709   2.762   0.967  1.00  0.00     0.041 C 
ATOM      7  O   UNL     1       9.336   2.321  -0.152  1.00  0.00    -0.550 OA
ATOM      8  O   UNL     1       9.153   2.248   2.130  1.00  0.00    -0.550 OA
ENDBRANCH   5   6
ENDBRANCH   4   5
ENDBRANCH   3   4
ENDBRANCH   2   3
ENDBRANCH   1   2
BRANCH   1   9
ATOM      9  C   UNL     1       7.263   7.982   1.782  1.00  0.00     0.000 C 
BRANCH   9  10
ATOM     10  C   UNL     1       6.543   9.329   1.597  1.00  0.00    -0.000 C 
BRANCH  10  11
ATOM     11  C   UNL     1       6.125   9.579   0.138  1.00  0.00    -0.000 C 
BRANCH  11  12
ATOM     12  C   UNL     1       7.301  10.030  -0.746  1.00  0.00    -0.000 C 
BRANCH  12  13
ATOM     13  C   UNL     1       7.356   9.275  -2.082  1.00  0.00    -0.003 C 
ATOM     14  C   UNL     1       8.317   8.086  -2.054  1.00  0.00     0.004 C 
ENDBRANCH  12  13
ENDBRANCH  11  12
ENDBRANCH  10  11
ENDBRANCH   9  10
ENDBRANCH   1   9
TORSDOF 10
ENDMDL
MODEL 4
REMARK VINA RESULT:    -3.034      3.821      5.809
REMARK INTER + INTRA:          -5.743
REMARK INTER:                  -4.233
REMARK INTRA:                  -1.511
REMARK UNBOUND:                -0.935
REMARK SMILES CCCCCCCCCCCC(=O)[O-]
REMARK SMILES IDX 7 1 8 2 9 3 10 4 11 5 12 6 13 7 14 8 6 9 5 10 4 11 3 12 2 13
REMARK SMILES IDX 1 14
REMARK H PARENT
REMARK Flexibility Score: inf
ROOT
ATOM      1  C   UNL     1      -2.934   7.389  -7.121  1.00  0.00     0.000 C 
ENDROOT
BRANCH   1   2
ATOM      2  C   UNL     1      -1.830   8.308  -7.672  1.00  0.00     0.000 C 
BRANCH   2   3
ATOM      3  C   UNL     1      -2.195   9.797  -7.563  1.00  0.00     0.000 C 
BRANCH   3   4
ATOM      4  C   UNL     1      -0.990  10.679  -7.191  1.00  0.00     0.006 C 
BRANCH   4   5
ATOM      5  C   UNL     1      -0.361  10.263  -5.854  1.00  0.00     0.053 C 
BRANCH   5   6
ATOM      6  C   UNL     1       0.355  11.407  -5.200  1.00  0.00     0.041 C 
ATOM      7  O   UNL     1      -0.244  12.496  -4.996  1.00  0.00    -0.550 OA
ATOM      8  O   UNL     1       1.692  11.280  -4.849  1.00  0.00    -0.550 OA
ENDBRANCH   5   6
ENDBRANCH   4   5
ENDBRANCH   3   4
ENDBRANCH   2   3
ENDBRANCH   1   2
BRANCH   1   9
ATOM      9  C   UNL     1      -3.341   7.750  -5.682  1.00  0.00     0.000 C 
BRANCH   9  10
ATOM     10  C   UNL     1      -4.802   8.222  -5.581  1.00  0.00    -0.000 C 
BRANCH  10  11
ATOM     11  C   UNL     1      -4.957   9.481  -4.711  1.00  0.00    -0.000 C 
BRANCH  11  12
ATOM     12  C   UNL     1      -3.626   9.941  -4.093  1.00  0.00    -0.000 C 
BRANCH  12  13
ATOM     13  C   UNL     1      -3.518  11.471  -4.001  1.00  0.00    -0.003 C 
ATOM     14  C   UNL     1      -3.998  12.178  -5.268  1.00  0.00     0.004 C 
ENDBRANCH  12  13
ENDBRANCH  11  12
ENDBRANCH  10  11
ENDBRANCH   9  10
ENDBRANCH   1   9
TORSDOF 10
ENDMDL
MODEL 5
REMARK VINA RESULT:    -3.033     15.826     17.573
REMARK INTER + INTRA:          -5.741
REMARK INTER:                  -4.916
REMARK INTRA:                  -0.825
REMARK UNBOUND:                -0.935
REMARK SMILES CCCCCCCCCCCC(=O)[O-]
REMARK SMILES IDX 7 1 8 2 9 3 10 4 11 5 12 6 13 7 14 8 6 9 5 10 4 11 3 12 2 13
REMARK SMILES IDX 1 14
REMARK H PARENT
REMARK Flexibility Score: inf
ROOT
ATOM      1  C   UNL     1       7.547   0.829  -4.867  1.00  0.00     0.000 C 
ENDROOT
BRANCH   1   2
ATOM      2  C   UNL     1       7.382   2.251  -4.303  1.00  0.00     0.000 C 
BRANCH   2   3
ATOM      3  C   UNL     1       8.569   3.163  -4.650  1.00  0.00     0.000 C 
BRANCH   3   4
ATOM      4  C   UNL     1       9.429   3.512  -3.422  1.00  0.00     0.006 C 
BRANCH   4   5
ATOM      5  C   UNL     1      10.496   2.445  -3.141  1.00  0.00     0.053 C 
BRANCH   5   6
ATOM      6  C   UNL     1      10.071   1.512  -2.048  1.00  0.00     0.041 C 
ATOM      7  O   UNL     1      10.181   0.266  -2.199  1.00  0.00    -0.550 OA
ATOM      8  O   UNL     1       9.523   2.018  -0.876  1.00  0.00    -0.550 OA
ENDBRANCH   5   6
ENDBRANCH   4   5
ENDBRANCH   3   4
ENDBRANCH   2   3
ENDBRANCH   1   2
BRANCH   1   9
ATOM      9  C   UNL     1       8.357   0.801  -6.174  1.00  0.00     0.000 C 
BRANCH   9  10
ATOM     10  C   UNL     1       7.996  -0.397  -7.069  1.00  0.00    -0.000 C 
BRANCH  10  11
ATOM     11  C   UNL     1       7.045  -0.012  -8.215  1.00  0.00    -0.000 C 
BRANCH  11  12
ATOM     12  C   UNL     1       5.809  -0.925  -8.291  1.00  0.00    -0.000 C 
BRANCH  12  13
ATOM     13  C   UNL     1       5.249  -1.274  -6.903  1.00  0.00    -0.003 C 
ATOM     14  C   UNL     1       4.666  -2.685  -6.836  1.00  0.00     0.004 C 
ENDBRANCH  12  13
ENDBRANCH  11  12
ENDBRANCH  10  11
ENDBRANCH   9  10
ENDBRANCH   1   9
TORSDOF 10
ENDMDL
MODEL 6
REMARK VINA RESULT:    -3.017      3.129      4.746
REMARK INTER + INTRA:          -5.717
REMARK INTER:                  -4.386
REMARK INTRA:                  -1.331
REMARK UNBOUND:                -0.935
REMARK SMILES CCCCCCCCCCCC(=O)[O-]
REMARK SMILES IDX 7 1 8 2 9 3 10 4 11 5 12 6 13 7 14 8 6 9 5 10 4 11 3 12 2 13
REMARK SMILES IDX 1 14
REMARK H PARENT
REMARK Flexibility Score: inf
ROOT
ATOM      1  C   UNL     1      -5.228  10.620  -5.120  1.00  0.00     0.000 C 
ENDROOT
BRANCH   1   2
ATOM      2  C   UNL     1      -4.812   9.184  -4.757  1.00  0.00     0.000 C 
BRANCH   2   3
ATOM      3  C   UNL     1      -4.832   8.241  -5.970  1.00  0.00     0.000 C 
BRANCH   3   4
ATOM      4  C   UNL     1      -3.432   7.722  -6.342  1.00  0.00     0.006 C 
BRANCH   4   5
ATOM      5  C   UNL     1      -3.357   7.258  -7.803  1.00  0.00     0.053 C 
BRANCH   5   6
ATOM      6  C   UNL     1      -1.981   6.785  -8.164  1.00  0.00     0.041 C 
ATOM      7  O   UNL     1      -1.011   7.588  -8.153  1.00  0.00    -0.550 OA
ATOM      8  O   UNL     1      -1.778   5.465  -8.545  1.00  0.00    -0.550 OA
ENDBRANCH   5   6
ENDBRANCH   4   5
ENDBRANCH   3   4
ENDBRANCH   2   3
ENDBRANCH   1   2
BRANCH   1   9
ATOM      9  C   UNL     1      -4.632  11.668  -4.165  1.00  0.00     0.000 C 
BRANCH   9  10
ATOM     10  C   UNL     1      -3.286  11.223  -3.565  1.00  0.00    -0.000 C 
BRANCH  10  11
ATOM     11  C   UNL     1      -2.081  11.795  -4.329  1.00  0.00    -0.000 C 
BRANCH  11  12
ATOM     12  C   UNL     1      -1.369  10.738  -5.191  1.00  0.00    -0.000 C 
BRANCH  12  13
ATOM     13  C   UNL     1      -1.748  10.839  -6.676  1.00  0.00    -0.003 C 
ATOM     14  C   UNL     1      -2.239  12.232  -7.072  1.00  0.00     0.004 C 
ENDBRANCH  12  13
ENDBRANCH  11  12
ENDBRANCH  10  11
ENDBRANCH   9  10
ENDBRANCH   1   9
TORSDOF 10
ENDMDL
MODEL 7
REMARK VINA RESULT:    -3.011     11.161     13.379
REMARK INTER + INTRA:          -5.707
REMARK INTER:                  -5.117
REMARK INTRA:                  -0.589
REMARK UNBOUND:                -0.935
REMARK SMILES CCCCCCCCCCCC(=O)[O-]
REMARK SMILES IDX 7 1 8 2 9 3 10 4 11 5 12 6 13 7 14 8 6 9 5 10 4 11 3 12 2 13
REMARK SMILES IDX 1 14
REMARK H PARENT
REMARK Flexibility Score: inf
ROOT
ATOM      1  C   UNL     1       6.213   9.999  -0.518  1.00  0.00     0.000 C 
ENDROOT
BRANCH   1   2
ATOM      2  C   UNL     1       6.667  10.077   0.950  1.00  0.00     0.000 C 
BRANCH   2   3
ATOM      3  C   UNL     1       6.414   8.768   1.715  1.00  0.00     0.000 C 
BRANCH   3   4
ATOM      4  C   UNL     1       7.716   8.077   2.157  1.00  0.00     0.006 C 
BRANCH   4   5
ATOM      5  C   UNL     1       8.365   7.282   1.015  1.00  0.00     0.053 C 
BRANCH   5   6
ATOM      6  C   UNL     1       9.051   6.049   1.520  1.00  0.00     0.041 C 
ATOM      7  O   UNL     1       9.542   6.025   2.679  1.00  0.00    -0.550 OA
ATOM      8  O   UNL     1       9.178   4.938   0.695  1.00  0.00    -0.550 OA
ENDBRANCH   5   6
ENDBRANCH   4   5
ENDBRANCH   3   4
ENDBRANCH   2   3
ENDBRANCH   1   2
BRANCH   1   9
ATOM      9  C   UNL     1       7.393   9.868  -1.496  1.00  0.00     0.000 C 
BRANCH   9  10
ATOM     10  C   UNL     1       7.265   8.643  -2.418  1.00  0.00    -0.000 C 
BRANCH  10  11
ATOM     11  C   UNL     1       6.739   9.009  -3.816  1.00  0.00    -0.000 C 
BRANCH  11  12
ATOM     12  C   UNL     1       5.619   8.068  -4.293  1.00  0.00    -0.000 C 
BRANCH  12  13
ATOM     13  C   UNL     1       4.833   8.645  -5.480  1.00  0.00    -0.003 C 
ATOM     14  C   UNL     1       3.464   7.988  -5.662  1.00  0.00     0.004 C 
ENDBRANCH  12  13
ENDBRANCH  11  12
ENDBRANCH  10  11
ENDBRANCH   9  10
ENDBRANCH   1   9
TORSDOF 10
ENDMDL
MODEL 8
REMARK VINA RESULT:    -2.993      4.126      6.929
REMARK INTER + INTRA:          -5.679
REMARK INTER:                  -5.199
REMARK INTRA:                  -0.480
REMARK UNBOUND:                -0.935
REMARK SMILES CCCCCCCCCCCC(=O)[O-]
REMARK SMILES IDX 7 1 8 2 9 3 10 4 11 5 12 6 13 7 14 8 6 9 5 10 4 11 3 12 2 13
REMARK SMILES IDX 1 14
REMARK H PARENT
REMARK Flexibility Score: inf
ROOT
ATOM      1  C   UNL     1      -3.549  10.328  -3.883  1.00  0.00     0.000 C 
ENDROOT
BRANCH   1   2
ATOM      2  C   UNL     1      -3.402  11.757  -3.332  1.00  0.00     0.000 C 
BRANCH   2   3
ATOM      3  C   UNL     1      -4.748  12.494  -3.241  1.00  0.00     0.000 C 
BRANCH   3   4
ATOM      4  C   UNL     1      -4.948  13.201  -1.889  1.00  0.00     0.006 C 
BRANCH   4   5
ATOM      5  C   UNL     1      -4.105  12.567  -0.774  1.00  0.00     0.053 C 
BRANCH   5   6
ATOM      6  C   UNL     1      -3.543  13.602   0.152  1.00  0.00     0.041 C 
ATOM      7  O   UNL     1      -4.279  14.144   1.018  1.00  0.00    -0.550 OA
ATOM      8  O   UNL     1      -2.215  13.992   0.035  1.00  0.00    -0.550 OA
ENDBRANCH   5   6
ENDBRANCH   4   5
ENDBRANCH   3   4
ENDBRANCH   2   3
ENDBRANCH   1   2
BRANCH   1   9
ATOM      9  C   UNL     1      -4.847  10.134  -4.684  1.00  0.00     0.000 C 
BRANCH   9  10
ATOM     10  C   UNL     1      -5.122   8.656  -5.016  1.00  0.00    -0.000 C 
BRANCH  10  11
ATOM     11  C   UNL     1      -6.620   8.362  -5.204  1.00  0.00    -0.000 C 
BRANCH  11  12
ATOM     12  C   UNL     1      -7.123   7.237  -4.283  1.00  0.00    -0.000 C 
BRANCH  12  13
ATOM     13  C   UNL     1      -8.332   6.493  -4.871  1.00  0.00    -0.003 C 
ATOM     14  C   UNL     1      -8.378   6.547  -6.398  1.00  0.00     0.004 C 
ENDBRANCH  12  13
ENDBRANCH  11  12
ENDBRANCH  10  11
ENDBRANCH   9  10
ENDBRANCH   1   9
TORSDOF 10
ENDMDL
MODEL 9
REMARK VINA RESULT:    -2.986      3.334      6.402
REMARK INTER + INTRA:          -5.666
REMARK INTER:                  -4.527
REMARK INTRA:                  -1.139
REMARK UNBOUND:                -0.935
REMARK SMILES CCCCCCCCCCCC(=O)[O-]
REMARK SMILES IDX 7 1 8 2 9 3 10 4 11 5 12 6 13 7 14 8 6 9 5 10 4 11 3 12 2 13
REMARK SMILES IDX 1 14
REMARK H PARENT
REMARK Flexibility Score: inf
ROOT
ATOM      1  C   UNL     1      -3.167  10.084  -4.163  1.00  0.00     0.000 C 
ENDROOT
BRANCH   1   2
ATOM      2  C   UNL     1      -3.468  11.590  -4.257  1.00  0.00     0.000 C 
BRANCH   2   3
ATOM      3  C   UNL     1      -4.707  11.995  -3.443  1.00  0.00     0.000 C 
BRANCH   3   4
ATOM      4  C   UNL     1      -4.512  13.319  -2.684  1.00  0.00     0.006 C 
BRANCH   4   5
ATOM      5  C   UNL     1      -5.453  13.438  -1.477  1.00  0.00     0.053 C 
BRANCH   5   6
ATOM      6  C   UNL     1      -4.760  13.076  -0.198  1.00  0.00     0.041 C 
ATOM      7  O   UNL     1      -5.366  13.177   0.901  1.00  0.00    -0.550 OA
ATOM      8  O   UNL     1      -3.435  12.661  -0.219  1.00  0.00    -0.550 OA
ENDBRANCH   5   6
ENDBRANCH   4   5
ENDBRANCH   3   4
ENDBRANCH   2   3
ENDBRANCH   1   2
BRANCH   1   9
ATOM      9  C   UNL     1      -3.181   9.391  -5.536  1.00  0.00     0.000 C 
BRANCH   9  10
ATOM     10  C   UNL     1      -4.161   8.206  -5.591  1.00  0.00    -0.000 C 
BRANCH  10  11
ATOM     11  C   UNL     1      -5.504   8.518  -4.910  1.00  0.00    -0.000 C 
BRANCH  11  12
ATOM     12  C   UNL     1      -6.608   8.883  -5.917  1.00  0.00    -0.000 C 
BRANCH  12  13
ATOM     13  C   UNL     1      -7.000  10.367  -5.847  1.00  0.00    -0.003 C 
ATOM     14  C   UNL     1      -6.195  11.241  -6.809  1.00  0.00     0.004 C 
ENDBRANCH  12  13
ENDBRANCH  11  12
ENDBRANCH  10  11
ENDBRANCH   9  10
ENDBRANCH   1   9
TORSDOF 10
ENDMDL
