MODEL 1
REMARK VINA RESULT:    -2.994      0.000      0.000
REMARK INTER + INTRA:          -4.884
REMARK INTER:                  -4.569
REMARK INTRA:                  -0.315
REMARK UNBOUND:                -0.315
REMARK SMILES CC1=CCC[C@H](C)C(=O)C[C@H](C(C)C)C(=O)C1
REMARK SMILES IDX 8 1 9 2 6 3 7 4 5 5 4 6 3 7 2 8 1 9 10 11 11 12 15 13 16 14
REMARK SMILES IDX 17 15 12 17 13 18 14 19
REMARK H PARENT
REMARK Flexibility Score: 70.00
ROOT
ATOM      1  C   UNL     1      99.434   8.422  78.435  1.00  0.00     0.136 C 
ATOM      2  O   UNL     1      98.418   8.429  77.753  1.00  0.00    -0.299 OA
ENDROOT
BRANCH   1   3
ATOM      3  C   UNL     1      99.790   9.648  79.279  1.00  0.00     0.053 C 
ATOM      4  C   UNL     1     100.789   9.282  80.394  1.00  0.00     0.016 C 
BRANCH   3   5
ATOM      5  C   UNL     1     100.364  10.808  78.414  1.00  0.00     0.015 C 
BRANCH   5   6
ATOM      6  C   UNL     1     101.894  10.717  78.183  1.00  0.00     0.028 C 
BRANCH   6   7
ATOM      7  C   UNL     1     102.230  10.324  76.762  1.00  0.00    -0.028 C 
ATOM      8  C   UNL     1     102.650   9.106  76.345  1.00  0.00    -0.070 CG0
ATOM      9  C   UNL     1     102.924   8.922  74.873  1.00  0.00     0.039 C 
ATOM     10  G   UNL     1     102.928   7.940  77.276  1.00  0.00     0.000 G0
ENDBRANCH   6   7
ENDBRANCH   5   6
ENDBRANCH   3   5
ENDBRANCH   1   3
BRANCH   1  11
ATOM     11  C   UNL     1     100.292   7.177  78.415  1.00  0.00     0.087 C 
BRANCH  11  12
ATOM     12  C   UNL     1     100.626   6.666  76.986  1.00  0.00     0.066 C 
BRANCH  12  13
ATOM     13  C   UNL     1     102.132   6.718  76.813  1.00  0.00     0.140 C 
ATOM     14  O   UNL     1     102.727   5.740  76.383  1.00  0.00    -0.299 OA
BRANCH  13  15
ATOM     15  C   UNL     1     102.923   7.919  77.257  1.00  0.00     0.106 CG0
ATOM     16  G   UNL     1     102.636   9.096  76.342  1.00  0.00     0.000 G0
ENDBRANCH  13  15
ENDBRANCH  12  13
BRANCH  12  17
ATOM     17  C   UNL     1     100.079   5.233  76.697  1.00  0.00    -0.006 C 
ATOM     18  C   UNL     1      98.732   5.294  75.952  1.00  0.00     0.008 C 
ATOM     19  C   UNL     1      99.901   4.411  77.984  1.00  0.00     0.008 C 
ENDBRANCH  12  17
ENDBRANCH  11  12
ENDBRANCH   1  11
TORSDOF 1
ENDMDL
MODEL 2
REMARK VINA RESULT:    -2.961      2.364      5.207
REMARK INTER + INTRA:          -4.835
REMARK INTER:                  -4.499
REMARK INTRA:                  -0.336
REMARK UNBOUND:                -0.315
REMARK SMILES CC1=CCC[C@H](C)C(=O)C[C@H](C(C)C)C(=O)C1
REMARK SMILES IDX 8 1 9 2 6 3 7 4 5 5 4 6 3 7 2 8 1 9 10 11 11 12 15 13 16 14
REMARK SMILES IDX 17 15 12 17 13 18 14 19
REMARK H PARENT
REMARK Flexibility Score: 70.00
ROOT
ATOM      1  C   UNL     1      98.659   7.013  76.360  1.00  0.00     0.136 C 
ATOM      2  O   UNL     1      98.311   7.493  77.431  1.00  0.00    -0.299 OA
ENDROOT
BRANCH   1   3
ATOM      3  C   UNL     1      97.606   6.460  75.398  1.00  0.00     0.053 C 
ATOM      4  C   UNL     1      98.091   6.543  73.938  1.00  0.00     0.016 C 
BRANCH   3   5
ATOM      5  C   UNL     1      97.212   4.993  75.742  1.00  0.00     0.015 C 
BRANCH   5   6
ATOM      6  C   UNL     1      98.064   3.928  75.005  1.00  0.00     0.028 C 
BRANCH   6   7
ATOM      7  C   UNL     1      98.922   3.130  75.960  1.00  0.00    -0.028 C 
ATOM      8  C   UNL     1     100.253   3.283  76.163  1.00  0.00    -0.070 CG0
ATOM      9  C   UNL     1     100.919   2.383  77.173  1.00  0.00     0.039 C 
ATOM     10  G   UNL     1     101.122   4.255  75.387  1.00  0.00     0.000 G0
ENDBRANCH   6   7
ENDBRANCH   5   6
ENDBRANCH   3   5
ENDBRANCH   1   3
BRANCH   1  11
ATOM     11  C   UNL     1     100.137   7.001  76.036  1.00  0.00     0.087 C 
BRANCH  11  12
ATOM     12  C   UNL     1     101.006   6.263  77.091  1.00  0.00     0.066 C 
BRANCH  12  13
ATOM     13  C   UNL     1     101.808   5.196  76.368  1.00  0.00     0.140 C 
ATOM     14  O   UNL     1     103.021   5.150  76.509  1.00  0.00    -0.299 OA
BRANCH  13  15
ATOM     15  C   UNL     1     101.147   4.253  75.399  1.00  0.00     0.106 CG0
ATOM     16  G   UNL     1     100.253   3.282  76.149  1.00  0.00     0.000 G0
ENDBRANCH  13  15
ENDBRANCH  12  13
BRANCH  12  17
ATOM     17  C   UNL     1     101.943   7.215  77.898  1.00  0.00    -0.006 C 
ATOM     18  C   UNL     1     101.386   7.474  79.310  1.00  0.00     0.008 C 
ATOM     19  C   UNL     1     102.149   8.564  77.188  1.00  0.00     0.008 C 
ENDBRANCH  12  17
ENDBRANCH  11  12
ENDBRANCH   1  11
TORSDOF 1
ENDMDL
MODEL 3
REMARK VINA RESULT:    -2.881      2.988      5.982
REMARK INTER + INTRA:          -4.712
REMARK INTER:                  -4.414
REMARK INTRA:                  -0.298
REMARK UNBOUND:                -0.315
REMARK SMILES CC1=CCC[C@H](C)C(=O)C[C@H](C(C)C)C(=O)C1
REMARK SMILES IDX 8 1 9 2 6 3 7 4 5 5 4 6 3 7 2 8 1 9 10 11 11 12 15 13 16 14
REMARK SMILES IDX 17 15 12 17 13 18 14 19
REMARK H PARENT
REMARK Flexibility Score: 70.00
ROOT
ATOM      1  C   UNL     1     100.371   3.516  77.306  1.00  0.00     0.136 C 
ATOM      2  O   UNL     1     100.802   2.665  78.073  1.00  0.00    -0.299 OA
ENDROOT
BRANCH   1   3
ATOM      3  C   UNL     1     100.517   3.322  75.796  1.00  0.00     0.053 C 
ATOM      4  C   UNL     1     101.960   2.930  75.425  1.00  0.00     0.016 C 
BRANCH   3   5
ATOM      5  C   UNL     1      99.521   2.260  75.242  1.00  0.00     0.015 C 
BRANCH   5   6
ATOM      6  C   UNL     1      98.116   2.829  74.922  1.00  0.00     0.028 C 
BRANCH   6   7
ATOM      7  C   UNL     1      98.192   4.116  74.132  1.00  0.00    -0.028 C 
ATOM      8  C   UNL     1      97.898   5.357  74.589  1.00  0.00    -0.070 CG0
ATOM      9  C   UNL     1      98.050   6.513  73.633  1.00  0.00     0.039 C 
ATOM     10  G   UNL     1      97.361   5.643  75.979  1.00  0.00     0.000 G0
ENDBRANCH   6   7
ENDBRANCH   5   6
ENDBRANCH   3   5
ENDBRANCH   1   3
BRANCH   1  11
ATOM     11  C   UNL     1      99.697   4.732  77.904  1.00  0.00     0.087 C 
BRANCH  11  12
ATOM     12  C   UNL     1      99.765   5.996  77.004  1.00  0.00     0.066 C 
BRANCH  12  13
ATOM     13  C   UNL     1      98.346   6.481  76.774  1.00  0.00     0.140 C 
ATOM     14  O   UNL     1      97.971   7.524  77.291  1.00  0.00    -0.299 OA
BRANCH  13  15
ATOM     15  C   UNL     1      97.357   5.648  76.004  1.00  0.00     0.106 CG0
ATOM     16  G   UNL     1      97.899   5.349  74.618  1.00  0.00     0.000 G0
ENDBRANCH  13  15
ENDBRANCH  12  13
BRANCH  12  17
ATOM     17  C   UNL     1     100.656   7.132  77.596  1.00  0.00    -0.006 C 
ATOM     18  C   UNL     1     101.896   7.380  76.718  1.00  0.00     0.008 C 
ATOM     19  C   UNL     1     101.115   6.819  79.031  1.00  0.00     0.008 C 
ENDBRANCH  12  17
ENDBRANCH  11  12
ENDBRANCH   1  11
TORSDOF 1
ENDMDL
MODEL 4
REMARK VINA RESULT:    -2.669      1.922      5.069
REMARK INTER + INTRA:          -4.389
REMARK INTER:                  -4.182
REMARK INTRA:                  -0.207
REMARK UNBOUND:                -0.315
REMARK SMILES CC1=CCC[C@H](C)C(=O)C[C@H](C(C)C)C(=O)C1
REMARK SMILES IDX 8 1 9 2 6 3 7 4 5 5 4 6 3 7 2 8 1 9 10 11 11 12 15 13 16 14
REMARK SMILES IDX 17 15 12 17 13 18 14 19
REMARK H PARENT
REMARK Flexibility Score: 70.00
ROOT
ATOM      1  C   UNL     1     102.994   7.131  77.131  1.00  0.00     0.136 C 
ATOM      2  O   UNL     1     104.138   7.315  77.525  1.00  0.00    -0.299 OA
ENDROOT
BRANCH   1   3
ATOM      3  C   UNL     1     102.736   6.855  75.649  1.00  0.00     0.053 C 
ATOM      4  C   UNL     1     103.790   7.548  74.764  1.00  0.00     0.016 C 
BRANCH   3   5
ATOM      5  C   UNL     1     102.702   5.330  75.334  1.00  0.00     0.015 C 
BRANCH   5   6
ATOM      6  C   UNL     1     101.448   4.606  75.886  1.00  0.00     0.028 C 
BRANCH   6   7
ATOM      7  C   UNL     1     100.167   5.203  75.348  1.00  0.00    -0.028 C 
ATOM      8  C   UNL     1      99.242   5.891  76.059  1.00  0.00    -0.070 CG0
ATOM      9  C   UNL     1      98.032   6.411  75.324  1.00  0.00     0.039 C 
ATOM     10  G   UNL     1      99.316   6.108  77.560  1.00  0.00     0.000 G0
ENDBRANCH   6   7
ENDBRANCH   5   6
ENDBRANCH   3   5
ENDBRANCH   1   3
BRANCH   1  11
ATOM     11  C   UNL     1     101.877   7.179  78.151  1.00  0.00     0.087 C 
BRANCH  11  12
ATOM     12  C   UNL     1     100.813   8.275  77.868  1.00  0.00     0.066 C 
BRANCH  12  13
ATOM     13  C   UNL     1      99.450   7.609  77.858  1.00  0.00     0.140 C 
ATOM     14  O   UNL     1      98.457   8.257  78.157  1.00  0.00    -0.299 OA
BRANCH  13  15
ATOM     15  C   UNL     1      99.309   6.136  77.584  1.00  0.00     0.106 CG0
ATOM     16  G   UNL     1      99.262   5.889  76.087  1.00  0.00     0.000 G0
ENDBRANCH  13  15
ENDBRANCH  12  13
BRANCH  12  17
ATOM     17  C   UNL     1     100.852   9.455  78.889  1.00  0.00    -0.006 C 
ATOM     18  C   UNL     1     101.931  10.485  78.506  1.00  0.00     0.008 C 
ATOM     19  C   UNL     1     101.114   8.969  80.325  1.00  0.00     0.008 C 
ENDBRANCH  12  17
ENDBRANCH  11  12
ENDBRANCH   1  11
TORSDOF 1
ENDMDL
MODEL 5
REMARK VINA RESULT:    -2.659      2.511      4.302
REMARK INTER + INTRA:          -4.373
REMARK INTER:                  -3.992
REMARK INTRA:                  -0.381
REMARK UNBOUND:                -0.315
REMARK SMILES CC1=CCC[C@H](C)C(=O)C[C@H](C(C)C)C(=O)C1
REMARK SMILES IDX 8 1 9 2 6 3 7 4 5 5 4 6 3 7 2 8 1 9 10 11 11 12 15 13 16 14
REMARK SMILES IDX 17 15 12 17 13 18 14 19
REMARK H PARENT
REMARK Flexibility Score: 70.00
ROOT
ATOM      1  C   UNL     1     101.291   7.454  77.918  1.00  0.00     0.136 C 
ATOM      2  O   UNL     1     102.113   7.158  78.775  1.00  0.00    -0.299 OA
ENDROOT
BRANCH   1   3
ATOM      3  C   UNL     1     101.694   8.375  76.765  1.00  0.00     0.053 C 
ATOM      4  C   UNL     1     102.355   9.664  77.290  1.00  0.00     0.016 C 
BRANCH   3   5
ATOM      5  C   UNL     1     102.645   7.668  75.755  1.00  0.00     0.015 C 
BRANCH   5   6
ATOM      6  C   UNL     1     101.904   6.937  74.606  1.00  0.00     0.028 C 
BRANCH   6   7
ATOM      7  C   UNL     1     101.769   5.455  74.873  1.00  0.00    -0.028 C 
ATOM      8  C   UNL     1     100.612   4.754  74.940  1.00  0.00    -0.070 CG0
ATOM      9  C   UNL     1     100.700   3.273  75.210  1.00  0.00     0.039 C 
ATOM     10  G   UNL     1      99.234   5.380  74.830  1.00  0.00     0.000 G0
ENDBRANCH   6   7
ENDBRANCH   5   6
ENDBRANCH   3   5
ENDBRANCH   1   3
BRANCH   1  11
ATOM     11  C   UNL     1      99.899   6.876  78.043  1.00  0.00     0.087 C 
BRANCH  11  12
ATOM     12  C   UNL     1      99.005   7.112  76.794  1.00  0.00     0.066 C 
BRANCH  12  13
ATOM     13  C   UNL     1      98.694   5.759  76.182  1.00  0.00     0.140 C 
ATOM     14  O   UNL     1      98.080   4.926  76.834  1.00  0.00    -0.299 OA
BRANCH  13  15
ATOM     15  C   UNL     1      99.216   5.384  74.822  1.00  0.00     0.106 CG0
ATOM     16  G   UNL     1     100.585   4.742  74.951  1.00  0.00     0.000 G0
ENDBRANCH  13  15
ENDBRANCH  12  13
BRANCH  12  17
ATOM     17  C   UNL     1      97.694   7.898  77.108  1.00  0.00    -0.006 C 
ATOM     18  C   UNL     1      96.795   7.998  75.862  1.00  0.00     0.008 C 
ATOM     19  C   UNL     1      97.982   9.317  77.630  1.00  0.00     0.008 C 
ENDBRANCH  12  17
ENDBRANCH  11  12
ENDBRANCH   1  11
TORSDOF 1
ENDMDL
MODEL 6
REMARK VINA RESULT:    -2.613      4.383      6.031
REMARK INTER + INTRA:          -4.303
REMARK INTER:                  -4.017
REMARK INTRA:                  -0.286
REMARK UNBOUND:                -0.315
REMARK SMILES CC1=CCC[C@H](C)C(=O)C[C@H](C(C)C)C(=O)C1
REMARK SMILES IDX 8 1 9 2 6 3 7 4 5 5 4 6 3 7 2 8 1 9 10 11 11 12 15 13 16 14
REMARK SMILES IDX 17 15 12 17 13 18 14 19
REMARK H PARENT
REMARK Flexibility Score: 70.00
ROOT
ATOM      1  C   UNL     1      97.738   4.241  74.494  1.00  0.00     0.136 C 
ATOM      2  O   UNL     1      97.967   4.639  73.360  1.00  0.00    -0.299 OA
ENDROOT
BRANCH   1   3
ATOM      3  C   UNL     1      97.344   5.240  75.584  1.00  0.00     0.053 C 
ATOM      4  C   UNL     1      96.647   4.530  76.761  1.00  0.00     0.016 C 
BRANCH   3   5
ATOM      5  C   UNL     1      98.567   6.051  76.106  1.00  0.00     0.015 C 
BRANCH   5   6
ATOM      6  C   UNL     1      99.386   5.315  77.196  1.00  0.00     0.028 C 
BRANCH   6   7
ATOM      7  C   UNL     1     100.724   4.842  76.676  1.00  0.00    -0.028 C 
ATOM      8  C   UNL     1     101.049   3.572  76.334  1.00  0.00    -0.070 CG0
ATOM      9  C   UNL     1     102.446   3.315  75.827  1.00  0.00     0.039 C 
ATOM     10  G   UNL     1     100.117   2.386  76.497  1.00  0.00     0.000 G0
ENDBRANCH   6   7
ENDBRANCH   5   6
ENDBRANCH   3   5
ENDBRANCH   1   3
BRANCH   1  11
ATOM     11  C   UNL     1      97.850   2.756  74.761  1.00  0.00     0.087 C 
BRANCH  11  12
ATOM     12  C   UNL     1      99.082   2.088  74.090  1.00  0.00     0.066 C 
BRANCH  12  13
ATOM     13  C   UNL     1     100.009   1.609  75.192  1.00  0.00     0.140 C 
ATOM     14  O   UNL     1     100.618   0.557  75.058  1.00  0.00    -0.299 OA
BRANCH  13  15
ATOM     15  C   UNL     1     100.116   2.355  76.495  1.00  0.00     0.106 CG0
ATOM     16  G   UNL     1     101.037   3.551  76.333  1.00  0.00     0.000 G0
ENDBRANCH  13  15
ENDBRANCH  12  13
BRANCH  12  17
ATOM     17  C   UNL     1      98.707   0.918  73.128  1.00  0.00    -0.006 C 
ATOM     18  C   UNL     1      99.346   1.114  71.741  1.00  0.00     0.008 C 
ATOM     19  C   UNL     1      97.184   0.773  72.960  1.00  0.00     0.008 C 
ENDBRANCH  12  17
ENDBRANCH  11  12
ENDBRANCH   1  11
TORSDOF 1
ENDMDL
MODEL 7
REMARK VINA RESULT:    -2.490      3.831      5.936
REMARK INTER + INTRA:          -4.115
REMARK INTER:                  -3.976
REMARK INTRA:                  -0.138
REMARK UNBOUND:                -0.315
REMARK SMILES CC1=CCC[C@H](C)C(=O)C[C@H](C(C)C)C(=O)C1
REMARK SMILES IDX 8 1 9 2 6 3 7 4 5 5 4 6 3 7 2 8 1 9 10 11 11 12 15 13 16 14
REMARK SMILES IDX 17 15 12 17 13 18 14 19
REMARK H PARENT
REMARK Flexibility Score: 70.00
ROOT
ATOM      1  C   UNL     1     101.051   5.669  77.042  1.00  0.00     0.136 C 
ATOM      2  O   UNL     1     101.409   6.460  77.905  1.00  0.00    -0.299 OA
ENDROOT
BRANCH   1   3
ATOM      3  C   UNL     1     101.851   5.549  75.744  1.00  0.00     0.053 C 
ATOM      4  C   UNL     1     102.281   6.936  75.227  1.00  0.00     0.016 C 
BRANCH   3   5
ATOM      5  C   UNL     1     103.101   4.635  75.907  1.00  0.00     0.015 C 
BRANCH   5   6
ATOM      6  C   UNL     1     103.019   3.314  75.101  1.00  0.00     0.028 C 
BRANCH   6   7
ATOM      7  C   UNL     1     103.171   2.099  75.988  1.00  0.00    -0.028 C 
ATOM      8  C   UNL     1     102.190   1.233  76.338  1.00  0.00    -0.070 CG0
ATOM      9  C   UNL     1     102.559   0.075  77.231  1.00  0.00     0.039 C 
ATOM     10  G   UNL     1     100.734   1.397  75.944  1.00  0.00     0.000 G0
ENDBRANCH   6   7
ENDBRANCH   5   6
ENDBRANCH   3   5
ENDBRANCH   1   3
BRANCH   1  11
ATOM     11  C   UNL     1      99.821   4.833  77.315  1.00  0.00     0.087 C 
BRANCH  11  12
ATOM     12  C   UNL     1      99.563   3.727  76.254  1.00  0.00     0.066 C 
BRANCH  12  13
ATOM     13  C   UNL     1     100.043   2.409  76.831  1.00  0.00     0.140 C 
ATOM     14  O   UNL     1      99.957   2.206  78.034  1.00  0.00    -0.299 OA
BRANCH  13  15
ATOM     15  C   UNL     1     100.718   1.382  75.963  1.00  0.00     0.106 CG0
ATOM     16  G   UNL     1     102.179   1.251  76.355  1.00  0.00     0.000 G0
ENDBRANCH  13  15
ENDBRANCH  12  13
BRANCH  12  17
ATOM     17  C   UNL     1      98.071   3.632  75.807  1.00  0.00    -0.006 C 
ATOM     18  C   UNL     1      97.845   4.369  74.473  1.00  0.00     0.008 C 
ATOM     19  C   UNL     1      97.113   4.208  76.863  1.00  0.00     0.008 C 
ENDBRANCH  12  17
ENDBRANCH  11  12
ENDBRANCH   1  11
TORSDOF 1
ENDMDL
MODEL 8
REMARK VINA RESULT:    -2.465      3.564      5.172
REMARK INTER + INTRA:          -4.077
REMARK INTER:                  -3.784
REMARK INTRA:                  -0.294
REMARK UNBOUND:                -0.315
REMARK SMILES CC1=CCC[C@H](C)C(=O)C[C@H](C(C)C)C(=O)C1
REMARK SMILES IDX 8 1 9 2 6 3 7 4 5 5 4 6 3 7 2 8 1 9 10 11 11 12 15 13 16 14
REMARK SMILES IDX 17 15 12 17 13 18 14 19
REMARK H PARENT
REMARK Flexibility Score: 70.00
ROOT
ATOM      1  C   UNL     1      97.575   5.119  75.237  1.00  0.00     0.136 C 
ATOM      2  O   UNL     1      97.096   4.444  76.139  1.00  0.00    -0.299 OA
ENDROOT
BRANCH   1   3
ATOM      3  C   UNL     1      97.914   6.590  75.487  1.00  0.00     0.053 C 
ATOM      4  C   UNL     1      96.640   7.414  75.757  1.00  0.00     0.016 C 
BRANCH   3   5
ATOM      5  C   UNL     1      98.918   6.768  76.664  1.00  0.00     0.015 C 
BRANCH   5   6
ATOM      6  C   UNL     1      99.992   5.653  76.743  1.00  0.00     0.028 C 
BRANCH   6   7
ATOM      7  C   UNL     1     101.199   5.968  75.889  1.00  0.00    -0.028 C 
ATOM      8  C   UNL     1     101.557   5.341  74.743  1.00  0.00    -0.070 CG0
ATOM      9  C   UNL     1     102.801   5.819  74.038  1.00  0.00     0.039 C 
ATOM     10  G   UNL     1     100.823   4.144  74.167  1.00  0.00     0.000 G0
ENDBRANCH   6   7
ENDBRANCH   5   6
ENDBRANCH   3   5
ENDBRANCH   1   3
BRANCH   1  11
ATOM     11  C   UNL     1      97.818   4.449  73.903  1.00  0.00     0.087 C 
BRANCH  11  12
ATOM     12  C   UNL     1      98.761   5.246  72.960  1.00  0.00     0.066 C 
BRANCH  12  13
ATOM     13  C   UNL     1     100.089   4.515  72.903  1.00  0.00     0.140 C 
ATOM     14  O   UNL     1     100.538   4.157  71.824  1.00  0.00    -0.299 OA
BRANCH  13  15
ATOM     15  C   UNL     1     100.818   4.132  74.163  1.00  0.00     0.106 CG0
ATOM     16  G   UNL     1     101.527   5.343  74.741  1.00  0.00     0.000 G0
ENDBRANCH  13  15
ENDBRANCH  12  13
BRANCH  12  17
ATOM     17  C   UNL     1      98.175   5.454  71.529  1.00  0.00    -0.006 C 
ATOM     18  C   UNL     1      97.746   6.918  71.313  1.00  0.00     0.008 C 
ATOM     19  C   UNL     1      96.971   4.537  71.257  1.00  0.00     0.008 C 
ENDBRANCH  12  17
ENDBRANCH  11  12
ENDBRANCH   1  11
TORSDOF 1
ENDMDL
MODEL 9
REMARK VINA RESULT:    -2.285     16.881     18.895
REMARK INTER + INTRA:          -3.803
REMARK INTER:                  -3.884
REMARK INTRA:                   0.081
REMARK UNBOUND:                -0.315
REMARK SMILES CC1=CCC[C@H](C)C(=O)C[C@H](C(C)C)C(=O)C1
REMARK SMILES IDX 8 1 9 2 6 3 7 4 5 5 4 6 3 7 2 8 1 9 10 11 11 12 15 13 16 14
REMARK SMILES IDX 17 15 12 17 13 18 14 19
REMARK H PARENT
REMARK Flexibility Score: 70.00
ROOT
ATOM      1  C   UNL     1     111.294  -5.882  69.270  1.00  0.00     0.136 C 
ATOM      2  O   UNL     1     112.381  -6.275  68.866  1.00  0.00    -0.299 OA
ENDROOT
BRANCH   1   3
ATOM      3  C   UNL     1     111.190  -5.219  70.644  1.00  0.00     0.053 C 
ATOM      4  C   UNL     1     111.105  -3.686  70.515  1.00  0.00     0.016 C 
BRANCH   3   5
ATOM      5  C   UNL     1     109.974  -5.749  71.461  1.00  0.00     0.015 C 
BRANCH   5   6
ATOM      6  C   UNL     1     108.685  -4.907  71.278  1.00  0.00     0.028 C 
BRANCH   6   7
ATOM      7  C   UNL     1     107.438  -5.759  71.355  1.00  0.00    -0.028 C 
ATOM      8  C   UNL     1     106.881  -6.460  70.338  1.00  0.00    -0.070 CG0
ATOM      9  C   UNL     1     105.634  -7.256  70.632  1.00  0.00     0.039 C 
ATOM     10  G   UNL     1     107.396  -6.437  68.911  1.00  0.00     0.000 G0
ENDBRANCH   6   7
ENDBRANCH   5   6
ENDBRANCH   3   5
ENDBRANCH   1   3
BRANCH   1  11
ATOM     11  C   UNL     1     110.094  -6.069  68.369  1.00  0.00     0.087 C 
BRANCH  11  12
ATOM     12  C   UNL     1     109.661  -7.551  68.195  1.00  0.00     0.066 C 
BRANCH  12  13
ATOM     13  C   UNL     1     108.208  -7.664  68.617  1.00  0.00     0.140 C 
ATOM     14  O   UNL     1     107.670  -8.762  68.647  1.00  0.00    -0.299 OA
BRANCH  13  15
ATOM     15  C   UNL     1     107.385  -6.437  68.901  1.00  0.00     0.106 CG0
ATOM     16  G   UNL     1     106.892  -6.464  70.336  1.00  0.00     0.000 G0
ENDBRANCH  13  15
ENDBRANCH  12  13
BRANCH  12  17
ATOM     17  C   UNL     1     109.867  -8.092  66.746  1.00  0.00    -0.006 C 
ATOM     18  C   UNL     1     111.312  -8.581  66.536  1.00  0.00     0.008 C 
ATOM     19  C   UNL     1     109.541  -7.031  65.681  1.00  0.00     0.008 C 
ENDBRANCH  12  17
ENDBRANCH  11  12
ENDBRANCH   1  11
TORSDOF 1
ENDMDL
