MODEL 1
REMARK VINA RESULT:    -4.549      0.000      0.000
REMARK INTER + INTRA:          -7.940
REMARK INTER:                  -7.208
REMARK INTRA:                  -0.733
REMARK UNBOUND:                -0.733
REMARK SMILES CCCCCCCCCCCC(=O)[O-]
REMARK SMILES IDX 7 1 8 2 9 3 10 4 11 5 12 6 13 7 14 8 6 9 5 10 4 11 3 12 2 13
REMARK SMILES IDX 1 14
REMARK H PARENT
REMARK Flexibility Score: inf
ROOT
ATOM      1  C   UNL     1      -7.957  24.744  21.791  1.00  0.00     0.000 C 
ENDROOT
BRANCH   1   2
ATOM      2  C   UNL     1      -7.392  25.924  22.590  1.00  0.00     0.000 C 
BRANCH   2   3
ATOM      3  C   UNL     1      -7.749  25.801  24.079  1.00  0.00     0.000 C 
BRANCH   3   4
ATOM      4  C   UNL     1      -8.107  27.154  24.716  1.00  0.00     0.006 C 
BRANCH   4   5
ATOM      5  C   UNL     1      -9.444  27.710  24.210  1.00  0.00     0.053 C 
BRANCH   5   6
ATOM      6  C   UNL     1      -9.237  29.025  23.528  1.00  0.00     0.041 C 
ATOM      7  O   UNL     1      -8.815  30.017  24.179  1.00  0.00    -0.550 OA
ATOM      8  O   UNL     1      -9.555  29.168  22.183  1.00  0.00    -0.550 OA
ENDBRANCH   5   6
ENDBRANCH   4   5
ENDBRANCH   3   4
ENDBRANCH   2   3
ENDBRANCH   1   2
BRANCH   1   9
ATOM      9  C   UNL     1      -9.134  24.094  22.527  1.00  0.00     0.000 C 
BRANCH   9  10
ATOM     10  C   UNL     1      -9.230  22.598  22.200  1.00  0.00    -0.000 C 
BRANCH  10  11
ATOM     11  C   UNL     1     -10.588  22.259  21.569  1.00  0.00    -0.000 C 
BRANCH  11  12
ATOM     12  C   UNL     1     -10.464  21.300  20.374  1.00  0.00    -0.000 C 
BRANCH  12  13
ATOM     13  C   UNL     1     -11.051  21.887  19.082  1.00  0.00    -0.003 C 
ATOM     14  C   UNL     1     -10.452  23.257  18.779  1.00  0.00     0.004 C 
ENDBRANCH  12  13
ENDBRANCH  11  12
ENDBRANCH  10  11
ENDBRANCH   9  10
ENDBRANCH   1   9
TORSDOF 10
ENDMDL
MODEL 2
REMARK VINA RESULT:    -4.436      1.367      2.642
REMARK INTER + INTRA:          -7.761
REMARK INTER:                  -6.318
REMARK INTRA:                  -1.444
REMARK UNBOUND:                -0.733
REMARK SMILES CCCCCCCCCCCC(=O)[O-]
REMARK SMILES IDX 7 1 8 2 9 3 10 4 11 5 12 6 13 7 14 8 6 9 5 10 4 11 3 12 2 13
REMARK SMILES IDX 1 14
REMARK H PARENT
REMARK Flexibility Score: inf
ROOT
ATOM      1  C   UNL     1      -7.560  26.166  23.860  1.00  0.00     0.000 C 
ENDROOT
BRANCH   1   2
ATOM      2  C   UNL     1      -8.677  25.232  24.339  1.00  0.00     0.000 C 
BRANCH   2   3
ATOM      3  C   UNL     1      -9.963  26.018  24.634  1.00  0.00     0.000 C 
BRANCH   3   4
ATOM      4  C   UNL     1     -10.771  26.331  23.364  1.00  0.00     0.006 C 
BRANCH   4   5
ATOM      5  C   UNL     1     -11.029  27.831  23.181  1.00  0.00     0.053 C 
BRANCH   5   6
ATOM      6  C   UNL     1     -10.042  28.416  22.221  1.00  0.00     0.041 C 
ATOM      7  O   UNL     1      -9.966  27.976  21.043  1.00  0.00    -0.550 OA
ATOM      8  O   UNL     1      -9.173  29.416  22.640  1.00  0.00    -0.550 OA
ENDBRANCH   5   6
ENDBRANCH   4   5
ENDBRANCH   3   4
ENDBRANCH   2   3
ENDBRANCH   1   2
BRANCH   1   9
ATOM      9  C   UNL     1      -7.020  25.724  22.495  1.00  0.00     0.000 C 
BRANCH   9  10
ATOM     10  C   UNL     1      -7.805  24.522  21.955  1.00  0.00    -0.000 C 
BRANCH  10  11
ATOM     11  C   UNL     1      -8.491  24.865  20.625  1.00  0.00    -0.000 C 
BRANCH  11  12
ATOM     12  C   UNL     1      -9.833  24.137  20.444  1.00  0.00    -0.000 C 
BRANCH  12  13
ATOM     13  C   UNL     1     -10.100  23.107  21.553  1.00  0.00    -0.003 C 
ATOM     14  C   UNL     1     -10.315  21.715  20.968  1.00  0.00     0.004 C 
ENDBRANCH  12  13
ENDBRANCH  11  12
ENDBRANCH  10  11
ENDBRANCH   9  10
ENDBRANCH   1   9
TORSDOF 10
ENDMDL
MODEL 3
REMARK VINA RESULT:    -4.317      2.237      2.713
REMARK INTER + INTRA:          -7.574
REMARK INTER:                  -6.699
REMARK INTRA:                  -0.875
REMARK UNBOUND:                -0.733
REMARK SMILES CCCCCCCCCCCC(=O)[O-]
REMARK SMILES IDX 7 1 8 2 9 3 10 4 11 5 12 6 13 7 14 8 6 9 5 10 4 11 3 12 2 13
REMARK SMILES IDX 1 14
REMARK H PARENT
REMARK Flexibility Score: inf
ROOT
ATOM      1  C   UNL     1      -8.204  26.197  21.644  1.00  0.00     0.000 C 
ENDROOT
BRANCH   1   2
ATOM      2  C   UNL     1      -7.043  25.788  22.557  1.00  0.00     0.000 C 
BRANCH   2   3
ATOM      3  C   UNL     1      -7.408  25.991  24.035  1.00  0.00     0.000 C 
BRANCH   3   4
ATOM      4  C   UNL     1      -8.674  26.844  24.221  1.00  0.00     0.006 C 
BRANCH   4   5
ATOM      5  C   UNL     1      -9.846  26.043  24.802  1.00  0.00     0.053 C 
BRANCH   5   6
ATOM      6  C   UNL     1      -9.930  26.243  26.283  1.00  0.00     0.041 C 
ATOM      7  O   UNL     1      -9.286  27.173  26.835  1.00  0.00    -0.550 OA
ATOM      8  O   UNL     1     -10.684  25.372  27.059  1.00  0.00    -0.550 OA
ENDBRANCH   5   6
ENDBRANCH   4   5
ENDBRANCH   3   4
ENDBRANCH   2   3
ENDBRANCH   1   2
BRANCH   1   9
ATOM      9  C   UNL     1      -8.500  25.106  20.607  1.00  0.00     0.000 C 
BRANCH   9  10
ATOM     10  C   UNL     1      -9.898  24.512  20.816  1.00  0.00    -0.000 C 
BRANCH  10  11
ATOM     11  C   UNL     1      -9.937  23.626  22.071  1.00  0.00    -0.000 C 
BRANCH  11  12
ATOM     12  C   UNL     1      -9.832  22.128  21.742  1.00  0.00    -0.000 C 
BRANCH  12  13
ATOM     13  C   UNL     1     -11.099  21.581  21.068  1.00  0.00    -0.003 C 
ATOM     14  C   UNL     1     -10.814  21.148  19.633  1.00  0.00     0.004 C 
ENDBRANCH  12  13
ENDBRANCH  11  12
ENDBRANCH  10  11
ENDBRANCH   9  10
ENDBRANCH   1   9
TORSDOF 10
ENDMDL
MODEL 4
REMARK VINA RESULT:    -4.310      3.277      5.897
REMARK INTER + INTRA:          -7.563
REMARK INTER:                  -6.149
REMARK INTRA:                  -1.413
REMARK UNBOUND:                -0.733
REMARK SMILES CCCCCCCCCCCC(=O)[O-]
REMARK SMILES IDX 7 1 8 2 9 3 10 4 11 5 12 6 13 7 14 8 6 9 5 10 4 11 3 12 2 13
REMARK SMILES IDX 1 14
REMARK H PARENT
REMARK Flexibility Score: inf
ROOT
ATOM      1  C   UNL     1      -7.011  25.812  22.698  1.00  0.00     0.000 C 
ENDROOT
BRANCH   1   2
ATOM      2  C   UNL     1      -7.873  24.698  22.091  1.00  0.00     0.000 C 
BRANCH   2   3
ATOM      3  C   UNL     1      -8.580  25.183  20.816  1.00  0.00     0.000 C 
BRANCH   3   4
ATOM      4  C   UNL     1     -10.111  25.079  20.911  1.00  0.00     0.006 C 
BRANCH   4   5
ATOM      5  C   UNL     1     -10.572  23.813  21.644  1.00  0.00     0.053 C 
BRANCH   5   6
ATOM      6  C   UNL     1     -10.483  22.625  20.739  1.00  0.00     0.041 C 
ATOM      7  O   UNL     1      -9.992  21.544  21.158  1.00  0.00    -0.550 OA
ATOM      8  O   UNL     1     -10.898  22.726  19.417  1.00  0.00    -0.550 OA
ENDBRANCH   5   6
ENDBRANCH   4   5
ENDBRANCH   3   4
ENDBRANCH   2   3
ENDBRANCH   1   2
BRANCH   1   9
ATOM      9  C   UNL     1      -7.344  26.019  24.180  1.00  0.00     0.000 C 
BRANCH   9  10
ATOM     10  C   UNL     1      -8.788  25.599  24.485  1.00  0.00    -0.000 C 
BRANCH  10  11
ATOM     11  C   UNL     1      -9.716  26.821  24.544  1.00  0.00    -0.000 C 
BRANCH  11  12
ATOM     12  C   UNL     1      -8.947  28.140  24.725  1.00  0.00    -0.000 C 
BRANCH  12  13
ATOM     13  C   UNL     1      -9.285  29.175  23.641  1.00  0.00    -0.003 C 
ATOM     14  C   UNL     1      -9.986  28.518  22.455  1.00  0.00     0.004 C 
ENDBRANCH  12  13
ENDBRANCH  11  12
ENDBRANCH  10  11
ENDBRANCH   9  10
ENDBRANCH   1   9
TORSDOF 10
ENDMDL
MODEL 5
REMARK VINA RESULT:    -4.248      1.165      2.035
REMARK INTER + INTRA:          -7.465
REMARK INTER:                  -6.537
REMARK INTRA:                  -0.927
REMARK UNBOUND:                -0.733
REMARK SMILES CCCCCCCCCCCC(=O)[O-]
REMARK SMILES IDX 7 1 8 2 9 3 10 4 11 5 12 6 13 7 14 8 6 9 5 10 4 11 3 12 2 13
REMARK SMILES IDX 1 14
REMARK H PARENT
REMARK Flexibility Score: inf
ROOT
ATOM      1  C   UNL     1      -7.920  24.936  21.769  1.00  0.00     0.000 C 
ENDROOT
BRANCH   1   2
ATOM      2  C   UNL     1      -7.258  25.809  22.841  1.00  0.00     0.000 C 
BRANCH   2   3
ATOM      3  C   UNL     1      -8.046  25.753  24.159  1.00  0.00     0.000 C 
BRANCH   3   4
ATOM      4  C   UNL     1      -8.104  27.114  24.873  1.00  0.00     0.006 C 
BRANCH   4   5
ATOM      5  C   UNL     1      -9.406  27.874  24.590  1.00  0.00     0.053 C 
BRANCH   5   6
ATOM      6  C   UNL     1      -9.134  29.074  23.739  1.00  0.00     0.041 C 
ATOM      7  O   UNL     1      -8.973  30.205  24.271  1.00  0.00    -0.550 OA
ATOM      8  O   UNL     1      -9.104  28.954  22.356  1.00  0.00    -0.550 OA
ENDBRANCH   5   6
ENDBRANCH   4   5
ENDBRANCH   3   4
ENDBRANCH   2   3
ENDBRANCH   1   2
BRANCH   1   9
ATOM      9  C   UNL     1      -9.280  25.510  21.353  1.00  0.00     0.000 C 
BRANCH   9  10
ATOM     10  C   UNL     1      -9.168  26.298  20.042  1.00  0.00    -0.000 C 
BRANCH  10  11
ATOM     11  C   UNL     1     -10.050  25.676  18.950  1.00  0.00    -0.000 C 
BRANCH  11  12
ATOM     12  C   UNL     1      -9.653  24.228  18.619  1.00  0.00    -0.000 C 
BRANCH  12  13
ATOM     13  C   UNL     1     -10.847  23.263  18.663  1.00  0.00    -0.003 C 
ATOM     14  C   UNL     1     -10.740  22.312  19.851  1.00  0.00     0.004 C 
ENDBRANCH  12  13
ENDBRANCH  11  12
ENDBRANCH  10  11
ENDBRANCH   9  10
ENDBRANCH   1   9
TORSDOF 10
ENDMDL
MODEL 6
REMARK VINA RESULT:    -4.234      2.132      3.045
REMARK INTER + INTRA:          -7.442
REMARK INTER:                  -6.284
REMARK INTRA:                  -1.158
REMARK UNBOUND:                -0.733
REMARK SMILES CCCCCCCCCCCC(=O)[O-]
REMARK SMILES IDX 7 1 8 2 9 3 10 4 11 5 12 6 13 7 14 8 6 9 5 10 4 11 3 12 2 13
REMARK SMILES IDX 1 14
REMARK H PARENT
REMARK Flexibility Score: inf
ROOT
ATOM      1  C   UNL     1      -7.781  26.819  24.790  1.00  0.00     0.000 C 
ENDROOT
BRANCH   1   2
ATOM      2  C   UNL     1      -9.005  27.036  25.686  1.00  0.00     0.000 C 
BRANCH   2   3
ATOM      3  C   UNL     1     -10.295  26.610  24.968  1.00  0.00     0.000 C 
BRANCH   3   4
ATOM      4  C   UNL     1     -10.972  27.774  24.226  1.00  0.00     0.006 C 
BRANCH   4   5
ATOM      5  C   UNL     1     -10.936  27.604  22.702  1.00  0.00     0.053 C 
BRANCH   5   6
ATOM      6  C   UNL     1     -10.220  28.754  22.067  1.00  0.00     0.041 C 
ATOM      7  O   UNL     1      -9.191  29.237  22.609  1.00  0.00    -0.550 OA
ATOM      8  O   UNL     1     -10.716  29.323  20.901  1.00  0.00    -0.550 OA
ENDBRANCH   5   6
ENDBRANCH   4   5
ENDBRANCH   3   4
ENDBRANCH   2   3
ENDBRANCH   1   2
BRANCH   1   9
ATOM      9  C   UNL     1      -7.970  25.597  23.884  1.00  0.00     0.000 C 
BRANCH   9  10
ATOM     10  C   UNL     1      -7.464  25.880  22.464  1.00  0.00    -0.000 C 
BRANCH  10  11
ATOM     11  C   UNL     1      -8.174  24.982  21.439  1.00  0.00    -0.000 C 
BRANCH  11  12
ATOM     12  C   UNL     1      -8.740  25.774  20.250  1.00  0.00    -0.000 C 
BRANCH  12  13
ATOM     13  C   UNL     1      -9.979  25.107  19.633  1.00  0.00    -0.003 C 
ATOM     14  C   UNL     1     -10.022  25.320  18.123  1.00  0.00     0.004 C 
ENDBRANCH  12  13
ENDBRANCH  11  12
ENDBRANCH  10  11
ENDBRANCH   9  10
ENDBRANCH   1   9
TORSDOF 10
ENDMDL
MODEL 7
REMARK VINA RESULT:    -4.219      3.209      5.655
REMARK INTER + INTRA:          -7.418
REMARK INTER:                  -5.907
REMARK INTRA:                  -1.511
REMARK UNBOUND:                -0.733
REMARK SMILES CCCCCCCCCCCC(=O)[O-]
REMARK SMILES IDX 7 1 8 2 9 3 10 4 11 5 12 6 13 7 14 8 6 9 5 10 4 11 3 12 2 13
REMARK SMILES IDX 1 14
REMARK H PARENT
REMARK Flexibility Score: inf
ROOT
ATOM      1  C   UNL     1      -7.737  26.515  24.771  1.00  0.00     0.000 C 
ENDROOT
BRANCH   1   2
ATOM      2  C   UNL     1      -8.069  25.532  23.642  1.00  0.00     0.000 C 
BRANCH   2   3
ATOM      3  C   UNL     1      -7.472  26.006  22.308  1.00  0.00     0.000 C 
BRANCH   3   4
ATOM      4  C   UNL     1      -8.374  27.017  21.582  1.00  0.00     0.006 C 
BRANCH   4   5
ATOM      5  C   UNL     1      -9.774  26.461  21.295  1.00  0.00     0.053 C 
BRANCH   5   6
ATOM      6  C   UNL     1      -9.734  25.523  20.130  1.00  0.00     0.041 C 
ATOM      7  O   UNL     1      -9.634  25.973  18.957  1.00  0.00    -0.550 OA
ATOM      8  O   UNL     1      -9.854  24.155  20.334  1.00  0.00    -0.550 OA
ENDBRANCH   5   6
ENDBRANCH   4   5
ENDBRANCH   3   4
ENDBRANCH   2   3
ENDBRANCH   1   2
BRANCH   1   9
ATOM      9  C   UNL     1      -8.902  26.629  25.761  1.00  0.00     0.000 C 
BRANCH   9  10
ATOM     10  C   UNL     1     -10.206  26.112  25.141  1.00  0.00    -0.000 C 
BRANCH  10  11
ATOM     11  C   UNL     1     -11.090  27.276  24.669  1.00  0.00    -0.000 C 
BRANCH  11  12
ATOM     12  C   UNL     1     -10.669  28.624  25.277  1.00  0.00    -0.000 C 
BRANCH  12  13
ATOM     13  C   UNL     1     -10.394  29.694  24.210  1.00  0.00    -0.003 C 
ATOM     14  C   UNL     1      -8.896  29.913  24.025  1.00  0.00     0.004 C 
ENDBRANCH  12  13
ENDBRANCH  11  12
ENDBRANCH  10  11
ENDBRANCH   9  10
ENDBRANCH   1   9
TORSDOF 10
ENDMDL
MODEL 8
REMARK VINA RESULT:    -4.122      3.193      5.916
REMARK INTER + INTRA:          -7.265
REMARK INTER:                  -6.173
REMARK INTRA:                  -1.092
REMARK UNBOUND:                -0.733
REMARK SMILES CCCCCCCCCCCC(=O)[O-]
REMARK SMILES IDX 7 1 8 2 9 3 10 4 11 5 12 6 13 7 14 8 6 9 5 10 4 11 3 12 2 13
REMARK SMILES IDX 1 14
REMARK H PARENT
REMARK Flexibility Score: inf
ROOT
ATOM      1  C   UNL     1      -7.477  25.986  22.705  1.00  0.00     0.000 C 
ENDROOT
BRANCH   1   2
ATOM      2  C   UNL     1      -7.708  24.803  21.759  1.00  0.00     0.000 C 
BRANCH   2   3
ATOM      3  C   UNL     1      -9.084  24.164  22.004  1.00  0.00     0.000 C 
BRANCH   3   4
ATOM      4  C   UNL     1     -10.107  24.525  20.915  1.00  0.00     0.006 C 
BRANCH   4   5
ATOM      5  C   UNL     1      -9.453  25.128  19.665  1.00  0.00     0.053 C 
BRANCH   5   6
ATOM      6  C   UNL     1      -9.982  24.469  18.431  1.00  0.00     0.041 C 
ATOM      7  O   UNL     1     -10.037  25.106  17.346  1.00  0.00    -0.550 OA
ATOM      8  O   UNL     1     -10.460  23.166  18.489  1.00  0.00    -0.550 OA
ENDBRANCH   5   6
ENDBRANCH   4   5
ENDBRANCH   3   4
ENDBRANCH   2   3
ENDBRANCH   1   2
BRANCH   1   9
ATOM      9  C   UNL     1      -8.343  25.863  23.963  1.00  0.00     0.000 C 
BRANCH   9  10
ATOM     10  C   UNL     1      -8.197  27.101  24.857  1.00  0.00    -0.000 C 
BRANCH  10  11
ATOM     11  C   UNL     1      -9.401  28.041  24.695  1.00  0.00    -0.000 C 
BRANCH  11  12
ATOM     12  C   UNL     1      -9.150  29.153  23.663  1.00  0.00    -0.000 C 
BRANCH  12  13
ATOM     13  C   UNL     1     -10.311  29.308  22.668  1.00  0.00    -0.003 C 
ATOM     14  C   UNL     1     -10.445  28.072  21.785  1.00  0.00     0.004 C 
ENDBRANCH  12  13
ENDBRANCH  11  12
ENDBRANCH  10  11
ENDBRANCH   9  10
ENDBRANCH   1   9
TORSDOF 10
ENDMDL
MODEL 9
REMARK VINA RESULT:    -4.098      3.326      5.950
REMARK INTER + INTRA:          -7.226
REMARK INTER:                  -5.978
REMARK INTRA:                  -1.247
REMARK UNBOUND:                -0.733
REMARK SMILES CCCCCCCCCCCC(=O)[O-]
REMARK SMILES IDX 7 1 8 2 9 3 10 4 11 5 12 6 13 7 14 8 6 9 5 10 4 11 3 12 2 13
REMARK SMILES IDX 1 14
REMARK H PARENT
REMARK Flexibility Score: inf
ROOT
ATOM      1  C   UNL     1      -9.462  29.377  22.869  1.00  0.00     0.000 C 
ENDROOT
BRANCH   1   2
ATOM      2  C   UNL     1     -10.872  28.964  22.433  1.00  0.00     0.000 C 
BRANCH   2   3
ATOM      3  C   UNL     1     -10.850  27.603  21.719  1.00  0.00     0.000 C 
BRANCH   3   4
ATOM      4  C   UNL     1      -9.423  27.098  21.450  1.00  0.00     0.006 C 
BRANCH   4   5
ATOM      5  C   UNL     1      -9.212  26.673  19.992  1.00  0.00     0.053 C 
BRANCH   5   6
ATOM      6  C   UNL     1      -8.809  25.234  19.922  1.00  0.00     0.041 C 
ATOM      7  O   UNL     1      -8.082  24.734  20.820  1.00  0.00    -0.550 OA
ATOM      8  O   UNL     1      -9.198  24.455  18.839  1.00  0.00    -0.550 OA
ENDBRANCH   5   6
ENDBRANCH   4   5
ENDBRANCH   3   4
ENDBRANCH   2   3
ENDBRANCH   1   2
BRANCH   1   9
ATOM      9  C   UNL     1      -9.365  29.480  24.395  1.00  0.00     0.000 C 
BRANCH   9  10
ATOM     10  C   UNL     1     -10.653  28.982  25.064  1.00  0.00    -0.000 C 
BRANCH  10  11
ATOM     11  C   UNL     1     -10.466  27.568  25.633  1.00  0.00    -0.000 C 
BRANCH  11  12
ATOM     12  C   UNL     1      -8.986  27.177  25.775  1.00  0.00    -0.000 C 
BRANCH  12  13
ATOM     13  C   UNL     1      -8.632  25.908  24.986  1.00  0.00    -0.003 C 
ATOM     14  C   UNL     1      -7.304  26.070  24.253  1.00  0.00     0.004 C 
ENDBRANCH  12  13
ENDBRANCH  11  12
ENDBRANCH  10  11
ENDBRANCH   9  10
ENDBRANCH   1   9
TORSDOF 10
ENDMDL
