MODEL 1
REMARK VINA RESULT:    -3.008      0.000      0.000
REMARK INTER + INTRA:          -3.867
REMARK INTER:                  -3.711
REMARK INTRA:                  -0.156
REMARK UNBOUND:                -0.156
REMARK SMILES COc1cc(-c2oc3cc(O)cc(O)c3c(=O)c2O)ccc1O
REMARK SMILES IDX 6 1 18 2 16 3 17 4 15 5 13 6 12 7 10 8 9 9 8 10 7 11 5 12
REMARK SMILES IDX 3 13 22 14 4 15 21 16 20 17 2 18 1 19 23 20 19 22 14 24
REMARK SMILES IDX 11 26
REMARK H PARENT 23 21 19 23 14 25 11 27
REMARK Flexibility Score: inf
ROOT
ATOM      1  C   UNL     1      13.107   6.313  -5.967  1.00  0.00     0.180 A 
ATOM      2  C   UNL     1      11.744   6.417  -6.294  1.00  0.00     0.208 A 
ATOM      3  C   UNL     1      10.809   6.599  -5.263  1.00  0.00     0.238 A 
ATOM      4  O   UNL     1       9.595   6.745  -5.566  1.00  0.00    -0.285 OA
ATOM      5  C   UNL     1      11.246   6.659  -3.918  1.00  0.00     0.111 A 
ATOM      6  C   UNL     1      10.381   6.802  -2.791  1.00  0.00     0.134 A 
ATOM      7  C   UNL     1      10.932   6.981  -1.516  1.00  0.00     0.093 A 
ATOM      8  C   UNL     1      12.312   6.959  -1.318  1.00  0.00     0.123 A 
ATOM      9  C   UNL     1      13.165   6.760  -2.405  1.00  0.00     0.094 A 
ATOM     10  C   UNL     1      12.646   6.615  -3.694  1.00  0.00     0.146 A 
ATOM     11  O   UNL     1      13.492   6.439  -4.702  1.00  0.00    -0.452 OA
ENDROOT
BRANCH   1  12
ATOM     12  C   UNL     1      14.150   6.095  -6.996  1.00  0.00     0.025 A 
ATOM     13  C   UNL     1      15.885   4.713  -8.026  1.00  0.00     0.161 A 
ATOM     14  C   UNL     1      16.160   5.746  -8.933  1.00  0.00     0.157 A 
ATOM     15  C   UNL     1      14.882   4.896  -7.052  1.00  0.00     0.062 A 
ATOM     16  C   UNL     1      15.446   6.949  -8.864  1.00  0.00     0.051 A 
ATOM     17  C   UNL     1      14.454   7.125  -7.898  1.00  0.00     0.016 A 
BRANCH  13  18
ATOM     18  O   UNL     1      16.629   3.526  -8.120  1.00  0.00    -0.493 OA
ATOM     19  C   UNL     1      17.959   3.367  -7.635  1.00  0.00     0.278 C 
ENDBRANCH  13  18
BRANCH  14  20
ATOM     20  O   UNL     1      17.148   5.570  -9.900  1.00  0.00    -0.504 OA
ATOM     21  H   UNL     1      16.920   5.281 -10.844  1.00  0.00     0.293 HD
ENDBRANCH  14  20
ENDBRANCH   1  12
BRANCH   2  22
ATOM     22  O   UNL     1      11.337   6.376  -7.630  1.00  0.00    -0.502 OA
ATOM     23  H   UNL     1      11.106   7.212  -8.154  1.00  0.00     0.293 HD
ENDBRANCH   2  22
BRANCH   6  24
ATOM     24  O   UNL     1       8.986   6.745  -2.865  1.00  0.00    -0.507 OA
ATOM     25  H   UNL     1       8.444   6.977  -3.684  1.00  0.00     0.293 HD
ENDBRANCH   6  24
BRANCH   8  26
ATOM     26  O   UNL     1      12.826   7.125  -0.034  1.00  0.00    -0.508 OA
ATOM     27  H   UNL     1      13.426   6.428   0.391  1.00  0.00     0.293 HD
ENDBRANCH   8  26
TORSDOF 6
ENDMDL
MODEL 2
REMARK VINA RESULT:    -2.319      1.753      7.720
REMARK INTER + INTRA:          -3.017
REMARK INTER:                  -2.884
REMARK INTRA:                  -0.132
REMARK UNBOUND:                -0.156
REMARK SMILES COc1cc(-c2oc3cc(O)cc(O)c3c(=O)c2O)ccc1O
REMARK SMILES IDX 6 1 18 2 16 3 17 4 15 5 13 6 12 7 10 8 9 9 8 10 7 11 5 12
REMARK SMILES IDX 3 13 22 14 4 15 21 16 20 17 2 18 1 19 23 20 19 22 14 24
REMARK SMILES IDX 11 26
REMARK H PARENT 23 21 19 23 14 25 11 27
REMARK Flexibility Score: inf
ROOT
ATOM      1  C   UNL     1      14.753   5.440  -7.360  1.00  0.00     0.180 A 
ATOM      2  C   UNL     1      15.491   4.327  -6.920  1.00  0.00     0.208 A 
ATOM      3  C   UNL     1      16.627   3.935  -7.645  1.00  0.00     0.238 A 
ATOM      4  O   UNL     1      17.314   2.971  -7.216  1.00  0.00    -0.285 OA
ATOM      5  C   UNL     1      17.002   4.649  -8.808  1.00  0.00     0.111 A 
ATOM      6  C   UNL     1      18.111   4.314  -9.642  1.00  0.00     0.134 A 
ATOM      7  C   UNL     1      18.467   5.167 -10.694  1.00  0.00     0.093 A 
ATOM      8  C   UNL     1      17.717   6.307 -10.982  1.00  0.00     0.123 A 
ATOM      9  C   UNL     1      16.594   6.611 -10.210  1.00  0.00     0.094 A 
ATOM     10  C   UNL     1      16.235   5.798  -9.132  1.00  0.00     0.146 A 
ATOM     11  O   UNL     1      15.167   6.129  -8.416  1.00  0.00    -0.452 OA
ENDROOT
BRANCH   1  12
ATOM     12  C   UNL     1      13.530   5.899  -6.662  1.00  0.00     0.025 A 
ATOM     13  C   UNL     1      12.377   6.670  -4.647  1.00  0.00     0.161 A 
ATOM     14  C   UNL     1      11.172   6.712  -5.361  1.00  0.00     0.157 A 
ATOM     15  C   UNL     1      13.555   6.254  -5.301  1.00  0.00     0.062 A 
ATOM     16  C   UNL     1      11.141   6.337  -6.710  1.00  0.00     0.051 A 
ATOM     17  C   UNL     1      12.310   5.926  -7.353  1.00  0.00     0.016 A 
BRANCH  13  18
ATOM     18  O   UNL     1      12.365   7.043  -3.294  1.00  0.00    -0.493 OA
ATOM     19  C   UNL     1      13.523   7.125  -2.469  1.00  0.00     0.278 C 
ENDBRANCH  13  18
BRANCH  14  20
ATOM     20  O   UNL     1      10.004   7.125  -4.721  1.00  0.00    -0.504 OA
ATOM     21  H   UNL     1       9.096   7.026  -5.159  1.00  0.00     0.293 HD
ENDBRANCH  14  20
ENDBRANCH   1  12
BRANCH   2  22
ATOM     22  O   UNL     1      15.115   3.650  -5.756  1.00  0.00    -0.502 OA
ATOM     23  H   UNL     1      14.242   3.834  -5.278  1.00  0.00     0.293 HD
ENDBRANCH   2  22
BRANCH   6  24
ATOM     24  O   UNL     1      18.873   3.151  -9.498  1.00  0.00    -0.507 OA
ATOM     25  H   UNL     1      18.879   2.565  -8.676  1.00  0.00     0.293 HD
ENDBRANCH   6  24
BRANCH   8  26
ATOM     26  O   UNL     1      18.090   7.125 -12.046  1.00  0.00    -0.508 OA
ATOM     27  H   UNL     1      18.031   8.135 -11.985  1.00  0.00     0.293 HD
ENDBRANCH   8  26
TORSDOF 6
ENDMDL
MODEL 3
REMARK VINA RESULT:    -1.107      3.461      9.256
REMARK INTER + INTRA:          -1.521
REMARK INTER:                  -1.620
REMARK INTRA:                   0.099
REMARK UNBOUND:                -0.156
REMARK SMILES COc1cc(-c2oc3cc(O)cc(O)c3c(=O)c2O)ccc1O
REMARK SMILES IDX 6 1 18 2 16 3 17 4 15 5 13 6 12 7 10 8 9 9 8 10 7 11 5 12
REMARK SMILES IDX 3 13 22 14 4 15 21 16 20 17 2 18 1 19 23 20 19 22 14 24
REMARK SMILES IDX 11 26
REMARK H PARENT 23 21 19 23 14 25 11 27
REMARK Flexibility Score: inf
ROOT
ATOM      1  C   UNL     1      17.186   5.193  -9.945  1.00  0.00     0.180 A 
ATOM      2  C   UNL     1      18.534   5.539 -10.141  1.00  0.00     0.208 A 
ATOM      3  C   UNL     1      18.920   6.109 -11.364  1.00  0.00     0.238 A 
ATOM      4  O   UNL     1      20.118   6.465 -11.514  1.00  0.00    -0.285 OA
ATOM      5  C   UNL     1      17.957   6.312 -12.382  1.00  0.00     0.111 A 
ATOM      6  C   UNL     1      18.244   6.845 -13.674  1.00  0.00     0.134 A 
ATOM      7  C   UNL     1      17.193   7.125 -14.556  1.00  0.00     0.093 A 
ATOM      8  C   UNL     1      15.872   6.831 -14.218  1.00  0.00     0.123 A 
ATOM      9  C   UNL     1      15.586   6.253 -12.979  1.00  0.00     0.094 A 
ATOM     10  C   UNL     1      16.610   5.997 -12.065  1.00  0.00     0.146 A 
ATOM     11  O   UNL     1      16.294   5.457 -10.894  1.00  0.00    -0.452 OA
ENDROOT
BRANCH   1  12
ATOM     12  C   UNL     1      16.708   4.566  -8.692  1.00  0.00     0.025 A 
ATOM     13  C   UNL     1      15.075   4.376  -6.880  1.00  0.00     0.161 A 
ATOM     14  C   UNL     1      15.866   3.386  -6.281  1.00  0.00     0.157 A 
ATOM     15  C   UNL     1      15.506   4.970  -8.084  1.00  0.00     0.062 A 
ATOM     16  C   UNL     1      17.074   2.998  -6.874  1.00  0.00     0.051 A 
ATOM     17  C   UNL     1      17.496   3.589  -8.066  1.00  0.00     0.016 A 
BRANCH  13  18
ATOM     18  O   UNL     1      13.877   4.746  -6.251  1.00  0.00    -0.493 OA
ATOM     19  C   UNL     1      13.239   6.010  -6.409  1.00  0.00     0.278 C 
ENDBRANCH  13  18
BRANCH  14  20
ATOM     20  O   UNL     1      15.444   2.793  -5.092  1.00  0.00    -0.504 OA
ATOM     21  H   UNL     1      15.321   1.790  -5.015  1.00  0.00     0.293 HD
ENDBRANCH  14  20
ENDBRANCH   1  12
BRANCH   2  22
ATOM     22  O   UNL     1      19.464   5.349  -9.115  1.00  0.00    -0.502 OA
ATOM     23  H   UNL     1      19.791   4.431  -8.840  1.00  0.00     0.293 HD
ENDBRANCH   2  22
BRANCH   6  24
ATOM     24  O   UNL     1      19.536   7.090 -14.149  1.00  0.00    -0.507 OA
ATOM     25  H   UNL     1      19.790   7.857 -14.754  1.00  0.00     0.293 HD
ENDBRANCH   6  24
BRANCH   8  26
ATOM     26  O   UNL     1      14.852   7.107 -15.125  1.00  0.00    -0.508 OA
ATOM     27  H   UNL     1      14.008   6.547 -15.161  1.00  0.00     0.293 HD
ENDBRANCH   8  26
TORSDOF 6
ENDMDL
MODEL 4
REMARK VINA RESULT:    -0.912      2.800      8.925
REMARK INTER + INTRA:          -1.281
REMARK INTER:                  -2.039
REMARK INTRA:                   0.758
REMARK UNBOUND:                -0.156
REMARK SMILES COc1cc(-c2oc3cc(O)cc(O)c3c(=O)c2O)ccc1O
REMARK SMILES IDX 6 1 18 2 16 3 17 4 15 5 13 6 12 7 10 8 9 9 8 10 7 11 5 12
REMARK SMILES IDX 3 13 22 14 4 15 21 16 20 17 2 18 1 19 23 20 19 22 14 24
REMARK SMILES IDX 11 26
REMARK H PARENT 23 21 19 23 14 25 11 27
REMARK Flexibility Score: inf
ROOT
ATOM      1  C   UNL     1      16.061   5.859  -9.184  1.00  0.00     0.180 A 
ATOM      2  C   UNL     1      17.326   6.405  -8.906  1.00  0.00     0.208 A 
ATOM      3  C   UNL     1      18.244   6.564  -9.956  1.00  0.00     0.238 A 
ATOM      4  O   UNL     1      19.355   7.103  -9.711  1.00  0.00    -0.285 OA
ATOM      5  C   UNL     1      17.892   6.161 -11.267  1.00  0.00     0.111 A 
ATOM      6  C   UNL     1      18.758   6.240 -12.398  1.00  0.00     0.134 A 
ATOM      7  C   UNL     1      18.261   5.935 -13.672  1.00  0.00     0.093 A 
ATOM      8  C   UNL     1      16.949   5.493 -13.846  1.00  0.00     0.123 A 
ATOM      9  C   UNL     1      16.112   5.356 -12.738  1.00  0.00     0.094 A 
ATOM     10  C   UNL     1      16.568   5.687 -11.460  1.00  0.00     0.146 A 
ATOM     11  O   UNL     1      15.736   5.552 -10.434  1.00  0.00    -0.452 OA
ENDROOT
BRANCH   1  12
ATOM     12  C   UNL     1      15.049   5.638  -8.125  1.00  0.00     0.025 A 
ATOM     13  C   UNL     1      13.007   6.290  -6.946  1.00  0.00     0.161 A 
ATOM     14  C   UNL     1      13.181   5.214  -6.065  1.00  0.00     0.157 A 
ATOM     15  C   UNL     1      13.950   6.503  -7.972  1.00  0.00     0.062 A 
ATOM     16  C   UNL     1      14.287   4.365  -6.202  1.00  0.00     0.051 A 
ATOM     17  C   UNL     1      15.218   4.580  -7.220  1.00  0.00     0.016 A 
BRANCH  13  18
ATOM     18  O   UNL     1      11.893   7.125  -6.769  1.00  0.00    -0.493 OA
ATOM     19  C   UNL     1      10.938   6.985  -5.722  1.00  0.00     0.278 C 
ENDBRANCH  13  18
BRANCH  14  20
ATOM     20  O   UNL     1      12.251   4.996  -5.050  1.00  0.00    -0.504 OA
ATOM     21  H   UNL     1      12.010   4.061  -4.744  1.00  0.00     0.293 HD
ENDBRANCH  14  20
ENDBRANCH   1  12
BRANCH   2  22
ATOM     22  O   UNL     1      17.645   6.816  -7.609  1.00  0.00    -0.502 OA
ATOM     23  H   UNL     1      18.436   6.442  -7.099  1.00  0.00     0.293 HD
ENDBRANCH   2  22
BRANCH   6  24
ATOM     24  O   UNL     1      20.112   6.581 -12.324  1.00  0.00    -0.507 OA
ATOM     25  H   UNL     1      20.855   5.936 -12.100  1.00  0.00     0.293 HD
ENDBRANCH   6  24
BRANCH   8  26
ATOM     26  O   UNL     1      16.492   5.184 -15.125  1.00  0.00    -0.508 OA
ATOM     27  H   UNL     1      16.708   4.297 -15.565  1.00  0.00     0.293 HD
ENDBRANCH   8  26
TORSDOF 6
ENDMDL
MODEL 5
REMARK VINA RESULT:    -0.139      3.325      6.483
REMARK INTER + INTRA:          -0.327
REMARK INTER:                  -0.066
REMARK INTRA:                  -0.261
REMARK UNBOUND:                -0.156
REMARK SMILES COc1cc(-c2oc3cc(O)cc(O)c3c(=O)c2O)ccc1O
REMARK SMILES IDX 6 1 18 2 16 3 17 4 15 5 13 6 12 7 10 8 9 9 8 10 7 11 5 12
REMARK SMILES IDX 3 13 22 14 4 15 21 16 20 17 2 18 1 19 23 20 19 22 14 24
REMARK SMILES IDX 11 26
REMARK H PARENT 23 21 19 23 14 25 11 27
REMARK Flexibility Score: inf
ROOT
ATOM      1  C   UNL     1      17.361   5.404  -9.759  1.00  0.00     0.180 A 
ATOM      2  C   UNL     1      17.643   4.230  -9.039  1.00  0.00     0.208 A 
ATOM      3  C   UNL     1      16.802   3.866  -7.976  1.00  0.00     0.238 A 
ATOM      4  O   UNL     1      17.028   2.786  -7.368  1.00  0.00    -0.285 OA
ATOM      5  C   UNL     1      15.700   4.687  -7.635  1.00  0.00     0.111 A 
ATOM      6  C   UNL     1      14.806   4.435  -6.552  1.00  0.00     0.134 A 
ATOM      7  C   UNL     1      13.674   5.242  -6.387  1.00  0.00     0.093 A 
ATOM      8  C   UNL     1      13.438   6.331  -7.227  1.00  0.00     0.123 A 
ATOM      9  C   UNL     1      14.338   6.622  -8.254  1.00  0.00     0.094 A 
ATOM     10  C   UNL     1      15.457   5.813  -8.464  1.00  0.00     0.146 A 
ATOM     11  O   UNL     1      16.283   6.118  -9.458  1.00  0.00    -0.452 OA
ENDROOT
BRANCH   1  12
ATOM     12  C   UNL     1      18.216   5.866 -10.877  1.00  0.00     0.025 A 
ATOM     13  C   UNL     1      18.600   6.243 -13.263  1.00  0.00     0.161 A 
ATOM     14  C   UNL     1      19.893   6.701 -12.975  1.00  0.00     0.157 A 
ATOM     15  C   UNL     1      17.766   5.818 -12.209  1.00  0.00     0.062 A 
ATOM     16  C   UNL     1      20.350   6.728 -11.652  1.00  0.00     0.051 A 
ATOM     17  C   UNL     1      19.520   6.306 -10.611  1.00  0.00     0.016 A 
BRANCH  13  18
ATOM     18  O   UNL     1      18.182   6.220 -14.603  1.00  0.00    -0.493 OA
ATOM     19  C   UNL     1      17.053   5.497 -15.084  1.00  0.00     0.278 C 
ENDBRANCH  13  18
BRANCH  14  20
ATOM     20  O   UNL     1      20.721   7.125 -14.013  1.00  0.00    -0.504 OA
ATOM     21  H   UNL     1      21.231   6.465 -14.588  1.00  0.00     0.293 HD
ENDBRANCH  14  20
ENDBRANCH   1  12
BRANCH   2  22
ATOM     22  O   UNL     1      18.723   3.423  -9.406  1.00  0.00    -0.502 OA
ATOM     23  H   UNL     1      19.682   3.747  -9.367  1.00  0.00     0.293 HD
ENDBRANCH   2  22
BRANCH   6  24
ATOM     24  O   UNL     1      14.998   3.430  -5.598  1.00  0.00    -0.507 OA
ATOM     25  H   UNL     1      15.885   3.200  -5.176  1.00  0.00     0.293 HD
ENDBRANCH   6  24
BRANCH   8  26
ATOM     26  O   UNL     1      12.310   7.123  -7.026  1.00  0.00    -0.508 OA
ATOM     27  H   UNL     1      11.940   7.292  -6.098  1.00  0.00     0.293 HD
ENDBRANCH   8  26
TORSDOF 6
ENDMDL
