MODEL 1
REMARK VINA RESULT:    -4.717      0.000      0.000
REMARK INTER + INTRA:          -7.294
REMARK INTER:                  -6.923
REMARK INTRA:                  -0.371
REMARK UNBOUND:                -0.371
REMARK SMILES O=C([O-])CCCCCCCC(=O)[O-]
REMARK SMILES IDX 7 1 6 2 5 3 4 4 2 5 1 6 3 7 8 8 9 9 10 10 11 11 12 12 13 13
REMARK H PARENT
REMARK Flexibility Score: inf
ROOT
ATOM      1  C   UNL     1     -16.407  42.150  21.648  1.00  0.00     0.000 C 
ENDROOT
BRANCH   1   2
ATOM      2  C   UNL     1     -15.677  43.387  22.196  1.00  0.00     0.000 C 
BRANCH   2   3
ATOM      3  C   UNL     1     -16.504  44.677  22.051  1.00  0.00     0.006 C 
BRANCH   3   4
ATOM      4  C   UNL     1     -16.835  45.307  23.411  1.00  0.00     0.053 C 
BRANCH   4   5
ATOM      5  C   UNL     1     -16.099  46.594  23.621  1.00  0.00     0.041 C 
ATOM      6  O   UNL     1     -15.134  46.646  24.430  1.00  0.00    -0.550 OA
ATOM      7  O   UNL     1     -16.455  47.725  22.899  1.00  0.00    -0.550 OA
ENDBRANCH   4   5
ENDBRANCH   3   4
ENDBRANCH   2   3
ENDBRANCH   1   2
BRANCH   1   8
ATOM      8  C   UNL     1     -17.802  42.486  21.095  1.00  0.00     0.000 C 
BRANCH   8   9
ATOM      9  C   UNL     1     -18.600  41.233  20.689  1.00  0.00     0.006 C 
BRANCH   9  10
ATOM     10  C   UNL     1     -17.737  39.990  20.418  1.00  0.00     0.053 C 
BRANCH  10  11
ATOM     11  C   UNL     1     -17.575  39.727  18.953  1.00  0.00     0.041 C 
ATOM     12  O   UNL     1     -17.978  40.570  18.109  1.00  0.00    -0.550 OA
ATOM     13  O   UNL     1     -17.010  38.534  18.518  1.00  0.00    -0.550 OA
ENDBRANCH  10  11
ENDBRANCH   9  10
ENDBRANCH   8   9
ENDBRANCH   1   8
TORSDOF 8
ENDMDL
MODEL 2
REMARK VINA RESULT:    -4.706      1.167      1.634
REMARK INTER + INTRA:          -7.279
REMARK INTER:                  -7.025
REMARK INTRA:                  -0.254
REMARK UNBOUND:                -0.371
REMARK SMILES O=C([O-])CCCCCCCC(=O)[O-]
REMARK SMILES IDX 7 1 6 2 5 3 4 4 2 5 1 6 3 7 8 8 9 9 10 10 11 11 12 12 13 13
REMARK H PARENT
REMARK Flexibility Score: inf
ROOT
ATOM      1  C   UNL     1     -16.081  43.359  22.133  1.00  0.00     0.000 C 
ENDROOT
BRANCH   1   2
ATOM      2  C   UNL     1     -16.985  44.599  22.226  1.00  0.00     0.000 C 
BRANCH   2   3
ATOM      3  C   UNL     1     -16.856  45.327  23.575  1.00  0.00     0.006 C 
BRANCH   3   4
ATOM      4  C   UNL     1     -15.831  46.468  23.521  1.00  0.00     0.053 C 
BRANCH   4   5
ATOM      5  C   UNL     1     -16.243  47.541  22.560  1.00  0.00     0.041 C 
ATOM      6  O   UNL     1     -15.850  47.503  21.363  1.00  0.00    -0.550 OA
ATOM      7  O   UNL     1     -17.088  48.560  22.975  1.00  0.00    -0.550 OA
ENDBRANCH   4   5
ENDBRANCH   3   4
ENDBRANCH   2   3
ENDBRANCH   1   2
BRANCH   1   8
ATOM      8  C   UNL     1     -16.790  42.161  21.478  1.00  0.00     0.000 C 
BRANCH   8   9
ATOM      9  C   UNL     1     -18.084  42.562  20.746  1.00  0.00     0.006 C 
BRANCH   9  10
ATOM     10  C   UNL     1     -18.938  41.376  20.269  1.00  0.00     0.053 C 
BRANCH  10  11
ATOM     11  C   UNL     1     -18.201  40.508  19.296  1.00  0.00     0.041 C 
ATOM     12  O   UNL     1     -17.678  41.011  18.267  1.00  0.00    -0.550 OA
ATOM     13  O   UNL     1     -18.121  39.137  19.509  1.00  0.00    -0.550 OA
ENDBRANCH  10  11
ENDBRANCH   9  10
ENDBRANCH   8   9
ENDBRANCH   1   8
TORSDOF 8
ENDMDL
MODEL 3
REMARK VINA RESULT:    -4.664      0.848      7.040
REMARK INTER + INTRA:          -7.216
REMARK INTER:                  -6.873
REMARK INTRA:                  -0.342
REMARK UNBOUND:                -0.371
REMARK SMILES O=C([O-])CCCCCCCC(=O)[O-]
REMARK SMILES IDX 7 1 6 2 5 3 4 4 2 5 1 6 3 7 8 8 9 9 10 10 11 11 12 12 13 13
REMARK H PARENT
REMARK Flexibility Score: inf
ROOT
ATOM      1  C   UNL     1     -17.079  42.217  21.578  1.00  0.00     0.000 C 
ENDROOT
BRANCH   1   2
ATOM      2  C   UNL     1     -18.106  42.630  20.511  1.00  0.00     0.000 C 
BRANCH   2   3
ATOM      3  C   UNL     1     -18.821  41.425  19.876  1.00  0.00     0.006 C 
BRANCH   3   4
ATOM      4  C   UNL     1     -18.013  40.814  18.723  1.00  0.00     0.053 C 
BRANCH   4   5
ATOM      5  C   UNL     1     -17.534  39.433  19.050  1.00  0.00     0.041 C 
ATOM      6  O   UNL     1     -17.578  39.013  20.237  1.00  0.00    -0.550 OA
ATOM      7  O   UNL     1     -17.074  38.599  18.041  1.00  0.00    -0.550 OA
ENDBRANCH   4   5
ENDBRANCH   3   4
ENDBRANCH   2   3
ENDBRANCH   1   2
BRANCH   1   8
ATOM      8  C   UNL     1     -16.006  43.294  21.812  1.00  0.00     0.000 C 
BRANCH   8   9
ATOM      9  C   UNL     1     -16.598  44.713  21.908  1.00  0.00     0.006 C 
BRANCH   9  10
ATOM     10  C   UNL     1     -16.825  45.210  23.345  1.00  0.00     0.053 C 
BRANCH  10  11
ATOM     11  C   UNL     1     -16.116  46.503  23.611  1.00  0.00     0.041 C 
ATOM     12  O   UNL     1     -16.521  47.569  23.077  1.00  0.00    -0.550 OA
ATOM     13  O   UNL     1     -14.988  46.524  24.422  1.00  0.00    -0.550 OA
ENDBRANCH  10  11
ENDBRANCH   9  10
ENDBRANCH   8   9
ENDBRANCH   1   8
TORSDOF 8
ENDMDL
MODEL 4
REMARK VINA RESULT:    -4.316      3.915      5.730
REMARK INTER + INTRA:          -6.705
REMARK INTER:                  -6.276
REMARK INTRA:                  -0.429
REMARK UNBOUND:                -0.371
REMARK SMILES O=C([O-])CCCCCCCC(=O)[O-]
REMARK SMILES IDX 7 1 6 2 5 3 4 4 2 5 1 6 3 7 8 8 9 9 10 10 11 11 12 12 13 13
REMARK H PARENT
REMARK Flexibility Score: inf
ROOT
ATOM      1  C   UNL     1     -16.184  42.183  21.888  1.00  0.00     0.000 C 
ENDROOT
BRANCH   1   2
ATOM      2  C   UNL     1     -14.769  42.614  22.307  1.00  0.00     0.000 C 
BRANCH   2   3
ATOM      3  C   UNL     1     -14.175  41.715  23.405  1.00  0.00     0.006 C 
BRANCH   3   4
ATOM      4  C   UNL     1     -12.944  42.348  24.067  1.00  0.00     0.053 C 
BRANCH   4   5
ATOM      5  C   UNL     1     -13.314  43.151  25.276  1.00  0.00     0.041 C 
ATOM      6  O   UNL     1     -13.250  42.635  26.423  1.00  0.00    -0.550 OA
ATOM      7  O   UNL     1     -13.694  44.479  25.140  1.00  0.00    -0.550 OA
ENDBRANCH   4   5
ENDBRANCH   3   4
ENDBRANCH   2   3
ENDBRANCH   1   2
BRANCH   1   8
ATOM      8  C   UNL     1     -17.134  43.379  21.704  1.00  0.00     0.000 C 
BRANCH   8   9
ATOM      9  C   UNL     1     -16.451  44.731  21.983  1.00  0.00     0.006 C 
BRANCH   9  10
ATOM     10  C   UNL     1     -16.906  45.416  23.281  1.00  0.00     0.053 C 
BRANCH  10  11
ATOM     11  C   UNL     1     -16.344  46.799  23.413  1.00  0.00     0.041 C 
ATOM     12  O   UNL     1     -16.258  47.343  24.545  1.00  0.00    -0.550 OA
ATOM     13  O   UNL     1     -15.945  47.499  22.281  1.00  0.00    -0.550 OA
ENDBRANCH  10  11
ENDBRANCH   9  10
ENDBRANCH   8   9
ENDBRANCH   1   8
TORSDOF 8
ENDMDL
MODEL 5
REMARK VINA RESULT:    -4.303      4.449      9.716
REMARK INTER + INTRA:          -6.686
REMARK INTER:                  -6.466
REMARK INTRA:                  -0.220
REMARK UNBOUND:                -0.371
REMARK SMILES O=C([O-])CCCCCCCC(=O)[O-]
REMARK SMILES IDX 7 1 6 2 5 3 4 4 2 5 1 6 3 7 8 8 9 9 10 10 11 11 12 12 13 13
REMARK H PARENT
REMARK Flexibility Score: inf
ROOT
ATOM      1  C   UNL     1     -16.619  37.553  16.777  1.00  0.00     0.000 C 
ENDROOT
BRANCH   1   2
ATOM      2  C   UNL     1     -16.007  36.161  16.556  1.00  0.00     0.000 C 
BRANCH   2   3
ATOM      3  C   UNL     1     -15.755  35.852  15.069  1.00  0.00     0.006 C 
BRANCH   3   4
ATOM      4  C   UNL     1     -16.948  35.141  14.416  1.00  0.00     0.053 C 
BRANCH   4   5
ATOM      5  C   UNL     1     -17.425  35.865  13.195  1.00  0.00     0.041 C 
ATOM      6  O   UNL     1     -17.128  35.436  12.048  1.00  0.00    -0.550 OA
ATOM      7  O   UNL     1     -18.228  36.990  13.322  1.00  0.00    -0.550 OA
ENDBRANCH   4   5
ENDBRANCH   3   4
ENDBRANCH   2   3
ENDBRANCH   1   2
BRANCH   1   8
ATOM      8  C   UNL     1     -16.954  37.822  18.254  1.00  0.00     0.000 C 
BRANCH   8   9
ATOM      9  C   UNL     1     -17.340  39.288  18.521  1.00  0.00     0.006 C 
BRANCH   9  10
ATOM     10  C   UNL     1     -17.475  39.649  20.009  1.00  0.00     0.053 C 
BRANCH  10  11
ATOM     11  C   UNL     1     -18.210  40.939  20.210  1.00  0.00     0.041 C 
ATOM     12  O   UNL     1     -17.778  41.795  21.026  1.00  0.00    -0.550 OA
ATOM     13  O   UNL     1     -19.391  41.182  19.519  1.00  0.00    -0.550 OA
ENDBRANCH  10  11
ENDBRANCH   9  10
ENDBRANCH   8   9
ENDBRANCH   1   8
TORSDOF 8
ENDMDL
MODEL 6
REMARK VINA RESULT:    -4.217     10.073     11.778
REMARK INTER + INTRA:          -6.560
REMARK INTER:                  -6.031
REMARK INTRA:                  -0.529
REMARK UNBOUND:                -0.371
REMARK SMILES O=C([O-])CCCCCCCC(=O)[O-]
REMARK SMILES IDX 7 1 6 2 5 3 4 4 2 5 1 6 3 7 8 8 9 9 10 10 11 11 12 12 13 13
REMARK H PARENT
REMARK Flexibility Score: inf
ROOT
ATOM      1  C   UNL     1     -15.043  38.231  13.245  1.00  0.00     0.000 C 
ENDROOT
BRANCH   1   2
ATOM      2  C   UNL     1     -14.974  36.734  12.900  1.00  0.00     0.000 C 
BRANCH   2   3
ATOM      3  C   UNL     1     -15.899  36.351  11.732  1.00  0.00     0.006 C 
BRANCH   3   4
ATOM      4  C   UNL     1     -16.792  35.150  12.070  1.00  0.00     0.053 C 
BRANCH   4   5
ATOM      5  C   UNL     1     -17.520  35.346  13.365  1.00  0.00     0.041 C 
ATOM      6  O   UNL     1     -17.314  34.564  14.331  1.00  0.00    -0.550 OA
ATOM      7  O   UNL     1     -18.397  36.411  13.515  1.00  0.00    -0.550 OA
ENDBRANCH   4   5
ENDBRANCH   3   4
ENDBRANCH   2   3
ENDBRANCH   1   2
BRANCH   1   8
ATOM      8  C   UNL     1     -16.252  38.929  12.599  1.00  0.00     0.000 C 
BRANCH   8   9
ATOM      9  C   UNL     1     -15.873  40.247  11.898  1.00  0.00     0.006 C 
BRANCH   9  10
ATOM     10  C   UNL     1     -16.665  40.533  10.611  1.00  0.00     0.053 C 
BRANCH  10  11
ATOM     11  C   UNL     1     -17.592  41.699  10.769  1.00  0.00     0.041 C 
ATOM     12  O   UNL     1     -18.081  42.262   9.755  1.00  0.00    -0.550 OA
ATOM     13  O   UNL     1     -17.890  42.185  12.037  1.00  0.00    -0.550 OA
ENDBRANCH  10  11
ENDBRANCH   9  10
ENDBRANCH   8   9
ENDBRANCH   1   8
TORSDOF 8
ENDMDL
MODEL 7
REMARK VINA RESULT:    -4.211      9.273      9.868
REMARK INTER + INTRA:          -6.552
REMARK INTER:                  -6.022
REMARK INTRA:                  -0.530
REMARK UNBOUND:                -0.371
REMARK SMILES O=C([O-])CCCCCCCC(=O)[O-]
REMARK SMILES IDX 7 1 6 2 5 3 4 4 2 5 1 6 3 7 8 8 9 9 10 10 11 11 12 12 13 13
REMARK H PARENT
REMARK Flexibility Score: inf
ROOT
ATOM      1  C   UNL     1     -17.787  38.334  13.241  1.00  0.00     0.000 C 
ENDROOT
BRANCH   1   2
ATOM      2  C   UNL     1     -16.302  38.517  12.889  1.00  0.00     0.000 C 
BRANCH   2   3
ATOM      3  C   UNL     1     -16.048  39.759  12.018  1.00  0.00     0.006 C 
BRANCH   3   4
ATOM      4  C   UNL     1     -17.345  40.510  11.687  1.00  0.00     0.053 C 
BRANCH   4   5
ATOM      5  C   UNL     1     -17.276  41.948  12.100  1.00  0.00     0.041 C 
ATOM      6  O   UNL     1     -16.426  42.716  11.576  1.00  0.00    -0.550 OA
ATOM      7  O   UNL     1     -18.172  42.448  13.035  1.00  0.00    -0.550 OA
ENDBRANCH   4   5
ENDBRANCH   3   4
ENDBRANCH   2   3
ENDBRANCH   1   2
BRANCH   1   8
ATOM      8  C   UNL     1     -18.204  36.854  13.285  1.00  0.00     0.000 C 
BRANCH   8   9
ATOM      9  C   UNL     1     -17.000  35.894  13.245  1.00  0.00     0.006 C 
BRANCH   9  10
ATOM     10  C   UNL     1     -16.729  35.159  14.567  1.00  0.00     0.053 C 
BRANCH  10  11
ATOM     11  C   UNL     1     -15.752  35.896  15.431  1.00  0.00     0.041 C 
ATOM     12  O   UNL     1     -16.150  36.523  16.447  1.00  0.00    -0.550 OA
ATOM     13  O   UNL     1     -14.404  35.919  15.093  1.00  0.00    -0.550 OA
ENDBRANCH  10  11
ENDBRANCH   9  10
ENDBRANCH   8   9
ENDBRANCH   1   8
TORSDOF 8
ENDMDL
MODEL 8
REMARK VINA RESULT:    -4.195      4.206      6.746
REMARK INTER + INTRA:          -6.528
REMARK INTER:                  -6.282
REMARK INTRA:                  -0.246
REMARK UNBOUND:                -0.371
REMARK SMILES O=C([O-])CCCCCCCC(=O)[O-]
REMARK SMILES IDX 7 1 6 2 5 3 4 4 2 5 1 6 3 7 8 8 9 9 10 10 11 11 12 12 13 13
REMARK H PARENT
REMARK Flexibility Score: inf
ROOT
ATOM      1  C   UNL     1     -16.683  37.150  18.078  1.00  0.00     0.000 C 
ENDROOT
BRANCH   1   2
ATOM      2  C   UNL     1     -17.038  38.634  17.887  1.00  0.00     0.000 C 
BRANCH   2   3
ATOM      3  C   UNL     1     -17.649  39.265  19.150  1.00  0.00     0.006 C 
BRANCH   3   4
ATOM      4  C   UNL     1     -18.298  40.625  18.860  1.00  0.00     0.053 C 
BRANCH   4   5
ATOM      5  C   UNL     1     -18.422  41.458  20.099  1.00  0.00     0.041 C 
ATOM      6  O   UNL     1     -18.797  42.658  20.020  1.00  0.00    -0.550 OA
ATOM      7  O   UNL     1     -18.159  40.899  21.342  1.00  0.00    -0.550 OA
ENDBRANCH   4   5
ENDBRANCH   3   4
ENDBRANCH   2   3
ENDBRANCH   1   2
BRANCH   1   8
ATOM      8  C   UNL     1     -16.176  36.494  16.782  1.00  0.00     0.000 C 
BRANCH   8   9
ATOM      9  C   UNL     1     -16.546  37.299  15.522  1.00  0.00     0.006 C 
BRANCH   9  10
ATOM     10  C   UNL     1     -16.026  36.695  14.207  1.00  0.00     0.053 C 
BRANCH  10  11
ATOM     11  C   UNL     1     -17.092  36.637  13.156  1.00  0.00     0.041 C 
ATOM     12  O   UNL     1     -18.082  37.413  13.212  1.00  0.00    -0.550 OA
ATOM     13  O   UNL     1     -17.009  35.700  12.132  1.00  0.00    -0.550 OA
ENDBRANCH  10  11
ENDBRANCH   9  10
ENDBRANCH   8   9
ENDBRANCH   1   8
TORSDOF 8
ENDMDL
MODEL 9
REMARK VINA RESULT:    -4.166     10.893     12.611
REMARK INTER + INTRA:          -6.485
REMARK INTER:                  -6.193
REMARK INTRA:                  -0.291
REMARK UNBOUND:                -0.371
REMARK SMILES O=C([O-])CCCCCCCC(=O)[O-]
REMARK SMILES IDX 7 1 6 2 5 3 4 4 2 5 1 6 3 7 8 8 9 9 10 10 11 11 12 12 13 13
REMARK H PARENT
REMARK Flexibility Score: inf
ROOT
ATOM      1  C   UNL     1     -16.538  39.246  12.173  1.00  0.00     0.000 C 
ENDROOT
BRANCH   1   2
ATOM      2  C   UNL     1     -17.731  38.582  12.878  1.00  0.00     0.000 C 
BRANCH   2   3
ATOM      3  C   UNL     1     -17.418  37.153  13.358  1.00  0.00     0.006 C 
BRANCH   3   4
ATOM      4  C   UNL     1     -16.092  36.630  12.790  1.00  0.00     0.053 C 
BRANCH   4   5
ATOM      5  C   UNL     1     -16.311  35.654  11.675  1.00  0.00     0.041 C 
ATOM      6  O   UNL     1     -16.989  34.611  11.872  1.00  0.00    -0.550 OA
ATOM      7  O   UNL     1     -15.797  35.912  10.412  1.00  0.00    -0.550 OA
ENDBRANCH   4   5
ENDBRANCH   3   4
ENDBRANCH   2   3
ENDBRANCH   1   2
BRANCH   1   8
ATOM      8  C   UNL     1     -16.832  40.697  11.758  1.00  0.00     0.000 C 
BRANCH   8   9
ATOM      9  C   UNL     1     -17.149  40.834  10.257  1.00  0.00     0.006 C 
BRANCH   9  10
ATOM     10  C   UNL     1     -17.825  42.159   9.868  1.00  0.00     0.053 C 
BRANCH  10  11
ATOM     11  C   UNL     1     -17.234  42.749   8.625  1.00  0.00     0.041 C 
ATOM     12  O   UNL     1     -17.455  43.951   8.326  1.00  0.00    -0.550 OA
ATOM     13  O   UNL     1     -16.466  41.959   7.777  1.00  0.00    -0.550 OA
ENDBRANCH  10  11
ENDBRANCH   9  10
ENDBRANCH   8   9
ENDBRANCH   1   8
TORSDOF 8
ENDMDL
