MODEL 1
REMARK VINA RESULT:    -2.342      0.000      0.000
REMARK INTER + INTRA:          -2.342
REMARK INTER:                  -2.342
REMARK INTRA:                   0.000
REMARK UNBOUND:                 0.000
REMARK SMILES CC(=O)[O-]
REMARK SMILES IDX 1 1 2 2 3 3 4 4
REMARK H PARENT
REMARK Flexibility Score: inf
ROOT
ATOM      1  C   UNL     1      16.494  13.316 -15.828  1.00  0.00     0.063 C 
ATOM      2  C   UNL     1      17.357  13.649 -16.996  1.00  0.00     0.038 C 
ATOM      3  O   UNL     1      18.052  12.755 -17.545  1.00  0.00    -0.550 OA
ATOM      4  O   UNL     1      17.440  14.961 -17.449  1.00  0.00    -0.550 OA
ENDROOT
TORSDOF 0
ENDMDL
MODEL 2
REMARK VINA RESULT:    -2.335     13.888     14.156
REMARK INTER + INTRA:          -2.335
REMARK INTER:                  -2.335
REMARK INTRA:                   0.000
REMARK UNBOUND:                 0.000
REMARK SMILES CC(=O)[O-]
REMARK SMILES IDX 1 1 2 2 3 3 4 4
REMARK H PARENT
REMARK Flexibility Score: inf
ROOT
ATOM      1  C   UNL     1      19.711   3.089 -26.116  1.00  0.00     0.063 C 
ATOM      2  C   UNL     1      19.744   4.191 -27.120  1.00  0.00     0.038 C 
ATOM      3  O   UNL     1      18.919   4.204 -28.071  1.00  0.00    -0.550 OA
ATOM      4  O   UNL     1      20.719   5.177 -27.039  1.00  0.00    -0.550 OA
ENDROOT
TORSDOF 0
ENDMDL
MODEL 3
REMARK VINA RESULT:    -2.299      1.677      1.807
REMARK INTER + INTRA:          -2.299
REMARK INTER:                  -2.299
REMARK INTRA:                   0.000
REMARK UNBOUND:                 0.000
REMARK SMILES CC(=O)[O-]
REMARK SMILES IDX 1 1 2 2 3 3 4 4
REMARK H PARENT
REMARK Flexibility Score: inf
ROOT
ATOM      1  C   UNL     1      17.600  13.535 -17.031  1.00  0.00     0.063 C 
ATOM      2  C   UNL     1      17.267  14.799 -17.746  1.00  0.00     0.038 C 
ATOM      3  O   UNL     1      17.428  14.881 -18.992  1.00  0.00    -0.550 OA
ATOM      4  O   UNL     1      16.830  15.908 -17.033  1.00  0.00    -0.550 OA
ENDROOT
TORSDOF 0
ENDMDL
MODEL 4
REMARK VINA RESULT:    -2.290      0.151      1.624
REMARK INTER + INTRA:          -2.290
REMARK INTER:                  -2.290
REMARK INTRA:                   0.000
REMARK UNBOUND:                 0.000
REMARK SMILES CC(=O)[O-]
REMARK SMILES IDX 1 1 2 2 3 3 4 4
REMARK H PARENT
REMARK Flexibility Score: inf
ROOT
ATOM      1  C   UNL     1      16.498  13.228 -15.738  1.00  0.00     0.063 C 
ATOM      2  C   UNL     1      17.334  13.616 -16.909  1.00  0.00     0.038 C 
ATOM      3  O   UNL     1      17.316  14.802 -17.333  1.00  0.00    -0.550 OA
ATOM      4  O   UNL     1      18.092  12.659 -17.572  1.00  0.00    -0.550 OA
ENDROOT
TORSDOF 0
ENDMDL
MODEL 5
REMARK VINA RESULT:    -2.255     14.068     14.222
REMARK INTER + INTRA:          -2.255
REMARK INTER:                  -2.255
REMARK INTRA:                   0.000
REMARK UNBOUND:                 0.000
REMARK SMILES CC(=O)[O-]
REMARK SMILES IDX 1 1 2 2 3 3 4 4
REMARK H PARENT
REMARK Flexibility Score: inf
ROOT
ATOM      1  C   UNL     1      21.197   4.886 -26.956  1.00  0.00     0.063 C 
ATOM      2  C   UNL     1      19.931   4.100 -26.978  1.00  0.00     0.038 C 
ATOM      3  O   UNL     1      19.710   3.233 -26.092  1.00  0.00    -0.550 OA
ATOM      4  O   UNL     1      19.017   4.281 -28.009  1.00  0.00    -0.550 OA
ENDROOT
TORSDOF 0
ENDMDL
MODEL 6
REMARK VINA RESULT:    -2.240     13.997     14.420
REMARK INTER + INTRA:          -2.240
REMARK INTER:                  -2.240
REMARK INTRA:                   0.000
REMARK UNBOUND:                 0.000
REMARK SMILES CC(=O)[O-]
REMARK SMILES IDX 1 1 2 2 3 3 4 4
REMARK H PARENT
REMARK Flexibility Score: inf
ROOT
ATOM      1  C   UNL     1      18.633   3.269 -28.125  1.00  0.00     0.063 C 
ATOM      2  C   UNL     1      19.474   3.856 -27.044  1.00  0.00     0.038 C 
ATOM      3  O   UNL     1      19.997   4.991 -27.196  1.00  0.00    -0.550 OA
ATOM      4  O   UNL     1      19.729   3.129 -25.887  1.00  0.00    -0.550 OA
ENDROOT
TORSDOF 0
ENDMDL
MODEL 7
REMARK VINA RESULT:    -2.216      5.853      6.026
REMARK INTER + INTRA:          -2.216
REMARK INTER:                  -2.216
REMARK INTRA:                   0.000
REMARK UNBOUND:                 0.000
REMARK SMILES CC(=O)[O-]
REMARK SMILES IDX 1 1 2 2 3 3 4 4
REMARK H PARENT
REMARK Flexibility Score: inf
ROOT
ATOM      1  C   UNL     1      13.448  11.279 -21.185  1.00  0.00     0.063 C 
ATOM      2  C   UNL     1      14.487  12.090 -21.882  1.00  0.00     0.038 C 
ATOM      3  O   UNL     1      14.318  12.440 -23.079  1.00  0.00    -0.550 OA
ATOM      4  O   UNL     1      15.669  12.416 -21.229  1.00  0.00    -0.550 OA
ENDROOT
TORSDOF 0
ENDMDL
MODEL 8
REMARK VINA RESULT:    -2.214      1.474      1.775
REMARK INTER + INTRA:          -2.214
REMARK INTER:                  -2.214
REMARK INTRA:                   0.000
REMARK UNBOUND:                 0.000
REMARK SMILES CC(=O)[O-]
REMARK SMILES IDX 1 1 2 2 3 3 4 4
REMARK H PARENT
REMARK Flexibility Score: inf
ROOT
ATOM      1  C   UNL     1      17.111  15.121 -17.481  1.00  0.00     0.063 C 
ATOM      2  C   UNL     1      17.221  13.762 -16.879  1.00  0.00     0.038 C 
ATOM      3  O   UNL     1      17.965  12.895 -17.408  1.00  0.00    -0.550 OA
ATOM      4  O   UNL     1      16.460  13.430 -15.764  1.00  0.00    -0.550 OA
ENDROOT
TORSDOF 0
ENDMDL
MODEL 9
REMARK VINA RESULT:    -2.200      1.697      2.170
REMARK INTER + INTRA:          -2.200
REMARK INTER:                  -2.200
REMARK INTRA:                   0.000
REMARK UNBOUND:                 0.000
REMARK SMILES CC(=O)[O-]
REMARK SMILES IDX 1 1 2 2 3 3 4 4
REMARK H PARENT
REMARK Flexibility Score: inf
ROOT
ATOM      1  C   UNL     1      16.460  15.920 -16.892  1.00  0.00     0.063 C 
ATOM      2  C   UNL     1      17.254  14.898 -17.631  1.00  0.00     0.038 C 
ATOM      3  O   UNL     1      17.434  15.012 -18.871  1.00  0.00    -0.550 OA
ATOM      4  O   UNL     1      17.752  13.786 -16.962  1.00  0.00    -0.550 OA
ENDROOT
TORSDOF 0
ENDMDL
