MODEL 1
REMARK VINA RESULT:    -2.717      0.000      0.000
REMARK INTER + INTRA:          -5.218
REMARK INTER:                  -4.146
REMARK INTRA:                  -1.072
REMARK UNBOUND:                -1.072
REMARK SMILES CCCCCCCCCCC(=O)[O-]
REMARK SMILES IDX 7 1 8 2 9 3 10 4 11 5 12 6 13 7 6 8 5 9 4 10 3 11 2 12 1 13
REMARK H PARENT
REMARK Flexibility Score: inf
ROOT
ATOM      1  C   UNL     1      11.382 -18.897  20.740  1.00  0.00     0.000 C 
ENDROOT
BRANCH   1   2
ATOM      2  C   UNL     1      11.769 -19.011  19.255  1.00  0.00     0.000 C 
BRANCH   2   3
ATOM      3  C   UNL     1      10.554 -19.247  18.344  1.00  0.00     0.006 C 
BRANCH   3   4
ATOM      4  C   UNL     1       9.298 -18.519  18.839  1.00  0.00     0.053 C 
BRANCH   4   5
ATOM      5  C   UNL     1       8.116 -19.435  18.809  1.00  0.00     0.041 C 
ATOM      6  O   UNL     1       8.271 -20.673  18.978  1.00  0.00    -0.550 OA
ATOM      7  O   UNL     1       6.851 -18.929  18.542  1.00  0.00    -0.550 OA
ENDBRANCH   4   5
ENDBRANCH   3   4
ENDBRANCH   2   3
ENDBRANCH   1   2
BRANCH   1   8
ATOM      8  C   UNL     1      12.605 -18.864  21.669  1.00  0.00     0.000 C 
BRANCH   8   9
ATOM      9  C   UNL     1      13.642 -17.812  21.246  1.00  0.00    -0.000 C 
BRANCH   9  10
ATOM     10  C   UNL     1      13.312 -16.441  21.856  1.00  0.00    -0.000 C 
BRANCH  10  11
ATOM     11  C   UNL     1      13.480 -15.290  20.851  1.00  0.00    -0.000 C 
BRANCH  11  12
ATOM     12  C   UNL     1      12.617 -15.474  19.593  1.00  0.00    -0.003 C 
ATOM     13  C   UNL     1      11.139 -15.258  19.906  1.00  0.00     0.004 C 
ENDBRANCH  11  12
ENDBRANCH  10  11
ENDBRANCH   9  10
ENDBRANCH   8   9
ENDBRANCH   1   8
TORSDOF 9
ENDMDL
MODEL 2
REMARK VINA RESULT:    -2.639      2.384      5.334
REMARK INTER + INTRA:          -5.099
REMARK INTER:                  -3.882
REMARK INTRA:                  -1.217
REMARK UNBOUND:                -1.072
REMARK SMILES CCCCCCCCCCC(=O)[O-]
REMARK SMILES IDX 7 1 8 2 9 3 10 4 11 5 12 6 13 7 6 8 5 9 4 10 3 11 2 12 1 13
REMARK H PARENT
REMARK Flexibility Score: inf
ROOT
ATOM      1  C   UNL     1       8.984 -16.179  20.043  1.00  0.00     0.000 C 
ENDROOT
BRANCH   1   2
ATOM      2  C   UNL     1      10.341 -15.527  19.721  1.00  0.00     0.000 C 
BRANCH   2   3
ATOM      3  C   UNL     1      11.531 -16.409  20.131  1.00  0.00     0.006 C 
BRANCH   3   4
ATOM      4  C   UNL     1      11.106 -17.615  20.979  1.00  0.00     0.053 C 
BRANCH   4   5
ATOM      5  C   UNL     1      11.898 -18.826  20.600  1.00  0.00     0.041 C 
ATOM      6  O   UNL     1      11.998 -19.163  19.391  1.00  0.00    -0.550 OA
ATOM      7  O   UNL     1      12.481 -19.611  21.586  1.00  0.00    -0.550 OA
ENDBRANCH   4   5
ENDBRANCH   3   4
ENDBRANCH   2   3
ENDBRANCH   1   2
BRANCH   1   8
ATOM      8  C   UNL     1       8.127 -16.411  18.789  1.00  0.00     0.000 C 
BRANCH   8   9
ATOM      9  C   UNL     1       8.666 -17.548  17.906  1.00  0.00    -0.000 C 
BRANCH   9  10
ATOM     10  C   UNL     1       7.854 -18.835  18.114  1.00  0.00    -0.000 C 
BRANCH  10  11
ATOM     11  C   UNL     1       8.623 -19.896  18.917  1.00  0.00    -0.000 C 
BRANCH  11  12
ATOM     12  C   UNL     1       8.201 -19.942  20.393  1.00  0.00    -0.003 C 
ATOM     13  C   UNL     1       6.777 -19.424  20.573  1.00  0.00     0.004 C 
ENDBRANCH  11  12
ENDBRANCH  10  11
ENDBRANCH   9  10
ENDBRANCH   8   9
ENDBRANCH   1   8
TORSDOF 9
ENDMDL
MODEL 3
REMARK VINA RESULT:    -2.609      2.614      4.123
REMARK INTER + INTRA:          -5.053
REMARK INTER:                  -3.683
REMARK INTRA:                  -1.370
REMARK UNBOUND:                -1.072
REMARK SMILES CCCCCCCCCCC(=O)[O-]
REMARK SMILES IDX 7 1 8 2 9 3 10 4 11 5 12 6 13 7 6 8 5 9 4 10 3 11 2 12 1 13
REMARK H PARENT
REMARK Flexibility Score: inf
ROOT
ATOM      1  C   UNL     1       7.999 -20.724  20.427  1.00  0.00     0.000 C 
ENDROOT
BRANCH   1   2
ATOM      2  C   UNL     1       8.374 -20.517  18.948  1.00  0.00     0.000 C 
BRANCH   2   3
ATOM      3  C   UNL     1       7.674 -19.299  18.325  1.00  0.00     0.006 C 
BRANCH   3   4
ATOM      4  C   UNL     1       8.662 -18.210  17.891  1.00  0.00     0.053 C 
BRANCH   4   5
ATOM      5  C   UNL     1       8.425 -16.951  18.663  1.00  0.00     0.041 C 
ATOM      6  O   UNL     1       7.251 -16.595  18.948  1.00  0.00    -0.550 OA
ATOM      7  O   UNL     1       9.496 -16.143  19.022  1.00  0.00    -0.550 OA
ENDBRANCH   4   5
ENDBRANCH   3   4
ENDBRANCH   2   3
ENDBRANCH   1   2
BRANCH   1   8
ATOM      8  C   UNL     1       7.047 -19.637  20.952  1.00  0.00     0.000 C 
BRANCH   8   9
ATOM      9  C   UNL     1       7.738 -18.662  21.918  1.00  0.00    -0.000 C 
BRANCH   9  10
ATOM     10  C   UNL     1       9.142 -19.162  22.291  1.00  0.00    -0.000 C 
BRANCH  10  11
ATOM     11  C   UNL     1      10.258 -18.277  21.713  1.00  0.00    -0.000 C 
BRANCH  11  12
ATOM     12  C   UNL     1      11.478 -19.089  21.253  1.00  0.00    -0.003 C 
ATOM     13  C   UNL     1      11.769 -18.852  19.774  1.00  0.00     0.004 C 
ENDBRANCH  11  12
ENDBRANCH  10  11
ENDBRANCH   9  10
ENDBRANCH   8   9
ENDBRANCH   1   8
TORSDOF 9
ENDMDL
MODEL 4
REMARK VINA RESULT:    -2.572      2.986      5.044
REMARK INTER + INTRA:          -4.997
REMARK INTER:                  -3.675
REMARK INTRA:                  -1.322
REMARK UNBOUND:                -1.072
REMARK SMILES CCCCCCCCCCC(=O)[O-]
REMARK SMILES IDX 7 1 8 2 9 3 10 4 11 5 12 6 13 7 6 8 5 9 4 10 3 11 2 12 1 13
REMARK H PARENT
REMARK Flexibility Score: inf
ROOT
ATOM      1  C   UNL     1       8.650 -19.486  21.817  1.00  0.00     0.000 C 
ENDROOT
BRANCH   1   2
ATOM      2  C   UNL     1       9.714 -18.397  21.595  1.00  0.00     0.000 C 
BRANCH   2   3
ATOM      3  C   UNL     1      11.068 -18.975  21.153  1.00  0.00     0.006 C 
BRANCH   3   4
ATOM      4  C   UNL     1      11.640 -18.259  19.922  1.00  0.00     0.053 C 
BRANCH   4   5
ATOM      5  C   UNL     1      12.298 -16.977  20.322  1.00  0.00     0.041 C 
ATOM      6  O   UNL     1      13.195 -16.975  21.206  1.00  0.00    -0.550 OA
ATOM      7  O   UNL     1      11.887 -15.778  19.755  1.00  0.00    -0.550 OA
ENDBRANCH   4   5
ENDBRANCH   3   4
ENDBRANCH   2   3
ENDBRANCH   1   2
BRANCH   1   8
ATOM      8  C   UNL     1       7.631 -19.561  20.669  1.00  0.00     0.000 C 
BRANCH   8   9
ATOM      9  C   UNL     1       8.202 -20.239  19.414  1.00  0.00    -0.000 C 
BRANCH   9  10
ATOM     10  C   UNL     1       8.011 -19.350  18.175  1.00  0.00    -0.000 C 
BRANCH  10  11
ATOM     11  C   UNL     1       7.504 -17.944  18.528  1.00  0.00    -0.000 C 
BRANCH  11  12
ATOM     12  C   UNL     1       8.564 -16.856  18.295  1.00  0.00    -0.003 C 
ATOM     13  C   UNL     1       8.426 -15.728  19.313  1.00  0.00     0.004 C 
ENDBRANCH  11  12
ENDBRANCH  10  11
ENDBRANCH   9  10
ENDBRANCH   8   9
ENDBRANCH   1   8
TORSDOF 9
ENDMDL
MODEL 5
REMARK VINA RESULT:    -2.563      2.725      5.720
REMARK INTER + INTRA:          -4.984
REMARK INTER:                  -3.935
REMARK INTRA:                  -1.049
REMARK UNBOUND:                -1.072
REMARK SMILES CCCCCCCCCCC(=O)[O-]
REMARK SMILES IDX 7 1 8 2 9 3 10 4 11 5 12 6 13 7 6 8 5 9 4 10 3 11 2 12 1 13
REMARK H PARENT
REMARK Flexibility Score: inf
ROOT
ATOM      1  C   UNL     1       8.526 -15.478  20.164  1.00  0.00     0.000 C 
ENDROOT
BRANCH   1   2
ATOM      2  C   UNL     1       9.666 -16.041  19.296  1.00  0.00     0.000 C 
BRANCH   2   3
ATOM      3  C   UNL     1      10.889 -16.461  20.128  1.00  0.00     0.006 C 
BRANCH   3   4
ATOM      4  C   UNL     1      10.723 -17.850  20.758  1.00  0.00     0.053 C 
BRANCH   4   5
ATOM      5  C   UNL     1      11.796 -18.774  20.276  1.00  0.00     0.041 C 
ATOM      6  O   UNL     1      11.825 -19.136  19.070  1.00  0.00    -0.550 OA
ATOM      7  O   UNL     1      12.733 -19.276  21.169  1.00  0.00    -0.550 OA
ENDBRANCH   4   5
ENDBRANCH   3   4
ENDBRANCH   2   3
ENDBRANCH   1   2
BRANCH   1   8
ATOM      8  C   UNL     1       7.226 -15.271  19.370  1.00  0.00     0.000 C 
BRANCH   8   9
ATOM      9  C   UNL     1       7.212 -16.050  18.045  1.00  0.00    -0.000 C 
BRANCH   9  10
ATOM     10  C   UNL     1       6.092 -17.101  18.039  1.00  0.00    -0.000 C 
BRANCH  10  11
ATOM     11  C   UNL     1       6.528 -18.434  18.668  1.00  0.00    -0.000 C 
BRANCH  11  12
ATOM     12  C   UNL     1       7.808 -18.998  18.032  1.00  0.00    -0.003 C 
ATOM     13  C   UNL     1       8.406 -20.107  18.893  1.00  0.00     0.004 C 
ENDBRANCH  11  12
ENDBRANCH  10  11
ENDBRANCH   9  10
ENDBRANCH   8   9
ENDBRANCH   1   8
TORSDOF 9
ENDMDL
MODEL 6
REMARK VINA RESULT:    -2.531      1.817      3.679
REMARK INTER + INTRA:          -4.934
REMARK INTER:                  -3.936
REMARK INTRA:                  -0.998
REMARK UNBOUND:                -1.072
REMARK SMILES CCCCCCCCCCC(=O)[O-]
REMARK SMILES IDX 7 1 8 2 9 3 10 4 11 5 12 6 13 7 6 8 5 9 4 10 3 11 2 12 1 13
REMARK H PARENT
REMARK Flexibility Score: inf
ROOT
ATOM      1  C   UNL     1       7.635 -15.981  18.437  1.00  0.00     0.000 C 
ENDROOT
BRANCH   1   2
ATOM      2  C   UNL     1       8.344 -17.237  17.897  1.00  0.00     0.000 C 
BRANCH   2   3
ATOM      3  C   UNL     1       7.425 -18.469  17.875  1.00  0.00     0.006 C 
BRANCH   3   4
ATOM      4  C   UNL     1       8.027 -19.665  18.625  1.00  0.00     0.053 C 
BRANCH   4   5
ATOM      5  C   UNL     1       7.628 -19.632  20.066  1.00  0.00     0.041 C 
ATOM      6  O   UNL     1       6.565 -19.055  20.416  1.00  0.00    -0.550 OA
ATOM      7  O   UNL     1       8.456 -20.194  21.030  1.00  0.00    -0.550 OA
ENDBRANCH   4   5
ENDBRANCH   3   4
ENDBRANCH   2   3
ENDBRANCH   1   2
BRANCH   1   8
ATOM      8  C   UNL     1       8.170 -15.546  19.810  1.00  0.00     0.000 C 
BRANCH   8   9
ATOM      9  C   UNL     1       9.324 -16.432  20.304  1.00  0.00    -0.000 C 
BRANCH   9  10
ATOM     10  C   UNL     1      10.676 -15.902  19.803  1.00  0.00    -0.000 C 
BRANCH  10  11
ATOM     11  C   UNL     1      11.845 -16.835  20.157  1.00  0.00    -0.000 C 
BRANCH  11  12
ATOM     12  C   UNL     1      11.408 -18.300  20.307  1.00  0.00    -0.003 C 
ATOM     13  C   UNL     1      11.583 -19.062  18.997  1.00  0.00     0.004 C 
ENDBRANCH  11  12
ENDBRANCH  10  11
ENDBRANCH   9  10
ENDBRANCH   8   9
ENDBRANCH   1   8
TORSDOF 9
ENDMDL
MODEL 7
REMARK VINA RESULT:    -2.509      2.754      5.877
REMARK INTER + INTRA:          -4.900
REMARK INTER:                  -3.534
REMARK INTRA:                  -1.367
REMARK UNBOUND:                -1.072
REMARK SMILES CCCCCCCCCCC(=O)[O-]
REMARK SMILES IDX 7 1 8 2 9 3 10 4 11 5 12 6 13 7 6 8 5 9 4 10 3 11 2 12 1 13
REMARK H PARENT
REMARK Flexibility Score: inf
ROOT
ATOM      1  C   UNL     1       7.143 -15.466  18.729  1.00  0.00     0.000 C 
ENDROOT
BRANCH   1   2
ATOM      2  C   UNL     1       8.501 -15.536  19.450  1.00  0.00     0.000 C 
BRANCH   2   3
ATOM      3  C   UNL     1       9.411 -16.641  18.890  1.00  0.00     0.006 C 
BRANCH   3   4
ATOM      4  C   UNL     1      10.282 -17.290  19.973  1.00  0.00     0.053 C 
BRANCH   4   5
ATOM      5  C   UNL     1      10.965 -18.507  19.434  1.00  0.00     0.041 C 
ATOM      6  O   UNL     1      12.076 -18.869  19.904  1.00  0.00    -0.550 OA
ATOM      7  O   UNL     1      10.401 -19.211  18.379  1.00  0.00    -0.550 OA
ENDBRANCH   4   5
ENDBRANCH   3   4
ENDBRANCH   2   3
ENDBRANCH   1   2
BRANCH   1   8
ATOM      8  C   UNL     1       6.857 -16.718  17.885  1.00  0.00     0.000 C 
BRANCH   8   9
ATOM      9  C   UNL     1       5.454 -17.294  18.136  1.00  0.00    -0.000 C 
BRANCH   9  10
ATOM     10  C   UNL     1       5.517 -18.497  19.088  1.00  0.00    -0.000 C 
BRANCH  10  11
ATOM     11  C   UNL     1       6.876 -19.213  19.048  1.00  0.00    -0.000 C 
BRANCH  11  12
ATOM     12  C   UNL     1       7.352 -19.658  20.440  1.00  0.00    -0.003 C 
ATOM     13  C   UNL     1       7.098 -18.571  21.480  1.00  0.00     0.004 C 
ENDBRANCH  11  12
ENDBRANCH  10  11
ENDBRANCH   9  10
ENDBRANCH   8   9
ENDBRANCH   1   8
TORSDOF 9
ENDMDL
MODEL 8
REMARK VINA RESULT:    -2.505      3.047      5.335
REMARK INTER + INTRA:          -4.894
REMARK INTER:                  -3.544
REMARK INTRA:                  -1.351
REMARK UNBOUND:                -1.072
REMARK SMILES CCCCCCCCCCC(=O)[O-]
REMARK SMILES IDX 7 1 8 2 9 3 10 4 11 5 12 6 13 7 6 8 5 9 4 10 3 11 2 12 1 13
REMARK H PARENT
REMARK Flexibility Score: inf
ROOT
ATOM      1  C   UNL     1       9.458 -18.477  18.280  1.00  0.00     0.000 C 
ENDROOT
BRANCH   1   2
ATOM      2  C   UNL     1      10.750 -19.240  18.625  1.00  0.00     0.000 C 
BRANCH   2   3
ATOM      3  C   UNL     1      11.585 -18.529  19.702  1.00  0.00     0.006 C 
BRANCH   3   4
ATOM      4  C   UNL     1      10.940 -17.222  20.179  1.00  0.00     0.053 C 
BRANCH   4   5
ATOM      5  C   UNL     1      11.904 -16.085  20.047  1.00  0.00     0.041 C 
ATOM      6  O   UNL     1      11.507 -14.963  19.636  1.00  0.00    -0.550 OA
ATOM      7  O   UNL     1      13.250 -16.279  20.329  1.00  0.00    -0.550 OA
ENDBRANCH   4   5
ENDBRANCH   3   4
ENDBRANCH   2   3
ENDBRANCH   1   2
BRANCH   1   8
ATOM      8  C   UNL     1       8.218 -19.384  18.283  1.00  0.00     0.000 C 
BRANCH   8   9
ATOM      9  C   UNL     1       7.954 -20.021  19.656  1.00  0.00    -0.000 C 
BRANCH   9  10
ATOM     10  C   UNL     1       7.440 -18.976  20.657  1.00  0.00    -0.000 C 
BRANCH  10  11
ATOM     11  C   UNL     1       8.202 -19.009  21.991  1.00  0.00    -0.000 C 
BRANCH  11  12
ATOM     12  C   UNL     1       9.173 -20.196  22.089  1.00  0.00    -0.003 C 
ATOM     13  C   UNL     1      10.392 -19.839  22.935  1.00  0.00     0.004 C 
ENDBRANCH  11  12
ENDBRANCH  10  11
ENDBRANCH   9  10
ENDBRANCH   8   9
ENDBRANCH   1   8
TORSDOF 9
ENDMDL
MODEL 9
REMARK VINA RESULT:    -2.502      2.472      4.319
REMARK INTER + INTRA:          -4.889
REMARK INTER:                  -3.662
REMARK INTRA:                  -1.228
REMARK UNBOUND:                -1.072
REMARK SMILES CCCCCCCCCCC(=O)[O-]
REMARK SMILES IDX 7 1 8 2 9 3 10 4 11 5 12 6 13 7 6 8 5 9 4 10 3 11 2 12 1 13
REMARK H PARENT
REMARK Flexibility Score: inf
ROOT
ATOM      1  C   UNL     1       6.857 -18.645  18.646  1.00  0.00     0.000 C 
ENDROOT
BRANCH   1   2
ATOM      2  C   UNL     1       8.065 -19.583  18.471  1.00  0.00     0.000 C 
BRANCH   2   3
ATOM      3  C   UNL     1       8.314 -20.463  19.706  1.00  0.00     0.006 C 
BRANCH   3   4
ATOM      4  C   UNL     1       7.350 -20.147  20.857  1.00  0.00     0.053 C 
BRANCH   4   5
ATOM      5  C   UNL     1       8.105 -19.652  22.050  1.00  0.00     0.041 C 
ATOM      6  O   UNL     1       7.764 -18.579  22.614  1.00  0.00    -0.550 OA
ATOM      7  O   UNL     1       9.217 -20.347  22.507  1.00  0.00    -0.550 OA
ENDBRANCH   4   5
ENDBRANCH   3   4
ENDBRANCH   2   3
ENDBRANCH   1   2
BRANCH   1   8
ATOM      8  C   UNL     1       7.246 -17.160  18.582  1.00  0.00     0.000 C 
BRANCH   8   9
ATOM      9  C   UNL     1       8.730 -16.952  18.240  1.00  0.00    -0.000 C 
BRANCH   9  10
ATOM     10  C   UNL     1       9.450 -16.190  19.363  1.00  0.00    -0.000 C 
BRANCH  10  11
ATOM     11  C   UNL     1      10.166 -17.125  20.349  1.00  0.00    -0.000 C 
BRANCH  11  12
ATOM     12  C   UNL     1      11.431 -17.760  19.750  1.00  0.00    -0.003 C 
ATOM     13  C   UNL     1      11.878 -18.968  20.569  1.00  0.00     0.004 C 
ENDBRANCH  11  12
ENDBRANCH  10  11
ENDBRANCH   9  10
ENDBRANCH   8   9
ENDBRANCH   1   8
TORSDOF 9
ENDMDL
