MODEL 1
REMARK VINA RESULT:    -5.456      0.000      0.000
REMARK INTER + INTRA:          -6.891
REMARK INTER:                  -6.573
REMARK INTRA:                  -0.318
REMARK UNBOUND:                -0.318
REMARK SMILES O=c1c(O)c(-c2ccc(O)c(O)c2)oc2cc(O)cc(O)c12
REMARK SMILES IDX 5 1 3 2 2 3 1 4 22 5 20 6 19 7 17 8 16 9 15 10 14 11 6 12
REMARK SMILES IDX 7 13 8 14 9 15 13 16 11 17 10 18 12 20 4 22 21 24 18 26
REMARK H PARENT 10 19 12 21 4 23 21 25 18 27
REMARK Flexibility Score: inf
ROOT
ATOM      1  C   UNL     1     131.270 132.416 132.664  1.00  0.00     0.180 A 
ATOM      2  C   UNL     1     130.660 133.555 132.112  1.00  0.00     0.208 A 
ATOM      3  C   UNL     1     131.391 134.751 132.034  1.00  0.00     0.238 A 
ATOM      4  O   UNL     1     130.856 135.752 131.490  1.00  0.00    -0.285 OA
ATOM      5  C   UNL     1     132.719 134.797 132.523  1.00  0.00     0.111 A 
ATOM      6  C   UNL     1     133.539 135.965 132.531  1.00  0.00     0.134 A 
ATOM      7  C   UNL     1     134.880 135.864 132.918  1.00  0.00     0.093 A 
ATOM      8  C   UNL     1     135.414 134.655 133.360  1.00  0.00     0.123 A 
ATOM      9  C   UNL     1     134.605 133.518 133.411  1.00  0.00     0.094 A 
ATOM     10  C   UNL     1     133.272 133.579 132.997  1.00  0.00     0.146 A 
ATOM     11  O   UNL     1     132.539 132.474 133.053  1.00  0.00    -0.452 OA
ENDROOT
BRANCH   1  12
ATOM     12  C   UNL     1     130.556 131.127 132.803  1.00  0.00     0.025 A 
ATOM     13  C   UNL     1     129.927 130.765 134.007  1.00  0.00     0.016 A 
ATOM     14  C   UNL     1     129.279 129.533 134.124  1.00  0.00     0.051 A 
ATOM     15  C   UNL     1     129.261 128.638 133.045  1.00  0.00     0.157 A 
ATOM     16  C   UNL     1     130.553 130.218 131.732  1.00  0.00     0.062 A 
ATOM     17  C   UNL     1     129.904 128.983 131.845  1.00  0.00     0.158 A 
BRANCH  15  18
ATOM     18  O   UNL     1     128.612 127.411 133.164  1.00  0.00    -0.504 OA
ATOM     19  H   UNL     1     128.907 126.717 133.841  1.00  0.00     0.293 HD
ENDBRANCH  15  18
BRANCH  17  20
ATOM     20  O   UNL     1     129.911 128.112 130.755  1.00  0.00    -0.504 OA
ATOM     21  H   UNL     1     130.754 127.915 130.229  1.00  0.00     0.293 HD
ENDBRANCH  17  20
ENDBRANCH   1  12
BRANCH   2  22
ATOM     22  O   UNL     1     129.355 133.481 131.615  1.00  0.00    -0.502 OA
ATOM     23  H   UNL     1     128.746 132.694 131.802  1.00  0.00     0.293 HD
ENDBRANCH   2  22
BRANCH   6  24
ATOM     24  O   UNL     1     133.080 137.243 132.198  1.00  0.00    -0.507 OA
ATOM     25  H   UNL     1     133.259 137.708 131.321  1.00  0.00     0.293 HD
ENDBRANCH   6  24
BRANCH   8  26
ATOM     26  O   UNL     1     136.749 134.594 133.752  1.00  0.00    -0.508 OA
ATOM     27  H   UNL     1     137.398 135.343 133.542  1.00  0.00     0.293 HD
ENDBRANCH   8  26
TORSDOF 6
ENDMDL
MODEL 2
REMARK VINA RESULT:    -5.447      3.679      9.789
REMARK INTER + INTRA:          -6.879
REMARK INTER:                  -6.554
REMARK INTRA:                  -0.326
REMARK UNBOUND:                -0.318
REMARK SMILES O=c1c(O)c(-c2ccc(O)c(O)c2)oc2cc(O)cc(O)c12
REMARK SMILES IDX 5 1 3 2 2 3 1 4 22 5 20 6 19 7 17 8 16 9 15 10 14 11 6 12
REMARK SMILES IDX 7 13 8 14 9 15 13 16 11 17 10 18 12 20 4 22 21 24 18 26
REMARK H PARENT 10 19 12 21 4 23 21 25 18 27
REMARK Flexibility Score: inf
ROOT
ATOM      1  C   UNL     1     128.361 127.324 132.683  1.00  0.00     0.180 A 
ATOM      2  C   UNL     1     128.987 126.182 132.155  1.00  0.00     0.208 A 
ATOM      3  C   UNL     1     128.264 124.981 132.080  1.00  0.00     0.238 A 
ATOM      4  O   UNL     1     128.813 123.976 131.556  1.00  0.00    -0.285 OA
ATOM      5  C   UNL     1     126.929 124.932 132.548  1.00  0.00     0.111 A 
ATOM      6  C   UNL     1     126.116 123.759 132.557  1.00  0.00     0.134 A 
ATOM      7  C   UNL     1     124.767 123.856 132.921  1.00  0.00     0.093 A 
ATOM      8  C   UNL     1     124.219 125.068 133.340  1.00  0.00     0.123 A 
ATOM      9  C   UNL     1     125.022 126.210 133.391  1.00  0.00     0.094 A 
ATOM     10  C   UNL     1     126.361 126.152 132.999  1.00  0.00     0.146 A 
ATOM     11  O   UNL     1     127.087 127.262 133.053  1.00  0.00    -0.452 OA
ENDROOT
BRANCH   1  12
ATOM     12  C   UNL     1     129.065 128.619 132.818  1.00  0.00     0.025 A 
ATOM     13  C   UNL     1     129.717 128.975 134.011  1.00  0.00     0.016 A 
ATOM     14  C   UNL     1     130.355 130.214 134.125  1.00  0.00     0.051 A 
ATOM     15  C   UNL     1     130.340 131.118 133.055  1.00  0.00     0.157 A 
ATOM     16  C   UNL     1     129.036 129.537 131.756  1.00  0.00     0.062 A 
ATOM     17  C   UNL     1     129.674 130.777 131.865  1.00  0.00     0.158 A 
BRANCH  15  18
ATOM     18  O   UNL     1     130.980 132.350 133.170  1.00  0.00    -0.504 OA
ATOM     19  H   UNL     1     130.491 133.221 132.999  1.00  0.00     0.293 HD
ENDBRANCH  15  18
BRANCH  17  20
ATOM     20  O   UNL     1     129.635 131.657 130.784  1.00  0.00    -0.504 OA
ATOM     21  H   UNL     1     129.153 131.430 129.923  1.00  0.00     0.293 HD
ENDBRANCH  17  20
ENDBRANCH   1  12
BRANCH   2  22
ATOM     22  O   UNL     1     130.299 126.258 131.678  1.00  0.00    -0.502 OA
ATOM     23  H   UNL     1     130.951 126.967 131.990  1.00  0.00     0.293 HD
ENDBRANCH   2  22
BRANCH   6  24
ATOM     24  O   UNL     1     126.587 122.480 132.246  1.00  0.00    -0.507 OA
ATOM     25  H   UNL     1     127.146 122.254 131.437  1.00  0.00     0.293 HD
ENDBRANCH   6  24
BRANCH   8  26
ATOM     26  O   UNL     1     122.878 125.125 133.710  1.00  0.00    -0.508 OA
ATOM     27  H   UNL     1     122.594 125.456 134.625  1.00  0.00     0.293 HD
ENDBRANCH   8  26
TORSDOF 6
ENDMDL
MODEL 3
REMARK VINA RESULT:    -5.346      1.725      6.748
REMARK INTER + INTRA:          -6.758
REMARK INTER:                  -6.459
REMARK INTRA:                  -0.298
REMARK UNBOUND:                -0.318
REMARK SMILES O=c1c(O)c(-c2ccc(O)c(O)c2)oc2cc(O)cc(O)c12
REMARK SMILES IDX 5 1 3 2 2 3 1 4 22 5 20 6 19 7 17 8 16 9 15 10 14 11 6 12
REMARK SMILES IDX 7 13 8 14 9 15 13 16 11 17 10 18 12 20 4 22 21 24 18 26
REMARK H PARENT 10 19 12 21 4 23 21 25 18 27
REMARK Flexibility Score: inf
ROOT
ATOM      1  C   UNL     1     131.333 132.027 132.922  1.00  0.00     0.180 A 
ATOM      2  C   UNL     1     129.945 132.244 132.908  1.00  0.00     0.208 A 
ATOM      3  C   UNL     1     129.081 131.138 132.878  1.00  0.00     0.238 A 
ATOM      4  O   UNL     1     127.839 131.339 132.921  1.00  0.00    -0.285 OA
ATOM      5  C   UNL     1     129.616 129.828 132.847  1.00  0.00     0.111 A 
ATOM      6  C   UNL     1     128.836 128.635 132.775  1.00  0.00     0.134 A 
ATOM      7  C   UNL     1     129.466 127.390 132.881  1.00  0.00     0.093 A 
ATOM      8  C   UNL     1     130.852 127.290 132.989  1.00  0.00     0.123 A 
ATOM      9  C   UNL     1     131.631 128.450 133.001  1.00  0.00     0.094 A 
ATOM     10  C   UNL     1     131.028 129.708 132.934  1.00  0.00     0.146 A 
ATOM     11  O   UNL     1     131.802 130.785 132.958  1.00  0.00    -0.452 OA
ENDROOT
BRANCH   1  12
ATOM     12  C   UNL     1     132.306 133.142 132.928  1.00  0.00     0.025 A 
ATOM     13  C   UNL     1     132.895 133.592 134.123  1.00  0.00     0.016 A 
ATOM     14  C   UNL     1     133.793 134.662 134.108  1.00  0.00     0.051 A 
ATOM     15  C   UNL     1     134.107 135.306 132.904  1.00  0.00     0.157 A 
ATOM     16  C   UNL     1     132.609 133.804 131.727  1.00  0.00     0.062 A 
ATOM     17  C   UNL     1     133.509 134.875 131.708  1.00  0.00     0.158 A 
BRANCH  15  18
ATOM     18  O   UNL     1     135.006 136.371 132.893  1.00  0.00    -0.504 OA
ATOM     19  H   UNL     1     135.837 136.371 133.472  1.00  0.00     0.293 HD
ENDBRANCH  15  18
BRANCH  17  20
ATOM     20  O   UNL     1     133.795 135.498 130.494  1.00  0.00    -0.504 OA
ATOM     21  H   UNL     1     133.219 136.245 130.124  1.00  0.00     0.293 HD
ENDBRANCH  17  20
ENDBRANCH   1  12
BRANCH   2  22
ATOM     22  O   UNL     1     129.437 133.546 132.963  1.00  0.00    -0.502 OA
ATOM     23  H   UNL     1     129.559 134.144 133.772  1.00  0.00     0.293 HD
ENDBRANCH   2  22
BRANCH   6  24
ATOM     24  O   UNL     1     127.452 128.619 132.573  1.00  0.00    -0.507 OA
ATOM     25  H   UNL     1     126.917 127.802 132.324  1.00  0.00     0.293 HD
ENDBRANCH   6  24
BRANCH   8  26
ATOM     26  O   UNL     1     131.447 126.035 133.077  1.00  0.00    -0.508 OA
ATOM     27  H   UNL     1     131.199 125.284 132.442  1.00  0.00     0.293 HD
ENDBRANCH   8  26
TORSDOF 6
ENDMDL
MODEL 4
REMARK VINA RESULT:    -5.310      3.786      9.517
REMARK INTER + INTRA:          -6.714
REMARK INTER:                  -6.397
REMARK INTRA:                  -0.317
REMARK UNBOUND:                -0.318
REMARK SMILES O=c1c(O)c(-c2ccc(O)c(O)c2)oc2cc(O)cc(O)c12
REMARK SMILES IDX 5 1 3 2 2 3 1 4 22 5 20 6 19 7 17 8 16 9 15 10 14 11 6 12
REMARK SMILES IDX 7 13 8 14 9 15 13 16 11 17 10 18 12 20 4 22 21 24 18 26
REMARK H PARENT 10 19 12 21 4 23 21 25 18 27
REMARK Flexibility Score: inf
ROOT
ATOM      1  C   UNL     1     128.654 126.993 133.042  1.00  0.00     0.180 A 
ATOM      2  C   UNL     1     127.267 127.072 132.828  1.00  0.00     0.208 A 
ATOM      3  C   UNL     1     126.503 125.894 132.863  1.00  0.00     0.238 A 
ATOM      4  O   UNL     1     125.255 125.979 132.724  1.00  0.00    -0.285 OA
ATOM      5  C   UNL     1     127.137 124.651 133.097  1.00  0.00     0.111 A 
ATOM      6  C   UNL     1     126.468 123.391 133.115  1.00  0.00     0.134 A 
ATOM      7  C   UNL     1     127.173 122.239 133.485  1.00  0.00     0.093 A 
ATOM      8  C   UNL     1     128.536 122.290 133.775  1.00  0.00     0.123 A 
ATOM      9  C   UNL     1     129.213 123.509 133.703  1.00  0.00     0.094 A 
ATOM     10  C   UNL     1     128.530 124.681 133.372  1.00  0.00     0.146 A 
ATOM     11  O   UNL     1     129.209 125.820 133.324  1.00  0.00    -0.452 OA
ENDROOT
BRANCH   1  12
ATOM     12  C   UNL     1     129.528 128.186 132.995  1.00  0.00     0.025 A 
ATOM     13  C   UNL     1     129.713 129.003 134.125  1.00  0.00     0.016 A 
ATOM     14  C   UNL     1     130.524 130.138 134.052  1.00  0.00     0.051 A 
ATOM     15  C   UNL     1     131.153 130.482 132.847  1.00  0.00     0.157 A 
ATOM     16  C   UNL     1     130.144 128.547 131.786  1.00  0.00     0.062 A 
ATOM     17  C   UNL     1     130.958 129.682 131.709  1.00  0.00     0.158 A 
BRANCH  15  18
ATOM     18  O   UNL     1     131.964 131.613 132.778  1.00  0.00    -0.504 OA
ATOM     19  H   UNL     1     132.821 131.685 133.312  1.00  0.00     0.293 HD
ENDBRANCH  15  18
BRANCH  17  20
ATOM     20  O   UNL     1     131.564 130.000 130.493  1.00  0.00    -0.504 OA
ATOM     21  H   UNL     1     131.447 130.907 130.055  1.00  0.00     0.293 HD
ENDBRANCH  17  20
ENDBRANCH   1  12
BRANCH   2  22
ATOM     22  O   UNL     1     126.658 128.313 132.621  1.00  0.00    -0.502 OA
ATOM     23  H   UNL     1     127.174 129.184 132.651  1.00  0.00     0.293 HD
ENDBRANCH   2  22
BRANCH   6  24
ATOM     24  O   UNL     1     125.129 123.213 132.752  1.00  0.00    -0.507 OA
ATOM     25  H   UNL     1     124.813 122.956 131.830  1.00  0.00     0.293 HD
ENDBRANCH   6  24
BRANCH   8  26
ATOM     26  O   UNL     1     129.209 121.123 134.125  1.00  0.00    -0.508 OA
ATOM     27  H   UNL     1     129.544 120.472 133.423  1.00  0.00     0.293 HD
ENDBRANCH   8  26
TORSDOF 6
ENDMDL
MODEL 5
REMARK VINA RESULT:    -5.232      1.771      3.162
REMARK INTER + INTRA:          -6.621
REMARK INTER:                  -6.399
REMARK INTRA:                  -0.222
REMARK UNBOUND:                -0.318
REMARK SMILES O=c1c(O)c(-c2ccc(O)c(O)c2)oc2cc(O)cc(O)c12
REMARK SMILES IDX 5 1 3 2 2 3 1 4 22 5 20 6 19 7 17 8 16 9 15 10 14 11 6 12
REMARK SMILES IDX 7 13 8 14 9 15 13 16 11 17 10 18 12 20 4 22 21 24 18 26
REMARK H PARENT 10 19 12 21 4 23 21 25 18 27
REMARK Flexibility Score: inf
ROOT
ATOM      1  C   UNL     1     130.648 132.747 132.965  1.00  0.00     0.180 A 
ATOM      2  C   UNL     1     132.040 132.774 132.775  1.00  0.00     0.208 A 
ATOM      3  C   UNL     1     132.696 134.014 132.716  1.00  0.00     0.238 A 
ATOM      4  O   UNL     1     133.950 134.030 132.600  1.00  0.00    -0.285 OA
ATOM      5  C   UNL     1     131.951 135.212 132.834  1.00  0.00     0.111 A 
ATOM      6  C   UNL     1     132.507 136.523 132.749  1.00  0.00     0.134 A 
ATOM      7  C   UNL     1     131.696 137.635 133.009  1.00  0.00     0.093 A 
ATOM      8  C   UNL     1     130.338 137.488 133.285  1.00  0.00     0.123 A 
ATOM      9  C   UNL     1     129.771 136.212 133.313  1.00  0.00     0.094 A 
ATOM     10  C   UNL     1     130.562 135.081 133.093  1.00  0.00     0.146 A 
ATOM     11  O   UNL     1     129.986 133.886 133.137  1.00  0.00    -0.452 OA
ENDROOT
BRANCH   1  12
ATOM     12  C   UNL     1     129.882 131.482 133.013  1.00  0.00     0.025 A 
ATOM     13  C   UNL     1     129.995 130.599 134.101  1.00  0.00     0.016 A 
ATOM     14  C   UNL     1     129.282 129.397 134.113  1.00  0.00     0.051 A 
ATOM     15  C   UNL     1     128.455 129.054 133.035  1.00  0.00     0.157 A 
ATOM     16  C   UNL     1     129.068 131.123 131.926  1.00  0.00     0.062 A 
ATOM     17  C   UNL     1     128.351 129.922 131.935  1.00  0.00     0.158 A 
BRANCH  15  18
ATOM     18  O   UNL     1     127.742 127.857 133.052  1.00  0.00    -0.504 OA
ATOM     19  H   UNL     1     127.564 127.333 132.204  1.00  0.00     0.293 HD
ENDBRANCH  15  18
BRANCH  17  20
ATOM     20  O   UNL     1     127.543 129.607 130.843  1.00  0.00    -0.504 OA
ATOM     21  H   UNL     1     127.913 129.170 130.007  1.00  0.00     0.293 HD
ENDBRANCH  17  20
ENDBRANCH   1  12
BRANCH   2  22
ATOM     22  O   UNL     1     132.759 131.579 132.685  1.00  0.00    -0.502 OA
ATOM     23  H   UNL     1     133.153 131.246 131.813  1.00  0.00     0.293 HD
ENDBRANCH   2  22
BRANCH   6  24
ATOM     24  O   UNL     1     133.831 136.788 132.388  1.00  0.00    -0.507 OA
ATOM     25  H   UNL     1     134.323 137.644 132.592  1.00  0.00     0.293 HD
ENDBRANCH   6  24
BRANCH   8  26
ATOM     26  O   UNL     1     129.558 138.616 133.524  1.00  0.00    -0.508 OA
ATOM     27  H   UNL     1     129.883 139.370 134.119  1.00  0.00     0.293 HD
ENDBRANCH   8  26
TORSDOF 6
ENDMDL
MODEL 6
REMARK VINA RESULT:    -5.226      1.650      1.942
REMARK INTER + INTRA:          -6.613
REMARK INTER:                  -6.282
REMARK INTRA:                  -0.331
REMARK UNBOUND:                -0.318
REMARK SMILES O=c1c(O)c(-c2ccc(O)c(O)c2)oc2cc(O)cc(O)c12
REMARK SMILES IDX 5 1 3 2 2 3 1 4 22 5 20 6 19 7 17 8 16 9 15 10 14 11 6 12
REMARK SMILES IDX 7 13 8 14 9 15 13 16 11 17 10 18 12 20 4 22 21 24 18 26
REMARK H PARENT 10 19 12 21 4 23 21 25 18 27
REMARK Flexibility Score: inf
ROOT
ATOM      1  C   UNL     1     130.329 132.394 133.177  1.00  0.00     0.180 A 
ATOM      2  C   UNL     1     129.246 133.261 133.400  1.00  0.00     0.208 A 
ATOM      3  C   UNL     1     129.493 134.633 133.564  1.00  0.00     0.238 A 
ATOM      4  O   UNL     1     128.513 135.411 133.710  1.00  0.00    -0.285 OA
ATOM      5  C   UNL     1     130.821 135.120 133.519  1.00  0.00     0.111 A 
ATOM      6  C   UNL     1     131.191 136.485 133.712  1.00  0.00     0.134 A 
ATOM      7  C   UNL     1     132.521 136.875 133.516  1.00  0.00     0.093 A 
ATOM      8  C   UNL     1     133.506 135.941 133.198  1.00  0.00     0.123 A 
ATOM      9  C   UNL     1     133.166 134.593 133.065  1.00  0.00     0.094 A 
ATOM     10  C   UNL     1     131.840 134.179 133.219  1.00  0.00     0.146 A 
ATOM     11  O   UNL     1     131.557 132.891 133.074  1.00  0.00    -0.452 OA
ENDROOT
BRANCH   1  12
ATOM     12  C   UNL     1     130.152 130.933 133.019  1.00  0.00     0.025 A 
ATOM     13  C   UNL     1     130.206 130.067 134.125  1.00  0.00     0.016 A 
ATOM     14  C   UNL     1     130.060 128.688 133.950  1.00  0.00     0.051 A 
ATOM     15  C   UNL     1     129.871 128.154 132.668  1.00  0.00     0.157 A 
ATOM     16  C   UNL     1     129.983 130.391 131.735  1.00  0.00     0.062 A 
ATOM     17  C   UNL     1     129.836 129.011 131.556  1.00  0.00     0.158 A 
BRANCH  15  18
ATOM     18  O   UNL     1     129.723 126.778 132.498  1.00  0.00    -0.504 OA
ATOM     19  H   UNL     1     129.621 126.365 131.579  1.00  0.00     0.293 HD
ENDBRANCH  15  18
BRANCH  17  20
ATOM     20  O   UNL     1     129.657 128.510 130.266  1.00  0.00    -0.504 OA
ATOM     21  H   UNL     1     130.422 128.436 129.607  1.00  0.00     0.293 HD
ENDBRANCH  17  20
ENDBRANCH   1  12
BRANCH   2  22
ATOM     22  O   UNL     1     127.940 132.762 133.419  1.00  0.00    -0.502 OA
ATOM     23  H   UNL     1     127.720 131.826 133.738  1.00  0.00     0.293 HD
ENDBRANCH   2  22
BRANCH   6  24
ATOM     24  O   UNL     1     130.302 137.484 134.121  1.00  0.00    -0.507 OA
ATOM     25  H   UNL     1     129.326 137.524 133.870  1.00  0.00     0.293 HD
ENDBRANCH   6  24
BRANCH   8  26
ATOM     26  O   UNL     1     134.822 136.361 133.025  1.00  0.00    -0.508 OA
ATOM     27  H   UNL     1     135.309 136.890 133.740  1.00  0.00     0.293 HD
ENDBRANCH   8  26
TORSDOF 6
ENDMDL
MODEL 7
REMARK VINA RESULT:    -5.130     12.451     14.859
REMARK INTER + INTRA:          -6.497
REMARK INTER:                  -6.218
REMARK INTRA:                  -0.279
REMARK UNBOUND:                -0.318
REMARK SMILES O=c1c(O)c(-c2ccc(O)c(O)c2)oc2cc(O)cc(O)c12
REMARK SMILES IDX 5 1 3 2 2 3 1 4 22 5 20 6 19 7 17 8 16 9 15 10 14 11 6 12
REMARK SMILES IDX 7 13 8 14 9 15 13 16 11 17 10 18 12 20 4 22 21 24 18 26
REMARK H PARENT 10 19 12 21 4 23 21 25 18 27
REMARK Flexibility Score: inf
ROOT
ATOM      1  C   UNL     1     138.317 136.121 121.056  1.00  0.00     0.180 A 
ATOM      2  C   UNL     1     139.005 134.899 121.150  1.00  0.00     0.208 A 
ATOM      3  C   UNL     1     138.612 133.969 122.126  1.00  0.00     0.238 A 
ATOM      4  O   UNL     1     139.197 132.855 122.169  1.00  0.00    -0.285 OA
ATOM      5  C   UNL     1     137.547 134.278 123.005  1.00  0.00     0.111 A 
ATOM      6  C   UNL     1     137.091 133.428 124.056  1.00  0.00     0.134 A 
ATOM      7  C   UNL     1     135.946 133.778 124.781  1.00  0.00     0.093 A 
ATOM      8  C   UNL     1     135.278 134.978 124.538  1.00  0.00     0.123 A 
ATOM      9  C   UNL     1     135.750 135.845 123.550  1.00  0.00     0.094 A 
ATOM     10  C   UNL     1     136.869 135.506 122.787  1.00  0.00     0.146 A 
ATOM     11  O   UNL     1     137.280 136.354 121.852  1.00  0.00    -0.452 OA
ENDROOT
BRANCH   1  12
ATOM     12  C   UNL     1     138.688 137.161 120.070  1.00  0.00     0.025 A 
ATOM     13  C   UNL     1     139.398 138.313 120.455  1.00  0.00     0.016 A 
ATOM     14  C   UNL     1     139.717 139.294 119.512  1.00  0.00     0.051 A 
ATOM     15  C   UNL     1     139.321 139.146 118.176  1.00  0.00     0.157 A 
ATOM     16  C   UNL     1     138.277 137.028 118.734  1.00  0.00     0.062 A 
ATOM     17  C   UNL     1     138.595 138.007 117.787  1.00  0.00     0.158 A 
BRANCH  15  18
ATOM     18  O   UNL     1     139.643 140.125 117.237  1.00  0.00    -0.504 OA
ATOM     19  H   UNL     1     140.431 140.020 116.609  1.00  0.00     0.293 HD
ENDBRANCH  15  18
BRANCH  17  20
ATOM     20  O   UNL     1     138.181 137.833 116.467  1.00  0.00    -0.504 OA
ATOM     21  H   UNL     1     138.675 137.227 115.823  1.00  0.00     0.293 HD
ENDBRANCH  17  20
ENDBRANCH   1  12
BRANCH   2  22
ATOM     22  O   UNL     1     140.040 134.605 120.257  1.00  0.00    -0.502 OA
ATOM     23  H   UNL     1     139.882 134.111 119.387  1.00  0.00     0.293 HD
ENDBRANCH   2  22
BRANCH   6  24
ATOM     24  O   UNL     1     137.740 132.251 124.445  1.00  0.00    -0.507 OA
ATOM     25  H   UNL     1     138.474 132.200 125.133  1.00  0.00     0.293 HD
ENDBRANCH   6  24
BRANCH   8  26
ATOM     26  O   UNL     1     134.150 135.302 125.287  1.00  0.00    -0.508 OA
ATOM     27  H   UNL     1     133.222 135.014 125.001  1.00  0.00     0.293 HD
ENDBRANCH   8  26
TORSDOF 6
ENDMDL
MODEL 8
REMARK VINA RESULT:    -5.099      9.190     12.671
REMARK INTER + INTRA:          -6.460
REMARK INTER:                  -6.141
REMARK INTRA:                  -0.319
REMARK UNBOUND:                -0.318
REMARK SMILES O=c1c(O)c(-c2ccc(O)c(O)c2)oc2cc(O)cc(O)c12
REMARK SMILES IDX 5 1 3 2 2 3 1 4 22 5 20 6 19 7 17 8 16 9 15 10 14 11 6 12
REMARK SMILES IDX 7 13 8 14 9 15 13 16 11 17 10 18 12 20 4 22 21 24 18 26
REMARK H PARENT 10 19 12 21 4 23 21 25 18 27
REMARK Flexibility Score: inf
ROOT
ATOM      1  C   UNL     1     124.644 125.675 125.524  1.00  0.00     0.180 A 
ATOM      2  C   UNL     1     125.779 126.477 125.314  1.00  0.00     0.208 A 
ATOM      3  C   UNL     1     126.721 126.609 126.347  1.00  0.00     0.238 A 
ATOM      4  O   UNL     1     127.762 127.285 126.133  1.00  0.00    -0.285 OA
ATOM      5  C   UNL     1     126.510 125.951 127.582  1.00  0.00     0.111 A 
ATOM      6  C   UNL     1     127.378 126.047 128.710  1.00  0.00     0.134 A 
ATOM      7  C   UNL     1     127.138 125.250 129.836  1.00  0.00     0.093 A 
ATOM      8  C   UNL     1     126.027 124.410 129.901  1.00  0.00     0.123 A 
ATOM      9  C   UNL     1     125.139 124.353 128.826  1.00  0.00     0.094 A 
ATOM     10  C   UNL     1     125.371 125.109 127.674  1.00  0.00     0.146 A 
ATOM     11  O   UNL     1     124.507 125.018 126.671  1.00  0.00    -0.452 OA
ENDROOT
BRANCH   1  12
ATOM     12  C   UNL     1     123.595 125.507 124.494  1.00  0.00     0.025 A 
ATOM     13  C   UNL     1     123.635 124.442 123.577  1.00  0.00     0.016 A 
ATOM     14  C   UNL     1     122.647 124.316 122.597  1.00  0.00     0.051 A 
ATOM     15  C   UNL     1     121.613 125.257 122.510  1.00  0.00     0.157 A 
ATOM     16  C   UNL     1     122.568 126.459 124.389  1.00  0.00     0.062 A 
ATOM     17  C   UNL     1     121.576 126.335 123.410  1.00  0.00     0.158 A 
BRANCH  15  18
ATOM     18  O   UNL     1     120.627 125.127 121.533  1.00  0.00    -0.504 OA
ATOM     19  H   UNL     1     119.900 124.425 121.602  1.00  0.00     0.293 HD
ENDBRANCH  15  18
BRANCH  17  20
ATOM     20  O   UNL     1     120.564 127.293 123.346  1.00  0.00    -0.504 OA
ATOM     21  H   UNL     1     119.764 127.273 123.966  1.00  0.00     0.293 HD
ENDBRANCH  17  20
ENDBRANCH   1  12
BRANCH   2  22
ATOM     22  O   UNL     1     125.980 127.100 124.079  1.00  0.00    -0.502 OA
ATOM     23  H   UNL     1     126.625 126.739 123.387  1.00  0.00     0.293 HD
ENDBRANCH   2  22
BRANCH   6  24
ATOM     24  O   UNL     1     128.464 126.924 128.787  1.00  0.00    -0.507 OA
ATOM     25  H   UNL     1     129.419 126.644 128.949  1.00  0.00     0.293 HD
ENDBRANCH   6  24
BRANCH   8  26
ATOM     26  O   UNL     1     125.811 123.643 131.043  1.00  0.00    -0.508 OA
ATOM     27  H   UNL     1     126.029 123.994 131.968  1.00  0.00     0.293 HD
ENDBRANCH   8  26
TORSDOF 6
ENDMDL
MODEL 9
REMARK VINA RESULT:    -4.426      3.350      6.051
REMARK INTER + INTRA:          -5.650
REMARK INTER:                  -5.331
REMARK INTRA:                  -0.318
REMARK UNBOUND:                -0.318
REMARK SMILES O=c1c(O)c(-c2ccc(O)c(O)c2)oc2cc(O)cc(O)c12
REMARK SMILES IDX 5 1 3 2 2 3 1 4 22 5 20 6 19 7 17 8 16 9 15 10 14 11 6 12
REMARK SMILES IDX 7 13 8 14 9 15 13 16 11 17 10 18 12 20 4 22 21 24 18 26
REMARK H PARENT 10 19 12 21 4 23 21 25 18 27
REMARK Flexibility Score: inf
ROOT
ATOM      1  C   UNL     1     128.358 127.911 132.935  1.00  0.00     0.180 A 
ATOM      2  C   UNL     1     129.749 127.715 132.943  1.00  0.00     0.208 A 
ATOM      3  C   UNL     1     130.596 128.834 132.923  1.00  0.00     0.238 A 
ATOM      4  O   UNL     1     131.840 128.652 132.986  1.00  0.00    -0.285 OA
ATOM      5  C   UNL     1     130.042 130.136 132.879  1.00  0.00     0.111 A 
ATOM      6  C   UNL     1     130.806 131.340 132.816  1.00  0.00     0.134 A 
ATOM      7  C   UNL     1     130.156 132.576 132.908  1.00  0.00     0.093 A 
ATOM      8  C   UNL     1     128.766 132.655 132.994  1.00  0.00     0.123 A 
ATOM      9  C   UNL     1     128.005 131.484 132.998  1.00  0.00     0.094 A 
ATOM     10  C   UNL     1     128.628 130.235 132.944  1.00  0.00     0.146 A 
ATOM     11  O   UNL     1     127.869 129.146 132.959  1.00  0.00    -0.452 OA
ENDROOT
BRANCH   1  12
ATOM     12  C   UNL     1     127.401 126.782 132.929  1.00  0.00     0.025 A 
ATOM     13  C   UNL     1     126.870 126.268 134.125  1.00  0.00     0.016 A 
ATOM     14  C   UNL     1     125.987 125.185 134.098  1.00  0.00     0.051 A 
ATOM     15  C   UNL     1     125.631 124.593 132.879  1.00  0.00     0.157 A 
ATOM     16  C   UNL     1     127.057 126.171 131.712  1.00  0.00     0.062 A 
ATOM     17  C   UNL     1     126.172 125.088 131.681  1.00  0.00     0.158 A 
BRANCH  15  18
ATOM     18  O   UNL     1     124.748 123.515 132.856  1.00  0.00    -0.504 OA
ATOM     19  H   UNL     1     124.036 123.396 133.566  1.00  0.00     0.293 HD
ENDBRANCH  15  18
BRANCH  17  20
ATOM     20  O   UNL     1     125.844 124.516 130.452  1.00  0.00    -0.504 OA
ATOM     21  H   UNL     1     125.041 123.909 130.338  1.00  0.00     0.293 HD
ENDBRANCH  17  20
ENDBRANCH   1  12
BRANCH   2  22
ATOM     22  O   UNL     1     130.275 126.421 133.010  1.00  0.00    -0.502 OA
ATOM     23  H   UNL     1     131.138 126.209 133.495  1.00  0.00     0.293 HD
ENDBRANCH   2  22
BRANCH   6  24
ATOM     24  O   UNL     1     132.192 131.376 132.635  1.00  0.00    -0.507 OA
ATOM     25  H   UNL     1     132.784 130.563 132.564  1.00  0.00     0.293 HD
ENDBRANCH   6  24
BRANCH   8  26
ATOM     26  O   UNL     1     128.151 133.902 133.069  1.00  0.00    -0.508 OA
ATOM     27  H   UNL     1     127.246 134.073 132.645  1.00  0.00     0.293 HD
ENDBRANCH   8  26
TORSDOF 6
ENDMDL
