MODEL 1
REMARK VINA RESULT:    -4.027      0.000      0.000
REMARK INTER + INTRA:          -9.476
REMARK INTER:                  -7.323
REMARK INTRA:                  -2.153
REMARK UNBOUND:                -2.153
REMARK SMILES CCCCCCCCCCCCCC[C@@H](C)C(=O)[O-]
REMARK SMILES IDX 9 1 10 2 11 3 12 4 13 5 14 6 15 7 16 8 17 9 18 10 19 11 8 12
REMARK SMILES IDX 7 13 6 14 5 15 4 16 3 17 2 18 1 19
REMARK H PARENT
REMARK Flexibility Score: inf
ROOT
ATOM      1  C   UNL     1      10.071  -8.249  33.611  1.00  0.00     0.000 C 
ENDROOT
BRANCH   1   2
ATOM      2  C   UNL     1      10.133  -9.121  34.874  1.00  0.00     0.000 C 
BRANCH   2   3
ATOM      3  C   UNL     1       9.076  -8.686  35.896  1.00  0.00     0.000 C 
BRANCH   3   4
ATOM      4  C   UNL     1       9.735  -8.181  37.188  1.00  0.00     0.000 C 
BRANCH   4   5
ATOM      5  C   UNL     1      11.271  -8.185  37.113  1.00  0.00     0.001 C 
BRANCH   5   6
ATOM      6  C   UNL     1      11.911  -7.149  38.056  1.00  0.00     0.009 C 
BRANCH   6   7
ATOM      7  C   UNL     1      13.002  -7.763  38.961  1.00  0.00     0.032 C 
ATOM      8  C   UNL     1      13.109  -9.287  38.798  1.00  0.00     0.014 C 
BRANCH   7   9
ATOM      9  C   UNL     1      14.333  -7.128  38.663  1.00  0.00     0.044 C 
ATOM     10  O   UNL     1      15.372  -7.834  38.566  1.00  0.00    -0.550 OA
ATOM     11  O   UNL     1      14.422  -5.752  38.492  1.00  0.00    -0.550 OA
ENDBRANCH   7   9
ENDBRANCH   6   7
ENDBRANCH   5   6
ENDBRANCH   4   5
ENDBRANCH   3   4
ENDBRANCH   2   3
ENDBRANCH   1   2
BRANCH   1  12
ATOM     12  C   UNL     1       8.669  -7.671  33.359  1.00  0.00     0.000 C 
BRANCH  12  13
ATOM     13  C   UNL     1       8.691  -6.157  33.102  1.00  0.00    -0.000 C 
BRANCH  13  14
ATOM     14  C   UNL     1       8.254  -5.381  34.351  1.00  0.00    -0.000 C 
BRANCH  14  15
ATOM     15  C   UNL     1       9.286  -4.305  34.723  1.00  0.00    -0.000 C 
BRANCH  15  16
ATOM     16  C   UNL     1      10.456  -4.879  35.548  1.00  0.00    -0.000 C 
BRANCH  16  17
ATOM     17  C   UNL     1      11.811  -4.819  34.821  1.00  0.00    -0.000 C 
BRANCH  17  18
ATOM     18  C   UNL     1      12.892  -4.091  35.632  1.00  0.00    -0.003 C 
ATOM     19  C   UNL     1      12.379  -2.751  36.152  1.00  0.00     0.004 C 
ENDBRANCH  17  18
ENDBRANCH  16  17
ENDBRANCH  15  16
ENDBRANCH  14  15
ENDBRANCH  13  14
ENDBRANCH  12  13
ENDBRANCH   1  12
TORSDOF 14
ENDMDL
MODEL 2
REMARK VINA RESULT:    -4.001      2.048      4.095
REMARK INTER + INTRA:          -9.428
REMARK INTER:                  -6.440
REMARK INTRA:                  -2.988
REMARK UNBOUND:                -2.153
REMARK SMILES CCCCCCCCCCCCCC[C@@H](C)C(=O)[O-]
REMARK SMILES IDX 9 1 10 2 11 3 12 4 13 5 14 6 15 7 16 8 17 9 18 10 19 11 8 12
REMARK SMILES IDX 7 13 6 14 5 15 4 16 3 17 2 18 1 19
REMARK H PARENT
REMARK Flexibility Score: inf
ROOT
ATOM      1  C   UNL     1      10.208  -7.981  34.204  1.00  0.00     0.000 C 
ENDROOT
BRANCH   1   2
ATOM      2  C   UNL     1       9.919  -9.089  35.227  1.00  0.00     0.000 C 
BRANCH   2   3
ATOM      3  C   UNL     1      10.237  -8.619  36.652  1.00  0.00     0.000 C 
BRANCH   3   4
ATOM      4  C   UNL     1      11.127  -7.367  36.632  1.00  0.00     0.000 C 
BRANCH   4   5
ATOM      5  C   UNL     1      11.459  -6.851  38.042  1.00  0.00     0.001 C 
BRANCH   5   6
ATOM      6  C   UNL     1      12.048  -5.428  38.026  1.00  0.00     0.009 C 
BRANCH   6   7
ATOM      7  C   UNL     1      11.382  -4.521  36.967  1.00  0.00     0.032 C 
ATOM      8  C   UNL     1      10.621  -3.346  37.598  1.00  0.00     0.014 C 
BRANCH   7   9
ATOM      9  C   UNL     1      12.422  -3.996  36.014  1.00  0.00     0.044 C 
ATOM     10  O   UNL     1      12.213  -4.002  34.772  1.00  0.00    -0.550 OA
ATOM     11  O   UNL     1      13.624  -3.500  36.504  1.00  0.00    -0.550 OA
ENDBRANCH   7   9
ENDBRANCH   6   7
ENDBRANCH   5   6
ENDBRANCH   4   5
ENDBRANCH   3   4
ENDBRANCH   2   3
ENDBRANCH   1   2
BRANCH   1  12
ATOM     12  C   UNL     1       9.051  -7.772  33.214  1.00  0.00     0.000 C 
BRANCH  12  13
ATOM     13  C   UNL     1       8.717  -6.288  32.998  1.00  0.00    -0.000 C 
BRANCH  13  14
ATOM     14  C   UNL     1       9.027  -5.466  34.255  1.00  0.00    -0.000 C 
BRANCH  14  15
ATOM     15  C   UNL     1       7.752  -5.204  35.072  1.00  0.00    -0.000 C 
BRANCH  15  16
ATOM     16  C   UNL     1       7.852  -5.768  36.505  1.00  0.00    -0.000 C 
BRANCH  16  17
ATOM     17  C   UNL     1       6.897  -6.944  36.773  1.00  0.00    -0.000 C 
BRANCH  17  18
ATOM     18  C   UNL     1       6.101  -7.362  35.529  1.00  0.00    -0.003 C 
ATOM     19  C   UNL     1       6.189  -8.868  35.301  1.00  0.00     0.004 C 
ENDBRANCH  17  18
ENDBRANCH  16  17
ENDBRANCH  15  16
ENDBRANCH  14  15
ENDBRANCH  13  14
ENDBRANCH  12  13
ENDBRANCH   1  12
TORSDOF 14
ENDMDL
MODEL 3
REMARK VINA RESULT:    -3.926      2.500      4.884
REMARK INTER + INTRA:          -9.293
REMARK INTER:                  -6.544
REMARK INTRA:                  -2.749
REMARK UNBOUND:                -2.153
REMARK SMILES CCCCCCCCCCCCCC[C@@H](C)C(=O)[O-]
REMARK SMILES IDX 9 1 10 2 11 3 12 4 13 5 14 6 15 7 16 8 17 9 18 10 19 11 8 12
REMARK SMILES IDX 7 13 6 14 5 15 4 16 3 17 2 18 1 19
REMARK H PARENT
REMARK Flexibility Score: inf
ROOT
ATOM      1  C   UNL     1       8.674  -6.770  33.115  1.00  0.00     0.000 C 
ENDROOT
BRANCH   1   2
ATOM      2  C   UNL     1       9.323  -5.756  34.069  1.00  0.00     0.000 C 
BRANCH   2   3
ATOM      3  C   UNL     1       8.523  -4.448  34.107  1.00  0.00     0.000 C 
BRANCH   3   4
ATOM      4  C   UNL     1       8.060  -4.128  35.536  1.00  0.00     0.000 C 
BRANCH   4   5
ATOM      5  C   UNL     1       9.011  -4.684  36.609  1.00  0.00     0.001 C 
BRANCH   5   6
ATOM      6  C   UNL     1      10.004  -3.625  37.123  1.00  0.00     0.009 C 
BRANCH   6   7
ATOM      7  C   UNL     1      11.466  -4.124  37.109  1.00  0.00     0.032 C 
ATOM      8  C   UNL     1      11.561  -5.654  37.007  1.00  0.00     0.014 C 
BRANCH   7   9
ATOM      9  C   UNL     1      12.212  -3.495  35.965  1.00  0.00     0.044 C 
ATOM     10  O   UNL     1      12.323  -4.097  34.864  1.00  0.00    -0.550 OA
ATOM     11  O   UNL     1      12.785  -2.237  36.118  1.00  0.00    -0.550 OA
ENDBRANCH   7   9
ENDBRANCH   6   7
ENDBRANCH   5   6
ENDBRANCH   4   5
ENDBRANCH   3   4
ENDBRANCH   2   3
ENDBRANCH   1   2
BRANCH   1  12
ATOM     12  C   UNL     1       9.373  -8.138  33.139  1.00  0.00     0.000 C 
BRANCH  12  13
ATOM     13  C   UNL     1      10.534  -8.192  34.143  1.00  0.00    -0.000 C 
BRANCH  13  14
ATOM     14  C   UNL     1      10.315  -9.300  35.179  1.00  0.00    -0.000 C 
BRANCH  14  15
ATOM     15  C   UNL     1       9.602  -8.758  36.428  1.00  0.00    -0.000 C 
BRANCH  15  16
ATOM     16  C   UNL     1       8.366  -9.600  36.806  1.00  0.00    -0.000 C 
BRANCH  16  17
ATOM     17  C   UNL     1       7.073  -9.143  36.109  1.00  0.00    -0.000 C 
BRANCH  17  18
ATOM     18  C   UNL     1       6.819  -7.635  36.251  1.00  0.00    -0.003 C 
ATOM     19  C   UNL     1       5.737  -7.167  35.283  1.00  0.00     0.004 C 
ENDBRANCH  17  18
ENDBRANCH  16  17
ENDBRANCH  15  16
ENDBRANCH  14  15
ENDBRANCH  13  14
ENDBRANCH  12  13
ENDBRANCH   1  12
TORSDOF 14
ENDMDL
MODEL 4
REMARK VINA RESULT:    -3.921      3.455      5.348
REMARK INTER + INTRA:          -9.284
REMARK INTER:                  -6.363
REMARK INTRA:                  -2.921
REMARK UNBOUND:                -2.153
REMARK SMILES CCCCCCCCCCCCCC[C@@H](C)C(=O)[O-]
REMARK SMILES IDX 9 1 10 2 11 3 12 4 13 5 14 6 15 7 16 8 17 9 18 10 19 11 8 12
REMARK SMILES IDX 7 13 6 14 5 15 4 16 3 17 2 18 1 19
REMARK H PARENT
REMARK Flexibility Score: inf
ROOT
ATOM      1  C   UNL     1       8.746  -6.235  33.285  1.00  0.00     0.000 C 
ENDROOT
BRANCH   1   2
ATOM      2  C   UNL     1       9.324  -4.912  33.810  1.00  0.00     0.000 C 
BRANCH   2   3
ATOM      3  C   UNL     1       8.221  -4.025  34.398  1.00  0.00     0.000 C 
BRANCH   3   4
ATOM      4  C   UNL     1       7.656  -4.634  35.690  1.00  0.00     0.000 C 
BRANCH   4   5
ATOM      5  C   UNL     1       6.124  -4.763  35.667  1.00  0.00     0.001 C 
BRANCH   5   6
ATOM      6  C   UNL     1       5.648  -6.198  35.959  1.00  0.00     0.009 C 
BRANCH   6   7
ATOM      7  C   UNL     1       6.806  -7.137  36.364  1.00  0.00     0.032 C 
ATOM      8  C   UNL     1       6.850  -7.395  37.878  1.00  0.00     0.014 C 
BRANCH   7   9
ATOM      9  C   UNL     1       6.684  -8.446  35.632  1.00  0.00     0.044 C 
ATOM     10  O   UNL     1       5.984  -8.534  34.588  1.00  0.00    -0.550 OA
ATOM     11  O   UNL     1       7.348  -9.571  36.108  1.00  0.00    -0.550 OA
ENDBRANCH   7   9
ENDBRANCH   6   7
ENDBRANCH   5   6
ENDBRANCH   4   5
ENDBRANCH   3   4
ENDBRANCH   2   3
ENDBRANCH   1   2
BRANCH   1  12
ATOM     12  C   UNL     1       9.502  -7.464  33.815  1.00  0.00     0.000 C 
BRANCH  12  13
ATOM     13  C   UNL     1      10.679  -7.087  34.727  1.00  0.00    -0.000 C 
BRANCH  13  14
ATOM     14  C   UNL     1      10.561  -7.776  36.091  1.00  0.00    -0.000 C 
BRANCH  14  15
ATOM     15  C   UNL     1      11.255  -6.954  37.188  1.00  0.00    -0.000 C 
BRANCH  15  16
ATOM     16  C   UNL     1      10.360  -5.813  37.715  1.00  0.00    -0.000 C 
BRANCH  16  17
ATOM     17  C   UNL     1      10.907  -4.408  37.407  1.00  0.00    -0.000 C 
BRANCH  17  18
ATOM     18  C   UNL     1      12.338  -4.434  36.851  1.00  0.00    -0.003 C 
ATOM     19  C   UNL     1      12.420  -3.706  35.512  1.00  0.00     0.004 C 
ENDBRANCH  17  18
ENDBRANCH  16  17
ENDBRANCH  15  16
ENDBRANCH  14  15
ENDBRANCH  13  14
ENDBRANCH  12  13
ENDBRANCH   1  12
TORSDOF 14
ENDMDL
MODEL 5
REMARK VINA RESULT:    -3.914      1.996      4.854
REMARK INTER + INTRA:          -9.271
REMARK INTER:                  -6.543
REMARK INTRA:                  -2.727
REMARK UNBOUND:                -2.153
REMARK SMILES CCCCCCCCCCCCCC[C@@H](C)C(=O)[O-]
REMARK SMILES IDX 9 1 10 2 11 3 12 4 13 5 14 6 15 7 16 8 17 9 18 10 19 11 8 12
REMARK SMILES IDX 7 13 6 14 5 15 4 16 3 17 2 18 1 19
REMARK H PARENT
REMARK Flexibility Score: inf
ROOT
ATOM      1  C   UNL     1       9.125  -7.885  33.212  1.00  0.00     0.000 C 
ENDROOT
BRANCH   1   2
ATOM      2  C   UNL     1       8.936  -6.364  33.110  1.00  0.00     0.000 C 
BRANCH   2   3
ATOM      3  C   UNL     1       8.400  -5.787  34.426  1.00  0.00     0.000 C 
BRANCH   3   4
ATOM      4  C   UNL     1       9.173  -4.522  34.827  1.00  0.00     0.000 C 
BRANCH   4   5
ATOM      5  C   UNL     1      10.604  -4.496  34.265  1.00  0.00     0.001 C 
BRANCH   5   6
ATOM      6  C   UNL     1      11.642  -5.039  35.265  1.00  0.00     0.009 C 
BRANCH   6   7
ATOM      7  C   UNL     1      11.787  -4.144  36.515  1.00  0.00     0.032 C 
ATOM      8  C   UNL     1      11.908  -4.961  37.810  1.00  0.00     0.014 C 
BRANCH   7   9
ATOM      9  C   UNL     1      12.988  -3.249  36.368  1.00  0.00     0.044 C 
ATOM     10  O   UNL     1      12.846  -2.020  36.130  1.00  0.00    -0.550 OA
ATOM     11  O   UNL     1      14.267  -3.778  36.497  1.00  0.00    -0.550 OA
ENDBRANCH   7   9
ENDBRANCH   6   7
ENDBRANCH   5   6
ENDBRANCH   4   5
ENDBRANCH   3   4
ENDBRANCH   2   3
ENDBRANCH   1   2
BRANCH   1  12
ATOM     12  C   UNL     1      10.380  -8.275  34.009  1.00  0.00     0.000 C 
BRANCH  12  13
ATOM     13  C   UNL     1      10.046  -8.980  35.332  1.00  0.00    -0.000 C 
BRANCH  13  14
ATOM     14  C   UNL     1      10.681  -8.248  36.521  1.00  0.00    -0.000 C 
BRANCH  14  15
ATOM     15  C   UNL     1       9.633  -7.930  37.598  1.00  0.00    -0.000 C 
BRANCH  15  16
ATOM     16  C   UNL     1       8.242  -8.498  37.245  1.00  0.00    -0.000 C 
BRANCH  16  17
ATOM     17  C   UNL     1       7.113  -7.456  37.324  1.00  0.00    -0.000 C 
BRANCH  17  18
ATOM     18  C   UNL     1       5.970  -7.740  36.339  1.00  0.00    -0.003 C 
ATOM     19  C   UNL     1       6.323  -8.893  35.404  1.00  0.00     0.004 C 
ENDBRANCH  17  18
ENDBRANCH  16  17
ENDBRANCH  15  16
ENDBRANCH  14  15
ENDBRANCH  13  14
ENDBRANCH  12  13
ENDBRANCH   1  12
TORSDOF 14
ENDMDL
MODEL 6
REMARK VINA RESULT:    -3.898      2.211      4.748
REMARK INTER + INTRA:          -9.242
REMARK INTER:                  -6.580
REMARK INTRA:                  -2.662
REMARK UNBOUND:                -2.153
REMARK SMILES CCCCCCCCCCCCCC[C@@H](C)C(=O)[O-]
REMARK SMILES IDX 9 1 10 2 11 3 12 4 13 5 14 6 15 7 16 8 17 9 18 10 19 11 8 12
REMARK SMILES IDX 7 13 6 14 5 15 4 16 3 17 2 18 1 19
REMARK H PARENT
REMARK Flexibility Score: inf
ROOT
ATOM      1  C   UNL     1      10.675  -8.666  33.890  1.00  0.00     0.000 C 
ENDROOT
BRANCH   1   2
ATOM      2  C   UNL     1       9.557  -8.227  32.931  1.00  0.00     0.000 C 
BRANCH   2   3
ATOM      3  C   UNL     1       8.604  -7.239  33.614  1.00  0.00     0.000 C 
BRANCH   3   4
ATOM      4  C   UNL     1       8.723  -5.841  32.991  1.00  0.00     0.000 C 
BRANCH   4   5
ATOM      5  C   UNL     1       9.550  -4.873  33.853  1.00  0.00     0.001 C 
BRANCH   5   6
ATOM      6  C   UNL     1       9.699  -5.359  35.307  1.00  0.00     0.009 C 
BRANCH   6   7
ATOM      7  C   UNL     1      11.162  -5.313  35.801  1.00  0.00     0.032 C 
ATOM      8  C   UNL     1      12.023  -4.331  34.992  1.00  0.00     0.014 C 
BRANCH   7   9
ATOM      9  C   UNL     1      11.201  -4.936  37.257  1.00  0.00     0.044 C 
ATOM     10  O   UNL     1      10.831  -3.792  37.633  1.00  0.00    -0.550 OA
ATOM     11  O   UNL     1      11.647  -5.856  38.200  1.00  0.00    -0.550 OA
ENDBRANCH   7   9
ENDBRANCH   6   7
ENDBRANCH   5   6
ENDBRANCH   4   5
ENDBRANCH   3   4
ENDBRANCH   2   3
ENDBRANCH   1   2
BRANCH   1  12
ATOM     12  C   UNL     1      10.166  -9.584  35.013  1.00  0.00     0.000 C 
BRANCH  12  13
ATOM     13  C   UNL     1      10.155  -8.891  36.384  1.00  0.00    -0.000 C 
BRANCH  13  14
ATOM     14  C   UNL     1       8.730  -8.806  36.945  1.00  0.00    -0.000 C 
BRANCH  14  15
ATOM     15  C   UNL     1       8.562  -7.570  37.843  1.00  0.00    -0.000 C 
BRANCH  15  16
ATOM     16  C   UNL     1       7.206  -6.869  37.623  1.00  0.00    -0.000 C 
BRANCH  16  17
ATOM     17  C   UNL     1       6.427  -7.401  36.407  1.00  0.00    -0.000 C 
BRANCH  17  18
ATOM     18  C   UNL     1       5.497  -6.348  35.787  1.00  0.00    -0.003 C 
ATOM     19  C   UNL     1       6.170  -4.979  35.741  1.00  0.00     0.004 C 
ENDBRANCH  17  18
ENDBRANCH  16  17
ENDBRANCH  15  16
ENDBRANCH  14  15
ENDBRANCH  13  14
ENDBRANCH  12  13
ENDBRANCH   1  12
TORSDOF 14
ENDMDL
MODEL 7
REMARK VINA RESULT:    -3.894      2.364      4.546
REMARK INTER + INTRA:          -9.235
REMARK INTER:                  -6.726
REMARK INTRA:                  -2.509
REMARK UNBOUND:                -2.153
REMARK SMILES CCCCCCCCCCCCCC[C@@H](C)C(=O)[O-]
REMARK SMILES IDX 9 1 10 2 11 3 12 4 13 5 14 6 15 7 16 8 17 9 18 10 19 11 8 12
REMARK SMILES IDX 7 13 6 14 5 15 4 16 3 17 2 18 1 19
REMARK H PARENT
REMARK Flexibility Score: inf
ROOT
ATOM      1  C   UNL     1       7.437  -6.418  35.743  1.00  0.00     0.000 C 
ENDROOT
BRANCH   1   2
ATOM      2  C   UNL     1       7.868  -6.140  37.191  1.00  0.00     0.000 C 
BRANCH   2   3
ATOM      3  C   UNL     1       8.524  -7.378  37.816  1.00  0.00     0.000 C 
BRANCH   3   4
ATOM      4  C   UNL     1       9.963  -7.074  38.258  1.00  0.00     0.000 C 
BRANCH   4   5
ATOM      5  C   UNL     1      10.898  -6.772  37.074  1.00  0.00     0.001 C 
BRANCH   5   6
ATOM      6  C   UNL     1      11.705  -5.476  37.276  1.00  0.00     0.009 C 
BRANCH   6   7
ATOM      7  C   UNL     1      11.093  -4.272  36.526  1.00  0.00     0.032 C 
ATOM      8  C   UNL     1      10.486  -3.234  37.481  1.00  0.00     0.014 C 
BRANCH   7   9
ATOM      9  C   UNL     1      12.140  -3.617  35.667  1.00  0.00     0.044 C 
ATOM     10  O   UNL     1      12.498  -4.143  34.579  1.00  0.00    -0.550 OA
ATOM     11  O   UNL     1      12.721  -2.420  36.072  1.00  0.00    -0.550 OA
ENDBRANCH   7   9
ENDBRANCH   6   7
ENDBRANCH   5   6
ENDBRANCH   4   5
ENDBRANCH   3   4
ENDBRANCH   2   3
ENDBRANCH   1   2
BRANCH   1  12
ATOM     12  C   UNL     1       7.974  -5.372  34.754  1.00  0.00     0.000 C 
BRANCH  12  13
ATOM     13  C   UNL     1       8.720  -6.005  33.569  1.00  0.00    -0.000 C 
BRANCH  13  14
ATOM     14  C   UNL     1       8.542  -7.528  33.558  1.00  0.00    -0.000 C 
BRANCH  14  15
ATOM     15  C   UNL     1       9.757  -8.222  32.924  1.00  0.00    -0.000 C 
BRANCH  15  16
ATOM     16  C   UNL     1      10.607  -8.978  33.966  1.00  0.00    -0.000 C 
BRANCH  16  17
ATOM     17  C   UNL     1       9.786  -9.541  35.139  1.00  0.00    -0.000 C 
BRANCH  17  18
ATOM     18  C   UNL     1      10.397 -10.815  35.738  1.00  0.00    -0.003 C 
ATOM     19  C   UNL     1      10.858 -10.581  37.174  1.00  0.00     0.004 C 
ENDBRANCH  17  18
ENDBRANCH  16  17
ENDBRANCH  15  16
ENDBRANCH  14  15
ENDBRANCH  13  14
ENDBRANCH  12  13
ENDBRANCH   1  12
TORSDOF 14
ENDMDL
MODEL 8
REMARK VINA RESULT:    -3.892      3.707      5.427
REMARK INTER + INTRA:          -9.231
REMARK INTER:                  -6.721
REMARK INTRA:                  -2.510
REMARK UNBOUND:                -2.153
REMARK SMILES CCCCCCCCCCCCCC[C@@H](C)C(=O)[O-]
REMARK SMILES IDX 9 1 10 2 11 3 12 4 13 5 14 6 15 7 16 8 17 9 18 10 19 11 8 12
REMARK SMILES IDX 7 13 6 14 5 15 4 16 3 17 2 18 1 19
REMARK H PARENT
REMARK Flexibility Score: inf
ROOT
ATOM      1  C   UNL     1       9.643  -9.442  35.258  1.00  0.00     0.000 C 
ENDROOT
BRANCH   1   2
ATOM      2  C   UNL     1      10.491  -8.852  34.122  1.00  0.00     0.000 C 
BRANCH   2   3
ATOM      3  C   UNL     1       9.602  -8.269  33.017  1.00  0.00     0.000 C 
BRANCH   3   4
ATOM      4  C   UNL     1       8.363  -7.584  33.613  1.00  0.00     0.000 C 
BRANCH   4   5
ATOM      5  C   UNL     1       8.609  -6.106  33.960  1.00  0.00     0.001 C 
BRANCH   5   6
ATOM      6  C   UNL     1       7.923  -5.686  35.273  1.00  0.00     0.009 C 
BRANCH   6   7
ATOM      7  C   UNL     1       6.929  -6.750  35.790  1.00  0.00     0.032 C 
ATOM      8  C   UNL     1       7.156  -7.094  37.270  1.00  0.00     0.014 C 
BRANCH   7   9
ATOM      9  C   UNL     1       5.516  -6.270  35.595  1.00  0.00     0.044 C 
ATOM     10  O   UNL     1       4.604  -7.077  35.272  1.00  0.00    -0.550 OA
ATOM     11  O   UNL     1       5.210  -4.925  35.772  1.00  0.00    -0.550 OA
ENDBRANCH   7   9
ENDBRANCH   6   7
ENDBRANCH   5   6
ENDBRANCH   4   5
ENDBRANCH   3   4
ENDBRANCH   2   3
ENDBRANCH   1   2
BRANCH   1  12
ATOM     12  C   UNL     1      10.272  -9.223  36.643  1.00  0.00     0.000 C 
BRANCH  12  13
ATOM     13  C   UNL     1      11.060  -7.908  36.734  1.00  0.00    -0.000 C 
BRANCH  13  14
ATOM     14  C   UNL     1      10.767  -7.182  38.052  1.00  0.00    -0.000 C 
BRANCH  14  15
ATOM     15  C   UNL     1      10.620  -5.668  37.829  1.00  0.00    -0.000 C 
BRANCH  15  16
ATOM     16  C   UNL     1      11.493  -5.163  36.661  1.00  0.00    -0.000 C 
BRANCH  16  17
ATOM     17  C   UNL     1      11.281  -3.675  36.332  1.00  0.00    -0.000 C 
BRANCH  17  18
ATOM     18  C   UNL     1      12.571  -2.974  35.885  1.00  0.00    -0.003 C 
ATOM     19  C   UNL     1      13.804  -3.714  36.395  1.00  0.00     0.004 C 
ENDBRANCH  17  18
ENDBRANCH  16  17
ENDBRANCH  15  16
ENDBRANCH  14  15
ENDBRANCH  13  14
ENDBRANCH  12  13
ENDBRANCH   1  12
TORSDOF 14
ENDMDL
MODEL 9
REMARK VINA RESULT:    -3.885      2.607      7.019
REMARK INTER + INTRA:          -9.219
REMARK INTER:                  -7.210
REMARK INTRA:                  -2.008
REMARK UNBOUND:                -2.153
REMARK SMILES CCCCCCCCCCCCCC[C@@H](C)C(=O)[O-]
REMARK SMILES IDX 9 1 10 2 11 3 12 4 13 5 14 6 15 7 16 8 17 9 18 10 19 11 8 12
REMARK SMILES IDX 7 13 6 14 5 15 4 16 3 17 2 18 1 19
REMARK H PARENT
REMARK Flexibility Score: inf
ROOT
ATOM      1  C   UNL     1      14.992  -7.418  38.422  1.00  0.00     0.000 C 
ENDROOT
BRANCH   1   2
ATOM      2  C   UNL     1      13.521  -7.422  38.864  1.00  0.00     0.000 C 
BRANCH   2   3
ATOM      3  C   UNL     1      12.919  -8.829  38.758  1.00  0.00     0.000 C 
BRANCH   3   4
ATOM      4  C   UNL     1      11.389  -8.765  38.637  1.00  0.00     0.000 C 
BRANCH   4   5
ATOM      5  C   UNL     1      10.913  -8.619  37.182  1.00  0.00     0.001 C 
BRANCH   5   6
ATOM      6  C   UNL     1      10.270  -7.247  36.907  1.00  0.00     0.009 C 
BRANCH   6   7
ATOM      7  C   UNL     1      10.960  -6.489  35.751  1.00  0.00     0.032 C 
ATOM      8  C   UNL     1      10.026  -6.274  34.550  1.00  0.00     0.014 C 
BRANCH   7   9
ATOM      9  C   UNL     1      11.467  -5.159  36.240  1.00  0.00     0.044 C 
ATOM     10  O   UNL     1      11.393  -4.855  37.461  1.00  0.00    -0.550 OA
ATOM     11  O   UNL     1      12.022  -4.255  35.341  1.00  0.00    -0.550 OA
ENDBRANCH   7   9
ENDBRANCH   6   7
ENDBRANCH   5   6
ENDBRANCH   4   5
ENDBRANCH   3   4
ENDBRANCH   2   3
ENDBRANCH   1   2
BRANCH   1  12
ATOM     12  C   UNL     1      15.743  -8.689  38.848  1.00  0.00     0.000 C 
BRANCH  12  13
ATOM     13  C   UNL     1      16.440  -9.387  37.671  1.00  0.00    -0.000 C 
BRANCH  13  14
ATOM     14  C   UNL     1      16.199 -10.901  37.709  1.00  0.00    -0.000 C 
BRANCH  14  15
ATOM     15  C   UNL     1      15.650 -11.340  39.076  1.00  0.00    -0.000 C 
BRANCH  15  16
ATOM     16  C   UNL     1      14.461 -12.315  38.941  1.00  0.00    -0.000 C 
BRANCH  16  17
ATOM     17  C   UNL     1      14.040 -12.575  37.485  1.00  0.00    -0.000 C 
BRANCH  17  18
ATOM     18  C   UNL     1      12.564 -12.242  37.223  1.00  0.00    -0.003 C 
ATOM     19  C   UNL     1      11.720 -12.465  38.474  1.00  0.00     0.004 C 
ENDBRANCH  17  18
ENDBRANCH  16  17
ENDBRANCH  15  16
ENDBRANCH  14  15
ENDBRANCH  13  14
ENDBRANCH  12  13
ENDBRANCH   1  12
TORSDOF 14
ENDMDL
