MODEL 1
REMARK VINA RESULT:    -4.163      0.000      0.000
REMARK INTER + INTRA:         -10.205
REMARK INTER:                  -8.056
REMARK INTRA:                  -2.149
REMARK UNBOUND:                -2.149
REMARK SMILES CCCCCCCCCCCCCCCCCC(=O)[O-]
REMARK SMILES IDX 10 1 11 2 12 3 13 4 14 5 15 6 16 7 17 8 18 9 19 10 20 11
REMARK SMILES IDX 9 12 8 13 7 14 6 15 5 16 4 17 3 18 2 19 1 20
REMARK H PARENT
REMARK Flexibility Score: inf
ROOT
ATOM      1  C   UNL     1      -2.353   8.733 -59.098  1.00  0.00     0.000 C 
ENDROOT
BRANCH   1   2
ATOM      2  C   UNL     1      -3.587   9.067 -58.243  1.00  0.00     0.000 C 
BRANCH   2   3
ATOM      3  C   UNL     1      -3.497   8.507 -56.814  1.00  0.00     0.000 C 
BRANCH   3   4
ATOM      4  C   UNL     1      -4.586   7.464 -56.484  1.00  0.00     0.000 C 
BRANCH   4   5
ATOM      5  C   UNL     1      -3.998   6.065 -56.230  1.00  0.00     0.000 C 
BRANCH   5   6
ATOM      6  C   UNL     1      -4.442   5.027 -57.278  1.00  0.00     0.000 C 
BRANCH   6   7
ATOM      7  C   UNL     1      -5.743   5.373 -58.024  1.00  0.00     0.006 C 
BRANCH   7   8
ATOM      8  C   UNL     1      -7.000   4.881 -57.296  1.00  0.00     0.053 C 
BRANCH   8   9
ATOM      9  C   UNL     1      -8.180   5.723 -57.664  1.00  0.00     0.041 C 
ATOM     10  O   UNL     1      -9.324   5.205 -57.754  1.00  0.00    -0.550 OA
ATOM     11  O   UNL     1      -8.026   7.090 -57.859  1.00  0.00    -0.550 OA
ENDBRANCH   8   9
ENDBRANCH   7   8
ENDBRANCH   6   7
ENDBRANCH   5   6
ENDBRANCH   4   5
ENDBRANCH   3   4
ENDBRANCH   2   3
ENDBRANCH   1   2
BRANCH   1  12
ATOM     12  C   UNL     1      -2.064   7.217 -59.138  1.00  0.00     0.000 C 
BRANCH  12  13
ATOM     13  C   UNL     1      -0.786   6.817 -58.381  1.00  0.00    -0.000 C 
BRANCH  13  14
ATOM     14  C   UNL     1      -0.741   5.319 -58.039  1.00  0.00    -0.000 C 
BRANCH  14  15
ATOM     15  C   UNL     1      -0.462   5.060 -56.550  1.00  0.00    -0.000 C 
BRANCH  15  16
ATOM     16  C   UNL     1      -0.563   6.339 -55.699  1.00  0.00    -0.000 C 
BRANCH  16  17
ATOM     17  C   UNL     1       0.319   6.267 -54.435  1.00  0.00    -0.000 C 
BRANCH  17  18
ATOM     18  C   UNL     1      -0.461   6.487 -53.127  1.00  0.00    -0.000 C 
BRANCH  18  19
ATOM     19  C   UNL     1      -1.686   5.572 -53.001  1.00  0.00    -0.003 C 
ATOM     20  C   UNL     1      -1.885   5.116 -51.558  1.00  0.00     0.004 C 
ENDBRANCH  18  19
ENDBRANCH  17  18
ENDBRANCH  16  17
ENDBRANCH  15  16
ENDBRANCH  14  15
ENDBRANCH  13  14
ENDBRANCH  12  13
ENDBRANCH   1  12
TORSDOF 16
ENDMDL
MODEL 2
REMARK VINA RESULT:    -3.963      3.104      6.453
REMARK INTER + INTRA:          -9.819
REMARK INTER:                  -7.842
REMARK INTRA:                  -1.977
REMARK UNBOUND:                -2.149
REMARK SMILES CCCCCCCCCCCCCCCCCC(=O)[O-]
REMARK SMILES IDX 10 1 11 2 12 3 13 4 14 5 15 6 16 7 17 8 18 9 19 10 20 11
REMARK SMILES IDX 9 12 8 13 7 14 6 15 5 16 4 17 3 18 2 19 1 20
REMARK H PARENT
REMARK Flexibility Score: inf
ROOT
ATOM      1  C   UNL     1      -4.192   9.648 -58.356  1.00  0.00     0.000 C 
ENDROOT
BRANCH   1   2
ATOM      2  C   UNL     1      -2.971   8.965 -57.719  1.00  0.00     0.000 C 
BRANCH   2   3
ATOM      3  C   UNL     1      -3.336   8.090 -56.508  1.00  0.00     0.000 C 
BRANCH   3   4
ATOM      4  C   UNL     1      -2.678   6.693 -56.528  1.00  0.00     0.000 C 
BRANCH   4   5
ATOM      5  C   UNL     1      -1.392   6.666 -57.373  1.00  0.00     0.000 C 
BRANCH   5   6
ATOM      6  C   UNL     1      -0.293   5.773 -56.766  1.00  0.00     0.000 C 
BRANCH   6   7
ATOM      7  C   UNL     1      -0.624   5.186 -55.382  1.00  0.00     0.006 C 
BRANCH   7   8
ATOM      8  C   UNL     1       0.280   5.730 -54.269  1.00  0.00     0.053 C 
BRANCH   8   9
ATOM      9  C   UNL     1      -0.263   7.019 -53.738  1.00  0.00     0.041 C 
ATOM     10  O   UNL     1       0.420   8.074 -53.817  1.00  0.00    -0.550 OA
ATOM     11  O   UNL     1      -1.543   7.066 -53.203  1.00  0.00    -0.550 OA
ENDBRANCH   8   9
ENDBRANCH   7   8
ENDBRANCH   6   7
ENDBRANCH   5   6
ENDBRANCH   4   5
ENDBRANCH   3   4
ENDBRANCH   2   3
ENDBRANCH   1   2
BRANCH   1  12
ATOM     12  C   UNL     1      -5.520   9.171 -57.731  1.00  0.00     0.000 C 
BRANCH  12  13
ATOM     13  C   UNL     1      -6.268   8.140 -58.593  1.00  0.00    -0.000 C 
BRANCH  13  14
ATOM     14  C   UNL     1      -7.650   7.778 -58.025  1.00  0.00    -0.000 C 
BRANCH  14  15
ATOM     15  C   UNL     1      -7.690   6.366 -57.421  1.00  0.00    -0.000 C 
BRANCH  15  16
ATOM     16  C   UNL     1      -6.285   5.789 -57.172  1.00  0.00    -0.000 C 
BRANCH  16  17
ATOM     17  C   UNL     1      -5.819   4.875 -58.325  1.00  0.00    -0.000 C 
BRANCH  17  18
ATOM     18  C   UNL     1      -4.360   5.114 -58.749  1.00  0.00    -0.000 C 
BRANCH  18  19
ATOM     19  C   UNL     1      -4.216   5.432 -60.243  1.00  0.00    -0.003 C 
ATOM     20  C   UNL     1      -2.848   6.036 -60.547  1.00  0.00     0.004 C 
ENDBRANCH  18  19
ENDBRANCH  17  18
ENDBRANCH  16  17
ENDBRANCH  15  16
ENDBRANCH  14  15
ENDBRANCH  13  14
ENDBRANCH  12  13
ENDBRANCH   1  12
TORSDOF 16
ENDMDL
MODEL 3
REMARK VINA RESULT:    -3.953     12.011     14.660
REMARK INTER + INTRA:          -9.800
REMARK INTER:                  -7.989
REMARK INTRA:                  -1.812
REMARK UNBOUND:                -2.149
REMARK SMILES CCCCCCCCCCCCCCCCCC(=O)[O-]
REMARK SMILES IDX 10 1 11 2 12 3 13 4 14 5 15 6 16 7 17 8 18 9 19 10 20 11
REMARK SMILES IDX 9 12 8 13 7 14 6 15 5 16 4 17 3 18 2 19 1 20
REMARK H PARENT
REMARK Flexibility Score: inf
ROOT
ATOM      1  C   UNL     1      -6.287  21.026 -60.338  1.00  0.00     0.000 C 
ENDROOT
BRANCH   1   2
ATOM      2  C   UNL     1      -5.184  20.069 -59.855  1.00  0.00     0.000 C 
BRANCH   2   3
ATOM      3  C   UNL     1      -4.982  18.865 -60.791  1.00  0.00     0.000 C 
BRANCH   3   4
ATOM      4  C   UNL     1      -6.286  18.108 -61.121  1.00  0.00     0.000 C 
BRANCH   4   5
ATOM      5  C   UNL     1      -6.088  16.582 -61.131  1.00  0.00     0.000 C 
BRANCH   5   6
ATOM      6  C   UNL     1      -7.416  15.803 -61.082  1.00  0.00     0.000 C 
BRANCH   6   7
ATOM      7  C   UNL     1      -8.669  16.634 -61.414  1.00  0.00     0.006 C 
BRANCH   7   8
ATOM      8  C   UNL     1      -9.338  16.210 -62.727  1.00  0.00     0.053 C 
BRANCH   8   9
ATOM      9  C   UNL     1      -9.035  17.195 -63.810  1.00  0.00     0.041 C 
ATOM     10  O   UNL     1      -8.850  18.409 -63.528  1.00  0.00    -0.550 OA
ATOM     11  O   UNL     1      -8.905  16.767 -65.125  1.00  0.00    -0.550 OA
ENDBRANCH   8   9
ENDBRANCH   7   8
ENDBRANCH   6   7
ENDBRANCH   5   6
ENDBRANCH   4   5
ENDBRANCH   3   4
ENDBRANCH   2   3
ENDBRANCH   1   2
BRANCH   1  12
ATOM     12  C   UNL     1      -5.826  21.895 -61.527  1.00  0.00     0.000 C 
BRANCH  12  13
ATOM     13  C   UNL     1      -6.572  21.586 -62.837  1.00  0.00    -0.000 C 
BRANCH  13  14
ATOM     14  C   UNL     1      -5.623  21.223 -63.990  1.00  0.00    -0.000 C 
BRANCH  14  15
ATOM     15  C   UNL     1      -5.824  19.785 -64.492  1.00  0.00    -0.000 C 
BRANCH  15  16
ATOM     16  C   UNL     1      -4.515  19.144 -64.990  1.00  0.00    -0.000 C 
BRANCH  16  17
ATOM     17  C   UNL     1      -3.294  19.599 -64.163  1.00  0.00    -0.000 C 
BRANCH  17  18
ATOM     18  C   UNL     1      -1.946  19.220 -64.798  1.00  0.00    -0.000 C 
BRANCH  18  19
ATOM     19  C   UNL     1      -0.767  19.355 -63.825  1.00  0.00    -0.003 C 
ATOM     20  C   UNL     1       0.347  18.371 -64.170  1.00  0.00     0.004 C 
ENDBRANCH  18  19
ENDBRANCH  17  18
ENDBRANCH  16  17
ENDBRANCH  15  16
ENDBRANCH  14  15
ENDBRANCH  13  14
ENDBRANCH  12  13
ENDBRANCH   1  12
TORSDOF 16
ENDMDL
MODEL 4
REMARK VINA RESULT:    -3.932      3.604      6.374
REMARK INTER + INTRA:          -9.758
REMARK INTER:                  -7.450
REMARK INTRA:                  -2.308
REMARK UNBOUND:                -2.149
REMARK SMILES CCCCCCCCCCCCCCCCCC(=O)[O-]
REMARK SMILES IDX 10 1 11 2 12 3 13 4 14 5 15 6 16 7 17 8 18 9 19 10 20 11
REMARK SMILES IDX 9 12 8 13 7 14 6 15 5 16 4 17 3 18 2 19 1 20
REMARK H PARENT
REMARK Flexibility Score: inf
ROOT
ATOM      1  C   UNL     1      -5.384   8.998 -57.632  1.00  0.00     0.000 C 
ENDROOT
BRANCH   1   2
ATOM      2  C   UNL     1      -5.938   7.749 -58.338  1.00  0.00     0.000 C 
BRANCH   2   3
ATOM      3  C   UNL     1      -6.561   6.735 -57.363  1.00  0.00     0.000 C 
BRANCH   3   4
ATOM      4  C   UNL     1      -6.063   5.288 -57.568  1.00  0.00     0.000 C 
BRANCH   4   5
ATOM      5  C   UNL     1      -4.971   4.898 -56.557  1.00  0.00     0.000 C 
BRANCH   5   6
ATOM      6  C   UNL     1      -4.091   6.089 -56.133  1.00  0.00     0.000 C 
BRANCH   6   7
ATOM      7  C   UNL     1      -2.649   5.725 -55.740  1.00  0.00     0.006 C 
BRANCH   7   8
ATOM      8  C   UNL     1      -1.767   6.955 -55.490  1.00  0.00     0.053 C 
BRANCH   8   9
ATOM      9  C   UNL     1      -0.954   6.772 -54.248  1.00  0.00     0.041 C 
ATOM     10  O   UNL     1      -1.301   5.924 -53.384  1.00  0.00    -0.550 OA
ATOM     11  O   UNL     1       0.214   7.501 -54.067  1.00  0.00    -0.550 OA
ENDBRANCH   8   9
ENDBRANCH   7   8
ENDBRANCH   6   7
ENDBRANCH   5   6
ENDBRANCH   4   5
ENDBRANCH   3   4
ENDBRANCH   2   3
ENDBRANCH   1   2
BRANCH   1  12
ATOM     12  C   UNL     1      -3.977   9.379 -58.138  1.00  0.00     0.000 C 
BRANCH  12  13
ATOM     13  C   UNL     1      -3.490   8.506 -59.309  1.00  0.00    -0.000 C 
BRANCH  13  14
ATOM     14  C   UNL     1      -2.153   7.807 -59.016  1.00  0.00    -0.000 C 
BRANCH  14  15
ATOM     15  C   UNL     1      -1.934   6.560 -59.886  1.00  0.00    -0.000 C 
BRANCH  15  16
ATOM     16  C   UNL     1      -2.836   5.384 -59.471  1.00  0.00    -0.000 C 
BRANCH  16  17
ATOM     17  C   UNL     1      -3.969   5.133 -60.489  1.00  0.00    -0.000 C 
BRANCH  17  18
ATOM     18  C   UNL     1      -3.507   5.211 -61.954  1.00  0.00    -0.000 C 
BRANCH  18  19
ATOM     19  C   UNL     1      -4.660   5.472 -62.932  1.00  0.00    -0.003 C 
ATOM     20  C   UNL     1      -4.365   4.875 -64.304  1.00  0.00     0.004 C 
ENDBRANCH  18  19
ENDBRANCH  17  18
ENDBRANCH  16  17
ENDBRANCH  15  16
ENDBRANCH  14  15
ENDBRANCH  13  14
ENDBRANCH  12  13
ENDBRANCH   1  12
TORSDOF 16
ENDMDL
MODEL 5
REMARK VINA RESULT:    -3.796     12.505     15.448
REMARK INTER + INTRA:          -9.497
REMARK INTER:                  -7.894
REMARK INTRA:                  -1.602
REMARK UNBOUND:                -2.149
REMARK SMILES CCCCCCCCCCCCCCCCCC(=O)[O-]
REMARK SMILES IDX 10 1 11 2 12 3 13 4 14 5 15 6 16 7 17 8 18 9 19 10 20 11
REMARK SMILES IDX 9 12 8 13 7 14 6 15 5 16 4 17 3 18 2 19 1 20
REMARK H PARENT
REMARK Flexibility Score: inf
ROOT
ATOM      1  C   UNL     1      -5.356  20.567 -59.699  1.00  0.00     0.000 C 
ENDROOT
BRANCH   1   2
ATOM      2  C   UNL     1      -5.863  21.458 -60.846  1.00  0.00     0.000 C 
BRANCH   2   3
ATOM      3  C   UNL     1      -6.255  20.657 -62.099  1.00  0.00     0.000 C 
BRANCH   3   4
ATOM      4  C   UNL     1      -5.339  20.913 -63.314  1.00  0.00     0.000 C 
BRANCH   4   5
ATOM      5  C   UNL     1      -4.723  19.616 -63.866  1.00  0.00     0.000 C 
BRANCH   5   6
ATOM      6  C   UNL     1      -3.821  19.852 -65.092  1.00  0.00     0.000 C 
BRANCH   6   7
ATOM      7  C   UNL     1      -2.469  19.118 -65.055  1.00  0.00     0.006 C 
BRANCH   7   8
ATOM      8  C   UNL     1      -1.330  19.988 -64.509  1.00  0.00     0.053 C 
BRANCH   8   9
ATOM      9  C   UNL     1      -0.025  19.264 -64.609  1.00  0.00     0.041 C 
ATOM     10  O   UNL     1       0.054  18.053 -64.272  1.00  0.00    -0.550 OA
ATOM     11  O   UNL     1       1.092  19.911 -65.121  1.00  0.00    -0.550 OA
ENDBRANCH   8   9
ENDBRANCH   7   8
ENDBRANCH   6   7
ENDBRANCH   5   6
ENDBRANCH   4   5
ENDBRANCH   3   4
ENDBRANCH   2   3
ENDBRANCH   1   2
BRANCH   1  12
ATOM     12  C   UNL     1      -4.752  19.243 -60.211  1.00  0.00     0.000 C 
BRANCH  12  13
ATOM     13  C   UNL     1      -5.460  17.993 -59.660  1.00  0.00    -0.000 C 
BRANCH  13  14
ATOM     14  C   UNL     1      -5.868  17.005 -60.765  1.00  0.00    -0.000 C 
BRANCH  14  15
ATOM     15  C   UNL     1      -7.375  17.041 -61.064  1.00  0.00    -0.000 C 
BRANCH  15  16
ATOM     16  C   UNL     1      -7.954  15.642 -61.346  1.00  0.00    -0.000 C 
BRANCH  16  17
ATOM     17  C   UNL     1      -9.032  15.672 -62.450  1.00  0.00    -0.000 C 
BRANCH  17  18
ATOM     18  C   UNL     1      -9.199  17.052 -63.109  1.00  0.00    -0.000 C 
BRANCH  18  19
ATOM     19  C   UNL     1      -8.928  17.030 -64.619  1.00  0.00    -0.003 C 
ATOM     20  C   UNL     1      -7.519  17.527 -64.932  1.00  0.00     0.004 C 
ENDBRANCH  18  19
ENDBRANCH  17  18
ENDBRANCH  16  17
ENDBRANCH  15  16
ENDBRANCH  14  15
ENDBRANCH  13  14
ENDBRANCH  12  13
ENDBRANCH   1  12
TORSDOF 16
ENDMDL
MODEL 6
REMARK VINA RESULT:    -3.733      3.194      6.187
REMARK INTER + INTRA:          -9.374
REMARK INTER:                  -6.964
REMARK INTRA:                  -2.410
REMARK UNBOUND:                -2.149
REMARK SMILES CCCCCCCCCCCCCCCCCC(=O)[O-]
REMARK SMILES IDX 10 1 11 2 12 3 13 4 14 5 15 6 16 7 17 8 18 9 19 10 20 11
REMARK SMILES IDX 9 12 8 13 7 14 6 15 5 16 4 17 3 18 2 19 1 20
REMARK H PARENT
REMARK Flexibility Score: inf
ROOT
ATOM      1  C   UNL     1      -3.574   9.495 -57.585  1.00  0.00     0.000 C 
ENDROOT
BRANCH   1   2
ATOM      2  C   UNL     1      -3.980   8.394 -56.592  1.00  0.00     0.000 C 
BRANCH   2   3
ATOM      3  C   UNL     1      -2.801   7.882 -55.748  1.00  0.00     0.000 C 
BRANCH   3   4
ATOM      4  C   UNL     1      -2.511   6.377 -55.933  1.00  0.00     0.000 C 
BRANCH   4   5
ATOM      5  C   UNL     1      -1.371   6.121 -56.935  1.00  0.00     0.000 C 
BRANCH   5   6
ATOM      6  C   UNL     1      -0.385   5.038 -56.459  1.00  0.00     0.000 C 
BRANCH   6   7
ATOM      7  C   UNL     1      -0.284   4.875 -54.932  1.00  0.00     0.006 C 
BRANCH   7   8
ATOM      8  C   UNL     1       0.591   5.948 -54.272  1.00  0.00     0.053 C 
BRANCH   8   9
ATOM      9  C   UNL     1      -0.170   6.654 -53.196  1.00  0.00     0.041 C 
ATOM     10  O   UNL     1       0.090   7.855 -52.921  1.00  0.00    -0.550 OA
ATOM     11  O   UNL     1      -1.200   6.003 -52.530  1.00  0.00    -0.550 OA
ENDBRANCH   8   9
ENDBRANCH   7   8
ENDBRANCH   6   7
ENDBRANCH   5   6
ENDBRANCH   4   5
ENDBRANCH   3   4
ENDBRANCH   2   3
ENDBRANCH   1   2
BRANCH   1  12
ATOM     12  C   UNL     1      -3.863   9.097 -59.048  1.00  0.00     0.000 C 
BRANCH  12  13
ATOM     13  C   UNL     1      -3.157   7.799 -59.480  1.00  0.00    -0.000 C 
BRANCH  13  14
ATOM     14  C   UNL     1      -4.140   6.715 -59.951  1.00  0.00    -0.000 C 
BRANCH  14  15
ATOM     15  C   UNL     1      -4.012   5.412 -59.148  1.00  0.00    -0.000 C 
BRANCH  15  16
ATOM     16  C   UNL     1      -5.373   4.877 -58.668  1.00  0.00    -0.000 C 
BRANCH  16  17
ATOM     17  C   UNL     1      -5.727   5.378 -57.252  1.00  0.00    -0.000 C 
BRANCH  17  18
ATOM     18  C   UNL     1      -6.992   6.253 -57.207  1.00  0.00    -0.000 C 
BRANCH  18  19
ATOM     19  C   UNL     1      -7.001   7.346 -58.284  1.00  0.00    -0.003 C 
ATOM     20  C   UNL     1      -7.967   8.469 -57.921  1.00  0.00     0.004 C 
ENDBRANCH  18  19
ENDBRANCH  17  18
ENDBRANCH  16  17
ENDBRANCH  15  16
ENDBRANCH  14  15
ENDBRANCH  13  14
ENDBRANCH  12  13
ENDBRANCH   1  12
TORSDOF 16
ENDMDL
MODEL 7
REMARK VINA RESULT:    -3.709     12.060     14.736
REMARK INTER + INTRA:          -9.328
REMARK INTER:                  -6.971
REMARK INTRA:                  -2.357
REMARK UNBOUND:                -2.149
REMARK SMILES CCCCCCCCCCCCCCCCCC(=O)[O-]
REMARK SMILES IDX 10 1 11 2 12 3 13 4 14 5 15 6 16 7 17 8 18 9 19 10 20 11
REMARK SMILES IDX 9 12 8 13 7 14 6 15 5 16 4 17 3 18 2 19 1 20
REMARK H PARENT
REMARK Flexibility Score: inf
ROOT
ATOM      1  C   UNL     1      -5.734  17.707 -59.915  1.00  0.00     0.000 C 
ENDROOT
BRANCH   1   2
ATOM      2  C   UNL     1      -6.035  16.791 -61.113  1.00  0.00     0.000 C 
BRANCH   2   3
ATOM      3  C   UNL     1      -6.829  17.498 -62.224  1.00  0.00     0.000 C 
BRANCH   3   4
ATOM      4  C   UNL     1      -6.255  17.273 -63.639  1.00  0.00     0.000 C 
BRANCH   4   5
ATOM      5  C   UNL     1      -7.294  17.544 -64.741  1.00  0.00     0.000 C 
BRANCH   5   6
ATOM      6  C   UNL     1      -8.605  18.142 -64.197  1.00  0.00     0.000 C 
BRANCH   6   7
ATOM      7  C   UNL     1      -9.868  17.312 -64.487  1.00  0.00     0.006 C 
BRANCH   7   8
ATOM      8  C   UNL     1      -9.555  15.932 -65.081  1.00  0.00     0.053 C 
BRANCH   8   9
ATOM      9  C   UNL     1      -9.779  14.862 -64.061  1.00  0.00     0.041 C 
ATOM     10  O   UNL     1     -10.253  13.747 -64.408  1.00  0.00    -0.550 OA
ATOM     11  O   UNL     1      -9.419  15.074 -62.737  1.00  0.00    -0.550 OA
ENDBRANCH   8   9
ENDBRANCH   7   8
ENDBRANCH   6   7
ENDBRANCH   5   6
ENDBRANCH   4   5
ENDBRANCH   3   4
ENDBRANCH   2   3
ENDBRANCH   1   2
BRANCH   1  12
ATOM     12  C   UNL     1      -4.988  18.991 -60.335  1.00  0.00     0.000 C 
BRANCH  12  13
ATOM     13  C   UNL     1      -5.460  20.248 -59.583  1.00  0.00    -0.000 C 
BRANCH  13  14
ATOM     14  C   UNL     1      -5.732  21.436 -60.521  1.00  0.00    -0.000 C 
BRANCH  14  15
ATOM     15  C   UNL     1      -6.474  21.022 -61.801  1.00  0.00    -0.000 C 
BRANCH  15  16
ATOM     16  C   UNL     1      -5.971  21.775 -63.045  1.00  0.00    -0.000 C 
BRANCH  16  17
ATOM     17  C   UNL     1      -6.305  21.026 -64.352  1.00  0.00    -0.000 C 
BRANCH  17  18
ATOM     18  C   UNL     1      -5.062  20.543 -65.119  1.00  0.00    -0.000 C 
BRANCH  18  19
ATOM     19  C   UNL     1      -4.003  19.912 -64.205  1.00  0.00    -0.003 C 
ATOM     20  C   UNL     1      -2.830  19.369 -65.016  1.00  0.00     0.004 C 
ENDBRANCH  18  19
ENDBRANCH  17  18
ENDBRANCH  16  17
ENDBRANCH  15  16
ENDBRANCH  14  15
ENDBRANCH  13  14
ENDBRANCH  12  13
ENDBRANCH   1  12
TORSDOF 16
ENDMDL
MODEL 8
REMARK VINA RESULT:    -3.689      3.624      6.581
REMARK INTER + INTRA:          -9.290
REMARK INTER:                  -7.883
REMARK INTRA:                  -1.407
REMARK UNBOUND:                -2.149
REMARK SMILES CCCCCCCCCCCCCCCCCC(=O)[O-]
REMARK SMILES IDX 10 1 11 2 12 3 13 4 14 5 15 6 16 7 17 8 18 9 19 10 20 11
REMARK SMILES IDX 9 12 8 13 7 14 6 15 5 16 4 17 3 18 2 19 1 20
REMARK H PARENT
REMARK Flexibility Score: inf
ROOT
ATOM      1  C   UNL     1      -1.778   5.941 -56.077  1.00  0.00     0.000 C 
ENDROOT
BRANCH   1   2
ATOM      2  C   UNL     1      -1.648   7.094 -55.068  1.00  0.00     0.000 C 
BRANCH   2   3
ATOM      3  C   UNL     1      -0.358   7.018 -54.234  1.00  0.00     0.000 C 
BRANCH   3   4
ATOM      4  C   UNL     1      -0.091   5.624 -53.625  1.00  0.00     0.000 C 
BRANCH   4   5
ATOM      5  C   UNL     1      -0.421   5.570 -52.123  1.00  0.00     0.000 C 
BRANCH   5   6
ATOM      6  C   UNL     1      -1.836   5.033 -51.838  1.00  0.00     0.000 C 
BRANCH   6   7
ATOM      7  C   UNL     1      -2.303   5.175 -50.379  1.00  0.00     0.006 C 
BRANCH   7   8
ATOM      8  C   UNL     1      -3.830   5.164 -50.235  1.00  0.00     0.053 C 
BRANCH   8   9
ATOM      9  C   UNL     1      -4.232   5.675 -48.888  1.00  0.00     0.041 C 
ATOM     10  O   UNL     1      -5.270   6.377 -48.761  1.00  0.00    -0.550 OA
ATOM     11  O   UNL     1      -3.490   5.335 -47.765  1.00  0.00    -0.550 OA
ENDBRANCH   8   9
ENDBRANCH   7   8
ENDBRANCH   6   7
ENDBRANCH   5   6
ENDBRANCH   4   5
ENDBRANCH   3   4
ENDBRANCH   2   3
ENDBRANCH   1   2
BRANCH   1  12
ATOM     12  C   UNL     1      -0.672   5.980 -57.152  1.00  0.00     0.000 C 
BRANCH  12  13
ATOM     13  C   UNL     1      -1.103   6.684 -58.451  1.00  0.00    -0.000 C 
BRANCH  13  14
ATOM     14  C   UNL     1      -2.093   5.849 -59.280  1.00  0.00    -0.000 C 
BRANCH  14  15
ATOM     15  C   UNL     1      -3.425   6.577 -59.519  1.00  0.00    -0.000 C 
BRANCH  15  16
ATOM     16  C   UNL     1      -3.532   7.891 -58.724  1.00  0.00    -0.000 C 
BRANCH  16  17
ATOM     17  C   UNL     1      -4.961   8.136 -58.197  1.00  0.00    -0.000 C 
BRANCH  17  18
ATOM     18  C   UNL     1      -5.412   7.111 -57.142  1.00  0.00    -0.000 C 
BRANCH  18  19
ATOM     19  C   UNL     1      -6.844   6.608 -57.371  1.00  0.00    -0.003 C 
ATOM     20  C   UNL     1      -7.698   7.672 -58.054  1.00  0.00     0.004 C 
ENDBRANCH  18  19
ENDBRANCH  17  18
ENDBRANCH  16  17
ENDBRANCH  15  16
ENDBRANCH  14  15
ENDBRANCH  13  14
ENDBRANCH  12  13
ENDBRANCH   1  12
TORSDOF 16
ENDMDL
MODEL 9
REMARK VINA RESULT:    -3.624      2.916      5.738
REMARK INTER + INTRA:          -9.163
REMARK INTER:                  -8.126
REMARK INTRA:                  -1.038
REMARK UNBOUND:                -2.149
REMARK SMILES CCCCCCCCCCCCCCCCCC(=O)[O-]
REMARK SMILES IDX 10 1 11 2 12 3 13 4 14 5 15 6 16 7 17 8 18 9 19 10 20 11
REMARK SMILES IDX 9 12 8 13 7 14 6 15 5 16 4 17 3 18 2 19 1 20
REMARK H PARENT
REMARK Flexibility Score: inf
ROOT
ATOM      1  C   UNL     1      -0.905   7.092 -54.539  1.00  0.00     0.000 C 
ENDROOT
BRANCH   1   2
ATOM      2  C   UNL     1       0.112   6.345 -55.419  1.00  0.00     0.000 C 
BRANCH   2   3
ATOM      3  C   UNL     1      -0.491   5.117 -56.121  1.00  0.00     0.000 C 
BRANCH   3   4
ATOM      4  C   UNL     1      -0.428   5.188 -57.662  1.00  0.00     0.000 C 
BRANCH   4   5
ATOM      5  C   UNL     1      -1.803   4.956 -58.314  1.00  0.00     0.000 C 
BRANCH   5   6
ATOM      6  C   UNL     1      -2.200   6.077 -59.293  1.00  0.00     0.000 C 
BRANCH   6   7
ATOM      7  C   UNL     1      -2.024   7.507 -58.750  1.00  0.00     0.006 C 
BRANCH   7   8
ATOM      8  C   UNL     1      -3.108   7.903 -57.740  1.00  0.00     0.053 C 
BRANCH   8   9
ATOM      9  C   UNL     1      -4.274   8.523 -58.442  1.00  0.00     0.041 C 
ATOM     10  O   UNL     1      -4.251   9.745 -58.747  1.00  0.00    -0.550 OA
ATOM     11  O   UNL     1      -5.364   7.744 -58.803  1.00  0.00    -0.550 OA
ENDBRANCH   8   9
ENDBRANCH   7   8
ENDBRANCH   6   7
ENDBRANCH   5   6
ENDBRANCH   4   5
ENDBRANCH   3   4
ENDBRANCH   2   3
ENDBRANCH   1   2
BRANCH   1  12
ATOM     12  C   UNL     1      -0.763   6.728 -53.046  1.00  0.00     0.000 C 
BRANCH  12  13
ATOM     13  C   UNL     1      -1.627   5.527 -52.624  1.00  0.00    -0.000 C 
BRANCH  13  14
ATOM     14  C   UNL     1      -1.617   5.290 -51.106  1.00  0.00    -0.000 C 
BRANCH  14  15
ATOM     15  C   UNL     1      -3.031   5.213 -50.509  1.00  0.00    -0.000 C 
BRANCH  15  16
ATOM     16  C   UNL     1      -3.043   5.435 -48.986  1.00  0.00    -0.000 C 
BRANCH  16  17
ATOM     17  C   UNL     1      -4.382   6.024 -48.495  1.00  0.00    -0.000 C 
BRANCH  17  18
ATOM     18  C   UNL     1      -4.284   6.714 -47.124  1.00  0.00    -0.000 C 
BRANCH  18  19
ATOM     19  C   UNL     1      -4.435   8.238 -47.209  1.00  0.00    -0.003 C 
ATOM     20  C   UNL     1      -5.751   8.625 -47.879  1.00  0.00     0.004 C 
ENDBRANCH  18  19
ENDBRANCH  17  18
ENDBRANCH  16  17
ENDBRANCH  15  16
ENDBRANCH  14  15
ENDBRANCH  13  14
ENDBRANCH  12  13
ENDBRANCH   1  12
TORSDOF 16
ENDMDL
