MODEL 1
REMARK VINA RESULT:    -4.864      0.000      0.000
REMARK INTER + INTRA:          -7.340
REMARK INTER:                  -6.571
REMARK INTRA:                  -0.769
REMARK UNBOUND:                -0.769
REMARK SMILES CC(=O)CCC=C(C)CCC=C(C)C
REMARK SMILES IDX 7 1 6 2 8 3 9 4 10 5 11 6 13 7 12 8 14 9 5 10 4 11 2 12 3 13
REMARK SMILES IDX 1 14
REMARK H PARENT
REMARK Flexibility Score: inf
ROOT
ATOM      1  C   UNL     1      19.958  25.564  27.726  1.00  0.00    -0.077 C 
ATOM      2  C   UNL     1      20.830  26.367  28.374  1.00  0.00    -0.028 C 
ATOM      3  C   UNL     1      20.424  24.411  26.871  1.00  0.00     0.039 C 
ENDROOT
BRANCH   1   4
ATOM      4  C   UNL     1      18.476  25.843  27.852  1.00  0.00     0.034 C 
BRANCH   4   5
ATOM      5  C   UNL     1      18.149  27.284  27.437  1.00  0.00     0.032 C 
BRANCH   5   6
ATOM      6  C   UNL     1      17.536  28.040  28.587  1.00  0.00    -0.028 C 
ATOM      7  C   UNL     1      19.341  29.777  28.609  1.00  0.00     0.039 C 
ATOM      8  C   UNL     1      18.048  29.178  29.109  1.00  0.00    -0.080 C 
ATOM      9  C   UNL     1      17.301  29.856  30.227  1.00  0.00     0.039 C 
ENDBRANCH   5   6
ENDBRANCH   4   5
ENDBRANCH   1   4
BRANCH   2  10
ATOM     10  C   UNL     1      22.331  26.258  28.277  1.00  0.00     0.035 C 
BRANCH  10  11
ATOM     11  C   UNL     1      22.956  27.640  28.083  1.00  0.00     0.079 C 
BRANCH  11  12
ATOM     12  C   UNL     1      24.327  27.692  28.702  1.00  0.00     0.130 C 
ATOM     13  O   UNL     1      25.052  26.711  28.645  1.00  0.00    -0.300 OA
ATOM     14  C   UNL     1      24.823  28.931  29.384  1.00  0.00     0.087 C 
ENDBRANCH  11  12
ENDBRANCH  10  11
ENDBRANCH   2  10
TORSDOF 6
ENDMDL
MODEL 2
REMARK VINA RESULT:    -4.803      3.706      6.751
REMARK INTER + INTRA:          -7.257
REMARK INTER:                  -6.570
REMARK INTRA:                  -0.686
REMARK UNBOUND:                -0.769
REMARK SMILES CC(=O)CCC=C(C)CCC=C(C)C
REMARK SMILES IDX 7 1 6 2 8 3 9 4 10 5 11 6 13 7 12 8 14 9 5 10 4 11 2 12 3 13
REMARK SMILES IDX 1 14
REMARK H PARENT
REMARK Flexibility Score: inf
ROOT
ATOM      1  C   UNL     1      17.974  28.879  28.658  1.00  0.00    -0.077 C 
ATOM      2  C   UNL     1      16.821  28.812  29.359  1.00  0.00    -0.028 C 
ATOM      3  C   UNL     1      18.960  30.004  28.856  1.00  0.00     0.039 C 
ENDROOT
BRANCH   1   4
ATOM      4  C   UNL     1      18.271  27.802  27.637  1.00  0.00     0.034 C 
BRANCH   4   5
ATOM      5  C   UNL     1      18.258  26.411  28.284  1.00  0.00     0.032 C 
BRANCH   5   6
ATOM      6  C   UNL     1      19.099  25.447  27.487  1.00  0.00    -0.028 C 
ATOM      7  C   UNL     1      21.092  25.709  28.982  1.00  0.00     0.039 C 
ATOM      8  C   UNL     1      20.367  25.102  27.802  1.00  0.00    -0.080 C 
ATOM      9  C   UNL     1      21.072  24.087  26.942  1.00  0.00     0.039 C 
ENDBRANCH   5   6
ENDBRANCH   4   5
ENDBRANCH   1   4
BRANCH   2  10
ATOM     10  C   UNL     1      16.357  29.854  30.347  1.00  0.00     0.035 C 
BRANCH  10  11
ATOM     11  C   UNL     1      15.308  30.766  29.709  1.00  0.00     0.079 C 
BRANCH  11  12
ATOM     12  C   UNL     1      15.663  32.212  29.928  1.00  0.00     0.130 C 
ATOM     13  O   UNL     1      15.263  32.788  30.927  1.00  0.00    -0.300 OA
ATOM     14  C   UNL     1      16.510  32.959  28.942  1.00  0.00     0.087 C 
ENDBRANCH  11  12
ENDBRANCH  10  11
ENDBRANCH   2  10
TORSDOF 6
ENDMDL
MODEL 3
REMARK VINA RESULT:    -4.777      3.536      5.898
REMARK INTER + INTRA:          -7.221
REMARK INTER:                  -6.137
REMARK INTRA:                  -1.084
REMARK UNBOUND:                -0.769
REMARK SMILES CC(=O)CCC=C(C)CCC=C(C)C
REMARK SMILES IDX 7 1 6 2 8 3 9 4 10 5 11 6 13 7 12 8 14 9 5 10 4 11 2 12 3 13
REMARK SMILES IDX 1 14
REMARK H PARENT
REMARK Flexibility Score: inf
ROOT
ATOM      1  C   UNL     1      18.669  31.523  29.715  1.00  0.00    -0.077 C 
ATOM      2  C   UNL     1      18.785  30.565  28.769  1.00  0.00    -0.028 C 
ATOM      3  C   UNL     1      19.066  31.274  31.150  1.00  0.00     0.039 C 
ENDROOT
BRANCH   1   4
ATOM      4  C   UNL     1      18.109  32.873  29.323  1.00  0.00     0.034 C 
BRANCH   4   5
ATOM      5  C   UNL     1      16.639  32.757  28.896  1.00  0.00     0.032 C 
BRANCH   5   6
ATOM      6  C   UNL     1      15.746  32.621  30.101  1.00  0.00    -0.028 C 
ATOM      7  C   UNL     1      15.049  30.288  29.512  1.00  0.00     0.039 C 
ATOM      8  C   UNL     1      15.043  31.506  30.405  1.00  0.00    -0.080 C 
ATOM      9  C   UNL     1      14.228  31.492  31.672  1.00  0.00     0.039 C 
ENDBRANCH   5   6
ENDBRANCH   4   5
ENDBRANCH   1   4
BRANCH   2  10
ATOM     10  C   UNL     1      19.250  29.154  29.030  1.00  0.00     0.035 C 
BRANCH  10  11
ATOM     11  C   UNL     1      18.058  28.195  29.054  1.00  0.00     0.079 C 
BRANCH  11  12
ATOM     12  C   UNL     1      18.087  27.288  27.853  1.00  0.00     0.130 C 
ATOM     13  O   UNL     1      18.548  27.696  26.798  1.00  0.00    -0.300 OA
ATOM     14  C   UNL     1      17.565  25.885  27.930  1.00  0.00     0.087 C 
ENDBRANCH  11  12
ENDBRANCH  10  11
ENDBRANCH   2  10
TORSDOF 6
ENDMDL
MODEL 4
REMARK VINA RESULT:    -4.762      2.819      4.216
REMARK INTER + INTRA:          -7.202
REMARK INTER:                  -6.590
REMARK INTRA:                  -0.612
REMARK UNBOUND:                -0.769
REMARK SMILES CC(=O)CCC=C(C)CCC=C(C)C
REMARK SMILES IDX 7 1 6 2 8 3 9 4 10 5 11 6 13 7 12 8 14 9 5 10 4 11 2 12 3 13
REMARK SMILES IDX 1 14
REMARK H PARENT
REMARK Flexibility Score: inf
ROOT
ATOM      1  C   UNL     1      19.485  27.909  28.362  1.00  0.00    -0.077 C 
ATOM      2  C   UNL     1      20.207  26.794  28.606  1.00  0.00    -0.028 C 
ATOM      3  C   UNL     1      18.207  27.869  27.560  1.00  0.00     0.039 C 
ENDROOT
BRANCH   1   4
ATOM      4  C   UNL     1      19.984  29.234  28.897  1.00  0.00     0.034 C 
BRANCH   4   5
ATOM      5  C   UNL     1      19.008  29.815  29.928  1.00  0.00     0.032 C 
BRANCH   5   6
ATOM      6  C   UNL     1      18.407  31.102  29.424  1.00  0.00    -0.028 C 
ATOM      7  C   UNL     1      16.054  30.279  29.669  1.00  0.00     0.039 C 
ATOM      8  C   UNL     1      17.079  31.334  29.325  1.00  0.00    -0.080 C 
ATOM      9  C   UNL     1      16.619  32.687  28.850  1.00  0.00     0.039 C 
ENDBRANCH   5   6
ENDBRANCH   4   5
ENDBRANCH   1   4
BRANCH   2  10
ATOM     10  C   UNL     1      19.875  25.423  28.070  1.00  0.00     0.035 C 
BRANCH  10  11
ATOM     11  C   UNL     1      21.075  24.835  27.327  1.00  0.00     0.079 C 
BRANCH  11  12
ATOM     12  C   UNL     1      20.617  23.894  26.245  1.00  0.00     0.130 C 
ATOM     13  O   UNL     1      19.704  23.115  26.470  1.00  0.00    -0.300 OA
ATOM     14  C   UNL     1      21.257  23.900  24.890  1.00  0.00     0.087 C 
ENDBRANCH  11  12
ENDBRANCH  10  11
ENDBRANCH   2  10
TORSDOF 6
ENDMDL
MODEL 5
REMARK VINA RESULT:    -4.727      3.327      6.100
REMARK INTER + INTRA:          -7.155
REMARK INTER:                  -6.476
REMARK INTRA:                  -0.679
REMARK UNBOUND:                -0.769
REMARK SMILES CC(=O)CCC=C(C)CCC=C(C)C
REMARK SMILES IDX 7 1 6 2 8 3 9 4 10 5 11 6 13 7 12 8 14 9 5 10 4 11 2 12 3 13
REMARK SMILES IDX 1 14
REMARK H PARENT
REMARK Flexibility Score: inf
ROOT
ATOM      1  C   UNL     1      19.122  28.688  28.720  1.00  0.00    -0.077 C 
ATOM      2  C   UNL     1      18.780  29.991  28.612  1.00  0.00    -0.028 C 
ATOM      3  C   UNL     1      20.152  28.216  29.718  1.00  0.00     0.039 C 
ENDROOT
BRANCH   1   4
ATOM      4  C   UNL     1      18.464  27.682  27.801  1.00  0.00     0.034 C 
BRANCH   4   5
ATOM      5  C   UNL     1      18.632  26.254  28.337  1.00  0.00     0.032 C 
BRANCH   5   6
ATOM      6  C   UNL     1      19.111  25.331  27.245  1.00  0.00    -0.028 C 
ATOM      7  C   UNL     1      21.418  25.145  28.204  1.00  0.00     0.039 C 
ATOM      8  C   UNL     1      20.355  24.804  27.186  1.00  0.00    -0.080 C 
ATOM      9  C   UNL     1      20.681  23.855  26.063  1.00  0.00     0.039 C 
ENDBRANCH   5   6
ENDBRANCH   4   5
ENDBRANCH   1   4
BRANCH   2  10
ATOM     10  C   UNL     1      19.410  31.110  29.403  1.00  0.00     0.035 C 
BRANCH  10  11
ATOM     11  C   UNL     1      18.344  31.870  30.194  1.00  0.00     0.079 C 
BRANCH  11  12
ATOM     12  C   UNL     1      17.683  32.908  29.327  1.00  0.00     0.130 C 
ATOM     13  O   UNL     1      18.363  33.763  28.782  1.00  0.00    -0.300 OA
ATOM     14  C   UNL     1      16.199  32.906  29.113  1.00  0.00     0.087 C 
ENDBRANCH  11  12
ENDBRANCH  10  11
ENDBRANCH   2  10
TORSDOF 6
ENDMDL
MODEL 6
REMARK VINA RESULT:    -4.713      2.884      4.810
REMARK INTER + INTRA:          -7.136
REMARK INTER:                  -6.192
REMARK INTRA:                  -0.944
REMARK UNBOUND:                -0.769
REMARK SMILES CC(=O)CCC=C(C)CCC=C(C)C
REMARK SMILES IDX 7 1 6 2 8 3 9 4 10 5 11 6 13 7 12 8 14 9 5 10 4 11 2 12 3 13
REMARK SMILES IDX 1 14
REMARK H PARENT
REMARK Flexibility Score: inf
ROOT
ATOM      1  C   UNL     1      17.763  26.058  27.818  1.00  0.00    -0.077 C 
ATOM      2  C   UNL     1      18.628  25.032  27.653  1.00  0.00    -0.028 C 
ATOM      3  C   UNL     1      18.132  27.475  27.452  1.00  0.00     0.039 C 
ENDROOT
BRANCH   1   4
ATOM      4  C   UNL     1      16.397  25.774  28.401  1.00  0.00     0.034 C 
BRANCH   4   5
ATOM      5  C   UNL     1      15.467  25.153  27.350  1.00  0.00     0.032 C 
BRANCH   5   6
ATOM      6  C   UNL     1      15.113  23.737  27.724  1.00  0.00    -0.028 C 
ATOM      7  C   UNL     1      16.192  22.766  25.682  1.00  0.00     0.039 C 
ATOM      8  C   UNL     1      15.455  22.650  26.996  1.00  0.00    -0.080 C 
ATOM      9  C   UNL     1      15.078  21.288  27.516  1.00  0.00     0.039 C 
ENDBRANCH   5   6
ENDBRANCH   4   5
ENDBRANCH   1   4
BRANCH   2  10
ATOM     10  C   UNL     1      20.047  25.178  27.160  1.00  0.00     0.035 C 
BRANCH  10  11
ATOM     11  C   UNL     1      21.019  25.233  28.339  1.00  0.00     0.079 C 
BRANCH  11  12
ATOM     12  C   UNL     1      21.647  26.597  28.443  1.00  0.00     0.130 C 
ATOM     13  O   UNL     1      22.474  26.945  27.615  1.00  0.00    -0.300 OA
ATOM     14  C   UNL     1      21.270  27.542  29.543  1.00  0.00     0.087 C 
ENDBRANCH  11  12
ENDBRANCH  10  11
ENDBRANCH   2  10
TORSDOF 6
ENDMDL
MODEL 7
REMARK VINA RESULT:    -4.687      2.667      5.121
REMARK INTER + INTRA:          -7.100
REMARK INTER:                  -6.059
REMARK INTRA:                  -1.041
REMARK UNBOUND:                -0.769
REMARK SMILES CC(=O)CCC=C(C)CCC=C(C)C
REMARK SMILES IDX 7 1 6 2 8 3 9 4 10 5 11 6 13 7 12 8 14 9 5 10 4 11 2 12 3 13
REMARK SMILES IDX 1 14
REMARK H PARENT
REMARK Flexibility Score: inf
ROOT
ATOM      1  C   UNL     1      18.625  31.657  29.671  1.00  0.00    -0.077 C 
ATOM      2  C   UNL     1      18.514  30.482  29.013  1.00  0.00    -0.028 C 
ATOM      3  C   UNL     1      19.309  31.754  31.013  1.00  0.00     0.039 C 
ENDROOT
BRANCH   1   4
ATOM      4  C   UNL     1      18.031  32.902  29.049  1.00  0.00     0.034 C 
BRANCH   4   5
ATOM      5  C   UNL     1      16.527  32.730  28.801  1.00  0.00     0.032 C 
BRANCH   5   6
ATOM      6  C   UNL     1      15.780  32.644  30.107  1.00  0.00    -0.028 C 
ATOM      7  C   UNL     1      14.905  30.345  29.632  1.00  0.00     0.039 C 
ATOM      8  C   UNL     1      15.067  31.567  30.506  1.00  0.00    -0.080 C 
ATOM      9  C   UNL     1      14.412  31.600  31.862  1.00  0.00     0.039 C 
ENDBRANCH   5   6
ENDBRANCH   4   5
ENDBRANCH   1   4
BRANCH   2  10
ATOM     10  C   UNL     1      18.985  29.152  29.547  1.00  0.00     0.035 C 
BRANCH  10  11
ATOM     11  C   UNL     1      19.640  28.331  28.435  1.00  0.00     0.079 C 
BRANCH  11  12
ATOM     12  C   UNL     1      21.078  28.040  28.770  1.00  0.00     0.130 C 
ATOM     13  O   UNL     1      21.762  27.397  27.990  1.00  0.00    -0.300 OA
ATOM     14  C   UNL     1      21.691  28.534  30.046  1.00  0.00     0.087 C 
ENDBRANCH  11  12
ENDBRANCH  10  11
ENDBRANCH   2  10
TORSDOF 6
ENDMDL
MODEL 8
REMARK VINA RESULT:    -4.622      3.973      6.009
REMARK INTER + INTRA:          -7.012
REMARK INTER:                  -6.278
REMARK INTRA:                  -0.734
REMARK UNBOUND:                -0.769
REMARK SMILES CC(=O)CCC=C(C)CCC=C(C)C
REMARK SMILES IDX 7 1 6 2 8 3 9 4 10 5 11 6 13 7 12 8 14 9 5 10 4 11 2 12 3 13
REMARK SMILES IDX 1 14
REMARK H PARENT
REMARK Flexibility Score: inf
ROOT
ATOM      1  C   UNL     1      18.116  26.810  27.847  1.00  0.00    -0.077 C 
ATOM      2  C   UNL     1      16.831  26.659  28.237  1.00  0.00    -0.028 C 
ATOM      3  C   UNL     1      18.993  25.624  27.525  1.00  0.00     0.039 C 
ENDROOT
BRANCH   1   4
ATOM      4  C   UNL     1      18.691  28.206  27.749  1.00  0.00     0.034 C 
BRANCH   4   5
ATOM      5  C   UNL     1      18.676  28.905  29.115  1.00  0.00     0.032 C 
BRANCH   5   6
ATOM      6  C   UNL     1      18.302  30.357  28.963  1.00  0.00    -0.028 C 
ATOM      7  C   UNL     1      15.954  29.992  29.758  1.00  0.00     0.039 C 
ATOM      8  C   UNL     1      17.088  30.865  29.273  1.00  0.00    -0.080 C 
ATOM      9  C   UNL     1      16.868  32.347  29.118  1.00  0.00     0.039 C 
ENDBRANCH   5   6
ENDBRANCH   4   5
ENDBRANCH   1   4
BRANCH   2  10
ATOM     10  C   UNL     1      16.151  25.330  28.456  1.00  0.00     0.035 C 
BRANCH  10  11
ATOM     11  C   UNL     1      15.387  24.908  27.200  1.00  0.00     0.079 C 
BRANCH  11  12
ATOM     12  C   UNL     1      15.632  23.454  26.897  1.00  0.00     0.130 C 
ATOM     13  O   UNL     1      15.777  22.662  27.815  1.00  0.00    -0.300 OA
ATOM     14  C   UNL     1      15.694  22.957  25.485  1.00  0.00     0.087 C 
ENDBRANCH  11  12
ENDBRANCH  10  11
ENDBRANCH   2  10
TORSDOF 6
ENDMDL
MODEL 9
REMARK VINA RESULT:    -4.527      1.769      2.883
REMARK INTER + INTRA:          -6.884
REMARK INTER:                  -5.771
REMARK INTRA:                  -1.112
REMARK UNBOUND:                -0.769
REMARK SMILES CC(=O)CCC=C(C)CCC=C(C)C
REMARK SMILES IDX 7 1 6 2 8 3 9 4 10 5 11 6 13 7 12 8 14 9 5 10 4 11 2 12 3 13
REMARK SMILES IDX 1 14
REMARK H PARENT
REMARK Flexibility Score: inf
ROOT
ATOM      1  C   UNL     1      17.862  27.196  28.244  1.00  0.00    -0.077 C 
ATOM      2  C   UNL     1      18.460  26.023  28.548  1.00  0.00    -0.028 C 
ATOM      3  C   UNL     1      18.366  28.079  27.129  1.00  0.00     0.039 C 
ENDROOT
BRANCH   1   4
ATOM      4  C   UNL     1      16.666  27.638  29.059  1.00  0.00     0.034 C 
BRANCH   4   5
ATOM      5  C   UNL     1      17.071  28.677  30.113  1.00  0.00     0.032 C 
BRANCH   5   6
ATOM      6  C   UNL     1      16.463  30.018  29.797  1.00  0.00    -0.028 C 
ATOM      7  C   UNL     1      18.680  31.083  29.320  1.00  0.00     0.039 C 
ATOM      8  C   UNL     1      17.172  31.104  29.414  1.00  0.00    -0.080 C 
ATOM      9  C   UNL     1      16.426  32.369  29.080  1.00  0.00     0.039 C 
ENDBRANCH   5   6
ENDBRANCH   4   5
ENDBRANCH   1   4
BRANCH   2  10
ATOM     10  C   UNL     1      19.704  25.496  27.877  1.00  0.00     0.035 C 
BRANCH  10  11
ATOM     11  C   UNL     1      20.906  25.606  28.817  1.00  0.00     0.079 C 
BRANCH  11  12
ATOM     12  C   UNL     1      21.619  26.916  28.610  1.00  0.00     0.130 C 
ATOM     13  O   UNL     1      22.388  27.044  27.671  1.00  0.00    -0.300 OA
ATOM     14  C   UNL     1      21.395  28.074  29.536  1.00  0.00     0.087 C 
ENDBRANCH  11  12
ENDBRANCH  10  11
ENDBRANCH   2  10
TORSDOF 6
ENDMDL
