MODEL 1
REMARK VINA RESULT:    56.863      0.000      0.000
REMARK INTER + INTRA:          78.118
REMARK INTER:                  78.470
REMARK INTRA:                  -0.352
REMARK UNBOUND:                -0.352
REMARK SMILES CC[C@H](CC[C@H](C)[C@H]1CC[C@H]2[C@@H]3CC=C4C[C@H](O)CC[C@@]4(C)[C@@H]3CC[C@@]12C)C(C)C
REMARK SMILES IDX 5 1 4 2 3 3 2 4 1 5 28 6 29 7 30 8 6 9 7 10 8 11 9 12 26 13
REMARK SMILES IDX 10 14 11 15 25 16 27 17 12 18 24 19 23 20 13 21 21 22 14 23
REMARK SMILES IDX 15 24 20 25 22 26 16 27 19 28 17 29 18 30
REMARK H PARENT 18 31
REMARK Flexibility Score: inf
ROOT
ATOM      1  C   UNL     1      15.529  12.827  31.542  1.00  0.00     0.004 C 
ENDROOT
BRANCH   1   2
ATOM      2  C   UNL     1      14.713  13.858  32.353  1.00  0.00     0.004 C 
BRANCH   2   3
ATOM      3  C   UNL     1      14.277  13.292  33.738  1.00  0.00    -0.009 C 
BRANCH   3   4
ATOM      4  C   UNL     1      14.646  14.342  34.837  1.00  0.00     0.000 C 
ATOM      5  C   UNL     1      15.356  15.577  34.273  1.00  0.00     0.004 C 
ENDBRANCH   3   4
BRANCH   3   6
ATOM      6  C   UNL     1      12.752  12.906  33.732  1.00  0.00    -0.014 C 
ATOM      7  C   UNL     1      12.525  11.471  34.260  1.00  0.00     0.007 C 
ATOM      8  C   UNL     1      11.875  13.851  34.575  1.00  0.00     0.007 C 
ENDBRANCH   3   6
ENDBRANCH   2   3
ENDBRANCH   1   2
BRANCH   1   9
ATOM      9  C   UNL     1      14.734  12.092  30.427  1.00  0.00    -0.011 C 
ATOM     10  C   UNL     1      13.965  10.888  31.017  1.00  0.00     0.008 C 
BRANCH   9  11
ATOM     11  C   UNL     1      15.613  11.775  29.157  1.00  0.00    -0.002 C 
ATOM     12  C   UNL     1      14.837  11.433  27.884  1.00  0.00     0.005 C 
ATOM     13  C   UNL     1      16.717  12.814  28.716  1.00  0.00    -0.026 C 
ATOM     14  C   UNL     1      15.861  11.559  26.778  1.00  0.00     0.005 C 
ATOM     15  C   UNL     1      16.711  12.788  27.143  1.00  0.00    -0.001 C 
ATOM     16  C   UNL     1      16.488  14.253  29.261  1.00  0.00     0.007 C 
ATOM     17  C   UNL     1      18.095  12.307  29.231  1.00  0.00     0.012 C 
ATOM     18  C   UNL     1      16.152  14.088  26.460  1.00  0.00     0.000 C 
ATOM     19  C   UNL     1      17.288  15.292  28.475  1.00  0.00     0.005 C 
ATOM     20  C   UNL     1      16.766  15.424  27.028  1.00  0.00     0.003 C 
ATOM     21  C   UNL     1      16.243  13.990  24.905  1.00  0.00     0.031 C 
ATOM     22  C   UNL     1      17.771  16.154  26.059  1.00  0.00    -0.008 C 
ATOM     23  C   UNL     1      16.309  15.327  24.226  1.00  0.00    -0.027 C 
ATOM     24  C   UNL     1      17.062  16.329  24.716  1.00  0.00    -0.065 C 
ATOM     25  C   UNL     1      18.123  17.561  26.625  1.00  0.00     0.014 C 
ATOM     26  C   UNL     1      19.081  15.341  25.860  1.00  0.00     0.016 C 
ATOM     27  C   UNL     1      16.953  17.698  24.076  1.00  0.00     0.063 C 
ATOM     28  C   UNL     1      18.907  18.430  25.628  1.00  0.00     0.033 C 
ATOM     29  C   UNL     1      18.242  18.533  24.230  1.00  0.00     0.118 C 
BRANCH  29  30
ATOM     30  O   UNL     1      19.167  18.217  23.217  1.00  0.00    -0.393 OA
ATOM     31  H   UNL     1      18.652  17.916  22.424  1.00  0.00     0.210 HD
ENDBRANCH  29  30
ENDBRANCH   9  11
ENDBRANCH   1   9
TORSDOF 7
ENDMDL
MODEL 2
REMARK VINA RESULT:    56.998      0.845      1.783
REMARK INTER + INTRA:          78.305
REMARK INTER:                  76.081
REMARK INTRA:                   2.225
REMARK UNBOUND:                -0.352
REMARK SMILES CC[C@H](CC[C@H](C)[C@H]1CC[C@H]2[C@@H]3CC=C4C[C@H](O)CC[C@@]4(C)[C@@H]3CC[C@@]12C)C(C)C
REMARK SMILES IDX 5 1 4 2 3 3 2 4 1 5 28 6 29 7 30 8 6 9 7 10 8 11 9 12 26 13
REMARK SMILES IDX 10 14 11 15 25 16 27 17 12 18 24 19 23 20 13 21 21 22 14 23
REMARK SMILES IDX 15 24 20 25 22 26 16 27 19 28 17 29 18 30
REMARK H PARENT 18 31
REMARK Flexibility Score: inf
ROOT
ATOM      1  C   UNL     1      13.822  11.593  30.856  1.00  0.00     0.004 C 
ENDROOT
BRANCH   1   2
ATOM      2  C   UNL     1      13.388  10.904  32.170  1.00  0.00     0.004 C 
BRANCH   2   3
ATOM      3  C   UNL     1      12.513  11.841  33.054  1.00  0.00    -0.009 C 
BRANCH   3   4
ATOM      4  C   UNL     1      11.877  10.986  34.198  1.00  0.00     0.000 C 
ATOM      5  C   UNL     1      12.048  11.614  35.584  1.00  0.00     0.004 C 
ENDBRANCH   3   4
BRANCH   3   6
ATOM      6  C   UNL     1      13.352  13.062  33.582  1.00  0.00    -0.014 C 
ATOM      7  C   UNL     1      12.460  14.297  33.845  1.00  0.00     0.007 C 
ATOM      8  C   UNL     1      14.121  12.764  34.883  1.00  0.00     0.007 C 
ENDBRANCH   3   6
ENDBRANCH   2   3
ENDBRANCH   1   2
BRANCH   1   9
ATOM      9  C   UNL     1      15.331  11.954  30.772  1.00  0.00    -0.011 C 
ATOM     10  C   UNL     1      15.573  13.386  31.300  1.00  0.00     0.008 C 
BRANCH   9  11
ATOM     11  C   UNL     1      15.957  11.640  29.359  1.00  0.00    -0.002 C 
ATOM     12  C   UNL     1      14.955  11.407  28.228  1.00  0.00     0.005 C 
ATOM     13  C   UNL     1      17.041  12.627  28.771  1.00  0.00    -0.026 C 
ATOM     14  C   UNL     1      15.782  11.518  26.967  1.00  0.00     0.005 C 
ATOM     15  C   UNL     1      16.766  12.673  27.222  1.00  0.00    -0.001 C 
ATOM     16  C   UNL     1      17.009  14.051  29.396  1.00  0.00     0.007 C 
ATOM     17  C   UNL     1      18.447  12.010  29.023  1.00  0.00     0.012 C 
ATOM     18  C   UNL     1      16.192  14.036  26.691  1.00  0.00     0.000 C 
ATOM     19  C   UNL     1      17.735  15.071  28.520  1.00  0.00     0.005 C 
ATOM     20  C   UNL     1      16.986  15.303  27.190  1.00  0.00     0.003 C 
ATOM     21  C   UNL     1      16.011  14.004  25.141  1.00  0.00     0.031 C 
ATOM     22  C   UNL     1      17.862  16.011  26.088  1.00  0.00    -0.008 C 
ATOM     23  C   UNL     1      16.055  15.364  24.507  1.00  0.00    -0.027 C 
ATOM     24  C   UNL     1      16.949  16.293  24.894  1.00  0.00    -0.065 C 
ATOM     25  C   UNL     1      18.402  17.366  26.634  1.00  0.00     0.014 C 
ATOM     26  C   UNL     1      19.058  15.127  25.639  1.00  0.00     0.016 C 
ATOM     27  C   UNL     1      16.830  17.694  24.330  1.00  0.00     0.063 C 
ATOM     28  C   UNL     1      19.065  18.228  25.547  1.00  0.00     0.033 C 
ATOM     29  C   UNL     1      18.182  18.437  24.288  1.00  0.00     0.118 C 
BRANCH  29  30
ATOM     30  O   UNL     1      18.897  18.110  23.121  1.00  0.00    -0.393 OA
ATOM     31  H   UNL     1      19.505  18.867  22.920  1.00  0.00     0.210 HD
ENDBRANCH  29  30
ENDBRANCH   9  11
ENDBRANCH   1   9
TORSDOF 7
ENDMDL
