MODEL 1
REMARK VINA RESULT:    -6.668      0.000      0.000
REMARK INTER + INTRA:         -10.686
REMARK INTER:                  -9.397
REMARK INTRA:                  -1.289
REMARK UNBOUND:                -1.289
REMARK SMILES O=C(C=Cc1ccc(O)cc1)CC(=O)C=Cc1ccc(O)cc1
REMARK SMILES IDX 12 1 2 2 1 3 3 4 4 5 5 6 6 7 7 8 8 9 11 10 10 11 9 12 13 14
REMARK SMILES IDX 14 15 15 16 16 17 17 18 18 19 23 20 19 21 22 22 20 23 21 24
REMARK H PARENT 9 13 21 25
REMARK Flexibility Score: inf
ROOT
ATOM      1  C   UNL     1      -4.014  25.495  48.250  1.00  0.00     0.160 C 
ENDROOT
BRANCH   1   2
ATOM      2  C   UNL     1      -5.133  25.826  49.196  1.00  0.00     0.163 C 
ATOM      3  O   UNL     1      -5.436  27.034  49.389  1.00  0.00    -0.294 OA
BRANCH   2   4
ATOM      4  C   UNL     1      -5.785  24.745  49.967  1.00  0.00     0.048 C 
ATOM      5  C   UNL     1      -5.300  24.181  51.085  1.00  0.00     0.012 C 
BRANCH   5   6
ATOM      6  C   UNL     1      -4.125  24.662  51.844  1.00  0.00    -0.025 A 
ATOM      7  C   UNL     1      -4.227  25.742  52.738  1.00  0.00     0.012 A 
ATOM      8  C   UNL     1      -3.114  26.147  53.482  1.00  0.00     0.047 A 
ATOM      9  C   UNL     1      -1.899  25.468  53.357  1.00  0.00     0.115 A 
ATOM     10  C   UNL     1      -2.912  23.965  51.745  1.00  0.00     0.012 A 
ATOM     11  C   UNL     1      -1.801  24.371  52.489  1.00  0.00     0.047 A 
BRANCH   9  12
ATOM     12  O   UNL     1      -0.797  25.884  54.102  1.00  0.00    -0.508 OA
ATOM     13  H   UNL     1      -0.180  26.616  53.772  1.00  0.00     0.293 HD
ENDBRANCH   9  12
ENDBRANCH   5   6
ENDBRANCH   2   4
ENDBRANCH   1   2
BRANCH   1  14
ATOM     14  C   UNL     1      -4.391  24.417  47.261  1.00  0.00     0.163 C 
ATOM     15  O   UNL     1      -5.286  24.637  46.399  1.00  0.00    -0.294 OA
BRANCH  14  16
ATOM     16  C   UNL     1      -3.733  23.092  47.258  1.00  0.00     0.048 C 
ATOM     17  C   UNL     1      -4.340  21.966  47.663  1.00  0.00     0.012 C 
BRANCH  17  18
ATOM     18  C   UNL     1      -3.682  20.636  47.672  1.00  0.00    -0.025 A 
ATOM     19  C   UNL     1      -3.804  19.737  48.751  1.00  0.00     0.012 A 
ATOM     20  C   UNL     1      -2.876  20.276  46.578  1.00  0.00     0.012 A 
ATOM     21  C   UNL     1      -3.155  18.500  48.717  1.00  0.00     0.047 A 
ATOM     22  C   UNL     1      -2.230  19.037  46.549  1.00  0.00     0.047 A 
ATOM     23  C   UNL     1      -2.368  18.145  47.615  1.00  0.00     0.115 A 
BRANCH  23  24
ATOM     24  O   UNL     1      -1.718  16.914  47.571  1.00  0.00    -0.508 OA
ATOM     25  H   UNL     1      -0.861  16.787  47.046  1.00  0.00     0.293 HD
ENDBRANCH  23  24
ENDBRANCH  17  18
ENDBRANCH  14  16
ENDBRANCH   1  14
TORSDOF 8
ENDMDL
MODEL 2
REMARK VINA RESULT:    -6.537      2.029      4.546
REMARK INTER + INTRA:         -10.502
REMARK INTER:                  -7.966
REMARK INTRA:                  -2.535
REMARK UNBOUND:                -1.289
REMARK SMILES O=C(C=Cc1ccc(O)cc1)CC(=O)C=Cc1ccc(O)cc1
REMARK SMILES IDX 12 1 2 2 1 3 3 4 4 5 5 6 6 7 7 8 8 9 11 10 10 11 9 12 13 14
REMARK SMILES IDX 14 15 15 16 16 17 17 18 18 19 23 20 19 21 22 22 20 23 21 24
REMARK H PARENT 9 13 21 25
REMARK Flexibility Score: inf
ROOT
ATOM      1  C   UNL     1      -1.989  26.313  51.713  1.00  0.00     0.160 C 
ENDROOT
BRANCH   1   2
ATOM      2  C   UNL     1      -3.357  26.190  52.321  1.00  0.00     0.163 C 
ATOM      3  O   UNL     1      -3.656  25.140  52.952  1.00  0.00    -0.294 OA
BRANCH   2   4
ATOM      4  C   UNL     1      -4.365  27.246  52.081  1.00  0.00     0.048 C 
ATOM      5  C   UNL     1      -5.092  27.391  50.962  1.00  0.00     0.012 C 
BRANCH   5   6
ATOM      6  C   UNL     1      -5.150  26.419  49.849  1.00  0.00    -0.025 A 
ATOM      7  C   UNL     1      -6.019  25.315  49.888  1.00  0.00     0.012 A 
ATOM      8  C   UNL     1      -6.092  24.438  48.801  1.00  0.00     0.047 A 
ATOM      9  C   UNL     1      -5.316  24.664  47.661  1.00  0.00     0.115 A 
ATOM     10  C   UNL     1      -4.396  26.659  48.690  1.00  0.00     0.012 A 
ATOM     11  C   UNL     1      -4.470  25.781  47.605  1.00  0.00     0.047 A 
BRANCH   9  12
ATOM     12  O   UNL     1      -5.397  23.781  46.586  1.00  0.00    -0.508 OA
ATOM     13  H   UNL     1      -6.082  23.904  45.850  1.00  0.00     0.293 HD
ENDBRANCH   9  12
ENDBRANCH   5   6
ENDBRANCH   2   4
ENDBRANCH   1   2
BRANCH   1  14
ATOM     14  C   UNL     1      -1.360  24.969  51.426  1.00  0.00     0.163 C 
ATOM     15  O   UNL     1      -0.562  24.457  52.258  1.00  0.00    -0.294 OA
BRANCH  14  16
ATOM     16  C   UNL     1      -1.656  24.213  50.190  1.00  0.00     0.048 C 
ATOM     17  C   UNL     1      -2.559  23.222  50.129  1.00  0.00     0.012 C 
BRANCH  17  18
ATOM     18  C   UNL     1      -2.853  22.453  48.895  1.00  0.00    -0.025 A 
ATOM     19  C   UNL     1      -3.846  21.454  48.843  1.00  0.00     0.012 A 
ATOM     20  C   UNL     1      -2.084  22.705  47.746  1.00  0.00     0.012 A 
ATOM     21  C   UNL     1      -4.077  20.749  47.658  1.00  0.00     0.047 A 
ATOM     22  C   UNL     1      -2.319  21.998  46.563  1.00  0.00     0.047 A 
ATOM     23  C   UNL     1      -3.316  21.020  46.515  1.00  0.00     0.115 A 
BRANCH  23  24
ATOM     24  O   UNL     1      -3.540  20.324  45.329  1.00  0.00    -0.508 OA
ATOM     25  H   UNL     1      -3.007  20.523  44.490  1.00  0.00     0.293 HD
ENDBRANCH  23  24
ENDBRANCH  17  18
ENDBRANCH  14  16
ENDBRANCH   1  14
TORSDOF 8
ENDMDL
MODEL 3
REMARK VINA RESULT:    -6.463      3.169      7.586
REMARK INTER + INTRA:         -10.397
REMARK INTER:                  -8.887
REMARK INTRA:                  -1.510
REMARK UNBOUND:                -1.289
REMARK SMILES O=C(C=Cc1ccc(O)cc1)CC(=O)C=Cc1ccc(O)cc1
REMARK SMILES IDX 12 1 2 2 1 3 3 4 4 5 5 6 6 7 7 8 8 9 11 10 10 11 9 12 13 14
REMARK SMILES IDX 14 15 15 16 16 17 17 18 18 19 23 20 19 21 22 22 20 23 21 24
REMARK H PARENT 9 13 21 25
REMARK Flexibility Score: inf
ROOT
ATOM      1  C   UNL     1      -3.742  27.839  51.812  1.00  0.00     0.160 C 
ENDROOT
BRANCH   1   2
ATOM      2  C   UNL     1      -2.982  26.550  51.939  1.00  0.00     0.163 C 
ATOM      3  O   UNL     1      -1.887  26.421  51.329  1.00  0.00    -0.294 OA
BRANCH   2   4
ATOM      4  C   UNL     1      -3.578  25.417  52.682  1.00  0.00     0.048 C 
ATOM      5  C   UNL     1      -4.366  24.466  52.155  1.00  0.00     0.012 C 
BRANCH   5   6
ATOM      6  C   UNL     1      -4.628  24.277  50.712  1.00  0.00    -0.025 A 
ATOM      7  C   UNL     1      -3.698  23.629  49.880  1.00  0.00     0.012 A 
ATOM      8  C   UNL     1      -3.990  23.417  48.529  1.00  0.00     0.047 A 
ATOM      9  C   UNL     1      -5.217  23.829  48.002  1.00  0.00     0.115 A 
ATOM     10  C   UNL     1      -5.870  24.661  50.185  1.00  0.00     0.012 A 
ATOM     11  C   UNL     1      -6.160  24.448  48.834  1.00  0.00     0.047 A 
BRANCH   9  12
ATOM     12  O   UNL     1      -5.494  23.613  46.653  1.00  0.00    -0.508 OA
ATOM     13  H   UNL     1      -5.006  24.121  45.924  1.00  0.00     0.293 HD
ENDBRANCH   9  12
ENDBRANCH   5   6
ENDBRANCH   2   4
ENDBRANCH   1   2
BRANCH   1  14
ATOM     14  C   UNL     1      -4.133  28.143  50.384  1.00  0.00     0.163 C 
ATOM     15  O   UNL     1      -3.252  28.493  49.551  1.00  0.00    -0.294 OA
BRANCH  14  16
ATOM     16  C   UNL     1      -5.531  28.036  49.915  1.00  0.00     0.048 C 
ATOM     17  C   UNL     1      -5.927  28.407  48.688  1.00  0.00     0.012 C 
BRANCH  17  18
ATOM     18  C   UNL     1      -7.331  28.311  48.215  1.00  0.00    -0.025 A 
ATOM     19  C   UNL     1      -7.814  29.058  47.121  1.00  0.00     0.012 A 
ATOM     20  C   UNL     1      -8.220  27.473  48.910  1.00  0.00     0.012 A 
ATOM     21  C   UNL     1      -9.148  28.941  46.721  1.00  0.00     0.047 A 
ATOM     22  C   UNL     1      -9.553  27.360  48.505  1.00  0.00     0.047 A 
ATOM     23  C   UNL     1     -10.021  28.090  47.410  1.00  0.00     0.115 A 
BRANCH  23  24
ATOM     24  O   UNL     1     -11.352  27.967  47.018  1.00  0.00    -0.508 OA
ATOM     25  H   UNL     1     -12.001  27.380  47.529  1.00  0.00     0.293 HD
ENDBRANCH  23  24
ENDBRANCH  17  18
ENDBRANCH  14  16
ENDBRANCH   1  14
TORSDOF 8
ENDMDL
MODEL 4
REMARK VINA RESULT:    -6.463      2.264      4.923
REMARK INTER + INTRA:         -10.397
REMARK INTER:                  -7.999
REMARK INTRA:                  -2.397
REMARK UNBOUND:                -1.289
REMARK SMILES O=C(C=Cc1ccc(O)cc1)CC(=O)C=Cc1ccc(O)cc1
REMARK SMILES IDX 12 1 2 2 1 3 3 4 4 5 5 6 6 7 7 8 8 9 11 10 10 11 9 12 13 14
REMARK SMILES IDX 14 15 15 16 16 17 17 18 18 19 23 20 19 21 22 22 20 23 21 24
REMARK H PARENT 9 13 21 25
REMARK Flexibility Score: inf
ROOT
ATOM      1  C   UNL     1      -4.590  27.480  51.117  1.00  0.00     0.160 C 
ENDROOT
BRANCH   1   2
ATOM      2  C   UNL     1      -5.829  27.569  50.272  1.00  0.00     0.163 C 
ATOM      3  O   UNL     1      -6.729  26.697  50.410  1.00  0.00    -0.294 OA
BRANCH   2   4
ATOM      4  C   UNL     1      -5.927  28.605  49.220  1.00  0.00     0.048 C 
ATOM      5  C   UNL     1      -5.418  28.509  47.981  1.00  0.00     0.012 C 
BRANCH   5   6
ATOM      6  C   UNL     1      -4.832  27.288  47.390  1.00  0.00    -0.025 A 
ATOM      7  C   UNL     1      -5.623  26.373  46.672  1.00  0.00     0.012 A 
ATOM      8  C   UNL     1      -5.037  25.250  46.079  1.00  0.00     0.047 A 
ATOM      9  C   UNL     1      -3.658  25.040  46.178  1.00  0.00     0.115 A 
ATOM     10  C   UNL     1      -3.445  27.089  47.460  1.00  0.00     0.012 A 
ATOM     11  C   UNL     1      -2.862  25.966  46.867  1.00  0.00     0.047 A 
BRANCH   9  12
ATOM     12  O   UNL     1      -3.088  23.916  45.584  1.00  0.00    -0.508 OA
ATOM     13  H   UNL     1      -2.181  23.957  45.136  1.00  0.00     0.293 HD
ENDBRANCH   9  12
ENDBRANCH   5   6
ENDBRANCH   2   4
ENDBRANCH   1   2
BRANCH   1  14
ATOM     14  C   UNL     1      -4.253  26.058  51.503  1.00  0.00     0.163 C 
ATOM     15  O   UNL     1      -4.268  25.715  52.718  1.00  0.00    -0.294 OA
BRANCH  14  16
ATOM     16  C   UNL     1      -3.908  25.033  50.495  1.00  0.00     0.048 C 
ATOM     17  C   UNL     1      -4.706  23.999  50.192  1.00  0.00     0.012 C 
BRANCH  17  18
ATOM     18  C   UNL     1      -4.361  22.961  49.189  1.00  0.00    -0.025 A 
ATOM     19  C   UNL     1      -3.061  22.430  49.065  1.00  0.00     0.012 A 
ATOM     20  C   UNL     1      -5.360  22.520  48.305  1.00  0.00     0.012 A 
ATOM     21  C   UNL     1      -2.783  21.461  48.096  1.00  0.00     0.047 A 
ATOM     22  C   UNL     1      -5.077  21.551  47.338  1.00  0.00     0.047 A 
ATOM     23  C   UNL     1      -3.791  21.018  47.231  1.00  0.00     0.115 A 
BRANCH  23  24
ATOM     24  O   UNL     1      -3.524  20.053  46.263  1.00  0.00    -0.508 OA
ATOM     25  H   UNL     1      -4.270  19.543  45.804  1.00  0.00     0.293 HD
ENDBRANCH  23  24
ENDBRANCH  17  18
ENDBRANCH  14  16
ENDBRANCH   1  14
TORSDOF 8
ENDMDL
MODEL 5
REMARK VINA RESULT:    -6.450      2.620      6.358
REMARK INTER + INTRA:         -10.379
REMARK INTER:                  -7.846
REMARK INTRA:                  -2.533
REMARK UNBOUND:                -1.289
REMARK SMILES O=C(C=Cc1ccc(O)cc1)CC(=O)C=Cc1ccc(O)cc1
REMARK SMILES IDX 12 1 2 2 1 3 3 4 4 5 5 6 6 7 7 8 8 9 11 10 10 11 9 12 13 14
REMARK SMILES IDX 14 15 15 16 16 17 17 18 18 19 23 20 19 21 22 22 20 23 21 24
REMARK H PARENT 9 13 21 25
REMARK Flexibility Score: inf
ROOT
ATOM      1  C   UNL     1      -2.424  19.191  48.300  1.00  0.00     0.160 C 
ENDROOT
BRANCH   1   2
ATOM      2  C   UNL     1      -1.753  19.601  47.020  1.00  0.00     0.163 C 
ATOM      3  O   UNL     1      -2.404  19.548  45.942  1.00  0.00    -0.294 OA
BRANCH   2   4
ATOM      4  C   UNL     1      -0.315  19.951  47.024  1.00  0.00     0.048 C 
ATOM      5  C   UNL     1       0.190  21.170  47.276  1.00  0.00     0.012 C 
BRANCH   5   6
ATOM      6  C   UNL     1      -0.582  22.329  47.772  1.00  0.00    -0.025 A 
ATOM      7  C   UNL     1      -0.879  22.477  49.138  1.00  0.00     0.012 A 
ATOM      8  C   UNL     1      -1.568  23.607  49.591  1.00  0.00     0.047 A 
ATOM      9  C   UNL     1      -1.946  24.608  48.690  1.00  0.00     0.115 A 
ATOM     10  C   UNL     1      -0.936  23.350  46.878  1.00  0.00     0.012 A 
ATOM     11  C   UNL     1      -1.624  24.479  47.332  1.00  0.00     0.047 A 
BRANCH   9  12
ATOM     12  O   UNL     1      -2.632  25.728  49.155  1.00  0.00    -0.508 OA
ATOM     13  H   UNL     1      -2.835  25.854  50.140  1.00  0.00     0.293 HD
ENDBRANCH   9  12
ENDBRANCH   5   6
ENDBRANCH   2   4
ENDBRANCH   1   2
BRANCH   1  14
ATOM     14  C   UNL     1      -3.866  19.639  48.368  1.00  0.00     0.163 C 
ATOM     15  O   UNL     1      -4.794  18.786  48.306  1.00  0.00    -0.294 OA
BRANCH  14  16
ATOM     16  C   UNL     1      -4.238  21.062  48.515  1.00  0.00     0.048 C 
ATOM     17  C   UNL     1      -4.813  21.779  47.539  1.00  0.00     0.012 C 
BRANCH  17  18
ATOM     18  C   UNL     1      -5.179  23.211  47.678  1.00  0.00    -0.025 A 
ATOM     19  C   UNL     1      -5.028  24.138  46.626  1.00  0.00     0.012 A 
ATOM     20  C   UNL     1      -5.660  23.665  48.918  1.00  0.00     0.012 A 
ATOM     21  C   UNL     1      -5.377  25.479  46.810  1.00  0.00     0.047 A 
ATOM     22  C   UNL     1      -6.008  25.007  49.097  1.00  0.00     0.047 A 
ATOM     23  C   UNL     1      -5.870  25.917  48.045  1.00  0.00     0.115 A 
BRANCH  23  24
ATOM     24  O   UNL     1      -6.222  27.250  48.238  1.00  0.00    -0.508 OA
ATOM     25  H   UNL     1      -6.913  27.520  48.928  1.00  0.00     0.293 HD
ENDBRANCH  23  24
ENDBRANCH  17  18
ENDBRANCH  14  16
ENDBRANCH   1  14
TORSDOF 8
ENDMDL
MODEL 6
REMARK VINA RESULT:    -6.402      2.136      3.272
REMARK INTER + INTRA:         -10.311
REMARK INTER:                  -8.949
REMARK INTRA:                  -1.363
REMARK UNBOUND:                -1.289
REMARK SMILES O=C(C=Cc1ccc(O)cc1)CC(=O)C=Cc1ccc(O)cc1
REMARK SMILES IDX 12 1 2 2 1 3 3 4 4 5 5 6 6 7 7 8 8 9 11 10 10 11 9 12 13 14
REMARK SMILES IDX 14 15 15 16 16 17 17 18 18 19 23 20 19 21 22 22 20 23 21 24
REMARK H PARENT 9 13 21 25
REMARK Flexibility Score: inf
ROOT
ATOM      1  C   UNL     1      -4.408  27.764  50.010  1.00  0.00     0.160 C 
ENDROOT
BRANCH   1   2
ATOM      2  C   UNL     1      -3.643  27.755  51.302  1.00  0.00     0.163 C 
ATOM      3  O   UNL     1      -2.402  27.976  51.282  1.00  0.00    -0.294 OA
BRANCH   2   4
ATOM      4  C   UNL     1      -4.328  27.381  52.559  1.00  0.00     0.048 C 
ATOM      5  C   UNL     1      -3.974  26.372  53.370  1.00  0.00     0.012 C 
BRANCH   5   6
ATOM      6  C   UNL     1      -2.735  25.574  53.251  1.00  0.00    -0.025 A 
ATOM      7  C   UNL     1      -1.608  25.852  54.044  1.00  0.00     0.012 A 
ATOM      8  C   UNL     1      -0.465  25.052  53.949  1.00  0.00     0.047 A 
ATOM      9  C   UNL     1      -0.442  23.958  53.079  1.00  0.00     0.115 A 
ATOM     10  C   UNL     1      -2.718  24.456  52.403  1.00  0.00     0.012 A 
ATOM     11  C   UNL     1      -1.574  23.659  52.309  1.00  0.00     0.047 A 
BRANCH   9  12
ATOM     12  O   UNL     1       0.704  23.171  52.993  1.00  0.00    -0.508 OA
ATOM     13  H   UNL     1       0.859  22.391  53.621  1.00  0.00     0.293 HD
ENDBRANCH   9  12
ENDBRANCH   5   6
ENDBRANCH   2   4
ENDBRANCH   1   2
BRANCH   1  14
ATOM     14  C   UNL     1      -5.627  26.872  50.053  1.00  0.00     0.163 C 
ATOM     15  O   UNL     1      -6.749  27.352  50.373  1.00  0.00    -0.294 OA
BRANCH  14  16
ATOM     16  C   UNL     1      -5.557  25.433  49.719  1.00  0.00     0.048 C 
ATOM     17  C   UNL     1      -4.494  24.862  49.133  1.00  0.00     0.012 C 
BRANCH  17  18
ATOM     18  C   UNL     1      -4.422  23.421  48.786  1.00  0.00    -0.025 A 
ATOM     19  C   UNL     1      -3.363  22.592  49.208  1.00  0.00     0.012 A 
ATOM     20  C   UNL     1      -5.430  22.873  47.975  1.00  0.00     0.012 A 
ATOM     21  C   UNL     1      -3.335  21.242  48.845  1.00  0.00     0.047 A 
ATOM     22  C   UNL     1      -5.398  21.522  47.616  1.00  0.00     0.047 A 
ATOM     23  C   UNL     1      -4.353  20.703  48.050  1.00  0.00     0.115 A 
BRANCH  23  24
ATOM     24  O   UNL     1      -4.335  19.359  47.685  1.00  0.00    -0.508 OA
ATOM     25  H   UNL     1      -4.866  18.664  48.197  1.00  0.00     0.293 HD
ENDBRANCH  23  24
ENDBRANCH  17  18
ENDBRANCH  14  16
ENDBRANCH   1  14
TORSDOF 8
ENDMDL
MODEL 7
REMARK VINA RESULT:    -6.363      1.913      4.163
REMARK INTER + INTRA:         -10.257
REMARK INTER:                  -8.452
REMARK INTRA:                  -1.805
REMARK UNBOUND:                -1.289
REMARK SMILES O=C(C=Cc1ccc(O)cc1)CC(=O)C=Cc1ccc(O)cc1
REMARK SMILES IDX 12 1 2 2 1 3 3 4 4 5 5 6 6 7 7 8 8 9 11 10 10 11 9 12 13 14
REMARK SMILES IDX 14 15 15 16 16 17 17 18 18 19 23 20 19 21 22 22 20 23 21 24
REMARK H PARENT 9 13 21 25
REMARK Flexibility Score: inf
ROOT
ATOM      1  C   UNL     1      -1.373  24.154  51.227  1.00  0.00     0.160 C 
ENDROOT
BRANCH   1   2
ATOM      2  C   UNL     1      -2.531  25.066  51.512  1.00  0.00     0.163 C 
ATOM      3  O   UNL     1      -2.397  26.305  51.327  1.00  0.00    -0.294 OA
BRANCH   2   4
ATOM      4  C   UNL     1      -3.769  24.516  52.108  1.00  0.00     0.048 C 
ATOM      5  C   UNL     1      -4.931  24.330  51.461  1.00  0.00     0.012 C 
BRANCH   5   6
ATOM      6  C   UNL     1      -5.127  24.466  50.002  1.00  0.00    -0.025 A 
ATOM      7  C   UNL     1      -5.282  25.727  49.401  1.00  0.00     0.012 A 
ATOM      8  C   UNL     1      -5.417  25.834  48.013  1.00  0.00     0.047 A 
ATOM      9  C   UNL     1      -5.378  24.689  47.212  1.00  0.00     0.115 A 
ATOM     10  C   UNL     1      -5.058  23.323  49.191  1.00  0.00     0.012 A 
ATOM     11  C   UNL     1      -5.194  23.432  47.805  1.00  0.00     0.047 A 
BRANCH   9  12
ATOM     12  O   UNL     1      -5.515  24.810  45.831  1.00  0.00    -0.508 OA
ATOM     13  H   UNL     1      -6.422  24.946  45.399  1.00  0.00     0.293 HD
ENDBRANCH   9  12
ENDBRANCH   5   6
ENDBRANCH   2   4
ENDBRANCH   1   2
BRANCH   1  14
ATOM     14  C   UNL     1      -0.995  24.138  49.764  1.00  0.00     0.163 C 
ATOM     15  O   UNL     1      -0.262  25.052  49.293  1.00  0.00    -0.294 OA
BRANCH  14  16
ATOM     16  C   UNL     1      -1.450  23.070  48.848  1.00  0.00     0.048 C 
ATOM     17  C   UNL     1      -1.942  21.896  49.270  1.00  0.00     0.012 C 
BRANCH  17  18
ATOM     18  C   UNL     1      -2.391  20.817  48.355  1.00  0.00    -0.025 A 
ATOM     19  C   UNL     1      -1.851  20.644  47.065  1.00  0.00     0.012 A 
ATOM     20  C   UNL     1      -3.420  19.960  48.780  1.00  0.00     0.012 A 
ATOM     21  C   UNL     1      -2.316  19.619  46.236  1.00  0.00     0.047 A 
ATOM     22  C   UNL     1      -3.881  18.935  47.948  1.00  0.00     0.047 A 
ATOM     23  C   UNL     1      -3.330  18.760  46.676  1.00  0.00     0.115 A 
BRANCH  23  24
ATOM     24  O   UNL     1      -3.799  17.735  45.858  1.00  0.00    -0.508 OA
ATOM     25  H   UNL     1      -4.364  17.928  45.039  1.00  0.00     0.293 HD
ENDBRANCH  23  24
ENDBRANCH  17  18
ENDBRANCH  14  16
ENDBRANCH   1  14
TORSDOF 8
ENDMDL
MODEL 8
REMARK VINA RESULT:    -6.355      1.732      2.426
REMARK INTER + INTRA:         -10.245
REMARK INTER:                  -8.772
REMARK INTRA:                  -1.473
REMARK UNBOUND:                -1.289
REMARK SMILES O=C(C=Cc1ccc(O)cc1)CC(=O)C=Cc1ccc(O)cc1
REMARK SMILES IDX 12 1 2 2 1 3 3 4 4 5 5 6 6 7 7 8 8 9 11 10 10 11 9 12 13 14
REMARK SMILES IDX 14 15 15 16 16 17 17 18 18 19 23 20 19 21 22 22 20 23 21 24
REMARK H PARENT 9 13 21 25
REMARK Flexibility Score: inf
ROOT
ATOM      1  C   UNL     1      -6.341  25.927  48.498  1.00  0.00     0.160 C 
ENDROOT
BRANCH   1   2
ATOM      2  C   UNL     1      -6.174  27.084  49.440  1.00  0.00     0.163 C 
ATOM      3  O   UNL     1      -7.093  27.343  50.263  1.00  0.00    -0.294 OA
BRANCH   2   4
ATOM      4  C   UNL     1      -4.992  27.966  49.318  1.00  0.00     0.048 C 
ATOM      5  C   UNL     1      -3.811  27.777  49.928  1.00  0.00     0.012 C 
BRANCH   5   6
ATOM      6  C   UNL     1      -3.421  26.565  50.680  1.00  0.00    -0.025 A 
ATOM      7  C   UNL     1      -2.584  25.590  50.110  1.00  0.00     0.012 A 
ATOM      8  C   UNL     1      -2.189  24.477  50.858  1.00  0.00     0.047 A 
ATOM      9  C   UNL     1      -2.607  24.336  52.184  1.00  0.00     0.115 A 
ATOM     10  C   UNL     1      -3.813  26.434  52.021  1.00  0.00     0.012 A 
ATOM     11  C   UNL     1      -3.418  25.320  52.767  1.00  0.00     0.047 A 
BRANCH   9  12
ATOM     12  O   UNL     1      -2.207  23.220  52.917  1.00  0.00    -0.508 OA
ATOM     13  H   UNL     1      -2.562  22.294  52.708  1.00  0.00     0.293 HD
ENDBRANCH   9  12
ENDBRANCH   5   6
ENDBRANCH   2   4
ENDBRANCH   1   2
BRANCH   1  14
ATOM     14  C   UNL     1      -5.947  24.608  49.123  1.00  0.00     0.163 C 
ATOM     15  O   UNL     1      -6.116  24.422  50.360  1.00  0.00    -0.294 OA
BRANCH  14  16
ATOM     16  C   UNL     1      -5.369  23.505  48.326  1.00  0.00     0.048 C 
ATOM     17  C   UNL     1      -4.636  22.516  48.859  1.00  0.00     0.012 C 
BRANCH  17  18
ATOM     18  C   UNL     1      -4.045  21.412  48.063  1.00  0.00    -0.025 A 
ATOM     19  C   UNL     1      -4.112  20.063  48.470  1.00  0.00     0.012 A 
ATOM     20  C   UNL     1      -3.359  21.728  46.878  1.00  0.00     0.012 A 
ATOM     21  C   UNL     1      -3.529  19.060  47.691  1.00  0.00     0.047 A 
ATOM     22  C   UNL     1      -2.779  20.721  46.101  1.00  0.00     0.047 A 
ATOM     23  C   UNL     1      -2.863  19.386  46.503  1.00  0.00     0.115 A 
BRANCH  23  24
ATOM     24  O   UNL     1      -2.280  18.393  45.719  1.00  0.00    -0.508 OA
ATOM     25  H   UNL     1      -1.361  18.514  45.310  1.00  0.00     0.293 HD
ENDBRANCH  23  24
ENDBRANCH  17  18
ENDBRANCH  14  16
ENDBRANCH   1  14
TORSDOF 8
ENDMDL
MODEL 9
REMARK VINA RESULT:    -6.252      3.268      7.306
REMARK INTER + INTRA:         -10.100
REMARK INTER:                  -7.757
REMARK INTRA:                  -2.342
REMARK UNBOUND:                -1.289
REMARK SMILES O=C(C=Cc1ccc(O)cc1)CC(=O)C=Cc1ccc(O)cc1
REMARK SMILES IDX 12 1 2 2 1 3 3 4 4 5 5 6 6 7 7 8 8 9 11 10 10 11 9 12 13 14
REMARK SMILES IDX 14 15 15 16 16 17 17 18 18 19 23 20 19 21 22 22 20 23 21 24
REMARK H PARENT 9 13 21 25
REMARK Flexibility Score: inf
ROOT
ATOM      1  C   UNL     1      -2.937  24.398  52.653  1.00  0.00     0.160 C 
ENDROOT
BRANCH   1   2
ATOM      2  C   UNL     1      -1.721  24.535  51.781  1.00  0.00     0.163 C 
ATOM      3  O   UNL     1      -1.178  25.665  51.660  1.00  0.00    -0.294 OA
BRANCH   2   4
ATOM      4  C   UNL     1      -1.247  23.374  50.995  1.00  0.00     0.048 C 
ATOM      5  C   UNL     1      -1.822  22.902  49.878  1.00  0.00     0.012 C 
BRANCH   5   6
ATOM      6  C   UNL     1      -2.915  23.563  49.134  1.00  0.00    -0.025 A 
ATOM      7  C   UNL     1      -2.663  24.653  48.282  1.00  0.00     0.012 A 
ATOM      8  C   UNL     1      -3.706  25.230  47.550  1.00  0.00     0.047 A 
ATOM      9  C   UNL     1      -5.002  24.713  47.645  1.00  0.00     0.115 A 
ATOM     10  C   UNL     1      -4.211  23.029  49.201  1.00  0.00     0.012 A 
ATOM     11  C   UNL     1      -5.251  23.608  48.469  1.00  0.00     0.047 A 
BRANCH   9  12
ATOM     12  O   UNL     1      -6.031  25.300  46.911  1.00  0.00    -0.508 OA
ATOM     13  H   UNL     1      -5.975  25.396  45.904  1.00  0.00     0.293 HD
ENDBRANCH   9  12
ENDBRANCH   5   6
ENDBRANCH   2   4
ENDBRANCH   1   2
BRANCH   1  14
ATOM     14  C   UNL     1      -3.808  25.633  52.630  1.00  0.00     0.163 C 
ATOM     15  O   UNL     1      -3.800  26.428  53.609  1.00  0.00    -0.294 OA
BRANCH  14  16
ATOM     16  C   UNL     1      -4.679  25.956  51.479  1.00  0.00     0.048 C 
ATOM     17  C   UNL     1      -4.962  27.210  51.097  1.00  0.00     0.012 C 
BRANCH  17  18
ATOM     18  C   UNL     1      -5.843  27.540  49.950  1.00  0.00    -0.025 A 
ATOM     19  C   UNL     1      -5.429  28.375  48.892  1.00  0.00     0.012 A 
ATOM     20  C   UNL     1      -7.153  27.031  49.938  1.00  0.00     0.012 A 
ATOM     21  C   UNL     1      -6.301  28.666  47.839  1.00  0.00     0.047 A 
ATOM     22  C   UNL     1      -8.021  27.324  48.882  1.00  0.00     0.047 A 
ATOM     23  C   UNL     1      -7.598  28.139  47.829  1.00  0.00     0.115 A 
BRANCH  23  24
ATOM     24  O   UNL     1      -8.474  28.422  46.784  1.00  0.00    -0.508 OA
ATOM     25  H   UNL     1      -9.473  28.282  46.879  1.00  0.00     0.293 HD
ENDBRANCH  23  24
ENDBRANCH  17  18
ENDBRANCH  14  16
ENDBRANCH   1  14
TORSDOF 8
ENDMDL
