MODEL 1
REMARK VINA RESULT:    -6.618      0.000      0.000
REMARK INTER + INTRA:          -6.618
REMARK INTER:                  -6.618
REMARK INTRA:                   0.000
REMARK UNBOUND:                 0.000
REMARK SMILES C[C@H]1C(=O)CC[C@@H]2[C@]1(C)CC[C@H]1[C@@]2(C)CC[C@]2(C)[C@@H]3CC(C)(C)CC[C@]3(C)CC[C@]12C
REMARK SMILES IDX 1 1 2 2 3 3 4 4 5 5 6 6 7 7 8 8 10 9 11 10 12 11 13 12 15 13
REMARK SMILES IDX 16 14 17 15 30 16 29 17 28 18 26 19 19 20 20 21 21 22 24 23
REMARK SMILES IDX 25 24 22 25 23 26 27 27 31 28 18 29 14 30 9 31
REMARK H PARENT
REMARK Flexibility Score: inf
ROOT
ATOM      1  C   UNL     1     136.492 148.822 138.767  1.00  0.00     0.016 C 
ATOM      2  C   UNL     1     137.377 147.646 138.295  1.00  0.00     0.059 C 
ATOM      3  C   UNL     1     138.640 148.136 137.614  1.00  0.00     0.136 C 
ATOM      4  O   UNL     1     138.887 149.330 137.507  1.00  0.00    -0.299 OA
ATOM      5  C   UNL     1     139.584 147.127 137.032  1.00  0.00     0.076 C 
ATOM      6  C   UNL     1     139.901 146.029 138.056  1.00  0.00     0.012 C 
ATOM      7  C   UNL     1     138.601 145.443 138.694  1.00  0.00     0.002 C 
ATOM      8  C   UNL     1     137.735 146.580 139.403  1.00  0.00    -0.020 C 
ATOM      9  C   UNL     1     136.413 145.974 139.972  1.00  0.00     0.008 C 
ATOM     10  C   UNL     1     136.588 144.660 140.760  1.00  0.00     0.005 C 
ATOM     11  C   UNL     1     137.336 143.595 139.913  1.00  0.00     0.002 C 
ATOM     12  C   UNL     1     138.784 144.093 139.532  1.00  0.00    -0.026 C 
ATOM     13  C   UNL     1     139.371 142.976 138.637  1.00  0.00     0.008 C 
ATOM     14  C   UNL     1     139.526 141.607 139.332  1.00  0.00     0.008 C 
ATOM     15  C   UNL     1     138.458 141.195 140.427  1.00  0.00    -0.024 C 
ATOM     16  C   UNL     1     137.085 142.019 140.251  1.00  0.00    -0.024 C 
ATOM     17  C   UNL     1     136.178 141.374 139.101  1.00  0.00     0.008 C 
ATOM     18  C   UNL     1     136.816 140.240 138.302  1.00  0.00     0.007 C 
ATOM     19  C   UNL     1     137.292 139.079 139.204  1.00  0.00    -0.029 C 
ATOM     20  C   UNL     1     138.226 139.605 140.370  1.00  0.00     0.002 C 
ATOM     21  C   UNL     1     139.578 138.809 140.477  1.00  0.00     0.011 C 
ATOM     22  C   UNL     1     139.448 137.266 140.344  1.00  0.00    -0.035 C 
ATOM     23  C   UNL     1     138.610 136.863 139.085  1.00  0.00     0.007 C 
ATOM     24  C   UNL     1     138.041 138.060 138.301  1.00  0.00     0.007 C 
ATOM     25  C   UNL     1     140.871 136.672 140.213  1.00  0.00     0.011 C 
ATOM     26  C   UNL     1     138.824 136.676 141.634  1.00  0.00     0.011 C 
ATOM     27  C   UNL     1     136.018 138.378 139.780  1.00  0.00     0.011 C 
ATOM     28  C   UNL     1     136.231 141.883 141.564  1.00  0.00     0.012 C 
ATOM     29  C   UNL     1     139.062 141.470 141.854  1.00  0.00     0.012 C 
ATOM     30  C   UNL     1     139.758 144.346 140.731  1.00  0.00     0.012 C 
ATOM     31  C   UNL     1     138.483 147.293 140.568  1.00  0.00     0.012 C 
ENDROOT
TORSDOF 0
ENDMDL
MODEL 2
REMARK VINA RESULT:    -6.608      2.917      4.493
REMARK INTER + INTRA:          -6.608
REMARK INTER:                  -6.608
REMARK INTRA:                   0.000
REMARK UNBOUND:                 0.000
REMARK SMILES C[C@H]1C(=O)CC[C@@H]2[C@]1(C)CC[C@H]1[C@@]2(C)CC[C@]2(C)[C@@H]3CC(C)(C)CC[C@]3(C)CC[C@]12C
REMARK SMILES IDX 1 1 2 2 3 3 4 4 5 5 6 6 7 7 8 8 10 9 11 10 12 11 13 12 15 13
REMARK SMILES IDX 16 14 17 15 30 16 29 17 28 18 26 19 19 20 20 21 21 22 24 23
REMARK SMILES IDX 25 24 22 25 23 26 27 27 31 28 18 29 14 30 9 31
REMARK H PARENT
REMARK Flexibility Score: inf
ROOT
ATOM      1  C   UNL     1     133.445 148.858 139.512  1.00  0.00     0.016 C 
ATOM      2  C   UNL     1     134.816 148.731 138.810  1.00  0.00     0.059 C 
ATOM      3  C   UNL     1     135.277 150.057 138.240  1.00  0.00     0.136 C 
ATOM      4  O   UNL     1     134.613 151.076 138.376  1.00  0.00    -0.299 OA
ATOM      5  C   UNL     1     136.559 150.104 137.464  1.00  0.00     0.076 C 
ATOM      6  C   UNL     1     137.688 149.417 138.244  1.00  0.00     0.012 C 
ATOM      7  C   UNL     1     137.261 148.003 138.752  1.00  0.00     0.002 C 
ATOM      8  C   UNL     1     135.964 148.083 139.679  1.00  0.00    -0.020 C 
ATOM      9  C   UNL     1     135.525 146.650 140.115  1.00  0.00     0.008 C 
ATOM     10  C   UNL     1     136.669 145.747 140.621  1.00  0.00     0.005 C 
ATOM     11  C   UNL     1     137.812 145.654 139.575  1.00  0.00     0.002 C 
ATOM     12  C   UNL     1     138.442 147.074 139.300  1.00  0.00    -0.026 C 
ATOM     13  C   UNL     1     139.501 146.837 138.197  1.00  0.00     0.008 C 
ATOM     14  C   UNL     1     140.654 145.896 138.600  1.00  0.00     0.008 C 
ATOM     15  C   UNL     1     140.337 144.701 139.591  1.00  0.00    -0.024 C 
ATOM     16  C   UNL     1     138.769 144.333 139.587  1.00  0.00    -0.024 C 
ATOM     17  C   UNL     1     138.404 143.409 138.332  1.00  0.00     0.008 C 
ATOM     18  C   UNL     1     139.525 143.183 137.319  1.00  0.00     0.007 C 
ATOM     19  C   UNL     1     140.792 142.582 137.967  1.00  0.00    -0.029 C 
ATOM     20  C   UNL     1     141.261 143.440 139.213  1.00  0.00     0.002 C 
ATOM     21  C   UNL     1     142.784 143.823 139.155  1.00  0.00     0.011 C 
ATOM     22  C   UNL     1     143.737 142.677 138.713  1.00  0.00    -0.035 C 
ATOM     23  C   UNL     1     143.239 141.986 137.400  1.00  0.00     0.007 C 
ATOM     24  C   UNL     1     141.897 142.530 136.875  1.00  0.00     0.007 C 
ATOM     25  C   UNL     1     145.137 143.285 138.462  1.00  0.00     0.011 C 
ATOM     26  C   UNL     1     143.886 141.644 139.858  1.00  0.00     0.011 C 
ATOM     27  C   UNL     1     140.454 141.116 138.392  1.00  0.00     0.011 C 
ATOM     28  C   UNL     1     138.445 143.450 140.847  1.00  0.00     0.012 C 
ATOM     29  C   UNL     1     140.781 145.115 141.043  1.00  0.00     0.012 C 
ATOM     30  C   UNL     1     139.131 147.765 140.523  1.00  0.00     0.012 C 
ATOM     31  C   UNL     1     136.172 148.940 140.963  1.00  0.00     0.012 C 
ENDROOT
TORSDOF 0
ENDMDL
MODEL 3
REMARK VINA RESULT:    -6.601      5.012     10.333
REMARK INTER + INTRA:          -6.601
REMARK INTER:                  -6.601
REMARK INTRA:                   0.000
REMARK UNBOUND:                 0.000
REMARK SMILES C[C@H]1C(=O)CC[C@@H]2[C@]1(C)CC[C@H]1[C@@]2(C)CC[C@]2(C)[C@@H]3CC(C)(C)CC[C@]3(C)CC[C@]12C
REMARK SMILES IDX 1 1 2 2 3 3 4 4 5 5 6 6 7 7 8 8 10 9 11 10 12 11 13 12 15 13
REMARK SMILES IDX 16 14 17 15 30 16 29 17 28 18 26 19 19 20 20 21 21 22 24 23
REMARK SMILES IDX 25 24 22 25 23 26 27 27 31 28 18 29 14 30 9 31
REMARK H PARENT
REMARK Flexibility Score: inf
ROOT
ATOM      1  C   UNL     1     145.124 132.741 138.816  1.00  0.00     0.016 C 
ATOM      2  C   UNL     1     144.227 133.903 138.334  1.00  0.00     0.059 C 
ATOM      3  C   UNL     1     142.971 133.395 137.655  1.00  0.00     0.136 C 
ATOM      4  O   UNL     1     142.738 132.198 137.556  1.00  0.00    -0.299 OA
ATOM      5  C   UNL     1     142.015 134.389 137.065  1.00  0.00     0.076 C 
ATOM      6  C   UNL     1     141.685 135.490 138.080  1.00  0.00     0.012 C 
ATOM      7  C   UNL     1     142.978 136.095 138.716  1.00  0.00     0.002 C 
ATOM      8  C   UNL     1     143.856 134.973 139.434  1.00  0.00    -0.020 C 
ATOM      9  C   UNL     1     145.169 135.598 140.000  1.00  0.00     0.008 C 
ATOM     10  C   UNL     1     144.979 136.915 140.778  1.00  0.00     0.005 C 
ATOM     11  C   UNL     1     144.220 137.966 139.924  1.00  0.00     0.002 C 
ATOM     12  C   UNL     1     142.778 137.449 139.544  1.00  0.00    -0.026 C 
ATOM     13  C   UNL     1     142.179 138.553 138.641  1.00  0.00     0.008 C 
ATOM     14  C   UNL     1     142.008 139.925 139.326  1.00  0.00     0.008 C 
ATOM     15  C   UNL     1     143.070 140.357 140.419  1.00  0.00    -0.024 C 
ATOM     16  C   UNL     1     144.453 139.547 140.250  1.00  0.00    -0.024 C 
ATOM     17  C   UNL     1     145.354 140.194 139.097  1.00  0.00     0.008 C 
ATOM     18  C   UNL     1     144.703 141.316 138.289  1.00  0.00     0.007 C 
ATOM     19  C   UNL     1     144.214 142.477 139.183  1.00  0.00    -0.029 C 
ATOM     20  C   UNL     1     143.284 141.949 140.351  1.00  0.00     0.002 C 
ATOM     21  C   UNL     1     141.923 142.730 140.451  1.00  0.00     0.011 C 
ATOM     22  C   UNL     1     142.036 144.273 140.308  1.00  0.00    -0.035 C 
ATOM     23  C   UNL     1     142.870 144.677 139.046  1.00  0.00     0.007 C 
ATOM     24  C   UNL     1     143.454 143.481 138.271  1.00  0.00     0.007 C 
ATOM     25  C   UNL     1     140.606 144.850 140.171  1.00  0.00     0.011 C 
ATOM     26  C   UNL     1     142.651 144.880 141.594  1.00  0.00     0.011 C 
ATOM     27  C   UNL     1     145.479 143.197 139.755  1.00  0.00     0.011 C 
ATOM     28  C   UNL     1     145.303 139.702 141.563  1.00  0.00     0.012 C 
ATOM     29  C   UNL     1     142.467 140.085 141.848  1.00  0.00     0.012 C 
ATOM     30  C   UNL     1     141.806 137.193 140.744  1.00  0.00     0.012 C 
ATOM     31  C   UNL     1     143.114 134.261 140.603  1.00  0.00     0.012 C 
ENDROOT
TORSDOF 0
ENDMDL
MODEL 4
REMARK VINA RESULT:    -6.590      6.321      7.686
REMARK INTER + INTRA:          -6.590
REMARK INTER:                  -6.590
REMARK INTRA:                   0.000
REMARK UNBOUND:                 0.000
REMARK SMILES C[C@H]1C(=O)CC[C@@H]2[C@]1(C)CC[C@H]1[C@@]2(C)CC[C@]2(C)[C@@H]3CC(C)(C)CC[C@]3(C)CC[C@]12C
REMARK SMILES IDX 1 1 2 2 3 3 4 4 5 5 6 6 7 7 8 8 10 9 11 10 12 11 13 12 15 13
REMARK SMILES IDX 16 14 17 15 30 16 29 17 28 18 26 19 19 20 20 21 21 22 24 23
REMARK SMILES IDX 25 24 22 25 23 26 27 27 31 28 18 29 14 30 9 31
REMARK H PARENT
REMARK Flexibility Score: inf
ROOT
ATOM      1  C   UNL     1     148.123 147.648 139.120  1.00  0.00     0.016 C 
ATOM      2  C   UNL     1     148.128 146.191 138.605  1.00  0.00     0.059 C 
ATOM      3  C   UNL     1     149.532 145.717 138.283  1.00  0.00     0.136 C 
ATOM      4  O   UNL     1     150.505 146.437 138.459  1.00  0.00    -0.299 OA
ATOM      5  C   UNL     1     149.716 144.345 137.706  1.00  0.00     0.076 C 
ATOM      6  C   UNL     1     148.959 143.302 138.538  1.00  0.00     0.012 C 
ATOM      7  C   UNL     1     147.479 143.731 138.793  1.00  0.00     0.002 C 
ATOM      8  C   UNL     1     147.398 145.142 139.533  1.00  0.00    -0.020 C 
ATOM      9  C   UNL     1     145.909 145.572 139.712  1.00  0.00     0.008 C 
ATOM     10  C   UNL     1     144.975 144.468 140.249  1.00  0.00     0.005 C 
ATOM     11  C   UNL     1     145.054 143.191 139.369  1.00  0.00     0.002 C 
ATOM     12  C   UNL     1     146.515 142.593 139.372  1.00  0.00    -0.026 C 
ATOM     13  C   UNL     1     146.458 141.387 138.406  1.00  0.00     0.008 C 
ATOM     14  C   UNL     1     145.500 140.258 138.838  1.00  0.00     0.008 C 
ATOM     15  C   UNL     1     144.173 140.651 139.610  1.00  0.00    -0.024 C 
ATOM     16  C   UNL     1     143.769 142.187 139.340  1.00  0.00    -0.024 C 
ATOM     17  C   UNL     1     143.015 142.339 137.937  1.00  0.00     0.008 C 
ATOM     18  C   UNL     1     142.958 141.084 137.068  1.00  0.00     0.007 C 
ATOM     19  C   UNL     1     142.308 139.890 137.802  1.00  0.00    -0.029 C 
ATOM     20  C   UNL     1     143.000 139.631 139.202  1.00  0.00     0.002 C 
ATOM     21  C   UNL     1     143.427 138.132 139.407  1.00  0.00     0.011 C 
ATOM     22  C   UNL     1     142.376 137.079 138.955  1.00  0.00    -0.035 C 
ATOM     23  C   UNL     1     141.858 137.365 137.506  1.00  0.00     0.007 C 
ATOM     24  C   UNL     1     142.433 138.647 136.876  1.00  0.00     0.007 C 
ATOM     25  C   UNL     1     143.049 135.685 138.983  1.00  0.00     0.011 C 
ATOM     26  C   UNL     1     141.201 137.039 139.964  1.00  0.00     0.011 C 
ATOM     27  C   UNL     1     140.789 140.216 137.979  1.00  0.00     0.011 C 
ATOM     28  C   UNL     1     142.715 142.638 140.417  1.00  0.00     0.012 C 
ATOM     29  C   UNL     1     144.398 140.425 141.152  1.00  0.00     0.012 C 
ATOM     30  C   UNL     1     147.050 142.106 140.760  1.00  0.00     0.012 C 
ATOM     31  C   UNL     1     148.078 145.147 140.934  1.00  0.00     0.012 C 
ENDROOT
TORSDOF 0
ENDMDL
MODEL 5
REMARK VINA RESULT:    -6.533      5.636     10.728
REMARK INTER + INTRA:          -6.533
REMARK INTER:                  -6.533
REMARK INTRA:                   0.000
REMARK UNBOUND:                 0.000
REMARK SMILES C[C@H]1C(=O)CC[C@@H]2[C@]1(C)CC[C@H]1[C@@]2(C)CC[C@]2(C)[C@@H]3CC(C)(C)CC[C@]3(C)CC[C@]12C
REMARK SMILES IDX 1 1 2 2 3 3 4 4 5 5 6 6 7 7 8 8 10 9 11 10 12 11 13 12 15 13
REMARK SMILES IDX 16 14 17 15 30 16 29 17 28 18 26 19 19 20 20 21 21 22 24 23
REMARK SMILES IDX 25 24 22 25 23 26 27 27 31 28 18 29 14 30 9 31
REMARK H PARENT
REMARK Flexibility Score: inf
ROOT
ATOM      1  C   UNL     1     148.079 133.417 139.496  1.00  0.00     0.016 C 
ATOM      2  C   UNL     1     146.666 133.384 138.870  1.00  0.00     0.059 C 
ATOM      3  C   UNL     1     146.279 131.983 138.437  1.00  0.00     0.136 C 
ATOM      4  O   UNL     1     147.026 131.031 138.614  1.00  0.00    -0.299 OA
ATOM      5  C   UNL     1     144.964 131.778 137.746  1.00  0.00     0.076 C 
ATOM      6  C   UNL     1     143.830 132.444 138.535  1.00  0.00     0.012 C 
ATOM      7  C   UNL     1     144.173 133.923 138.902  1.00  0.00     0.002 C 
ATOM      8  C   UNL     1     145.520 134.017 139.752  1.00  0.00    -0.020 C 
ATOM      9  C   UNL     1     145.869 135.510 140.045  1.00  0.00     0.008 C 
ATOM     10  C   UNL     1     144.688 136.366 140.545  1.00  0.00     0.005 C 
ATOM     11  C   UNL     1     143.486 136.287 139.566  1.00  0.00     0.002 C 
ATOM     12  C   UNL     1     142.954 134.806 139.444  1.00  0.00    -0.026 C 
ATOM     13  C   UNL     1     141.822 134.871 138.391  1.00  0.00     0.008 C 
ATOM     14  C   UNL     1     140.623 135.756 138.787  1.00  0.00     0.008 C 
ATOM     15  C   UNL     1     140.899 137.051 139.658  1.00  0.00    -0.024 C 
ATOM     16  C   UNL     1     142.431 137.531 139.530  1.00  0.00    -0.024 C 
ATOM     17  C   UNL     1     142.654 138.370 138.186  1.00  0.00     0.008 C 
ATOM     18  C   UNL     1     141.466 138.427 137.227  1.00  0.00     0.007 C 
ATOM     19  C   UNL     1     140.193 138.986 137.900  1.00  0.00    -0.029 C 
ATOM     20  C   UNL     1     139.861 138.205 139.237  1.00  0.00     0.002 C 
ATOM     21  C   UNL     1     138.371 137.708 139.302  1.00  0.00     0.011 C 
ATOM     22  C   UNL     1     137.310 138.740 138.828  1.00  0.00    -0.035 C 
ATOM     23  C   UNL     1     137.680 139.352 137.436  1.00  0.00     0.007 C 
ATOM     24  C   UNL     1     139.030 138.865 136.876  1.00  0.00     0.007 C 
ATOM     25  C   UNL     1     135.949 138.012 138.712  1.00  0.00     0.011 C 
ATOM     26  C   UNL     1     137.143 139.852 139.893  1.00  0.00     0.011 C 
ATOM     27  C   UNL     1     140.438 140.504 138.185  1.00  0.00     0.011 C 
ATOM     28  C   UNL     1     142.753 138.538 140.694  1.00  0.00     0.012 C 
ATOM     29  C   UNL     1     140.567 136.730 141.163  1.00  0.00     0.012 C 
ATOM     30  C   UNL     1     142.388 134.173 140.758  1.00  0.00     0.012 C 
ATOM     31  C   UNL     1     145.449 133.258 141.111  1.00  0.00     0.012 C 
ENDROOT
TORSDOF 0
ENDMDL
MODEL 6
REMARK VINA RESULT:    -6.528      3.896      8.650
REMARK INTER + INTRA:          -6.528
REMARK INTER:                  -6.528
REMARK INTRA:                   0.000
REMARK UNBOUND:                 0.000
REMARK SMILES C[C@H]1C(=O)CC[C@@H]2[C@]1(C)CC[C@H]1[C@@]2(C)CC[C@]2(C)[C@@H]3CC(C)(C)CC[C@]3(C)CC[C@]12C
REMARK SMILES IDX 1 1 2 2 3 3 4 4 5 5 6 6 7 7 8 8 10 9 11 10 12 11 13 12 15 13
REMARK SMILES IDX 16 14 17 15 30 16 29 17 28 18 26 19 19 20 20 21 21 22 24 23
REMARK SMILES IDX 25 24 22 25 23 26 27 27 31 28 18 29 14 30 9 31
REMARK H PARENT
REMARK Flexibility Score: inf
ROOT
ATOM      1  C   UNL     1     133.493 133.510 139.500  1.00  0.00     0.016 C 
ATOM      2  C   UNL     1     133.454 134.915 138.859  1.00  0.00     0.059 C 
ATOM      3  C   UNL     1     132.057 135.281 138.397  1.00  0.00     0.136 C 
ATOM      4  O   UNL     1     131.111 134.525 138.566  1.00  0.00    -0.299 OA
ATOM      5  C   UNL     1     131.849 136.586 137.689  1.00  0.00     0.076 C 
ATOM      6  C   UNL     1     132.488 137.737 138.477  1.00  0.00     0.012 C 
ATOM      7  C   UNL     1     133.964 137.415 138.873  1.00  0.00     0.002 C 
ATOM      8  C   UNL     1     134.059 136.079 139.739  1.00  0.00    -0.020 C 
ATOM      9  C   UNL     1     135.551 135.750 140.061  1.00  0.00     0.008 C 
ATOM     10  C   UNL     1     136.384 136.946 140.562  1.00  0.00     0.005 C 
ATOM     11  C   UNL     1     136.309 138.137 139.569  1.00  0.00     0.002 C 
ATOM     12  C   UNL     1     134.824 138.650 139.416  1.00  0.00    -0.026 C 
ATOM     13  C   UNL     1     134.894 139.771 138.352  1.00  0.00     0.008 C 
ATOM     14  C   UNL     1     135.758 140.985 138.749  1.00  0.00     0.008 C 
ATOM     15  C   UNL     1     137.041 140.734 139.646  1.00  0.00    -0.024 C 
ATOM     16  C   UNL     1     137.541 139.206 139.543  1.00  0.00    -0.024 C 
ATOM     17  C   UNL     1     138.405 138.978 138.215  1.00  0.00     0.008 C 
ATOM     18  C   UNL     1     138.465 140.156 137.245  1.00  0.00     0.007 C 
ATOM     19  C   UNL     1     138.997 141.443 137.914  1.00  0.00    -0.029 C 
ATOM     20  C   UNL     1     138.190 141.781 139.233  1.00  0.00     0.002 C 
ATOM     21  C   UNL     1     137.674 143.265 139.273  1.00  0.00     0.011 C 
ATOM     22  C   UNL     1     138.702 144.333 138.806  1.00  0.00    -0.035 C 
ATOM     23  C   UNL     1     139.342 143.955 137.428  1.00  0.00     0.007 C 
ATOM     24  C   UNL     1     138.880 142.594 136.875  1.00  0.00     0.007 C 
ATOM     25  C   UNL     1     137.960 145.684 138.662  1.00  0.00     0.011 C 
ATOM     26  C   UNL     1     139.793 144.525 139.888  1.00  0.00     0.011 C 
ATOM     27  C   UNL     1     140.513 141.219 138.227  1.00  0.00     0.011 C 
ATOM     28  C   UNL     1     138.531 138.908 140.727  1.00  0.00     0.012 C 
ATOM     29  C   UNL     1     136.690 141.077 141.141  1.00  0.00     0.012 C 
ATOM     30  C   UNL     1     134.162 139.222 140.713  1.00  0.00     0.012 C 
ATOM     31  C   UNL     1     133.277 136.155 141.083  1.00  0.00     0.012 C 
ENDROOT
TORSDOF 0
ENDMDL
MODEL 7
REMARK VINA RESULT:    -6.506      5.089      7.290
REMARK INTER + INTRA:          -6.506
REMARK INTER:                  -6.506
REMARK INTRA:                   0.000
REMARK UNBOUND:                 0.000
REMARK SMILES C[C@H]1C(=O)CC[C@@H]2[C@]1(C)CC[C@H]1[C@@]2(C)CC[C@]2(C)[C@@H]3CC(C)(C)CC[C@]3(C)CC[C@]12C
REMARK SMILES IDX 1 1 2 2 3 3 4 4 5 5 6 6 7 7 8 8 10 9 11 10 12 11 13 12 15 13
REMARK SMILES IDX 16 14 17 15 30 16 29 17 28 18 26 19 19 20 20 21 21 22 24 23
REMARK SMILES IDX 25 24 22 25 23 26 27 27 31 28 18 29 14 30 9 31
REMARK H PARENT
REMARK Flexibility Score: inf
ROOT
ATOM      1  C   UNL     1     148.796 144.945 138.717  1.00  0.00     0.016 C 
ATOM      2  C   UNL     1     147.613 144.074 138.238  1.00  0.00     0.059 C 
ATOM      3  C   UNL     1     148.092 142.815 137.542  1.00  0.00     0.136 C 
ATOM      4  O   UNL     1     149.283 142.561 137.430  1.00  0.00    -0.299 OA
ATOM      5  C   UNL     1     147.075 141.885 136.952  1.00  0.00     0.076 C 
ATOM      6  C   UNL     1     145.976 141.565 137.974  1.00  0.00     0.012 C 
ATOM      7  C   UNL     1     145.401 142.862 138.627  1.00  0.00     0.002 C 
ATOM      8  C   UNL     1     146.546 143.712 139.344  1.00  0.00    -0.020 C 
ATOM      9  C   UNL     1     145.951 145.032 139.928  1.00  0.00     0.008 C 
ATOM     10  C   UNL     1     144.638 144.858 140.717  1.00  0.00     0.005 C 
ATOM     11  C   UNL     1     143.566 144.127 139.865  1.00  0.00     0.002 C 
ATOM     12  C   UNL     1     144.052 142.680 139.466  1.00  0.00    -0.026 C 
ATOM     13  C   UNL     1     142.928 142.111 138.568  1.00  0.00     0.008 C 
ATOM     14  C   UNL     1     141.560 141.959 139.264  1.00  0.00     0.008 C 
ATOM     15  C   UNL     1     141.158 143.018 140.371  1.00  0.00    -0.024 C 
ATOM     16  C   UNL     1     141.992 144.386 140.208  1.00  0.00    -0.024 C 
ATOM     17  C   UNL     1     141.351 145.311 139.070  1.00  0.00     0.008 C 
ATOM     18  C   UNL     1     140.210 144.689 138.266  1.00  0.00     0.007 C 
ATOM     19  C   UNL     1     139.048 144.213 139.165  1.00  0.00    -0.029 C 
ATOM     20  C   UNL     1     139.569 143.262 140.320  1.00  0.00     0.002 C 
ATOM     21  C   UNL     1     138.764 141.915 140.414  1.00  0.00     0.011 C 
ATOM     22  C   UNL     1     137.222 142.058 140.286  1.00  0.00    -0.035 C 
ATOM     23  C   UNL     1     136.822 142.912 139.037  1.00  0.00     0.007 C 
ATOM     24  C   UNL     1     138.022 143.480 138.256  1.00  0.00     0.007 C 
ATOM     25  C   UNL     1     136.617 140.641 140.141  1.00  0.00     0.011 C 
ATOM     26  C   UNL     1     136.639 142.672 141.584  1.00  0.00     0.011 C 
ATOM     27  C   UNL     1     138.358 145.485 139.757  1.00  0.00     0.011 C 
ATOM     28  C   UNL     1     141.865 145.226 141.531  1.00  0.00     0.012 C 
ATOM     29  C   UNL     1     141.432 142.396 141.791  1.00  0.00     0.012 C 
ATOM     30  C   UNL     1     144.300 141.692 140.654  1.00  0.00     0.012 C 
ATOM     31  C   UNL     1     147.255 142.946 140.499  1.00  0.00     0.012 C 
ENDROOT
TORSDOF 0
ENDMDL
MODEL 8
REMARK VINA RESULT:    -6.495      5.107      7.328
REMARK INTER + INTRA:          -6.495
REMARK INTER:                  -6.495
REMARK INTRA:                   0.000
REMARK UNBOUND:                 0.000
REMARK SMILES C[C@H]1C(=O)CC[C@@H]2[C@]1(C)CC[C@H]1[C@@]2(C)CC[C@]2(C)[C@@H]3CC(C)(C)CC[C@]3(C)CC[C@]12C
REMARK SMILES IDX 1 1 2 2 3 3 4 4 5 5 6 6 7 7 8 8 10 9 11 10 12 11 13 12 15 13
REMARK SMILES IDX 16 14 17 15 30 16 29 17 28 18 26 19 19 20 20 21 21 22 24 23
REMARK SMILES IDX 25 24 22 25 23 26 27 27 31 28 18 29 14 30 9 31
REMARK H PARENT
REMARK Flexibility Score: inf
ROOT
ATOM      1  C   UNL     1     132.794 136.426 138.741  1.00  0.00     0.016 C 
ATOM      2  C   UNL     1     133.955 137.338 138.286  1.00  0.00     0.059 C 
ATOM      3  C   UNL     1     133.445 138.604 137.626  1.00  0.00     0.136 C 
ATOM      4  O   UNL     1     132.247 138.832 137.521  1.00  0.00    -0.299 OA
ATOM      5  C   UNL     1     134.439 139.575 137.062  1.00  0.00     0.076 C 
ATOM      6  C   UNL     1     135.530 139.892 138.092  1.00  0.00     0.012 C 
ATOM      7  C   UNL     1     136.137 138.592 138.709  1.00  0.00     0.002 C 
ATOM      8  C   UNL     1     135.014 137.695 139.402  1.00  0.00    -0.020 C 
ATOM      9  C   UNL     1     135.641 136.374 139.948  1.00  0.00     0.008 C 
ATOM     10  C   UNL     1     136.950 136.557 140.741  1.00  0.00     0.005 C 
ATOM     11  C   UNL     1     138.004 137.337 139.909  1.00  0.00     0.002 C 
ATOM     12  C   UNL     1     137.482 138.783 139.552  1.00  0.00    -0.026 C 
ATOM     13  C   UNL     1     138.591 139.404 138.669  1.00  0.00     0.008 C 
ATOM     14  C   UNL     1     139.956 139.570 139.368  1.00  0.00     0.008 C 
ATOM     15  C   UNL     1     140.385 138.490 140.446  1.00  0.00    -0.024 C 
ATOM     16  C   UNL     1     139.584 137.107 140.245  1.00  0.00    -0.024 C 
ATOM     17  C   UNL     1     140.245 136.230 139.081  1.00  0.00     0.008 C 
ATOM     18  C   UNL     1     141.370 136.901 138.294  1.00  0.00     0.007 C 
ATOM     19  C   UNL     1     142.521 137.381 139.206  1.00  0.00    -0.029 C 
ATOM     20  C   UNL     1     141.979 138.286 140.387  1.00  0.00     0.002 C 
ATOM     21  C   UNL     1     142.751 139.648 140.518  1.00  0.00     0.011 C 
ATOM     22  C   UNL     1     144.296 139.547 140.386  1.00  0.00    -0.035 C 
ATOM     23  C   UNL     1     144.715 138.738 139.113  1.00  0.00     0.007 C 
ATOM     24  C   UNL     1     143.528 138.162 138.317  1.00  0.00     0.007 C 
ATOM     25  C   UNL     1     144.866 140.981 140.280  1.00  0.00     0.011 C 
ATOM     26  C   UNL     1     144.895 138.911 141.666  1.00  0.00     0.011 C 
ATOM     27  C   UNL     1     143.243 136.109 139.762  1.00  0.00     0.011 C 
ATOM     28  C   UNL     1     139.732 136.233 141.543  1.00  0.00     0.012 C 
ATOM     29  C   UNL     1     140.097 139.065 141.883  1.00  0.00     0.012 C 
ATOM     30  C   UNL     1     137.212 139.731 140.767  1.00  0.00     0.012 C 
ATOM     31  C   UNL     1     134.287 138.411 140.578  1.00  0.00     0.012 C 
ENDROOT
TORSDOF 0
ENDMDL
MODEL 9
REMARK VINA RESULT:    -6.397      5.702      7.197
REMARK INTER + INTRA:          -6.397
REMARK INTER:                  -6.397
REMARK INTRA:                   0.000
REMARK UNBOUND:                 0.000
REMARK SMILES C[C@H]1C(=O)CC[C@@H]2[C@]1(C)CC[C@H]1[C@@]2(C)CC[C@]2(C)[C@@H]3CC(C)(C)CC[C@]3(C)CC[C@]12C
REMARK SMILES IDX 1 1 2 2 3 3 4 4 5 5 6 6 7 7 8 8 10 9 11 10 12 11 13 12 15 13
REMARK SMILES IDX 16 14 17 15 30 16 29 17 28 18 26 19 19 20 20 21 21 22 24 23
REMARK SMILES IDX 25 24 22 25 23 26 27 27 31 28 18 29 14 30 9 31
REMARK H PARENT
REMARK Flexibility Score: inf
ROOT
ATOM      1  C   UNL     1     148.684 146.106 138.473  1.00  0.00     0.016 C 
ATOM      2  C   UNL     1     148.139 144.697 138.145  1.00  0.00     0.059 C 
ATOM      3  C   UNL     1     149.258 143.686 137.990  1.00  0.00     0.136 C 
ATOM      4  O   UNL     1     150.430 144.002 138.146  1.00  0.00    -0.299 OA
ATOM      5  C   UNL     1     148.912 142.280 137.604  1.00  0.00     0.076 C 
ATOM      6  C   UNL     1     147.795 141.731 138.501  1.00  0.00     0.012 C 
ATOM      7  C   UNL     1     146.589 142.720 138.590  1.00  0.00     0.002 C 
ATOM      8  C   UNL     1     147.042 144.147 139.139  1.00  0.00    -0.020 C 
ATOM      9  C   UNL     1     145.829 145.130 139.153  1.00  0.00     0.008 C 
ATOM     10  C   UNL     1     144.532 144.550 139.753  1.00  0.00     0.005 C 
ATOM     11  C   UNL     1     144.132 143.227 139.047  1.00  0.00     0.002 C 
ATOM     12  C   UNL     1     145.250 142.128 139.233  1.00  0.00    -0.026 C 
ATOM     13  C   UNL     1     144.753 140.907 138.423  1.00  0.00     0.008 C 
ATOM     14  C   UNL     1     143.426 140.299 138.921  1.00  0.00     0.008 C 
ATOM     15  C   UNL     1     142.337 141.271 139.537  1.00  0.00    -0.024 C 
ATOM     16  C   UNL     1     142.560 142.790 139.049  1.00  0.00    -0.024 C 
ATOM     17  C   UNL     1     141.952 143.013 137.586  1.00  0.00     0.008 C 
ATOM     18  C   UNL     1     141.434 141.761 136.879  1.00  0.00     0.007 C 
ATOM     19  C   UNL     1     140.360 141.020 137.705  1.00  0.00    -0.029 C 
ATOM     20  C   UNL     1     140.869 140.723 139.175  1.00  0.00     0.002 C 
ATOM     21  C   UNL     1     140.683 139.221 139.595  1.00  0.00     0.011 C 
ATOM     22  C   UNL     1     139.317 138.590 139.202  1.00  0.00    -0.035 C 
ATOM     23  C   UNL     1     138.979 138.839 137.695  1.00  0.00     0.007 C 
ATOM     24  C   UNL     1     140.016 139.704 136.954  1.00  0.00     0.007 C 
ATOM     25  C   UNL     1     139.401 137.065 139.454  1.00  0.00     0.011 C 
ATOM     26  C   UNL     1     138.197 139.143 140.119  1.00  0.00     0.011 C 
ATOM     27  C   UNL     1     139.080 141.919 137.727  1.00  0.00     0.011 C 
ATOM     28  C   UNL     1     141.739 143.755 139.979  1.00  0.00     0.012 C 
ATOM     29  C   UNL     1     142.425 141.201 141.108  1.00  0.00     0.012 C 
ATOM     30  C   UNL     1     145.527 141.679 140.706  1.00  0.00     0.012 C 
ATOM     31  C   UNL     1     147.642 144.096 140.576  1.00  0.00     0.012 C 
ENDROOT
TORSDOF 0
ENDMDL
