MODEL 1
REMARK VINA RESULT:    97.194      0.000      0.000
REMARK INTER + INTRA:         105.939
REMARK INTER:                 105.717
REMARK INTRA:                   0.222
REMARK UNBOUND:                 0.222
REMARK SMILES C[C@@H]1[C@@H](C)CC[C@@]2(C(=O)[O-])CC[C@@]3(C)C(=CC[C@@H]4[C@@]5(C)CC[C@H](O)C(C)(C)[C@H]5CC[C@@]43C)[C@@H]12
REMARK SMILES IDX 7 1 6 2 11 3 33 4 5 5 12 6 15 7 2 8 3 9 13 10 16 11 1 12
REMARK SMILES IDX 4 13 14 14 31 15 17 16 18 17 30 18 32 19 19 20 29 21 28 22
REMARK SMILES IDX 21 23 20 24 25 25 22 26 23 27 26 28 27 29 8 30 9 31 10 32
REMARK SMILES IDX 24 33
REMARK H PARENT 24 34
REMARK Flexibility Score: inf
ROOT
ATOM      1  C   UNL     1      -6.136  49.524   0.076  1.00  0.00     0.017 C 
ATOM      2  C   UNL     1      -7.083  50.585   0.700  1.00  0.00     0.014 C 
ATOM      3  C   UNL     1      -6.135  48.250   0.991  1.00  0.00     0.014 C 
ATOM      4  C   UNL     1      -6.574  49.164  -1.407  1.00  0.00     0.030 C 
ATOM      5  C   UNL     1      -7.299  51.796  -0.213  1.00  0.00     0.004 C 
ATOM      6  C   UNL     1      -7.321  47.302   0.741  1.00  0.00     0.013 C 
ATOM      7  C   UNL     1      -6.533  47.628  -1.614  1.00  0.00    -0.063 C 
ATOM      8  C   UNL     1      -7.883  49.877  -1.874  1.00  0.00    -0.003 C 
ATOM      9  C   UNL     1      -7.784  51.420  -1.645  1.00  0.00    -0.011 C 
ATOM     10  C   UNL     1      -7.391  46.697  -0.726  1.00  0.00    -0.006 C 
ATOM     11  C   UNL     1      -5.425  47.174  -2.219  1.00  0.00    -0.027 C 
ATOM     12  C   UNL     1      -8.172  49.563  -3.362  1.00  0.00     0.008 C 
ATOM     13  C   UNL     1      -9.125  52.125  -1.937  1.00  0.00     0.008 C 
ATOM     14  C   UNL     1      -8.875  46.780  -1.221  1.00  0.00     0.017 C 
ATOM     15  C   UNL     1      -6.935  45.130  -0.798  1.00  0.00    -0.020 C 
ATOM     16  C   UNL     1      -4.782  45.859  -1.947  1.00  0.00     0.032 C 
ATOM     17  C   UNL     1      -5.367  45.004  -0.770  1.00  0.00     0.006 C 
ATOM     18  C   UNL     1      -7.381  44.447  -2.131  1.00  0.00     0.008 C 
ATOM     19  C   UNL     1      -7.628  44.372   0.387  1.00  0.00     0.012 C 
ATOM     20  C   UNL     1      -4.746  43.517  -0.835  1.00  0.00    -0.025 C 
ATOM     21  C   UNL     1      -6.898  42.993  -2.291  1.00  0.00     0.005 C 
ATOM     22  C   UNL     1      -5.389  42.678  -2.018  1.00  0.00     0.003 C 
ATOM     23  C   UNL     1      -4.823  42.745   0.540  1.00  0.00     0.010 C 
ATOM     24  C   UNL     1      -3.198  43.699  -1.094  1.00  0.00     0.012 C 
ATOM     25  C   UNL     1      -5.172  41.108  -1.886  1.00  0.00    -0.006 C 
ATOM     26  C   UNL     1      -5.778  41.537   0.640  1.00  0.00     0.033 C 
ATOM     27  C   UNL     1      -5.825  40.565  -0.567  1.00  0.00     0.120 C 
ATOM     28  C   UNL     1      -3.667  40.728  -1.924  1.00  0.00     0.014 C 
ATOM     29  C   UNL     1      -5.815  40.377  -3.101  1.00  0.00     0.014 C 
ENDROOT
BRANCH   1  30
ATOM     30  C   UNL     1      -4.714  50.097   0.108  1.00  0.00     0.048 C 
ATOM     31  O   UNL     1      -3.718  49.374  -0.158  1.00  0.00    -0.550 OA
ATOM     32  O   UNL     1      -4.503  51.456   0.314  1.00  0.00    -0.550 OA
ENDBRANCH   1  30
BRANCH  27  33
ATOM     33  O   UNL     1      -5.249  39.332  -0.194  1.00  0.00    -0.393 OA
ATOM     34  H   UNL     1      -4.800  39.469   0.680  1.00  0.00     0.210 HD
ENDBRANCH  27  33
TORSDOF 2
ENDMDL
