MODEL 1
REMARK VINA RESULT:    -3.972      0.000      0.000
REMARK INTER + INTRA:          -4.321
REMARK INTER:                  -4.321
REMARK INTRA:                   0.000
REMARK UNBOUND:                 0.000
REMARK SMILES Oc1cccc(O)c1O
REMARK SMILES IDX 4 1 5 2 6 3 8 4 2 5 3 6 7 7 1 9 9 11
REMARK H PARENT 7 8 1 10 9 12
REMARK Flexibility Score: inf
ROOT
ATOM      1  C   UNL     1      49.524 -26.457 -30.420  1.00  0.00     0.008 A 
ATOM      2  C   UNL     1      50.823 -26.470 -30.925  1.00  0.00     0.050 A 
ATOM      3  C   UNL     1      51.117 -27.172 -32.097  1.00  0.00     0.161 A 
ATOM      4  C   UNL     1      50.102 -27.873 -32.777  1.00  0.00     0.200 A 
ATOM      5  C   UNL     1      48.781 -27.857 -32.261  1.00  0.00     0.161 A 
ATOM      6  C   UNL     1      48.509 -27.147 -31.084  1.00  0.00     0.050 A 
ENDROOT
BRANCH   3   7
ATOM      7  O   UNL     1      52.429 -27.164 -32.572  1.00  0.00    -0.504 OA
ATOM      8  H   UNL     1      52.649 -27.017 -33.550  1.00  0.00     0.293 HD
ENDBRANCH   3   7
BRANCH   5   9
ATOM      9  O   UNL     1      47.720 -28.525 -32.876  1.00  0.00    -0.504 OA
ATOM     10  H   UNL     1      46.747 -28.343 -32.681  1.00  0.00     0.293 HD
ENDBRANCH   5   9
BRANCH   4  11
ATOM     11  O   UNL     1      50.436 -28.563 -33.945  1.00  0.00    -0.502 OA
ATOM     12  H   UNL     1      50.574 -28.126 -34.844  1.00  0.00     0.293 HD
ENDBRANCH   4  11
TORSDOF 3
ENDMDL
MODEL 2
REMARK VINA RESULT:    -3.924      0.172      2.828
REMARK INTER + INTRA:          -4.268
REMARK INTER:                  -4.268
REMARK INTRA:                   0.000
REMARK UNBOUND:                 0.000
REMARK SMILES Oc1cccc(O)c1O
REMARK SMILES IDX 4 1 5 2 6 3 8 4 2 5 3 6 7 7 1 9 9 11
REMARK H PARENT 7 8 1 10 9 12
REMARK Flexibility Score: inf
ROOT
ATOM      1  C   UNL     1      49.682 -26.601 -30.269  1.00  0.00     0.008 A 
ATOM      2  C   UNL     1      48.615 -27.179 -30.955  1.00  0.00     0.050 A 
ATOM      3  C   UNL     1      48.821 -27.780 -32.201  1.00  0.00     0.161 A 
ATOM      4  C   UNL     1      50.108 -27.805 -32.771  1.00  0.00     0.200 A 
ATOM      5  C   UNL     1      51.191 -27.216 -32.069  1.00  0.00     0.161 A 
ATOM      6  C   UNL     1      50.962 -26.620 -30.823  1.00  0.00     0.050 A 
ENDROOT
BRANCH   3   7
ATOM      7  O   UNL     1      47.730 -28.347 -32.860  1.00  0.00    -0.504 OA
ATOM      8  H   UNL     1      47.643 -29.346 -33.001  1.00  0.00     0.293 HD
ENDBRANCH   3   7
BRANCH   5   9
ATOM      9  O   UNL     1      52.496 -27.200 -32.567  1.00  0.00    -0.504 OA
ATOM     10  H   UNL     1      53.139 -26.432 -32.444  1.00  0.00     0.293 HD
ENDBRANCH   5   9
BRANCH   4  11
ATOM     11  O   UNL     1      50.273 -28.414 -34.018  1.00  0.00    -0.502 OA
ATOM     12  H   UNL     1      49.767 -29.232 -34.322  1.00  0.00     0.293 HD
ENDBRANCH   4  11
TORSDOF 3
ENDMDL
MODEL 3
REMARK VINA RESULT:    -3.905      1.930      2.463
REMARK INTER + INTRA:          -4.247
REMARK INTER:                  -4.247
REMARK INTRA:                   0.000
REMARK UNBOUND:                 0.000
REMARK SMILES Oc1cccc(O)c1O
REMARK SMILES IDX 4 1 5 2 6 3 8 4 2 5 3 6 7 7 1 9 9 11
REMARK H PARENT 7 8 1 10 9 12
REMARK Flexibility Score: inf
ROOT
ATOM      1  C   UNL     1      48.040 -29.511 -30.022  1.00  0.00     0.008 A 
ATOM      2  C   UNL     1      49.291 -29.177 -30.536  1.00  0.00     0.050 A 
ATOM      3  C   UNL     1      49.395 -28.462 -31.732  1.00  0.00     0.161 A 
ATOM      4  C   UNL     1      48.233 -28.074 -32.428  1.00  0.00     0.200 A 
ATOM      5  C   UNL     1      46.961 -28.416 -31.902  1.00  0.00     0.161 A 
ATOM      6  C   UNL     1      46.882 -29.133 -30.702  1.00  0.00     0.050 A 
ENDROOT
BRANCH   3   7
ATOM      7  O   UNL     1      50.664 -28.145 -32.217  1.00  0.00    -0.504 OA
ATOM      8  H   UNL     1      51.503 -28.589 -31.866  1.00  0.00     0.293 HD
ENDBRANCH   3   7
BRANCH   5   9
ATOM      9  O   UNL     1      45.763 -28.068 -32.531  1.00  0.00    -0.504 OA
ATOM     10  H   UNL     1      44.907 -27.857 -32.041  1.00  0.00     0.293 HD
ENDBRANCH   5   9
BRANCH   4  11
ATOM     11  O   UNL     1      48.377 -27.361 -33.621  1.00  0.00    -0.502 OA
ATOM     12  H   UNL     1      48.949 -26.536 -33.724  1.00  0.00     0.293 HD
ENDBRANCH   4  11
TORSDOF 3
ENDMDL
MODEL 4
REMARK VINA RESULT:    -3.892     17.308     18.662
REMARK INTER + INTRA:          -4.233
REMARK INTER:                  -4.233
REMARK INTRA:                   0.000
REMARK UNBOUND:                 0.000
REMARK SMILES Oc1cccc(O)c1O
REMARK SMILES IDX 4 1 5 2 6 3 8 4 2 5 3 6 7 7 1 9 9 11
REMARK H PARENT 7 8 1 10 9 12
REMARK Flexibility Score: inf
ROOT
ATOM      1  C   UNL     1      38.025 -41.702 -26.996  1.00  0.00     0.008 A 
ATOM      2  C   UNL     1      38.167 -42.904 -27.687  1.00  0.00     0.050 A 
ATOM      3  C   UNL     1      38.508 -42.901 -29.043  1.00  0.00     0.161 A 
ATOM      4  C   UNL     1      38.711 -41.683 -29.720  1.00  0.00     0.200 A 
ATOM      5  C   UNL     1      38.565 -40.462 -29.012  1.00  0.00     0.161 A 
ATOM      6  C   UNL     1      38.222 -40.489 -27.655  1.00  0.00     0.050 A 
ENDROOT
BRANCH   3   7
ATOM      7  O   UNL     1      38.641 -44.123 -29.703  1.00  0.00    -0.504 OA
ATOM      8  H   UNL     1      38.121 -44.342 -30.544  1.00  0.00     0.293 HD
ENDBRANCH   3   7
BRANCH   5   9
ATOM      9  O   UNL     1      38.749 -39.214 -29.611  1.00  0.00    -0.504 OA
ATOM     10  H   UNL     1      38.569 -39.022 -30.585  1.00  0.00     0.293 HD
ENDBRANCH   5   9
BRANCH   4  11
ATOM     11  O   UNL     1      39.050 -41.721 -31.075  1.00  0.00    -0.502 OA
ATOM     12  H   UNL     1      38.399 -41.924 -31.818  1.00  0.00     0.293 HD
ENDBRANCH   4  11
TORSDOF 3
ENDMDL
MODEL 5
REMARK VINA RESULT:    -3.872      1.917      3.699
REMARK INTER + INTRA:          -4.212
REMARK INTER:                  -4.212
REMARK INTRA:                   0.000
REMARK UNBOUND:                 0.000
REMARK SMILES Oc1cccc(O)c1O
REMARK SMILES IDX 4 1 5 2 6 3 8 4 2 5 3 6 7 7 1 9 9 11
REMARK H PARENT 7 8 1 10 9 12
REMARK Flexibility Score: inf
ROOT
ATOM      1  C   UNL     1      48.043 -29.504 -30.047  1.00  0.00     0.008 A 
ATOM      2  C   UNL     1      46.885 -29.126 -30.723  1.00  0.00     0.050 A 
ATOM      3  C   UNL     1      46.969 -28.406 -31.918  1.00  0.00     0.161 A 
ATOM      4  C   UNL     1      48.227 -28.056 -32.447  1.00  0.00     0.200 A 
ATOM      5  C   UNL     1      49.403 -28.442 -31.756  1.00  0.00     0.161 A 
ATOM      6  C   UNL     1      49.295 -29.163 -30.560  1.00  0.00     0.050 A 
ENDROOT
BRANCH   3   7
ATOM      7  O   UNL     1      45.789 -28.044 -32.568  1.00  0.00    -0.504 OA
ATOM      8  H   UNL     1      45.536 -27.077 -32.731  1.00  0.00     0.293 HD
ENDBRANCH   3   7
BRANCH   5   9
ATOM      9  O   UNL     1      50.686 -28.134 -32.214  1.00  0.00    -0.504 OA
ATOM     10  H   UNL     1      51.270 -27.412 -31.820  1.00  0.00     0.293 HD
ENDBRANCH   5   9
BRANCH   4  11
ATOM     11  O   UNL     1      48.270 -27.335 -33.644  1.00  0.00    -0.502 OA
ATOM     12  H   UNL     1      48.738 -26.449 -33.756  1.00  0.00     0.293 HD
ENDBRANCH   4  11
TORSDOF 3
ENDMDL
MODEL 6
REMARK VINA RESULT:    -3.834      1.986      2.211
REMARK INTER + INTRA:          -4.170
REMARK INTER:                  -4.170
REMARK INTRA:                   0.000
REMARK UNBOUND:                 0.000
REMARK SMILES Oc1cccc(O)c1O
REMARK SMILES IDX 4 1 5 2 6 3 8 4 2 5 3 6 7 7 1 9 9 11
REMARK H PARENT 7 8 1 10 9 12
REMARK Flexibility Score: inf
ROOT
ATOM      1  C   UNL     1      50.265 -27.630 -30.163  1.00  0.00     0.008 A 
ATOM      2  C   UNL     1      51.309 -28.527 -29.949  1.00  0.00     0.050 A 
ATOM      3  C   UNL     1      51.937 -29.151 -31.031  1.00  0.00     0.161 A 
ATOM      4  C   UNL     1      51.516 -28.877 -32.347  1.00  0.00     0.200 A 
ATOM      5  C   UNL     1      50.454 -27.963 -32.561  1.00  0.00     0.161 A 
ATOM      6  C   UNL     1      49.839 -27.350 -31.462  1.00  0.00     0.050 A 
ENDROOT
BRANCH   3   7
ATOM      7  O   UNL     1      52.978 -30.044 -30.779  1.00  0.00    -0.504 OA
ATOM      8  H   UNL     1      52.989 -30.647 -29.965  1.00  0.00     0.293 HD
ENDBRANCH   3   7
BRANCH   5   9
ATOM      9  O   UNL     1      49.979 -27.638 -33.835  1.00  0.00    -0.504 OA
ATOM     10  H   UNL     1      50.060 -28.242 -34.639  1.00  0.00     0.293 HD
ENDBRANCH   5   9
BRANCH   4  11
ATOM     11  O   UNL     1      52.168 -29.521 -33.403  1.00  0.00    -0.502 OA
ATOM     12  H   UNL     1      52.473 -30.482 -33.380  1.00  0.00     0.293 HD
ENDBRANCH   4  11
TORSDOF 3
ENDMDL
MODEL 7
REMARK VINA RESULT:    -3.794      1.999      2.978
REMARK INTER + INTRA:          -4.127
REMARK INTER:                  -4.127
REMARK INTRA:                   0.000
REMARK UNBOUND:                 0.000
REMARK SMILES Oc1cccc(O)c1O
REMARK SMILES IDX 4 1 5 2 6 3 8 4 2 5 3 6 7 7 1 9 9 11
REMARK H PARENT 7 8 1 10 9 12
REMARK Flexibility Score: inf
ROOT
ATOM      1  C   UNL     1      50.382 -27.527 -30.072  1.00  0.00     0.008 A 
ATOM      2  C   UNL     1      49.955 -27.259 -31.372  1.00  0.00     0.050 A 
ATOM      3  C   UNL     1      50.539 -27.919 -32.456  1.00  0.00     0.161 A 
ATOM      4  C   UNL     1      51.565 -28.861 -32.243  1.00  0.00     0.200 A 
ATOM      5  C   UNL     1      51.996 -29.131 -30.919  1.00  0.00     0.161 A 
ATOM      6  C   UNL     1      51.396 -28.457 -29.848  1.00  0.00     0.050 A 
ENDROOT
BRANCH   3   7
ATOM      7  O   UNL     1      50.088 -27.625 -33.743  1.00  0.00    -0.504 OA
ATOM      8  H   UNL     1      50.427 -28.117 -34.561  1.00  0.00     0.293 HD
ENDBRANCH   3   7
BRANCH   5   9
ATOM      9  O   UNL     1      53.006 -30.050 -30.625  1.00  0.00    -0.504 OA
ATOM     10  H   UNL     1      53.980 -29.808 -30.527  1.00  0.00     0.293 HD
ENDBRANCH   5   9
BRANCH   4  11
ATOM     11  O   UNL     1      52.125 -29.500 -33.353  1.00  0.00    -0.502 OA
ATOM     12  H   UNL     1      52.425 -29.024 -34.190  1.00  0.00     0.293 HD
ENDBRANCH   4  11
TORSDOF 3
ENDMDL
MODEL 8
REMARK VINA RESULT:    -3.790      1.917      2.501
REMARK INTER + INTRA:          -4.122
REMARK INTER:                  -4.122
REMARK INTRA:                   0.000
REMARK UNBOUND:                 0.000
REMARK SMILES Oc1cccc(O)c1O
REMARK SMILES IDX 4 1 5 2 6 3 8 4 2 5 3 6 7 7 1 9 9 11
REMARK H PARENT 7 8 1 10 9 12
REMARK Flexibility Score: inf
ROOT
ATOM      1  C   UNL     1      52.365 -28.107 -30.212  1.00  0.00     0.008 A 
ATOM      2  C   UNL     1      52.600 -28.874 -31.352  1.00  0.00     0.050 A 
ATOM      3  C   UNL     1      51.792 -28.724 -32.482  1.00  0.00     0.161 A 
ATOM      4  C   UNL     1      50.733 -27.795 -32.477  1.00  0.00     0.200 A 
ATOM      5  C   UNL     1      50.498 -27.016 -31.316  1.00  0.00     0.161 A 
ATOM      6  C   UNL     1      51.320 -27.184 -30.195  1.00  0.00     0.050 A 
ENDROOT
BRANCH   3   7
ATOM      7  O   UNL     1      52.056 -29.510 -33.605  1.00  0.00    -0.504 OA
ATOM      8  H   UNL     1      52.822 -30.171 -33.635  1.00  0.00     0.293 HD
ENDBRANCH   3   7
BRANCH   5   9
ATOM      9  O   UNL     1      49.469 -26.075 -31.232  1.00  0.00    -0.504 OA
ATOM     10  H   UNL     1      49.310 -25.348 -31.914  1.00  0.00     0.293 HD
ENDBRANCH   5   9
BRANCH   4  11
ATOM     11  O   UNL     1      49.947 -27.674 -33.626  1.00  0.00    -0.502 OA
ATOM     12  H   UNL     1      48.969 -27.918 -33.673  1.00  0.00     0.293 HD
ENDBRANCH   4  11
TORSDOF 3
ENDMDL
MODEL 9
REMARK VINA RESULT:    -3.771      1.904      2.925
REMARK INTER + INTRA:          -4.102
REMARK INTER:                  -4.102
REMARK INTRA:                   0.000
REMARK UNBOUND:                 0.000
REMARK SMILES Oc1cccc(O)c1O
REMARK SMILES IDX 4 1 5 2 6 3 8 4 2 5 3 6 7 7 1 9 9 11
REMARK H PARENT 7 8 1 10 9 12
REMARK Flexibility Score: inf
ROOT
ATOM      1  C   UNL     1      52.346 -28.076 -30.209  1.00  0.00     0.008 A 
ATOM      2  C   UNL     1      51.282 -27.177 -30.205  1.00  0.00     0.050 A 
ATOM      3  C   UNL     1      50.470 -27.039 -31.335  1.00  0.00     0.161 A 
ATOM      4  C   UNL     1      50.723 -27.810 -32.487  1.00  0.00     0.200 A 
ATOM      5  C   UNL     1      51.806 -28.725 -32.486  1.00  0.00     0.161 A 
ATOM      6  C   UNL     1      52.607 -28.845 -31.343  1.00  0.00     0.050 A 
ENDROOT
BRANCH   3   7
ATOM      7  O   UNL     1      49.414 -26.128 -31.296  1.00  0.00    -0.504 OA
ATOM      8  H   UNL     1      49.014 -25.727 -32.136  1.00  0.00     0.293 HD
ENDBRANCH   3   7
BRANCH   5   9
ATOM      9  O   UNL     1      52.122 -29.524 -33.587  1.00  0.00    -0.504 OA
ATOM     10  H   UNL     1      52.926 -30.132 -33.633  1.00  0.00     0.293 HD
ENDBRANCH   5   9
BRANCH   4  11
ATOM     11  O   UNL     1      49.890 -27.644 -33.597  1.00  0.00    -0.502 OA
ATOM     12  H   UNL     1      48.930 -27.951 -33.637  1.00  0.00     0.293 HD
ENDBRANCH   4  11
TORSDOF 3
ENDMDL
