MODEL 1
REMARK VINA RESULT:    -4.062      0.000      0.000
REMARK INTER + INTRA:          -6.271
REMARK INTER:                  -5.724
REMARK INTRA:                  -0.547
REMARK UNBOUND:                -0.547
REMARK SMILES CCCCCCCCC(=O)[O-]
REMARK SMILES IDX 6 1 7 2 8 3 9 4 10 5 11 6 5 7 4 8 3 9 2 10 1 11
REMARK H PARENT
REMARK Flexibility Score: inf
ROOT
ATOM      1  C   UNL     1     -27.418 -20.938 -29.684  1.00  0.00     0.000 C 
ENDROOT
BRANCH   1   2
ATOM      2  C   UNL     1     -27.901 -21.260 -28.257  1.00  0.00     0.006 C 
BRANCH   2   3
ATOM      3  C   UNL     1     -27.312 -20.350 -27.168  1.00  0.00     0.053 C 
BRANCH   3   4
ATOM      4  C   UNL     1     -28.371 -19.585 -26.437  1.00  0.00     0.041 C 
ATOM      5  O   UNL     1     -29.468 -19.327 -27.001  1.00  0.00    -0.550 OA
ATOM      6  O   UNL     1     -28.162 -19.186 -25.124  1.00  0.00    -0.550 OA
ENDBRANCH   3   4
ENDBRANCH   2   3
ENDBRANCH   1   2
BRANCH   1   7
ATOM      7  C   UNL     1     -25.897 -21.075 -29.843  1.00  0.00     0.000 C 
BRANCH   7   8
ATOM      8  C   UNL     1     -25.482 -22.553 -29.891  1.00  0.00    -0.000 C 
BRANCH   8   9
ATOM      9  C   UNL     1     -24.168 -22.832 -29.140  1.00  0.00    -0.000 C 
BRANCH   9  10
ATOM     10  C   UNL     1     -23.967 -22.007 -27.856  1.00  0.00    -0.003 C 
ATOM     11  C   UNL     1     -23.354 -22.816 -26.713  1.00  0.00     0.004 C 
ENDBRANCH   9  10
ENDBRANCH   8   9
ENDBRANCH   7   8
ENDBRANCH   1   7
TORSDOF 7
ENDMDL
MODEL 2
REMARK VINA RESULT:    -3.790     13.843     15.410
REMARK INTER + INTRA:          -5.888
REMARK INTER:                  -5.397
REMARK INTRA:                  -0.491
REMARK UNBOUND:                -0.547
REMARK SMILES CCCCCCCCC(=O)[O-]
REMARK SMILES IDX 6 1 7 2 8 3 9 4 10 5 11 6 5 7 4 8 3 9 2 10 1 11
REMARK H PARENT
REMARK Flexibility Score: inf
ROOT
ATOM      1  C   UNL     1     -22.287 -13.059 -17.437  1.00  0.00     0.000 C 
ENDROOT
BRANCH   1   2
ATOM      2  C   UNL     1     -21.391 -14.081 -16.712  1.00  0.00     0.006 C 
BRANCH   2   3
ATOM      3  C   UNL     1     -20.606 -15.013 -17.649  1.00  0.00     0.053 C 
BRANCH   3   4
ATOM      4  C   UNL     1     -19.143 -14.694 -17.665  1.00  0.00     0.041 C 
ATOM      5  O   UNL     1     -18.293 -15.622 -17.725  1.00  0.00    -0.550 OA
ATOM      6  O   UNL     1     -18.718 -13.372 -17.651  1.00  0.00    -0.550 OA
ENDBRANCH   3   4
ENDBRANCH   2   3
ENDBRANCH   1   2
BRANCH   1   7
ATOM      7  C   UNL     1     -23.017 -12.116 -16.470  1.00  0.00     0.000 C 
BRANCH   7   8
ATOM      8  C   UNL     1     -23.021 -12.686 -15.044  1.00  0.00    -0.000 C 
BRANCH   8   9
ATOM      9  C   UNL     1     -24.376 -12.518 -14.333  1.00  0.00    -0.000 C 
BRANCH   9  10
ATOM     10  C   UNL     1     -25.075 -13.834 -13.950  1.00  0.00    -0.003 C 
ATOM     11  C   UNL     1     -24.258 -15.074 -14.311  1.00  0.00     0.004 C 
ENDBRANCH   9  10
ENDBRANCH   8   9
ENDBRANCH   7   8
ENDBRANCH   1   7
TORSDOF 7
ENDMDL
MODEL 3
REMARK VINA RESULT:    -3.763     13.680     14.664
REMARK INTER + INTRA:          -5.849
REMARK INTER:                  -5.433
REMARK INTRA:                  -0.416
REMARK UNBOUND:                -0.547
REMARK SMILES CCCCCCCCC(=O)[O-]
REMARK SMILES IDX 6 1 7 2 8 3 9 4 10 5 11 6 5 7 4 8 3 9 2 10 1 11
REMARK H PARENT
REMARK Flexibility Score: inf
ROOT
ATOM      1  C   UNL     1     -22.712 -13.417 -16.880  1.00  0.00     0.000 C 
ENDROOT
BRANCH   1   2
ATOM      2  C   UNL     1     -22.656 -13.245 -15.350  1.00  0.00     0.006 C 
BRANCH   2   3
ATOM      3  C   UNL     1     -23.417 -14.324 -14.563  1.00  0.00     0.053 C 
BRANCH   3   4
ATOM      4  C   UNL     1     -24.723 -13.821 -14.033  1.00  0.00     0.041 C 
ATOM      5  O   UNL     1     -24.821 -12.639 -13.608  1.00  0.00    -0.550 OA
ATOM      6  O   UNL     1     -25.842 -14.644 -14.041  1.00  0.00    -0.550 OA
ENDBRANCH   3   4
ENDBRANCH   2   3
ENDBRANCH   1   2
BRANCH   1   7
ATOM      7  C   UNL     1     -22.591 -12.085 -17.634  1.00  0.00     0.000 C 
BRANCH   7   8
ATOM      8  C   UNL     1     -22.034 -12.303 -19.048  1.00  0.00    -0.000 C 
BRANCH   8   9
ATOM      9  C   UNL     1     -20.507 -12.124 -19.126  1.00  0.00    -0.000 C 
BRANCH   9  10
ATOM     10  C   UNL     1     -19.695 -13.427 -19.023  1.00  0.00    -0.003 C 
ATOM     11  C   UNL     1     -19.007 -13.598 -17.668  1.00  0.00     0.004 C 
ENDBRANCH   9  10
ENDBRANCH   8   9
ENDBRANCH   7   8
ENDBRANCH   1   7
TORSDOF 7
ENDMDL
MODEL 4
REMARK VINA RESULT:    -3.748     14.127     15.150
REMARK INTER + INTRA:          -5.829
REMARK INTER:                  -5.401
REMARK INTRA:                  -0.428
REMARK UNBOUND:                -0.547
REMARK SMILES CCCCCCCCC(=O)[O-]
REMARK SMILES IDX 6 1 7 2 8 3 9 4 10 5 11 6 5 7 4 8 3 9 2 10 1 11
REMARK H PARENT
REMARK Flexibility Score: inf
ROOT
ATOM      1  C   UNL     1     -21.623 -13.677 -17.161  1.00  0.00     0.000 C 
ENDROOT
BRANCH   1   2
ATOM      2  C   UNL     1     -20.483 -13.454 -18.172  1.00  0.00     0.006 C 
BRANCH   2   3
ATOM      3  C   UNL     1     -19.073 -13.637 -17.588  1.00  0.00     0.053 C 
BRANCH   3   4
ATOM      4  C   UNL     1     -18.443 -14.923 -18.024  1.00  0.00     0.041 C 
ATOM      5  O   UNL     1     -17.564 -14.924 -18.926  1.00  0.00    -0.550 OA
ATOM      6  O   UNL     1     -18.800 -16.117 -17.410  1.00  0.00    -0.550 OA
ENDBRANCH   3   4
ENDBRANCH   2   3
ENDBRANCH   1   2
BRANCH   1   7
ATOM      7  C   UNL     1     -22.691 -12.575 -17.215  1.00  0.00     0.000 C 
BRANCH   7   8
ATOM      8  C   UNL     1     -23.232 -12.266 -15.811  1.00  0.00    -0.000 C 
BRANCH   8   9
ATOM      9  C   UNL     1     -22.843 -13.331 -14.770  1.00  0.00    -0.000 C 
BRANCH   9  10
ATOM     10  C   UNL     1     -24.003 -14.220 -14.287  1.00  0.00    -0.003 C 
ATOM     11  C   UNL     1     -24.024 -15.594 -14.956  1.00  0.00     0.004 C 
ENDBRANCH   9  10
ENDBRANCH   8   9
ENDBRANCH   7   8
ENDBRANCH   1   7
TORSDOF 7
ENDMDL
MODEL 5
REMARK VINA RESULT:    -3.721     13.421     15.038
REMARK INTER + INTRA:          -5.791
REMARK INTER:                  -5.375
REMARK INTRA:                  -0.416
REMARK UNBOUND:                -0.547
REMARK SMILES CCCCCCCCC(=O)[O-]
REMARK SMILES IDX 6 1 7 2 8 3 9 4 10 5 11 6 5 7 4 8 3 9 2 10 1 11
REMARK H PARENT
REMARK Flexibility Score: inf
ROOT
ATOM      1  C   UNL     1     -22.923 -13.008 -17.801  1.00  0.00     0.000 C 
ENDROOT
BRANCH   1   2
ATOM      2  C   UNL     1     -22.345 -12.339 -19.063  1.00  0.00     0.006 C 
BRANCH   2   3
ATOM      3  C   UNL     1     -20.832 -12.071 -19.001  1.00  0.00     0.053 C 
BRANCH   3   4
ATOM      4  C   UNL     1     -20.049 -13.317 -18.724  1.00  0.00     0.041 C 
ATOM      5  O   UNL     1     -19.401 -13.432 -17.649  1.00  0.00    -0.550 OA
ATOM      6  O   UNL     1     -20.064 -14.366 -19.634  1.00  0.00    -0.550 OA
ENDBRANCH   3   4
ENDBRANCH   2   3
ENDBRANCH   1   2
BRANCH   1   7
ATOM      7  C   UNL     1     -22.936 -12.072 -16.584  1.00  0.00     0.000 C 
BRANCH   7   8
ATOM      8  C   UNL     1     -22.988 -12.875 -15.276  1.00  0.00    -0.000 C 
BRANCH   8   9
ATOM      9  C   UNL     1     -24.200 -12.514 -14.397  1.00  0.00    -0.000 C 
BRANCH   9  10
ATOM     10  C   UNL     1     -25.092 -13.705 -14.003  1.00  0.00    -0.003 C 
ATOM     11  C   UNL     1     -24.450 -15.060 -14.299  1.00  0.00     0.004 C 
ENDBRANCH   9  10
ENDBRANCH   8   9
ENDBRANCH   7   8
ENDBRANCH   1   7
TORSDOF 7
ENDMDL
MODEL 6
REMARK VINA RESULT:    -3.697      3.277      5.156
REMARK INTER + INTRA:          -5.758
REMARK INTER:                  -5.381
REMARK INTRA:                  -0.377
REMARK UNBOUND:                -0.547
REMARK SMILES CCCCCCCCC(=O)[O-]
REMARK SMILES IDX 6 1 7 2 8 3 9 4 10 5 11 6 5 7 4 8 3 9 2 10 1 11
REMARK H PARENT
REMARK Flexibility Score: inf
ROOT
ATOM      1  C   UNL     1     -25.643 -21.375 -29.446  1.00  0.00     0.000 C 
ENDROOT
BRANCH   1   2
ATOM      2  C   UNL     1     -24.269 -21.874 -28.961  1.00  0.00     0.006 C 
BRANCH   2   3
ATOM      3  C   UNL     1     -24.294 -22.562 -27.587  1.00  0.00     0.053 C 
BRANCH   3   4
ATOM      4  C   UNL     1     -22.931 -22.645 -26.973  1.00  0.00     0.041 C 
ATOM      5  O   UNL     1     -21.995 -21.923 -27.409  1.00  0.00    -0.550 OA
ATOM      6  O   UNL     1     -22.702 -23.492 -25.896  1.00  0.00    -0.550 OA
ENDBRANCH   3   4
ENDBRANCH   2   3
ENDBRANCH   1   2
BRANCH   1   7
ATOM      7  C   UNL     1     -26.814 -22.115 -28.782  1.00  0.00     0.000 C 
BRANCH   7   8
ATOM      8  C   UNL     1     -27.830 -21.122 -28.200  1.00  0.00    -0.000 C 
BRANCH   8   9
ATOM      9  C   UNL     1     -27.208 -20.160 -27.171  1.00  0.00    -0.000 C 
BRANCH   9  10
ATOM     10  C   UNL     1     -28.125 -19.792 -25.990  1.00  0.00    -0.003 C 
ATOM     11  C   UNL     1     -29.456 -19.183 -26.432  1.00  0.00     0.004 C 
ENDBRANCH   9  10
ENDBRANCH   8   9
ENDBRANCH   7   8
ENDBRANCH   1   7
TORSDOF 7
ENDMDL
MODEL 7
REMARK VINA RESULT:    -3.654     13.803     14.768
REMARK INTER + INTRA:          -5.697
REMARK INTER:                  -5.313
REMARK INTRA:                  -0.384
REMARK UNBOUND:                -0.547
REMARK SMILES CCCCCCCCC(=O)[O-]
REMARK SMILES IDX 6 1 7 2 8 3 9 4 10 5 11 6 5 7 4 8 3 9 2 10 1 11
REMARK H PARENT
REMARK Flexibility Score: inf
ROOT
ATOM      1  C   UNL     1     -23.071 -12.763 -14.944  1.00  0.00     0.000 C 
ENDROOT
BRANCH   1   2
ATOM      2  C   UNL     1     -23.500 -14.242 -14.953  1.00  0.00     0.006 C 
BRANCH   2   3
ATOM      3  C   UNL     1     -24.687 -14.563 -14.031  1.00  0.00     0.053 C 
BRANCH   3   4
ATOM      4  C   UNL     1     -24.986 -16.029 -13.986  1.00  0.00     0.041 C 
ATOM      5  O   UNL     1     -25.461 -16.547 -12.940  1.00  0.00    -0.550 OA
ATOM      6  O   UNL     1     -24.775 -16.818 -15.109  1.00  0.00    -0.550 OA
ENDBRANCH   3   4
ENDBRANCH   2   3
ENDBRANCH   1   2
BRANCH   1   7
ATOM      7  C   UNL     1     -23.055 -12.138 -16.347  1.00  0.00     0.000 C 
BRANCH   7   8
ATOM      8  C   UNL     1     -22.802 -13.207 -17.420  1.00  0.00    -0.000 C 
BRANCH   8   9
ATOM      9  C   UNL     1     -21.398 -13.112 -18.044  1.00  0.00    -0.000 C 
BRANCH   9  10
ATOM     10  C   UNL     1     -20.328 -13.990 -17.370  1.00  0.00    -0.003 C 
ATOM     11  C   UNL     1     -18.900 -13.561 -17.709  1.00  0.00     0.004 C 
ENDBRANCH   9  10
ENDBRANCH   8   9
ENDBRANCH   7   8
ENDBRANCH   1   7
TORSDOF 7
ENDMDL
MODEL 8
REMARK VINA RESULT:    -3.624     14.320     15.015
REMARK INTER + INTRA:          -5.655
REMARK INTER:                  -5.167
REMARK INTRA:                  -0.488
REMARK UNBOUND:                -0.547
REMARK SMILES CCCCCCCCC(=O)[O-]
REMARK SMILES IDX 6 1 7 2 8 3 9 4 10 5 11 6 5 7 4 8 3 9 2 10 1 11
REMARK H PARENT
REMARK Flexibility Score: inf
ROOT
ATOM      1  C   UNL     1     -24.565 -13.442 -14.096  1.00  0.00     0.000 C 
ENDROOT
BRANCH   1   2
ATOM      2  C   UNL     1     -25.010 -14.916 -14.162  1.00  0.00     0.006 C 
BRANCH   2   3
ATOM      3  C   UNL     1     -24.110 -15.811 -15.029  1.00  0.00     0.053 C 
BRANCH   3   4
ATOM      4  C   UNL     1     -23.819 -17.124 -14.370  1.00  0.00     0.041 C 
ATOM      5  O   UNL     1     -24.644 -17.621 -13.557  1.00  0.00    -0.550 OA
ATOM      6  O   UNL     1     -22.656 -17.816 -14.680  1.00  0.00    -0.550 OA
ENDBRANCH   3   4
ENDBRANCH   2   3
ENDBRANCH   1   2
BRANCH   1   7
ATOM      7  C   UNL     1     -23.188 -13.207 -14.733  1.00  0.00     0.000 C 
BRANCH   7   8
ATOM      8  C   UNL     1     -23.289 -12.224 -15.909  1.00  0.00    -0.000 C 
BRANCH   8   9
ATOM      9  C   UNL     1     -22.482 -12.675 -17.140  1.00  0.00    -0.000 C 
BRANCH   9  10
ATOM     10  C   UNL     1     -21.494 -13.826 -16.881  1.00  0.00    -0.003 C 
ATOM     11  C   UNL     1     -20.141 -13.620 -17.561  1.00  0.00     0.004 C 
ENDBRANCH   9  10
ENDBRANCH   8   9
ENDBRANCH   7   8
ENDBRANCH   1   7
TORSDOF 7
ENDMDL
MODEL 9
REMARK VINA RESULT:    -3.571     12.832     14.318
REMARK INTER + INTRA:          -5.579
REMARK INTER:                  -5.077
REMARK INTRA:                  -0.502
REMARK UNBOUND:                -0.547
REMARK SMILES CCCCCCCCC(=O)[O-]
REMARK SMILES IDX 6 1 7 2 8 3 9 4 10 5 11 6 5 7 4 8 3 9 2 10 1 11
REMARK H PARENT
REMARK Flexibility Score: inf
ROOT
ATOM      1  C   UNL     1     -21.540 -14.380 -16.959  1.00  0.00     0.000 C 
ENDROOT
BRANCH   1   2
ATOM      2  C   UNL     1     -22.515 -13.344 -16.367  1.00  0.00     0.006 C 
BRANCH   2   3
ATOM      3  C   UNL     1     -22.645 -13.398 -14.837  1.00  0.00     0.053 C 
BRANCH   3   4
ATOM      4  C   UNL     1     -23.826 -14.208 -14.399  1.00  0.00     0.041 C 
ATOM      5  O   UNL     1     -23.767 -15.467 -14.401  1.00  0.00    -0.550 OA
ATOM      6  O   UNL     1     -24.979 -13.575 -13.955  1.00  0.00    -0.550 OA
ENDBRANCH   3   4
ENDBRANCH   2   3
ENDBRANCH   1   2
BRANCH   1   7
ATOM      7  C   UNL     1     -20.153 -13.791 -17.254  1.00  0.00     0.000 C 
BRANCH   7   8
ATOM      8  C   UNL     1     -19.960 -13.570 -18.762  1.00  0.00    -0.000 C 
BRANCH   8   9
ATOM      9  C   UNL     1     -20.496 -12.209 -19.243  1.00  0.00    -0.000 C 
BRANCH   9  10
ATOM     10  C   UNL     1     -21.421 -12.274 -20.471  1.00  0.00    -0.003 C 
ATOM     11  C   UNL     1     -22.596 -13.235 -20.286  1.00  0.00     0.004 C 
ENDBRANCH   9  10
ENDBRANCH   8   9
ENDBRANCH   7   8
ENDBRANCH   1   7
TORSDOF 7
ENDMDL
