MODEL 1
REMARK VINA RESULT:    -4.683      0.000      0.000
REMARK INTER + INTRA:          -7.575
REMARK INTER:                  -7.147
REMARK INTRA:                  -0.428
REMARK UNBOUND:                -0.428
REMARK SMILES O=C([O-])CCCCCCCCC(=O)[O-]
REMARK SMILES IDX 7 1 6 2 5 3 4 4 2 5 1 6 3 7 8 8 9 9 10 10 11 11 12 12 13 13
REMARK SMILES IDX 14 14
REMARK H PARENT
REMARK Flexibility Score: inf
ROOT
ATOM      1  C   UNL     1       0.952  24.701  46.970  1.00  0.00     0.000 C 
ENDROOT
BRANCH   1   2
ATOM      2  C   UNL     1       1.304  24.062  45.613  1.00  0.00     0.000 C 
BRANCH   2   3
ATOM      3  C   UNL     1       2.368  22.951  45.675  1.00  0.00     0.006 C 
BRANCH   3   4
ATOM      4  C   UNL     1       3.250  22.898  44.420  1.00  0.00     0.053 C 
BRANCH   4   5
ATOM      5  C   UNL     1       2.506  22.268  43.285  1.00  0.00     0.041 C 
ATOM      6  O   UNL     1       2.738  22.627  42.101  1.00  0.00    -0.550 OA
ATOM      7  O   UNL     1       1.594  21.250  43.531  1.00  0.00    -0.550 OA
ENDBRANCH   4   5
ENDBRANCH   3   4
ENDBRANCH   2   3
ENDBRANCH   1   2
BRANCH   1   8
ATOM      8  C   UNL     1       1.781  24.135  48.132  1.00  0.00     0.000 C 
BRANCH   8   9
ATOM      9  C   UNL     1       1.288  24.683  49.477  1.00  0.00     0.000 C 
BRANCH   9  10
ATOM     10  C   UNL     1       1.792  23.819  50.642  1.00  0.00     0.006 C 
BRANCH  10  11
ATOM     11  C   UNL     1       2.761  22.724  50.175  1.00  0.00     0.053 C 
BRANCH  11  12
ATOM     12  C   UNL     1       3.490  22.098  51.324  1.00  0.00     0.041 C 
ATOM     13  O   UNL     1       4.701  22.377  51.533  1.00  0.00    -0.550 OA
ATOM     14  O   UNL     1       2.824  21.236  52.184  1.00  0.00    -0.550 OA
ENDBRANCH  11  12
ENDBRANCH  10  11
ENDBRANCH   9  10
ENDBRANCH   8   9
ENDBRANCH   1   8
TORSDOF 9
ENDMDL
MODEL 2
REMARK VINA RESULT:    -4.674      0.987      1.536
REMARK INTER + INTRA:          -7.562
REMARK INTER:                  -7.067
REMARK INTRA:                  -0.494
REMARK UNBOUND:                -0.428
REMARK SMILES O=C([O-])CCCCCCCCC(=O)[O-]
REMARK SMILES IDX 7 1 6 2 5 3 4 4 2 5 1 6 3 7 8 8 9 9 10 10 11 11 12 12 13 13
REMARK SMILES IDX 14 14
REMARK H PARENT
REMARK Flexibility Score: inf
ROOT
ATOM      1  C   UNL     1       0.905  24.122  46.086  1.00  0.00     0.000 C 
ENDROOT
BRANCH   1   2
ATOM      2  C   UNL     1       2.369  24.010  45.623  1.00  0.00     0.000 C 
BRANCH   2   3
ATOM      3  C   UNL     1       2.775  22.627  45.083  1.00  0.00     0.006 C 
BRANCH   3   4
ATOM      4  C   UNL     1       3.198  22.660  43.609  1.00  0.00     0.053 C 
BRANCH   4   5
ATOM      5  C   UNL     1       2.285  21.809  42.784  1.00  0.00     0.041 C 
ATOM      6  O   UNL     1       1.368  21.146  43.336  1.00  0.00    -0.550 OA
ATOM      7  O   UNL     1       2.415  21.788  41.401  1.00  0.00    -0.550 OA
ENDBRANCH   4   5
ENDBRANCH   3   4
ENDBRANCH   2   3
ENDBRANCH   1   2
BRANCH   1   8
ATOM      8  C   UNL     1       0.737  24.991  47.342  1.00  0.00     0.000 C 
BRANCH   8   9
ATOM      9  C   UNL     1       1.997  24.947  48.214  1.00  0.00     0.000 C 
BRANCH   9  10
ATOM     10  C   UNL     1       1.718  24.243  49.550  1.00  0.00     0.006 C 
BRANCH  10  11
ATOM     11  C   UNL     1       2.614  23.014  49.756  1.00  0.00     0.053 C 
BRANCH  11  12
ATOM     12  C   UNL     1       2.173  22.194  50.929  1.00  0.00     0.041 C 
ATOM     13  O   UNL     1       2.942  21.323  51.418  1.00  0.00    -0.550 OA
ATOM     14  O   UNL     1       0.929  22.415  51.505  1.00  0.00    -0.550 OA
ENDBRANCH  11  12
ENDBRANCH  10  11
ENDBRANCH   9  10
ENDBRANCH   8   9
ENDBRANCH   1   8
TORSDOF 9
ENDMDL
MODEL 3
REMARK VINA RESULT:    -4.612      0.831      6.803
REMARK INTER + INTRA:          -7.468
REMARK INTER:                  -7.078
REMARK INTRA:                  -0.390
REMARK UNBOUND:                -0.428
REMARK SMILES O=C([O-])CCCCCCCCC(=O)[O-]
REMARK SMILES IDX 7 1 6 2 5 3 4 4 2 5 1 6 3 7 8 8 9 9 10 10 11 11 12 12 13 13
REMARK SMILES IDX 14 14
REMARK H PARENT
REMARK Flexibility Score: inf
ROOT
ATOM      1  C   UNL     1       1.696  24.094  47.723  1.00  0.00     0.000 C 
ENDROOT
BRANCH   1   2
ATOM      2  C   UNL     1       1.298  24.934  48.951  1.00  0.00     0.000 C 
BRANCH   2   3
ATOM      3  C   UNL     1       1.794  24.386  50.301  1.00  0.00     0.006 C 
BRANCH   3   4
ATOM      4  C   UNL     1       2.571  23.070  50.164  1.00  0.00     0.053 C 
BRANCH   4   5
ATOM      5  C   UNL     1       2.218  22.136  51.278  1.00  0.00     0.041 C 
ATOM      6  O   UNL     1       2.956  21.148  51.534  1.00  0.00    -0.550 OA
ATOM      7  O   UNL     1       1.101  22.384  52.066  1.00  0.00    -0.550 OA
ENDBRANCH   4   5
ENDBRANCH   3   4
ENDBRANCH   2   3
ENDBRANCH   1   2
BRANCH   1   8
ATOM      8  C   UNL     1       0.871  24.429  46.473  1.00  0.00     0.000 C 
BRANCH   8   9
ATOM      9  C   UNL     1       1.688  24.201  45.196  1.00  0.00     0.000 C 
BRANCH   9  10
ATOM     10  C   UNL     1       2.420  22.851  45.245  1.00  0.00     0.006 C 
BRANCH  10  11
ATOM     11  C   UNL     1       3.233  22.586  43.970  1.00  0.00     0.053 C 
BRANCH  11  12
ATOM     12  C   UNL     1       2.394  21.972  42.892  1.00  0.00     0.041 C 
ATOM     13  O   UNL     1       2.628  22.234  41.682  1.00  0.00    -0.550 OA
ATOM     14  O   UNL     1       1.379  21.084  43.221  1.00  0.00    -0.550 OA
ENDBRANCH  11  12
ENDBRANCH  10  11
ENDBRANCH   9  10
ENDBRANCH   8   9
ENDBRANCH   1   8
TORSDOF 9
ENDMDL
MODEL 4
REMARK VINA RESULT:    -4.549      1.009      6.942
REMARK INTER + INTRA:          -7.371
REMARK INTER:                  -7.015
REMARK INTRA:                  -0.356
REMARK UNBOUND:                -0.428
REMARK SMILES O=C([O-])CCCCCCCCC(=O)[O-]
REMARK SMILES IDX 7 1 6 2 5 3 4 4 2 5 1 6 3 7 8 8 9 9 10 10 11 11 12 12 13 13
REMARK SMILES IDX 14 14
REMARK H PARENT
REMARK Flexibility Score: inf
ROOT
ATOM      1  C   UNL     1       1.907  24.054  48.250  1.00  0.00     0.000 C 
ENDROOT
BRANCH   1   2
ATOM      2  C   UNL     1       1.524  24.365  49.708  1.00  0.00     0.000 C 
BRANCH   2   3
ATOM      3  C   UNL     1       2.422  23.706  50.771  1.00  0.00     0.006 C 
BRANCH   3   4
ATOM      4  C   UNL     1       2.418  22.174  50.690  1.00  0.00     0.053 C 
BRANCH   4   5
ATOM      5  C   UNL     1       2.607  21.578  52.049  1.00  0.00     0.041 C 
ATOM      6  O   UNL     1       3.502  20.714  52.243  1.00  0.00    -0.550 OA
ATOM      7  O   UNL     1       1.828  22.015  53.113  1.00  0.00    -0.550 OA
ENDBRANCH   4   5
ENDBRANCH   3   4
ENDBRANCH   2   3
ENDBRANCH   1   2
BRANCH   1   8
ATOM      8  C   UNL     1       1.014  24.772  47.228  1.00  0.00     0.000 C 
BRANCH   8   9
ATOM      9  C   UNL     1       1.074  24.079  45.861  1.00  0.00     0.000 C 
BRANCH   9  10
ATOM     10  C   UNL     1       2.364  23.257  45.717  1.00  0.00     0.006 C 
BRANCH  10  11
ATOM     11  C   UNL     1       2.267  22.219  44.591  1.00  0.00     0.053 C 
BRANCH  11  12
ATOM     12  C   UNL     1       2.962  22.680  43.347  1.00  0.00     0.041 C 
ATOM     13  O   UNL     1       2.702  22.140  42.239  1.00  0.00    -0.550 OA
ATOM     14  O   UNL     1       3.870  23.729  43.405  1.00  0.00    -0.550 OA
ENDBRANCH  11  12
ENDBRANCH  10  11
ENDBRANCH   9  10
ENDBRANCH   8   9
ENDBRANCH   1   8
TORSDOF 9
ENDMDL
MODEL 5
REMARK VINA RESULT:    -4.411      2.065      6.994
REMARK INTER + INTRA:          -7.160
REMARK INTER:                  -6.669
REMARK INTRA:                  -0.490
REMARK UNBOUND:                -0.428
REMARK SMILES O=C([O-])CCCCCCCCC(=O)[O-]
REMARK SMILES IDX 7 1 6 2 5 3 4 4 2 5 1 6 3 7 8 8 9 9 10 10 11 11 12 12 13 13
REMARK SMILES IDX 14 14
REMARK H PARENT
REMARK Flexibility Score: inf
ROOT
ATOM      1  C   UNL     1       1.345  24.219  45.780  1.00  0.00     0.000 C 
ENDROOT
BRANCH   1   2
ATOM      2  C   UNL     1       0.875  24.645  47.184  1.00  0.00     0.000 C 
BRANCH   2   3
ATOM      3  C   UNL     1       1.858  24.321  48.323  1.00  0.00     0.006 C 
BRANCH   3   4
ATOM      4  C   UNL     1       1.270  24.590  49.715  1.00  0.00     0.053 C 
BRANCH   4   5
ATOM      5  C   UNL     1       1.503  23.419  50.615  1.00  0.00     0.041 C 
ATOM      6  O   UNL     1       0.785  23.253  51.636  1.00  0.00    -0.550 OA
ATOM      7  O   UNL     1       2.478  22.482  50.300  1.00  0.00    -0.550 OA
ENDBRANCH   4   5
ENDBRANCH   3   4
ENDBRANCH   2   3
ENDBRANCH   1   2
BRANCH   1   8
ATOM      8  C   UNL     1       2.326  23.039  45.808  1.00  0.00     0.000 C 
BRANCH   8   9
ATOM      9  C   UNL     1       2.403  22.355  44.438  1.00  0.00     0.000 C 
BRANCH   9  10
ATOM     10  C   UNL     1       3.636  22.829  43.654  1.00  0.00     0.006 C 
BRANCH  10  11
ATOM     11  C   UNL     1       3.260  23.730  42.470  1.00  0.00     0.053 C 
BRANCH  11  12
ATOM     12  C   UNL     1       3.533  25.174  42.760  1.00  0.00     0.041 C 
ATOM     13  O   UNL     1       4.030  25.514  43.867  1.00  0.00    -0.550 OA
ATOM     14  O   UNL     1       3.271  26.139  41.797  1.00  0.00    -0.550 OA
ENDBRANCH  11  12
ENDBRANCH  10  11
ENDBRANCH   9  10
ENDBRANCH   8   9
ENDBRANCH   1   8
TORSDOF 9
ENDMDL
MODEL 6
REMARK VINA RESULT:    -4.323      1.160      6.794
REMARK INTER + INTRA:          -7.025
REMARK INTER:                  -6.636
REMARK INTRA:                  -0.389
REMARK UNBOUND:                -0.428
REMARK SMILES O=C([O-])CCCCCCCCC(=O)[O-]
REMARK SMILES IDX 7 1 6 2 5 3 4 4 2 5 1 6 3 7 8 8 9 9 10 10 11 11 12 12 13 13
REMARK SMILES IDX 14 14
REMARK H PARENT
REMARK Flexibility Score: inf
ROOT
ATOM      1  C   UNL     1       1.619  24.482  49.552  1.00  0.00     0.000 C 
ENDROOT
BRANCH   1   2
ATOM      2  C   UNL     1       2.424  23.194  49.803  1.00  0.00     0.000 C 
BRANCH   2   3
ATOM      3  C   UNL     1       2.306  22.621  51.227  1.00  0.00     0.006 C 
BRANCH   3   4
ATOM      4  C   UNL     1       3.548  21.831  51.658  1.00  0.00     0.053 C 
BRANCH   4   5
ATOM      5  C   UNL     1       4.699  22.756  51.896  1.00  0.00     0.041 C 
ATOM      6  O   UNL     1       4.808  23.361  52.995  1.00  0.00    -0.550 OA
ATOM      7  O   UNL     1       5.679  22.910  50.924  1.00  0.00    -0.550 OA
ENDBRANCH   4   5
ENDBRANCH   3   4
ENDBRANCH   2   3
ENDBRANCH   1   2
BRANCH   1   8
ATOM      8  C   UNL     1       1.867  25.085  48.162  1.00  0.00     0.000 C 
BRANCH   8   9
ATOM      9  C   UNL     1       1.123  24.296  47.079  1.00  0.00     0.000 C 
BRANCH   9  10
ATOM     10  C   UNL     1       1.975  24.166  45.808  1.00  0.00     0.006 C 
BRANCH  10  11
ATOM     11  C   UNL     1       2.455  22.726  45.577  1.00  0.00     0.053 C 
BRANCH  11  12
ATOM     12  C   UNL     1       2.620  22.422  44.120  1.00  0.00     0.041 C 
ATOM     13  O   UNL     1       1.898  21.548  43.569  1.00  0.00    -0.550 OA
ATOM     14  O   UNL     1       3.546  23.126  43.362  1.00  0.00    -0.550 OA
ENDBRANCH  11  12
ENDBRANCH  10  11
ENDBRANCH   9  10
ENDBRANCH   8   9
ENDBRANCH   1   8
TORSDOF 9
ENDMDL
MODEL 7
REMARK VINA RESULT:    -4.158      2.045      3.350
REMARK INTER + INTRA:          -6.774
REMARK INTER:                  -6.321
REMARK INTRA:                  -0.453
REMARK UNBOUND:                -0.428
REMARK SMILES O=C([O-])CCCCCCCCC(=O)[O-]
REMARK SMILES IDX 7 1 6 2 5 3 4 4 2 5 1 6 3 7 8 8 9 9 10 10 11 11 12 12 13 13
REMARK SMILES IDX 14 14
REMARK H PARENT
REMARK Flexibility Score: inf
ROOT
ATOM      1  C   UNL     1       1.314  23.973  50.656  1.00  0.00     0.000 C 
ENDROOT
BRANCH   1   2
ATOM      2  C   UNL     1       1.259  24.845  49.388  1.00  0.00     0.000 C 
BRANCH   2   3
ATOM      3  C   UNL     1       1.828  24.183  48.120  1.00  0.00     0.006 C 
BRANCH   3   4
ATOM      4  C   UNL     1       0.995  24.479  46.865  1.00  0.00     0.053 C 
BRANCH   4   5
ATOM      5  C   UNL     1       1.723  24.033  45.637  1.00  0.00     0.041 C 
ATOM      6  O   UNL     1       1.774  24.781  44.625  1.00  0.00    -0.550 OA
ATOM      7  O   UNL     1       2.390  22.815  45.627  1.00  0.00    -0.550 OA
ENDBRANCH   4   5
ENDBRANCH   3   4
ENDBRANCH   2   3
ENDBRANCH   1   2
BRANCH   1   8
ATOM      8  C   UNL     1       2.345  22.839  50.561  1.00  0.00     0.000 C 
BRANCH   8   9
ATOM      9  C   UNL     1       2.438  22.069  51.883  1.00  0.00     0.000 C 
BRANCH   9  10
ATOM     10  C   UNL     1       3.903  21.834  52.281  1.00  0.00     0.006 C 
BRANCH  10  11
ATOM     11  C   UNL     1       4.877  22.634  51.406  1.00  0.00     0.053 C 
BRANCH  11  12
ATOM     12  C   UNL     1       5.760  23.523  52.226  1.00  0.00     0.041 C 
ATOM     13  O   UNL     1       5.452  23.798  53.416  1.00  0.00    -0.550 OA
ATOM     14  O   UNL     1       6.940  24.020  51.688  1.00  0.00    -0.550 OA
ENDBRANCH  11  12
ENDBRANCH  10  11
ENDBRANCH   9  10
ENDBRANCH   8   9
ENDBRANCH   1   8
TORSDOF 9
ENDMDL
MODEL 8
REMARK VINA RESULT:    -4.123      2.102      2.930
REMARK INTER + INTRA:          -6.720
REMARK INTER:                  -6.403
REMARK INTRA:                  -0.317
REMARK UNBOUND:                -0.428
REMARK SMILES O=C([O-])CCCCCCCCC(=O)[O-]
REMARK SMILES IDX 7 1 6 2 5 3 4 4 2 5 1 6 3 7 8 8 9 9 10 10 11 11 12 12 13 13
REMARK SMILES IDX 14 14
REMARK H PARENT
REMARK Flexibility Score: inf
ROOT
ATOM      1  C   UNL     1       1.568  23.352  45.236  1.00  0.00     0.000 C 
ENDROOT
BRANCH   1   2
ATOM      2  C   UNL     1       2.498  22.242  44.715  1.00  0.00     0.000 C 
BRANCH   2   3
ATOM      3  C   UNL     1       3.155  22.532  43.353  1.00  0.00     0.006 C 
BRANCH   3   4
ATOM      4  C   UNL     1       3.755  23.941  43.265  1.00  0.00     0.053 C 
BRANCH   4   5
ATOM      5  C   UNL     1       3.931  24.346  41.836  1.00  0.00     0.041 C 
ATOM      6  O   UNL     1       3.034  24.089  40.990  1.00  0.00    -0.550 OA
ATOM      7  O   UNL     1       5.062  25.053  41.448  1.00  0.00    -0.550 OA
ENDBRANCH   4   5
ENDBRANCH   3   4
ENDBRANCH   2   3
ENDBRANCH   1   2
BRANCH   1   8
ATOM      8  C   UNL     1       1.884  23.773  46.679  1.00  0.00     0.000 C 
BRANCH   8   9
ATOM      9  C   UNL     1       0.793  24.696  47.235  1.00  0.00     0.000 C 
BRANCH   9  10
ATOM     10  C   UNL     1       1.173  25.221  48.628  1.00  0.00     0.006 C 
BRANCH  10  11
ATOM     11  C   UNL     1       1.779  24.124  49.515  1.00  0.00     0.053 C 
BRANCH  11  12
ATOM     12  C   UNL     1       1.042  23.987  50.812  1.00  0.00     0.041 C 
ATOM     13  O   UNL     1       0.605  25.011  51.403  1.00  0.00    -0.550 OA
ATOM     14  O   UNL     1       0.809  22.729  51.350  1.00  0.00    -0.550 OA
ENDBRANCH  11  12
ENDBRANCH  10  11
ENDBRANCH   9  10
ENDBRANCH   8   9
ENDBRANCH   1   8
TORSDOF 9
ENDMDL
MODEL 9
REMARK VINA RESULT:    -4.101      5.123      7.605
REMARK INTER + INTRA:          -6.688
REMARK INTER:                  -6.077
REMARK INTRA:                  -0.611
REMARK UNBOUND:                -0.428
REMARK SMILES O=C([O-])CCCCCCCCC(=O)[O-]
REMARK SMILES IDX 7 1 6 2 5 3 4 4 2 5 1 6 3 7 8 8 9 9 10 10 11 11 12 12 13 13
REMARK SMILES IDX 14 14
REMARK H PARENT
REMARK Flexibility Score: inf
ROOT
ATOM      1  C   UNL     1      -0.079  25.566  54.039  1.00  0.00     0.000 C 
ENDROOT
BRANCH   1   2
ATOM      2  C   UNL     1       0.102  24.125  53.527  1.00  0.00     0.000 C 
BRANCH   2   3
ATOM      3  C   UNL     1       0.608  24.009  52.078  1.00  0.00     0.006 C 
BRANCH   3   4
ATOM      4  C   UNL     1       0.661  22.560  51.577  1.00  0.00     0.053 C 
BRANCH   4   5
ATOM      5  C   UNL     1       2.080  22.108  51.433  1.00  0.00     0.041 C 
ATOM      6  O   UNL     1       2.612  21.396  52.324  1.00  0.00    -0.550 OA
ATOM      7  O   UNL     1       2.800  22.432  50.289  1.00  0.00    -0.550 OA
ENDBRANCH   4   5
ENDBRANCH   3   4
ENDBRANCH   2   3
ENDBRANCH   1   2
BRANCH   1   8
ATOM      8  C   UNL     1      -1.227  25.705  55.049  1.00  0.00     0.000 C 
BRANCH   8   9
ATOM      9  C   UNL     1      -2.108  24.450  55.057  1.00  0.00     0.000 C 
BRANCH   9  10
ATOM     10  C   UNL     1      -2.169  23.829  56.460  1.00  0.00     0.006 C 
BRANCH  10  11
ATOM     11  C   UNL     1      -0.952  24.208  57.316  1.00  0.00     0.053 C 
BRANCH  11  12
ATOM     12  C   UNL     1      -0.061  23.031  57.570  1.00  0.00     0.041 C 
ATOM     13  O   UNL     1       0.112  22.610  58.745  1.00  0.00    -0.550 OA
ATOM     14  O   UNL     1       0.550  22.378  56.507  1.00  0.00    -0.550 OA
ENDBRANCH  11  12
ENDBRANCH  10  11
ENDBRANCH   9  10
ENDBRANCH   8   9
ENDBRANCH   1   8
TORSDOF 9
ENDMDL
