MODEL 1
REMARK VINA RESULT:    -5.591      0.000      0.000
REMARK INTER + INTRA:          -5.525
REMARK INTER:                  -6.899
REMARK INTRA:                   1.374
REMARK UNBOUND:                 1.374
REMARK SMILES C=C1CC[C@@H]2[C@H]([C@@H]3[C@H](C)CC[C@@H]13)C2(C)C
REMARK SMILES IDX 3 1 2 2 1 3 12 4 9 5 8 6 10 7 7 8 11 9 4 11 5 12 6 13 13 14
REMARK SMILES IDX 14 16 15 17
REMARK H PARENT
REMARK Flexibility Score: 80.00
ROOT
ATOM      1  C   UNL     1     109.601 109.974 112.094  1.00  0.00     0.031 C 
ENDROOT
BRANCH   1   2
ATOM      2  C   UNL     1     110.750 110.924 112.400  1.00  0.00    -0.074 C 
ATOM      3  C   UNL     1     110.847 111.427 113.647  1.00  0.00     0.008 C 
BRANCH   2   4
ATOM      4  C   UNL     1     111.839 111.136 111.340  1.00  0.00     0.018 C 
ATOM      5  C   UNL     1     112.886 112.086 107.979  1.00  0.00     0.008 C 
ATOM      6  C   UNL     1     112.439 112.521 109.385  1.00  0.00    -0.010 C 
ATOM      7  C   UNL     1     113.600 112.465 110.381  1.00  0.00     0.004 C 
ATOM      8  C   UNL     1     111.280 111.705 110.025  1.00  0.00     0.003 CG0
ATOM      9  C   UNL     1     112.968 112.099 111.709  1.00  0.00     0.008 C 
ATOM     10  G   UNL     1     110.726 110.560 109.135  1.00  0.00     0.000 G0
ENDBRANCH   2   4
ENDBRANCH   1   2
BRANCH   1  11
ATOM     11  C   UNL     1     108.769 110.419 110.883  1.00  0.00     0.009 C 
BRANCH  11  12
ATOM     12  C   UNL     1     109.399 109.917 109.567  1.00  0.00    -0.001 C 
ATOM     13  C   UNL     1     110.723 110.563 109.126  1.00  0.00     0.002 CG0
ATOM     14  C   UNL     1     109.448 110.781 108.292  1.00  0.00    -0.029 C 
ATOM     15  G   UNL     1     111.284 111.707 110.011  1.00  0.00     0.000 G0
ATOM     16  C   UNL     1     108.821 112.187 108.224  1.00  0.00     0.011 C 
ATOM     17  C   UNL     1     109.435 109.997 106.974  1.00  0.00     0.011 C 
ENDBRANCH  11  12
ENDBRANCH   1  11
TORSDOF 0
ENDMDL
MODEL 2
REMARK VINA RESULT:    -5.563      3.352      5.948
REMARK INTER + INTRA:          -5.490
REMARK INTER:                  -6.850
REMARK INTRA:                   1.360
REMARK UNBOUND:                 1.374
REMARK SMILES C=C1CC[C@@H]2[C@H]([C@@H]3[C@H](C)CC[C@@H]13)C2(C)C
REMARK SMILES IDX 3 1 2 2 1 3 12 4 9 5 8 6 10 7 7 8 11 9 4 11 5 12 6 13 13 14
REMARK SMILES IDX 14 16 15 17
REMARK H PARENT
REMARK Flexibility Score: 80.00
ROOT
ATOM      1  C   UNL     1     112.843 112.254 116.901  1.00  0.00     0.031 C 
ENDROOT
BRANCH   1   2
ATOM      2  C   UNL     1     111.696 111.317 117.251  1.00  0.00    -0.074 C 
ATOM      3  C   UNL     1     111.660 110.785 118.489  1.00  0.00     0.008 C 
BRANCH   2   4
ATOM      4  C   UNL     1     110.544 111.150 116.251  1.00  0.00     0.018 C 
ATOM      5  C   UNL     1     109.288 110.295 112.936  1.00  0.00     0.008 C 
ATOM      6  C   UNL     1     109.805 109.821 114.305  1.00  0.00    -0.010 C 
ATOM      7  C   UNL     1     108.703 109.879 115.366  1.00  0.00     0.004 C 
ATOM      8  C   UNL     1     111.015 110.599 114.894  1.00  0.00     0.003 CG0
ATOM      9  C   UNL     1     109.418 110.202 116.663  1.00  0.00     0.008 C 
ATOM     10  G   UNL     1     111.542 111.751 113.998  1.00  0.00     0.000 G0
ENDBRANCH   2   4
ENDBRANCH   1   2
BRANCH   1  11
ATOM     11  C   UNL     1     113.602 111.818 115.640  1.00  0.00     0.009 C 
BRANCH  11  12
ATOM     12  C   UNL     1     112.912 112.355 114.369  1.00  0.00    -0.001 C 
ATOM     13  C   UNL     1     111.552 111.745 113.991  1.00  0.00     0.002 CG0
ATOM     14  C   UNL     1     112.774 111.514 113.086  1.00  0.00    -0.029 C 
ATOM     15  G   UNL     1     111.015 110.598 114.889  1.00  0.00     0.000 G0
ATOM     16  C   UNL     1     113.365 110.096 112.961  1.00  0.00     0.011 C 
ATOM     17  C   UNL     1     112.732 112.319 111.781  1.00  0.00     0.011 C 
ENDBRANCH  11  12
ENDBRANCH   1  11
TORSDOF 0
ENDMDL
MODEL 3
REMARK VINA RESULT:    -5.548      3.421      5.106
REMARK INTER + INTRA:          -5.471
REMARK INTER:                  -6.800
REMARK INTRA:                   1.328
REMARK UNBOUND:                 1.374
REMARK SMILES C=C1CC[C@@H]2[C@H]([C@@H]3[C@H](C)CC[C@@H]13)C2(C)C
REMARK SMILES IDX 3 1 2 2 1 3 12 4 9 5 8 6 10 7 7 8 11 9 4 11 5 12 6 13 13 14
REMARK SMILES IDX 14 16 15 17
REMARK H PARENT
REMARK Flexibility Score: 80.00
ROOT
ATOM      1  C   UNL     1     109.573 110.057 117.238  1.00  0.00     0.031 C 
ENDROOT
BRANCH   1   2
ATOM      2  C   UNL     1     110.713 111.029 117.507  1.00  0.00    -0.074 C 
ATOM      3  C   UNL     1     110.787 111.605 118.724  1.00  0.00     0.008 C 
BRANCH   2   4
ATOM      4  C   UNL     1     111.819 111.182 116.455  1.00  0.00     0.018 C 
ATOM      5  C   UNL     1     112.926 111.973 113.072  1.00  0.00     0.008 C 
ATOM      6  C   UNL     1     112.464 112.474 114.451  1.00  0.00    -0.010 C 
ATOM      7  C   UNL     1     113.610 112.448 115.465  1.00  0.00     0.004 C 
ATOM      8  C   UNL     1     111.286 111.699 115.108  1.00  0.00     0.003 CG0
ATOM      9  C   UNL     1     112.954 112.148 116.798  1.00  0.00     0.008 C 
ATOM     10  G   UNL     1     110.732 110.523 114.261  1.00  0.00     0.000 G0
ENDBRANCH   2   4
ENDBRANCH   1   2
BRANCH   1  11
ATOM     11  C   UNL     1     108.751 110.435 115.997  1.00  0.00     0.009 C 
BRANCH  11  12
ATOM     12  C   UNL     1     109.405 109.881 114.715  1.00  0.00    -0.001 C 
ATOM     13  C   UNL     1     110.732 110.517 114.265  1.00  0.00     0.002 CG0
ATOM     14  C   UNL     1     109.468 110.688 113.404  1.00  0.00    -0.029 C 
ATOM     15  G   UNL     1     111.270 111.704 115.108  1.00  0.00     0.000 G0
ATOM     16  C   UNL     1     108.832 112.085 113.265  1.00  0.00     0.011 C 
ATOM     17  C   UNL     1     109.481 109.847 112.121  1.00  0.00     0.011 C 
ENDBRANCH  11  12
ENDBRANCH   1  11
TORSDOF 0
ENDMDL
MODEL 4
REMARK VINA RESULT:    -5.516      0.941      3.443
REMARK INTER + INTRA:          -5.432
REMARK INTER:                  -6.764
REMARK INTRA:                   1.332
REMARK UNBOUND:                 1.374
REMARK SMILES C=C1CC[C@@H]2[C@H]([C@@H]3[C@H](C)CC[C@@H]13)C2(C)C
REMARK SMILES IDX 3 1 2 2 1 3 12 4 9 5 8 6 10 7 7 8 11 9 4 11 5 12 6 13 13 14
REMARK SMILES IDX 14 16 15 17
REMARK H PARENT
REMARK Flexibility Score: 80.00
ROOT
ATOM      1  C   UNL     1     112.874 112.111 112.149  1.00  0.00     0.031 C 
ENDROOT
BRANCH   1   2
ATOM      2  C   UNL     1     111.712 111.177 112.457  1.00  0.00    -0.074 C 
ATOM      3  C   UNL     1     111.663 110.598 113.673  1.00  0.00     0.008 C 
BRANCH   2   4
ATOM      4  C   UNL     1     110.563 111.066 111.446  1.00  0.00     0.018 C 
ATOM      5  C   UNL     1     109.307 110.334 108.102  1.00  0.00     0.008 C 
ATOM      6  C   UNL     1     109.804 109.809 109.460  1.00  0.00    -0.010 C 
ATOM      7  C   UNL     1     108.698 109.864 110.517  1.00  0.00     0.004 C 
ATOM      8  C   UNL     1     111.029 110.542 110.077  1.00  0.00     0.003 CG0
ATOM      9  C   UNL     1     109.412 110.133 111.826  1.00  0.00     0.008 C 
ATOM     10  G   UNL     1     111.588 111.706 109.217  1.00  0.00     0.000 G0
ENDBRANCH   2   4
ENDBRANCH   1   2
BRANCH   1  11
ATOM     11  C   UNL     1     113.640 111.707 110.881  1.00  0.00     0.009 C 
BRANCH  11  12
ATOM     12  C   UNL     1     112.964 112.286 109.621  1.00  0.00    -0.001 C 
ATOM     13  C   UNL     1     111.598 111.702 109.220  1.00  0.00     0.002 CG0
ATOM     14  C   UNL     1     112.823 111.482 108.315  1.00  0.00    -0.029 C 
ATOM     15  G   UNL     1     111.043 110.539 110.084  1.00  0.00     0.000 G0
ATOM     16  C   UNL     1     113.398 110.060 108.156  1.00  0.00     0.011 C 
ATOM     17  C   UNL     1     112.797 112.321 107.032  1.00  0.00     0.011 C 
ENDBRANCH  11  12
ENDBRANCH   1  11
TORSDOF 0
ENDMDL
MODEL 5
REMARK VINA RESULT:    -5.416      1.934      3.774
REMARK INTER + INTRA:          -5.308
REMARK INTER:                  -6.627
REMARK INTRA:                   1.319
REMARK UNBOUND:                 1.374
REMARK SMILES C=C1CC[C@@H]2[C@H]([C@@H]3[C@H](C)CC[C@@H]13)C2(C)C
REMARK SMILES IDX 3 1 2 2 1 3 12 4 9 5 8 6 10 7 7 8 11 9 4 11 5 12 6 13 13 14
REMARK SMILES IDX 14 16 15 17
REMARK H PARENT
REMARK Flexibility Score: 80.00
ROOT
ATOM      1  C   UNL     1     113.223 109.385 113.068  1.00  0.00     0.031 C 
ENDROOT
BRANCH   1   2
ATOM      2  C   UNL     1     112.368 109.827 114.247  1.00  0.00    -0.074 C 
ATOM      3  C   UNL     1     112.448 109.124 115.394  1.00  0.00     0.008 C 
BRANCH   2   4
ATOM      4  C   UNL     1     111.586 111.143 114.142  1.00  0.00     0.018 C 
ATOM      5  C   UNL     1     109.126 113.278 112.503  1.00  0.00     0.008 C 
ATOM      6  C   UNL     1     109.417 112.094 113.439  1.00  0.00    -0.010 C 
ATOM      7  C   UNL     1     109.783 112.573 114.846  1.00  0.00     0.004 C 
ATOM      8  C   UNL     1     110.556 111.129 113.000  1.00  0.00     0.003 CG0
ATOM      9  C   UNL     1     110.770 111.549 115.370  1.00  0.00     0.008 C 
ATOM     10  G   UNL     1     111.236 111.501 111.656  1.00  0.00     0.000 G0
ENDBRANCH   2   4
ENDBRANCH   1   2
BRANCH   1  11
ATOM     11  C   UNL     1     112.398 109.136 111.797  1.00  0.00     0.009 C 
BRANCH  11  12
ATOM     12  C   UNL     1     112.178 110.449 111.018  1.00  0.00    -0.001 C 
ATOM     13  C   UNL     1     111.248 111.499 111.650  1.00  0.00     0.002 CG0
ATOM     14  C   UNL     1     110.836 110.796 110.345  1.00  0.00    -0.029 C 
ATOM     15  G   UNL     1     110.563 111.124 112.991  1.00  0.00     0.000 G0
ATOM     16  C   UNL     1     109.635 109.830 110.354  1.00  0.00     0.011 C 
ATOM     17  C   UNL     1     110.942 111.692 109.105  1.00  0.00     0.011 C 
ENDBRANCH  11  12
ENDBRANCH   1  11
TORSDOF 0
ENDMDL
MODEL 6
REMARK VINA RESULT:    -5.405      1.937      3.470
REMARK INTER + INTRA:          -5.294
REMARK INTER:                  -6.629
REMARK INTRA:                   1.335
REMARK UNBOUND:                 1.374
REMARK SMILES C=C1CC[C@@H]2[C@H]([C@@H]3[C@H](C)CC[C@@H]13)C2(C)C
REMARK SMILES IDX 3 1 2 2 1 3 12 4 9 5 8 6 10 7 7 8 11 9 4 11 5 12 6 13 13 14
REMARK SMILES IDX 14 16 15 17
REMARK H PARENT
REMARK Flexibility Score: 80.00
ROOT
ATOM      1  C   UNL     1     108.954 112.853 113.202  1.00  0.00     0.031 C 
ENDROOT
BRANCH   1   2
ATOM      2  C   UNL     1     109.892 112.434 114.324  1.00  0.00    -0.074 C 
ATOM      3  C   UNL     1     109.854 113.126 115.481  1.00  0.00     0.008 C 
BRANCH   2   4
ATOM      4  C   UNL     1     110.714 111.149 114.162  1.00  0.00     0.018 C 
ATOM      5  C   UNL     1     113.148 109.118 112.360  1.00  0.00     0.008 C 
ATOM      6  C   UNL     1     112.871 110.284 113.322  1.00  0.00    -0.010 C 
ATOM      7  C   UNL     1     112.607 109.783 114.745  1.00  0.00     0.004 C 
ATOM      8  C   UNL     1     111.673 111.209 112.960  1.00  0.00     0.003 CG0
ATOM      9  C   UNL     1     111.616 110.765 115.335  1.00  0.00     0.008 C 
ATOM     10  G   UNL     1     110.928 110.822 111.656  1.00  0.00     0.000 G0
ENDBRANCH   2   4
ENDBRANCH   1   2
BRANCH   1  11
ATOM     11  C   UNL     1     109.692 113.134 111.885  1.00  0.00     0.009 C 
BRANCH  11  12
ATOM     12  C   UNL     1     109.914 111.831 111.090  1.00  0.00    -0.001 C 
ATOM     13  C   UNL     1     110.926 110.820 111.656  1.00  0.00     0.002 CG0
ATOM     14  C   UNL     1     111.221 111.540 110.328  1.00  0.00    -0.029 C 
ATOM     15  G   UNL     1     111.682 111.223 112.950  1.00  0.00     0.000 G0
ATOM     16  C   UNL     1     112.379 112.555 110.261  1.00  0.00     0.011 C 
ATOM     17  C   UNL     1     111.070 110.640 109.096  1.00  0.00     0.011 C 
ENDBRANCH  11  12
ENDBRANCH   1  11
TORSDOF 0
ENDMDL
MODEL 7
REMARK VINA RESULT:    -5.369      1.559      4.143
REMARK INTER + INTRA:          -5.250
REMARK INTER:                  -6.583
REMARK INTRA:                   1.333
REMARK UNBOUND:                 1.374
REMARK SMILES C=C1CC[C@@H]2[C@H]([C@@H]3[C@H](C)CC[C@@H]13)C2(C)C
REMARK SMILES IDX 3 1 2 2 1 3 12 4 9 5 8 6 10 7 7 8 11 9 4 11 5 12 6 13 13 14
REMARK SMILES IDX 14 16 15 17
REMARK H PARENT
REMARK Flexibility Score: 80.00
ROOT
ATOM      1  C   UNL     1     109.505 112.618 106.912  1.00  0.00     0.031 C 
ENDROOT
BRANCH   1   2
ATOM      2  C   UNL     1     110.468 111.519 106.487  1.00  0.00    -0.074 C 
ATOM      3  C   UNL     1     110.355 111.017 105.241  1.00  0.00     0.008 C 
BRANCH   2   4
ATOM      4  C   UNL     1     111.628 111.149 107.421  1.00  0.00     0.018 C 
ATOM      5  C   UNL     1     112.897 110.006 110.643  1.00  0.00     0.008 C 
ATOM      6  C   UNL     1     112.249 109.660 109.292  1.00  0.00    -0.010 C 
ATOM      7  C   UNL     1     113.295 109.586 108.176  1.00  0.00     0.004 C 
ATOM      8  C   UNL     1     111.144 110.631 108.787  1.00  0.00     0.003 CG0
ATOM      9  C   UNL     1     112.576 110.056 106.927  1.00  0.00     0.008 C 
ATOM     10  G   UNL     1     110.842 111.819 109.738  1.00  0.00     0.000 G0
ENDBRANCH   2   4
ENDBRANCH   1   2
BRANCH   1  11
ATOM     11  C   UNL     1     108.745 112.276 108.202  1.00  0.00     0.009 C 
BRANCH  11  12
ATOM     12  C   UNL     1     109.573 112.656 109.446  1.00  0.00    -0.001 C 
ATOM     13  C   UNL     1     110.836 111.827 109.736  1.00  0.00     0.002 CG0
ATOM     14  C   UNL     1     109.639 111.763 110.700  1.00  0.00    -0.029 C 
ATOM     15  G   UNL     1     111.139 110.639 108.784  1.00  0.00     0.000 G0
ATOM     16  C   UNL     1     108.836 110.453 110.823  1.00  0.00     0.011 C 
ATOM     17  C   UNL     1     109.873 112.509 112.020  1.00  0.00     0.011 C 
ENDBRANCH  11  12
ENDBRANCH   1  11
TORSDOF 0
ENDMDL
MODEL 8
REMARK VINA RESULT:    -5.320      2.601      5.442
REMARK INTER + INTRA:          -5.190
REMARK INTER:                  -6.527
REMARK INTRA:                   1.337
REMARK UNBOUND:                 1.374
REMARK SMILES C=C1CC[C@@H]2[C@H]([C@@H]3[C@H](C)CC[C@@H]13)C2(C)C
REMARK SMILES IDX 3 1 2 2 1 3 12 4 9 5 8 6 10 7 7 8 11 9 4 11 5 12 6 13 13 14
REMARK SMILES IDX 14 16 15 17
REMARK H PARENT
REMARK Flexibility Score: 80.00
ROOT
ATOM      1  C   UNL     1     109.572 112.734 112.034  1.00  0.00     0.031 C 
ENDROOT
BRANCH   1   2
ATOM      2  C   UNL     1     110.676 111.780 111.602  1.00  0.00    -0.074 C 
ATOM      3  C   UNL     1     110.693 111.360 110.322  1.00  0.00     0.008 C 
BRANCH   2   4
ATOM      4  C   UNL     1     111.814 111.471 112.584  1.00  0.00     0.018 C 
ATOM      5  C   UNL     1     113.016 110.246 115.801  1.00  0.00     0.008 C 
ATOM      6  C   UNL     1     112.490 109.929 114.391  1.00  0.00    -0.010 C 
ATOM      7  C   UNL     1     113.600 110.049 113.343  1.00  0.00     0.004 C 
ATOM      8  C   UNL     1     111.314 110.808 113.879  1.00  0.00     0.003 CG0
ATOM      9  C   UNL     1     112.906 110.525 112.083  1.00  0.00     0.008 C 
ATOM     10  G   UNL     1     110.825 111.885 114.883  1.00  0.00     0.000 G0
ENDBRANCH   2   4
ENDBRANCH   1   2
BRANCH   1  11
ATOM     11  C   UNL     1     108.786 112.222 113.250  1.00  0.00     0.009 C 
BRANCH  11  12
ATOM     12  C   UNL     1     109.499 112.602 114.565  1.00  0.00    -0.001 C 
ATOM     13  C   UNL     1     110.824 111.888 114.882  1.00  0.00     0.002 CG0
ATOM     14  C   UNL     1     109.588 111.638 115.764  1.00  0.00    -0.029 C 
ATOM     15  G   UNL     1     111.304 110.804 113.881  1.00  0.00     0.000 G0
ATOM     16  C   UNL     1     108.923 110.248 115.756  1.00  0.00     0.011 C 
ATOM     17  C   UNL     1     109.668 112.315 117.138  1.00  0.00     0.011 C 
ENDBRANCH  11  12
ENDBRANCH   1  11
TORSDOF 0
ENDMDL
MODEL 9
REMARK VINA RESULT:    -5.269      2.653      5.934
REMARK INTER + INTRA:          -5.128
REMARK INTER:                  -6.477
REMARK INTRA:                   1.349
REMARK UNBOUND:                 1.374
REMARK SMILES C=C1CC[C@@H]2[C@H]([C@@H]3[C@H](C)CC[C@@H]13)C2(C)C
REMARK SMILES IDX 3 1 2 2 1 3 12 4 9 5 8 6 10 7 7 8 11 9 4 11 5 12 6 13 13 14
REMARK SMILES IDX 14 16 15 17
REMARK H PARENT
REMARK Flexibility Score: 80.00
ROOT
ATOM      1  C   UNL     1     112.857 109.518 112.085  1.00  0.00     0.031 C 
ENDROOT
BRANCH   1   2
ATOM      2  C   UNL     1     111.778 110.479 111.608  1.00  0.00    -0.074 C 
ATOM      3  C   UNL     1     111.841 110.931 110.340  1.00  0.00     0.008 C 
BRANCH   2   4
ATOM      4  C   UNL     1     110.578 110.759 112.523  1.00  0.00     0.018 C 
ATOM      5  C   UNL     1     109.168 111.894 115.688  1.00  0.00     0.008 C 
ATOM      6  C   UNL     1     109.782 112.250 114.324  1.00  0.00    -0.010 C 
ATOM      7  C   UNL     1     108.742 112.157 113.204  1.00  0.00     0.004 C 
ATOM      8  C   UNL     1     110.992 111.388 113.864  1.00  0.00     0.003 CG0
ATOM      9  C   UNL     1     109.517 111.716 111.978  1.00  0.00     0.008 C 
ATOM     10  G   UNL     1     111.419 110.284 114.868  1.00  0.00     0.000 G0
ENDBRANCH   2   4
ENDBRANCH   1   2
BRANCH   1  11
ATOM     11  C   UNL     1     113.560 110.000 113.362  1.00  0.00     0.009 C 
BRANCH  11  12
ATOM     12  C   UNL     1     112.768 109.581 114.618  1.00  0.00    -0.001 C 
ATOM     13  C   UNL     1     111.419 110.276 114.868  1.00  0.00     0.002 CG0
ATOM     14  C   UNL     1     112.594 110.511 115.834  1.00  0.00    -0.029 C 
ATOM     15  G   UNL     1     110.994 111.383 113.867  1.00  0.00     0.000 G0
ATOM     16  C   UNL     1     113.245 111.906 115.905  1.00  0.00     0.011 C 
ATOM     17  C   UNL     1     112.433 109.798 117.182  1.00  0.00     0.011 C 
ENDBRANCH  11  12
ENDBRANCH   1  11
TORSDOF 0
ENDMDL
