MODEL 1
REMARK VINA RESULT:    -2.940      0.000      0.000
REMARK INTER + INTRA:          -3.516
REMARK INTER:                  -3.455
REMARK INTRA:                  -0.061
REMARK UNBOUND:                -0.061
REMARK SMILES CCCCC(=O)[O-]
REMARK SMILES IDX 4 1 5 2 6 3 7 4 3 5 2 6 1 7
REMARK H PARENT
REMARK Flexibility Score: inf
ROOT
ATOM      1  C   UNL     1     -23.367   8.021  19.041  1.00  0.00     0.053 C 
ENDROOT
BRANCH   1   2
ATOM      2  C   UNL     1     -23.408   7.933  20.536  1.00  0.00     0.041 C 
ATOM      3  O   UNL     1     -22.446   8.367  21.224  1.00  0.00    -0.550 OA
ATOM      4  O   UNL     1     -24.494   7.343  21.168  1.00  0.00    -0.550 OA
ENDBRANCH   1   2
BRANCH   1   5
ATOM      5  C   UNL     1     -21.965   8.384  18.533  1.00  0.00     0.006 C 
BRANCH   5   6
ATOM      6  C   UNL     1     -21.527   7.500  17.356  1.00  0.00    -0.003 C 
ATOM      7  C   UNL     1     -22.218   6.139  17.403  1.00  0.00     0.004 C 
ENDBRANCH   5   6
ENDBRANCH   1   5
TORSDOF 3
ENDMDL
MODEL 2
REMARK VINA RESULT:    -2.929      2.584      3.862
REMARK INTER + INTRA:          -3.504
REMARK INTER:                  -3.440
REMARK INTRA:                  -0.064
REMARK UNBOUND:                -0.061
REMARK SMILES CCCCC(=O)[O-]
REMARK SMILES IDX 4 1 5 2 6 3 7 4 3 5 2 6 1 7
REMARK H PARENT
REMARK Flexibility Score: inf
ROOT
ATOM      1  C   UNL     1     -21.824   8.366  18.499  1.00  0.00     0.053 C 
ENDROOT
BRANCH   1   2
ATOM      2  C   UNL     1     -21.770   7.298  17.449  1.00  0.00     0.041 C 
ATOM      3  O   UNL     1     -22.604   6.355  17.463  1.00  0.00    -0.550 OA
ATOM      4  O   UNL     1     -20.781   7.329  16.477  1.00  0.00    -0.550 OA
ENDBRANCH   1   2
BRANCH   1   5
ATOM      5  C   UNL     1     -23.200   8.429  19.175  1.00  0.00     0.006 C 
BRANCH   5   6
ATOM      6  C   UNL     1     -23.138   8.027  20.656  1.00  0.00    -0.003 C 
ATOM      7  C   UNL     1     -24.379   7.235  21.062  1.00  0.00     0.004 C 
ENDBRANCH   5   6
ENDBRANCH   1   5
TORSDOF 3
ENDMDL
MODEL 3
REMARK VINA RESULT:    -2.880      2.436      3.205
REMARK INTER + INTRA:          -3.446
REMARK INTER:                  -3.349
REMARK INTRA:                  -0.097
REMARK UNBOUND:                -0.061
REMARK SMILES CCCCC(=O)[O-]
REMARK SMILES IDX 4 1 5 2 6 3 7 4 3 5 2 6 1 7
REMARK H PARENT
REMARK Flexibility Score: inf
ROOT
ATOM      1  C   UNL     1     -22.245   6.165  17.280  1.00  0.00     0.053 C 
ENDROOT
BRANCH   1   2
ATOM      2  C   UNL     1     -22.123   5.597  18.661  1.00  0.00     0.041 C 
ATOM      3  O   UNL     1     -23.115   5.595  19.436  1.00  0.00    -0.550 OA
ATOM      4  O   UNL     1     -20.904   5.099  19.102  1.00  0.00    -0.550 OA
ENDBRANCH   1   2
BRANCH   1   5
ATOM      5  C   UNL     1     -21.260   7.319  17.052  1.00  0.00     0.006 C 
BRANCH   5   6
ATOM      6  C   UNL     1     -20.311   7.049  15.876  1.00  0.00    -0.003 C 
ATOM      7  C   UNL     1     -18.916   6.671  16.370  1.00  0.00     0.004 C 
ENDBRANCH   5   6
ENDBRANCH   1   5
TORSDOF 3
ENDMDL
MODEL 4
REMARK VINA RESULT:    -2.876      2.039      2.599
REMARK INTER + INTRA:          -3.441
REMARK INTER:                  -3.420
REMARK INTRA:                  -0.021
REMARK UNBOUND:                -0.061
REMARK SMILES CCCCC(=O)[O-]
REMARK SMILES IDX 4 1 5 2 6 3 7 4 3 5 2 6 1 7
REMARK H PARENT
REMARK Flexibility Score: inf
ROOT
ATOM      1  C   UNL     1     -21.917   7.692  17.640  1.00  0.00     0.053 C 
ENDROOT
BRANCH   1   2
ATOM      2  C   UNL     1     -22.795   7.213  18.755  1.00  0.00     0.041 C 
ATOM      3  O   UNL     1     -22.882   5.982  19.010  1.00  0.00    -0.550 OA
ATOM      4  O   UNL     1     -23.541   8.122  19.492  1.00  0.00    -0.550 OA
ENDBRANCH   1   2
BRANCH   1   5
ATOM      5  C   UNL     1     -21.259   6.523  16.894  1.00  0.00     0.006 C 
BRANCH   5   6
ATOM      6  C   UNL     1     -20.213   6.999  15.875  1.00  0.00    -0.003 C 
ATOM      7  C   UNL     1     -18.796   6.732  16.377  1.00  0.00     0.004 C 
ENDBRANCH   5   6
ENDBRANCH   1   5
TORSDOF 3
ENDMDL
MODEL 5
REMARK VINA RESULT:    -2.765     25.369     25.840
REMARK INTER + INTRA:          -3.311
REMARK INTER:                  -3.192
REMARK INTRA:                  -0.120
REMARK UNBOUND:                -0.061
REMARK SMILES CCCCC(=O)[O-]
REMARK SMILES IDX 4 1 5 2 6 3 7 4 3 5 2 6 1 7
REMARK H PARENT
REMARK Flexibility Score: inf
ROOT
ATOM      1  C   UNL     1      -7.193  -4.401  35.938  1.00  0.00     0.053 C 
ENDROOT
BRANCH   1   2
ATOM      2  C   UNL     1      -7.280  -4.004  34.496  1.00  0.00     0.041 C 
ATOM      3  O   UNL     1      -8.384  -3.654  34.001  1.00  0.00    -0.550 OA
ATOM      4  O   UNL     1      -6.149  -4.053  33.692  1.00  0.00    -0.550 OA
ENDBRANCH   1   2
BRANCH   1   5
ATOM      5  C   UNL     1      -6.376  -5.686  36.125  1.00  0.00     0.006 C 
BRANCH   5   6
ATOM      6  C   UNL     1      -7.043  -6.900  35.462  1.00  0.00    -0.003 C 
ATOM      7  C   UNL     1      -6.034  -7.704  34.645  1.00  0.00     0.004 C 
ENDBRANCH   5   6
ENDBRANCH   1   5
TORSDOF 3
ENDMDL
MODEL 6
REMARK VINA RESULT:    -2.757     25.760     26.211
REMARK INTER + INTRA:          -3.301
REMARK INTER:                  -3.198
REMARK INTRA:                  -0.103
REMARK UNBOUND:                -0.061
REMARK SMILES CCCCC(=O)[O-]
REMARK SMILES IDX 4 1 5 2 6 3 7 4 3 5 2 6 1 7
REMARK H PARENT
REMARK Flexibility Score: inf
ROOT
ATOM      1  C   UNL     1      -7.348  -6.271  36.060  1.00  0.00     0.053 C 
ENDROOT
BRANCH   1   2
ATOM      2  C   UNL     1      -7.040  -7.277  34.993  1.00  0.00     0.041 C 
ATOM      3  O   UNL     1      -5.877  -7.748  34.883  1.00  0.00    -0.550 OA
ATOM      4  O   UNL     1      -8.029  -7.669  34.101  1.00  0.00    -0.550 OA
ENDBRANCH   1   2
BRANCH   1   5
ATOM      5  C   UNL     1      -6.495  -5.005  35.910  1.00  0.00     0.006 C 
BRANCH   5   6
ATOM      6  C   UNL     1      -6.583  -4.408  34.498  1.00  0.00    -0.003 C 
ATOM      7  C   UNL     1      -7.908  -3.679  34.291  1.00  0.00     0.004 C 
ENDBRANCH   5   6
ENDBRANCH   1   5
TORSDOF 3
ENDMDL
MODEL 7
REMARK VINA RESULT:    -2.726      1.736      2.653
REMARK INTER + INTRA:          -3.265
REMARK INTER:                  -3.135
REMARK INTRA:                  -0.130
REMARK UNBOUND:                -0.061
REMARK SMILES CCCCC(=O)[O-]
REMARK SMILES IDX 4 1 5 2 6 3 7 4 3 5 2 6 1 7
REMARK H PARENT
REMARK Flexibility Score: inf
ROOT
ATOM      1  C   UNL     1     -21.837   7.625  17.675  1.00  0.00     0.053 C 
ENDROOT
BRANCH   1   2
ATOM      2  C   UNL     1     -22.272   8.371  18.898  1.00  0.00     0.041 C 
ATOM      3  O   UNL     1     -23.477   8.342  19.264  1.00  0.00    -0.550 OA
ATOM      4  O   UNL     1     -21.353   9.125  19.616  1.00  0.00    -0.550 OA
ENDBRANCH   1   2
BRANCH   1   5
ATOM      5  C   UNL     1     -22.213   6.139  17.754  1.00  0.00     0.006 C 
BRANCH   5   6
ATOM      6  C   UNL     1     -21.442   5.403  18.860  1.00  0.00    -0.003 C 
ATOM      7  C   UNL     1     -22.395   4.813  19.896  1.00  0.00     0.004 C 
ENDBRANCH   5   6
ENDBRANCH   1   5
TORSDOF 3
ENDMDL
MODEL 8
REMARK VINA RESULT:    -2.726      1.319      2.038
REMARK INTER + INTRA:          -3.265
REMARK INTER:                  -3.165
REMARK INTRA:                  -0.101
REMARK UNBOUND:                -0.061
REMARK SMILES CCCCC(=O)[O-]
REMARK SMILES IDX 4 1 5 2 6 3 7 4 3 5 2 6 1 7
REMARK H PARENT
REMARK Flexibility Score: inf
ROOT
ATOM      1  C   UNL     1     -22.921   5.964  19.987  1.00  0.00     0.053 C 
ENDROOT
BRANCH   1   2
ATOM      2  C   UNL     1     -23.715   7.195  20.299  1.00  0.00     0.041 C 
ATOM      3  O   UNL     1     -24.619   7.161  21.175  1.00  0.00    -0.550 OA
ATOM      4  O   UNL     1     -23.478   8.371  19.600  1.00  0.00    -0.550 OA
ENDBRANCH   1   2
BRANCH   1   5
ATOM      5  C   UNL     1     -22.735   5.777  18.475  1.00  0.00     0.006 C 
BRANCH   5   6
ATOM      6  C   UNL     1     -21.292   6.054  18.029  1.00  0.00    -0.003 C 
ATOM      7  C   UNL     1     -21.227   7.260  17.094  1.00  0.00     0.004 C 
ENDBRANCH   5   6
ENDBRANCH   1   5
TORSDOF 3
ENDMDL
MODEL 9
REMARK VINA RESULT:    -2.725     25.409     25.894
REMARK INTER + INTRA:          -3.264
REMARK INTER:                  -3.178
REMARK INTRA:                  -0.086
REMARK UNBOUND:                -0.061
REMARK SMILES CCCCC(=O)[O-]
REMARK SMILES IDX 4 1 5 2 6 3 7 4 3 5 2 6 1 7
REMARK H PARENT
REMARK Flexibility Score: inf
ROOT
ATOM      1  C   UNL     1      -7.633  -7.476  34.624  1.00  0.00     0.053 C 
ENDROOT
BRANCH   1   2
ATOM      2  C   UNL     1      -8.111  -6.929  33.314  1.00  0.00     0.041 C 
ATOM      3  O   UNL     1      -9.337  -6.946  33.029  1.00  0.00    -0.550 OA
ATOM      4  O   UNL     1      -7.198  -6.430  32.395  1.00  0.00    -0.550 OA
ENDBRANCH   1   2
BRANCH   1   5
ATOM      5  C   UNL     1      -6.303  -6.842  35.052  1.00  0.00     0.006 C 
BRANCH   5   6
ATOM      6  C   UNL     1      -6.494  -5.758  36.123  1.00  0.00    -0.003 C 
ATOM      7  C   UNL     1      -6.643  -4.377  35.488  1.00  0.00     0.004 C 
ENDBRANCH   5   6
ENDBRANCH   1   5
TORSDOF 3
ENDMDL
