MODEL 1
REMARK VINA RESULT:    -5.355      0.000      0.000
REMARK INTER + INTRA:          -6.427
REMARK INTER:                  -6.294
REMARK INTRA:                  -0.133
REMARK UNBOUND:                -0.133
REMARK SMILES O=C([O-])C=Cc1ccc(O)c(O)c1
REMARK SMILES IDX 6 1 13 2 7 3 11 4 8 5 9 6 5 7 4 8 2 9 1 10 3 11 12 12 10 14
REMARK H PARENT 12 13 10 15
REMARK Flexibility Score: inf
ROOT
ATOM      1  C   UNL     1     -14.165  38.087   3.314  1.00  0.00    -0.022 A 
ATOM      2  C   UNL     1     -13.642  38.445   2.060  1.00  0.00     0.058 A 
ATOM      3  C   UNL     1     -13.372  38.288   4.462  1.00  0.00     0.012 A 
ATOM      4  C   UNL     1     -12.370  39.015   1.948  1.00  0.00     0.157 A 
ATOM      5  C   UNL     1     -12.100  38.857   4.353  1.00  0.00     0.051 A 
ATOM      6  C   UNL     1     -11.594  39.225   3.100  1.00  0.00     0.157 A 
ENDROOT
BRANCH   1   7
ATOM      7  C   UNL     1     -15.515  37.477   3.374  1.00  0.00     0.010 C 
ATOM      8  C   UNL     1     -16.405  37.536   2.372  1.00  0.00     0.025 C 
BRANCH   8   9
ATOM      9  C   UNL     1     -17.734  36.908   2.463  1.00  0.00     0.064 C 
ATOM     10  O   UNL     1     -18.507  37.154   3.427  1.00  0.00    -0.545 OA
ATOM     11  O   UNL     1     -18.143  36.029   1.468  1.00  0.00    -0.545 OA
ENDBRANCH   8   9
ENDBRANCH   1   7
BRANCH   4  12
ATOM     12  O   UNL     1     -11.893  39.365   0.685  1.00  0.00    -0.504 OA
ATOM     13  H   UNL     1     -12.246  38.935  -0.162  1.00  0.00     0.293 HD
ENDBRANCH   4  12
BRANCH   6  14
ATOM     14  O   UNL     1     -10.326  39.794   2.996  1.00  0.00    -0.504 OA
ATOM     15  H   UNL     1      -9.547  39.285   2.597  1.00  0.00     0.293 HD
ENDBRANCH   6  14
TORSDOF 4
ENDMDL
MODEL 2
REMARK VINA RESULT:    -5.299     12.457     13.505
REMARK INTER + INTRA:          -6.361
REMARK INTER:                  -6.233
REMARK INTRA:                  -0.128
REMARK UNBOUND:                -0.133
REMARK SMILES O=C([O-])C=Cc1ccc(O)c(O)c1
REMARK SMILES IDX 6 1 13 2 7 3 11 4 8 5 9 6 5 7 4 8 2 9 1 10 3 11 12 12 10 14
REMARK H PARENT 12 13 10 15
REMARK Flexibility Score: inf
ROOT
ATOM      1  C   UNL     1     -13.478  39.481  -9.956  1.00  0.00    -0.022 A 
ATOM      2  C   UNL     1     -13.171  40.820  -9.664  1.00  0.00     0.058 A 
ATOM      3  C   UNL     1     -14.828  39.116 -10.130  1.00  0.00     0.012 A 
ATOM      4  C   UNL     1     -14.180  41.785  -9.572  1.00  0.00     0.157 A 
ATOM      5  C   UNL     1     -15.838  40.078 -10.038  1.00  0.00     0.051 A 
ATOM      6  C   UNL     1     -15.521  41.413  -9.762  1.00  0.00     0.157 A 
ENDROOT
BRANCH   1   7
ATOM      7  C   UNL     1     -12.370  38.498 -10.031  1.00  0.00     0.010 C 
ATOM      8  C   UNL     1     -11.433  38.355  -9.082  1.00  0.00     0.025 C 
BRANCH   8   9
ATOM      9  C   UNL     1     -10.354  37.360  -9.186  1.00  0.00     0.064 C 
ATOM     10  O   UNL     1      -9.531  37.388 -10.140  1.00  0.00    -0.545 OA
ATOM     11  O   UNL     1     -10.239  36.373  -8.215  1.00  0.00    -0.545 OA
ENDBRANCH   8   9
ENDBRANCH   1   7
BRANCH   4  12
ATOM     12  O   UNL     1     -13.831  43.105  -9.290  1.00  0.00    -0.504 OA
ATOM     13  H   UNL     1     -13.450  43.724  -9.996  1.00  0.00     0.293 HD
ENDBRANCH   4  12
BRANCH   6  14
ATOM     14  O   UNL     1     -16.532  42.370  -9.674  1.00  0.00    -0.504 OA
ATOM     15  H   UNL     1     -17.473  42.178  -9.995  1.00  0.00     0.293 HD
ENDBRANCH   6  14
TORSDOF 4
ENDMDL
MODEL 3
REMARK VINA RESULT:    -5.254      6.109      8.762
REMARK INTER + INTRA:          -6.309
REMARK INTER:                  -6.180
REMARK INTRA:                  -0.129
REMARK UNBOUND:                -0.133
REMARK SMILES O=C([O-])C=Cc1ccc(O)c(O)c1
REMARK SMILES IDX 6 1 13 2 7 3 11 4 8 5 9 6 5 7 4 8 2 9 1 10 3 11 12 12 10 14
REMARK H PARENT 12 13 10 15
REMARK Flexibility Score: inf
ROOT
ATOM      1  C   UNL     1     -12.097  35.398  -3.255  1.00  0.00    -0.022 A 
ATOM      2  C   UNL     1     -12.570  35.788  -1.991  1.00  0.00     0.058 A 
ATOM      3  C   UNL     1     -12.514  34.160  -3.784  1.00  0.00     0.012 A 
ATOM      4  C   UNL     1     -13.459  34.979  -1.276  1.00  0.00     0.157 A 
ATOM      5  C   UNL     1     -13.402  33.349  -3.071  1.00  0.00     0.051 A 
ATOM      6  C   UNL     1     -13.880  33.754  -1.818  1.00  0.00     0.157 A 
ENDROOT
BRANCH   1   7
ATOM      7  C   UNL     1     -11.148  36.290  -3.965  1.00  0.00     0.010 C 
ATOM      8  C   UNL     1     -10.119  36.910  -3.368  1.00  0.00     0.025 C 
BRANCH   8   9
ATOM      9  C   UNL     1      -9.190  37.780  -4.108  1.00  0.00     0.064 C 
ATOM     10  O   UNL     1      -8.324  37.297  -4.887  1.00  0.00    -0.545 OA
ATOM     11  O   UNL     1      -9.267  39.157  -3.945  1.00  0.00    -0.545 OA
ENDBRANCH   8   9
ENDBRANCH   1   7
BRANCH   4  12
ATOM     12  O   UNL     1     -13.912  35.408  -0.029  1.00  0.00    -0.504 OA
ATOM     13  H   UNL     1     -14.579  36.164   0.071  1.00  0.00     0.293 HD
ENDBRANCH   4  12
BRANCH   6  14
ATOM     14  O   UNL     1     -14.767  32.943  -1.112  1.00  0.00    -0.504 OA
ATOM     15  H   UNL     1     -14.465  32.083  -0.672  1.00  0.00     0.293 HD
ENDBRANCH   6  14
TORSDOF 4
ENDMDL
MODEL 4
REMARK VINA RESULT:    -5.210      6.291      7.319
REMARK INTER + INTRA:          -6.256
REMARK INTER:                  -6.128
REMARK INTRA:                  -0.128
REMARK UNBOUND:                -0.133
REMARK SMILES O=C([O-])C=Cc1ccc(O)c(O)c1
REMARK SMILES IDX 6 1 13 2 7 3 11 4 8 5 9 6 5 7 4 8 2 9 1 10 3 11 12 12 10 14
REMARK H PARENT 12 13 10 15
REMARK Flexibility Score: inf
ROOT
ATOM      1  C   UNL     1     -15.394  35.332  -2.874  1.00  0.00    -0.022 A 
ATOM      2  C   UNL     1     -14.898  35.992  -4.010  1.00  0.00     0.058 A 
ATOM      3  C   UNL     1     -15.012  33.994  -2.645  1.00  0.00     0.012 A 
ATOM      4  C   UNL     1     -14.020  35.349  -4.889  1.00  0.00     0.157 A 
ATOM      5  C   UNL     1     -14.136  33.349  -3.522  1.00  0.00     0.051 A 
ATOM      6  C   UNL     1     -13.634  34.021  -4.644  1.00  0.00     0.157 A 
ENDROOT
BRANCH   1   7
ATOM      7  C   UNL     1     -16.329  36.059  -1.981  1.00  0.00     0.010 C 
ATOM      8  C   UNL     1     -17.377  36.771  -2.420  1.00  0.00     0.025 C 
BRANCH   8   9
ATOM      9  C   UNL     1     -18.291  37.471  -1.503  1.00  0.00     0.064 C 
ATOM     10  O   UNL     1     -18.165  38.703  -1.270  1.00  0.00    -0.545 OA
ATOM     11  O   UNL     1     -19.312  36.762  -0.883  1.00  0.00    -0.545 OA
ENDBRANCH   8   9
ENDBRANCH   1   7
BRANCH   4  12
ATOM     12  O   UNL     1     -13.543  36.044  -6.000  1.00  0.00    -0.504 OA
ATOM     13  H   UNL     1     -12.661  35.813  -6.441  1.00  0.00     0.293 HD
ENDBRANCH   4  12
BRANCH   6  14
ATOM     14  O   UNL     1     -12.759  33.373  -5.515  1.00  0.00    -0.504 OA
ATOM     15  H   UNL     1     -12.742  32.364  -5.597  1.00  0.00     0.293 HD
ENDBRANCH   6  14
TORSDOF 4
ENDMDL
MODEL 5
REMARK VINA RESULT:    -5.173     10.428     11.525
REMARK INTER + INTRA:          -6.213
REMARK INTER:                  -6.086
REMARK INTRA:                  -0.126
REMARK UNBOUND:                -0.133
REMARK SMILES O=C([O-])C=Cc1ccc(O)c(O)c1
REMARK SMILES IDX 6 1 13 2 7 3 11 4 8 5 9 6 5 7 4 8 2 9 1 10 3 11 12 12 10 14
REMARK H PARENT 12 13 10 15
REMARK Flexibility Score: inf
ROOT
ATOM      1  C   UNL     1     -14.750  39.858  -8.582  1.00  0.00    -0.022 A 
ATOM      2  C   UNL     1     -14.630  41.227  -8.293  1.00  0.00     0.058 A 
ATOM      3  C   UNL     1     -14.136  39.352  -9.745  1.00  0.00     0.012 A 
ATOM      4  C   UNL     1     -13.894  42.075  -9.126  1.00  0.00     0.157 A 
ATOM      5  C   UNL     1     -13.400  40.198 -10.580  1.00  0.00     0.051 A 
ATOM      6  C   UNL     1     -13.273  41.559 -10.276  1.00  0.00     0.157 A 
ENDROOT
BRANCH   1   7
ATOM      7  C   UNL     1     -15.552  39.006  -7.668  1.00  0.00     0.010 C 
ATOM      8  C   UNL     1     -15.392  38.985  -6.337  1.00  0.00     0.025 C 
BRANCH   8   9
ATOM      9  C   UNL     1     -16.214  38.135  -5.461  1.00  0.00     0.064 C 
ATOM     10  O   UNL     1     -17.189  38.610  -4.818  1.00  0.00    -0.545 OA
ATOM     11  O   UNL     1     -15.912  36.785  -5.339  1.00  0.00    -0.545 OA
ENDBRANCH   8   9
ENDBRANCH   1   7
BRANCH   4  12
ATOM     12  O   UNL     1     -13.791  43.426  -8.798  1.00  0.00    -0.504 OA
ATOM     13  H   UNL     1     -12.921  43.840  -8.484  1.00  0.00     0.293 HD
ENDBRANCH   4  12
BRANCH   6  14
ATOM     14  O   UNL     1     -12.536  42.397 -11.111  1.00  0.00    -0.504 OA
ATOM     15  H   UNL     1     -12.949  43.216 -11.539  1.00  0.00     0.293 HD
ENDBRANCH   6  14
TORSDOF 4
ENDMDL
MODEL 6
REMARK VINA RESULT:    -5.112      6.404      8.144
REMARK INTER + INTRA:          -6.141
REMARK INTER:                  -6.008
REMARK INTRA:                  -0.132
REMARK UNBOUND:                -0.133
REMARK SMILES O=C([O-])C=Cc1ccc(O)c(O)c1
REMARK SMILES IDX 6 1 13 2 7 3 11 4 8 5 9 6 5 7 4 8 2 9 1 10 3 11 12 12 10 14
REMARK H PARENT 12 13 10 15
REMARK Flexibility Score: inf
ROOT
ATOM      1  C   UNL     1     -15.993  36.106  -2.923  1.00  0.00    -0.022 A 
ATOM      2  C   UNL     1     -16.367  36.966  -3.969  1.00  0.00     0.058 A 
ATOM      3  C   UNL     1     -16.469  36.371  -1.623  1.00  0.00     0.012 A 
ATOM      4  C   UNL     1     -17.216  38.053  -3.737  1.00  0.00     0.157 A 
ATOM      5  C   UNL     1     -17.317  37.457  -1.388  1.00  0.00     0.051 A 
ATOM      6  C   UNL     1     -17.696  38.300  -2.440  1.00  0.00     0.157 A 
ENDROOT
BRANCH   1   7
ATOM      7  C   UNL     1     -15.083  34.974  -3.224  1.00  0.00     0.010 C 
ATOM      8  C   UNL     1     -14.480  34.797  -4.409  1.00  0.00     0.025 C 
BRANCH   8   9
ATOM      9  C   UNL     1     -13.573  33.667  -4.668  1.00  0.00     0.064 C 
ATOM     10  O   UNL     1     -13.979  32.625  -5.248  1.00  0.00    -0.545 OA
ATOM     11  O   UNL     1     -12.246  33.751  -4.267  1.00  0.00    -0.545 OA
ENDBRANCH   8   9
ENDBRANCH   1   7
BRANCH   4  12
ATOM     12  O   UNL     1     -17.570  38.877  -4.804  1.00  0.00    -0.504 OA
ATOM     13  H   UNL     1     -17.608  38.536  -5.757  1.00  0.00     0.293 HD
ENDBRANCH   4  12
BRANCH   6  14
ATOM     14  O   UNL     1     -18.544  39.381  -2.200  1.00  0.00    -0.504 OA
ATOM     15  H   UNL     1     -19.484  39.410  -2.574  1.00  0.00     0.293 HD
ENDBRANCH   6  14
TORSDOF 4
ENDMDL
MODEL 7
REMARK VINA RESULT:    -5.086      6.527      7.882
REMARK INTER + INTRA:          -6.110
REMARK INTER:                  -5.977
REMARK INTRA:                  -0.133
REMARK UNBOUND:                -0.133
REMARK SMILES O=C([O-])C=Cc1ccc(O)c(O)c1
REMARK SMILES IDX 6 1 13 2 7 3 11 4 8 5 9 6 5 7 4 8 2 9 1 10 3 11 12 12 10 14
REMARK H PARENT 12 13 10 15
REMARK Flexibility Score: inf
ROOT
ATOM      1  C   UNL     1     -15.977  36.320  -3.125  1.00  0.00    -0.022 A 
ATOM      2  C   UNL     1     -15.154  36.479  -4.253  1.00  0.00     0.058 A 
ATOM      3  C   UNL     1     -17.162  37.078  -3.037  1.00  0.00     0.012 A 
ATOM      4  C   UNL     1     -15.511  37.353  -5.285  1.00  0.00     0.157 A 
ATOM      5  C   UNL     1     -17.520  37.953  -4.067  1.00  0.00     0.051 A 
ATOM      6  C   UNL     1     -16.701  38.094  -5.193  1.00  0.00     0.157 A 
ENDROOT
BRANCH   1   7
ATOM      7  C   UNL     1     -15.545  35.387  -2.056  1.00  0.00     0.010 C 
ATOM      8  C   UNL     1     -14.806  34.290  -2.277  1.00  0.00     0.025 C 
BRANCH   8   9
ATOM      9  C   UNL     1     -14.386  33.392  -1.189  1.00  0.00     0.064 C 
ATOM     10  O   UNL     1     -14.638  33.665   0.015  1.00  0.00    -0.545 OA
ATOM     11  O   UNL     1     -13.700  32.224  -1.494  1.00  0.00    -0.545 OA
ENDBRANCH   8   9
ENDBRANCH   1   7
BRANCH   4  12
ATOM     12  O   UNL     1     -14.670  37.475  -6.391  1.00  0.00    -0.504 OA
ATOM     13  H   UNL     1     -14.393  38.377  -6.759  1.00  0.00     0.293 HD
ENDBRANCH   4  12
BRANCH   6  14
ATOM     14  O   UNL     1     -17.064  38.966  -6.219  1.00  0.00    -0.504 OA
ATOM     15  H   UNL     1     -16.373  39.383  -6.830  1.00  0.00     0.293 HD
ENDBRANCH   6  14
TORSDOF 4
ENDMDL
MODEL 8
REMARK VINA RESULT:    -5.070      6.465      7.342
REMARK INTER + INTRA:          -6.092
REMARK INTER:                  -5.959
REMARK INTRA:                  -0.133
REMARK UNBOUND:                -0.133
REMARK SMILES O=C([O-])C=Cc1ccc(O)c(O)c1
REMARK SMILES IDX 6 1 13 2 7 3 11 4 8 5 9 6 5 7 4 8 2 9 1 10 3 11 12 12 10 14
REMARK H PARENT 12 13 10 15
REMARK Flexibility Score: inf
ROOT
ATOM      1  C   UNL     1     -11.319  36.213  -3.705  1.00  0.00    -0.022 A 
ATOM      2  C   UNL     1     -11.003  36.751  -2.447  1.00  0.00     0.058 A 
ATOM      3  C   UNL     1     -10.889  36.893  -4.863  1.00  0.00     0.012 A 
ATOM      4  C   UNL     1     -10.252  37.926  -2.336  1.00  0.00     0.157 A 
ATOM      5  C   UNL     1     -10.139  38.068  -4.755  1.00  0.00     0.051 A 
ATOM      6  C   UNL     1      -9.816  38.588  -3.495  1.00  0.00     0.157 A 
ENDROOT
BRANCH   1   7
ATOM      7  C   UNL     1     -12.126  34.969  -3.764  1.00  0.00     0.010 C 
ATOM      8  C   UNL     1     -12.858  34.506  -2.741  1.00  0.00     0.025 C 
BRANCH   8   9
ATOM      9  C   UNL     1     -13.656  33.273  -2.840  1.00  0.00     0.064 C 
ATOM     10  O   UNL     1     -14.449  33.085  -3.801  1.00  0.00    -0.545 OA
ATOM     11  O   UNL     1     -13.534  32.300  -1.857  1.00  0.00    -0.545 OA
ENDBRANCH   8   9
ENDBRANCH   1   7
BRANCH   4  12
ATOM     12  O   UNL     1      -9.952  38.421  -1.068  1.00  0.00    -0.504 OA
ATOM     13  H   UNL     1      -9.478  37.861  -0.370  1.00  0.00     0.293 HD
ENDBRANCH   4  12
BRANCH   6  14
ATOM     14  O   UNL     1      -9.066  39.759  -3.393  1.00  0.00    -0.504 OA
ATOM     15  H   UNL     1      -9.008  40.278  -2.525  1.00  0.00     0.293 HD
ENDBRANCH   6  14
TORSDOF 4
ENDMDL
MODEL 9
REMARK VINA RESULT:    -5.022      5.967      7.089
REMARK INTER + INTRA:          -6.036
REMARK INTER:                  -5.904
REMARK INTRA:                  -0.132
REMARK UNBOUND:                -0.133
REMARK SMILES O=C([O-])C=Cc1ccc(O)c(O)c1
REMARK SMILES IDX 6 1 13 2 7 3 11 4 8 5 9 6 5 7 4 8 2 9 1 10 3 11 12 12 10 14
REMARK H PARENT 12 13 10 15
REMARK Flexibility Score: inf
ROOT
ATOM      1  C   UNL     1     -11.597  36.434  -2.977  1.00  0.00    -0.022 A 
ATOM      2  C   UNL     1     -12.353  36.424  -1.793  1.00  0.00     0.058 A 
ATOM      3  C   UNL     1     -10.421  37.209  -3.025  1.00  0.00     0.012 A 
ATOM      4  C   UNL     1     -11.938  37.148  -0.670  1.00  0.00     0.157 A 
ATOM      5  C   UNL     1     -10.004  37.933  -1.905  1.00  0.00     0.051 A 
ATOM      6  C   UNL     1     -10.757  37.905  -0.724  1.00  0.00     0.157 A 
ENDROOT
BRANCH   1   7
ATOM      7  C   UNL     1     -12.089  35.657  -4.141  1.00  0.00     0.010 C 
ATOM      8  C   UNL     1     -12.740  34.489  -4.036  1.00  0.00     0.025 C 
BRANCH   8   9
ATOM      9  C   UNL     1     -13.224  33.751  -5.214  1.00  0.00     0.064 C 
ATOM     10  O   UNL     1     -12.983  34.157  -6.383  1.00  0.00    -0.545 OA
ATOM     11  O   UNL     1     -13.960  32.587  -5.035  1.00  0.00    -0.545 OA
ENDBRANCH   8   9
ENDBRANCH   1   7
BRANCH   4  12
ATOM     12  O   UNL     1     -12.713  37.103   0.489  1.00  0.00    -0.504 OA
ATOM     13  H   UNL     1     -12.949  37.939   1.011  1.00  0.00     0.293 HD
ENDBRANCH   4  12
BRANCH   6  14
ATOM     14  O   UNL     1     -10.336  38.628   0.392  1.00  0.00    -0.504 OA
ATOM     15  H   UNL     1     -10.759  38.493   1.302  1.00  0.00     0.293 HD
ENDBRANCH   6  14
TORSDOF 4
ENDMDL
