MODEL 1
REMARK VINA RESULT:    -8.055      0.000      0.000
REMARK INTER + INTRA:          -9.759
REMARK INTER:                  -9.467
REMARK INTRA:                  -0.292
REMARK UNBOUND:                -0.292
REMARK SMILES O=c1cc(-c2ccc(O)c(O)c2)oc2cc(O)cc(O)c12
REMARK SMILES IDX 4 1 3 2 2 3 1 4 21 5 19 6 18 7 16 8 15 9 14 10 13 11 5 12
REMARK SMILES IDX 6 13 7 14 8 15 12 16 10 17 9 18 11 20 20 22 17 24
REMARK H PARENT 9 19 11 21 20 23 17 25
REMARK Flexibility Score: inf
ROOT
ATOM      1  C   UNL     1      44.027  -4.984  25.259  1.00  0.00     0.138 A 
ATOM      2  C   UNL     1      44.538  -3.815  25.839  1.00  0.00     0.100 A 
ATOM      3  C   UNL     1      45.241  -2.904  25.050  1.00  0.00     0.197 A 
ATOM      4  O   UNL     1      45.634  -1.835  25.583  1.00  0.00    -0.289 OA
ATOM      5  C   UNL     1      45.460  -3.182  23.680  1.00  0.00     0.107 A 
ATOM      6  C   UNL     1      46.198  -2.347  22.788  1.00  0.00     0.134 A 
ATOM      7  C   UNL     1      46.249  -2.668  21.426  1.00  0.00     0.093 A 
ATOM      8  C   UNL     1      45.643  -3.823  20.933  1.00  0.00     0.123 A 
ATOM      9  C   UNL     1      44.965  -4.676  21.805  1.00  0.00     0.094 A 
ATOM     10  C   UNL     1      44.866  -4.365  23.163  1.00  0.00     0.146 A 
ATOM     11  O   UNL     1      44.200  -5.196  23.958  1.00  0.00    -0.456 OA
ENDROOT
BRANCH   1  12
ATOM     12  C   UNL     1      43.272  -5.988  26.053  1.00  0.00     0.021 A 
ATOM     13  C   UNL     1      43.161  -7.304  25.574  1.00  0.00     0.016 A 
ATOM     14  C   UNL     1      42.462  -8.270  26.306  1.00  0.00     0.051 A 
ATOM     15  C   UNL     1      41.873  -7.936  27.531  1.00  0.00     0.157 A 
ATOM     16  C   UNL     1      42.687  -5.663  27.293  1.00  0.00     0.062 A 
ATOM     17  C   UNL     1      41.989  -6.632  28.027  1.00  0.00     0.158 A 
BRANCH  15  18
ATOM     18  O   UNL     1      41.174  -8.896  28.262  1.00  0.00    -0.504 OA
ATOM     19  H   UNL     1      40.940  -8.753  29.237  1.00  0.00     0.293 HD
ENDBRANCH  15  18
BRANCH  17  20
ATOM     20  O   UNL     1      41.410  -6.307  29.253  1.00  0.00    -0.504 OA
ATOM     21  H   UNL     1      40.596  -6.800  29.602  1.00  0.00     0.293 HD
ENDBRANCH  17  20
ENDBRANCH   1  12
BRANCH   6  22
ATOM     22  O   UNL     1      46.912  -1.215  23.190  1.00  0.00    -0.507 OA
ATOM     23  H   UNL     1      47.444  -1.141  24.044  1.00  0.00     0.293 HD
ENDBRANCH   6  22
BRANCH   8  24
ATOM     24  O   UNL     1      45.728  -4.118  19.574  1.00  0.00    -0.508 OA
ATOM     25  H   UNL     1      45.080  -3.722  18.904  1.00  0.00     0.293 HD
ENDBRANCH   8  24
TORSDOF 5
ENDMDL
MODEL 2
REMARK VINA RESULT:    -7.955      9.685     12.496
REMARK INTER + INTRA:          -9.642
REMARK INTER:                  -9.348
REMARK INTRA:                  -0.294
REMARK UNBOUND:                -0.292
REMARK SMILES O=c1cc(-c2ccc(O)c(O)c2)oc2cc(O)cc(O)c12
REMARK SMILES IDX 4 1 3 2 2 3 1 4 21 5 19 6 18 7 16 8 15 9 14 10 13 11 5 12
REMARK SMILES IDX 6 13 7 14 8 15 12 16 10 17 9 18 11 20 20 22 17 24
REMARK H PARENT 9 19 11 21 20 23 17 25
REMARK Flexibility Score: inf
ROOT
ATOM      1  C   UNL     1      44.017   4.610  19.424  1.00  0.00     0.138 A 
ATOM      2  C   UNL     1      43.660   5.755  20.149  1.00  0.00     0.100 A 
ATOM      3  C   UNL     1      42.435   5.796  20.815  1.00  0.00     0.197 A 
ATOM      4  O   UNL     1      42.170   6.812  21.509  1.00  0.00    -0.289 OA
ATOM      5  C   UNL     1      41.550   4.696  20.729  1.00  0.00     0.107 A 
ATOM      6  C   UNL     1      40.258   4.642  21.334  1.00  0.00     0.134 A 
ATOM      7  C   UNL     1      39.519   3.454  21.277  1.00  0.00     0.093 A 
ATOM      8  C   UNL     1      39.996   2.340  20.588  1.00  0.00     0.123 A 
ATOM      9  C   UNL     1      41.234   2.399  19.947  1.00  0.00     0.094 A 
ATOM     10  C   UNL     1      42.011   3.557  20.015  1.00  0.00     0.146 A 
ATOM     11  O   UNL     1      43.191   3.568  19.404  1.00  0.00    -0.456 OA
ENDROOT
BRANCH   1  12
ATOM     12  C   UNL     1      45.307   4.513  18.695  1.00  0.00     0.021 A 
ATOM     13  C   UNL     1      45.780   3.253  18.291  1.00  0.00     0.016 A 
ATOM     14  C   UNL     1      46.988   3.135  17.597  1.00  0.00     0.051 A 
ATOM     15  C   UNL     1      47.737   4.276  17.288  1.00  0.00     0.157 A 
ATOM     16  C   UNL     1      46.061   5.658  18.369  1.00  0.00     0.062 A 
ATOM     17  C   UNL     1      47.271   5.540  17.671  1.00  0.00     0.158 A 
BRANCH  15  18
ATOM     18  O   UNL     1      48.943   4.163  16.597  1.00  0.00    -0.504 OA
ATOM     19  H   UNL     1      48.998   4.317  15.597  1.00  0.00     0.293 HD
ENDBRANCH  15  18
BRANCH  17  20
ATOM     20  O   UNL     1      48.015   6.675  17.351  1.00  0.00    -0.504 OA
ATOM     21  H   UNL     1      49.028   6.659  17.340  1.00  0.00     0.293 HD
ENDBRANCH  17  20
ENDBRANCH   1  12
BRANCH   6  22
ATOM     22  O   UNL     1      39.650   5.726  21.973  1.00  0.00    -0.507 OA
ATOM     23  H   UNL     1      38.892   5.653  22.635  1.00  0.00     0.293 HD
ENDBRANCH   6  22
BRANCH   8  24
ATOM     24  O   UNL     1      39.226   1.179  20.540  1.00  0.00    -0.508 OA
ATOM     25  H   UNL     1      38.230   1.211  20.356  1.00  0.00     0.293 HD
ENDBRANCH   8  24
TORSDOF 5
ENDMDL
MODEL 3
REMARK VINA RESULT:    -7.717      8.380     11.365
REMARK INTER + INTRA:          -9.362
REMARK INTER:                  -9.100
REMARK INTRA:                  -0.263
REMARK UNBOUND:                -0.292
REMARK SMILES O=c1cc(-c2ccc(O)c(O)c2)oc2cc(O)cc(O)c12
REMARK SMILES IDX 4 1 3 2 2 3 1 4 21 5 19 6 18 7 16 8 15 9 14 10 13 11 5 12
REMARK SMILES IDX 6 13 7 14 8 15 12 16 10 17 9 18 11 20 20 22 17 24
REMARK H PARENT 9 19 11 21 20 23 17 25
REMARK Flexibility Score: inf
ROOT
ATOM      1  C   UNL     1      37.997  -7.004  19.013  1.00  0.00     0.138 A 
ATOM      2  C   UNL     1      38.544  -8.096  19.701  1.00  0.00     0.100 A 
ATOM      3  C   UNL     1      37.961  -8.522  20.894  1.00  0.00     0.197 A 
ATOM      4  O   UNL     1      38.435  -9.543  21.455  1.00  0.00    -0.289 OA
ATOM      5  C   UNL     1      36.843  -7.830  21.417  1.00  0.00     0.107 A 
ATOM      6  C   UNL     1      36.191  -8.150  22.646  1.00  0.00     0.134 A 
ATOM      7  C   UNL     1      35.021  -7.467  23.004  1.00  0.00     0.093 A 
ATOM      8  C   UNL     1      34.515  -6.438  22.212  1.00  0.00     0.123 A 
ATOM      9  C   UNL     1      35.175  -6.081  21.035  1.00  0.00     0.094 A 
ATOM     10  C   UNL     1      36.323  -6.766  20.632  1.00  0.00     0.146 A 
ATOM     11  O   UNL     1      36.914  -6.404  19.498  1.00  0.00    -0.456 OA
ENDROOT
BRANCH   1  12
ATOM     12  C   UNL     1      38.579  -6.507  17.740  1.00  0.00     0.021 A 
ATOM     13  C   UNL     1      39.472  -5.422  17.764  1.00  0.00     0.016 A 
ATOM     14  C   UNL     1      40.038  -4.941  16.581  1.00  0.00     0.051 A 
ATOM     15  C   UNL     1      39.729  -5.542  15.355  1.00  0.00     0.157 A 
ATOM     16  C   UNL     1      38.283  -7.116  16.504  1.00  0.00     0.062 A 
ATOM     17  C   UNL     1      38.853  -6.633  15.317  1.00  0.00     0.158 A 
BRANCH  15  18
ATOM     18  O   UNL     1      40.292  -5.063  14.173  1.00  0.00    -0.504 OA
ATOM     19  H   UNL     1      41.292  -4.941  14.073  1.00  0.00     0.293 HD
ENDBRANCH  15  18
BRANCH  17  20
ATOM     20  O   UNL     1      38.557  -7.236  14.095  1.00  0.00    -0.504 OA
ATOM     21  H   UNL     1      37.652  -7.655  13.917  1.00  0.00     0.293 HD
ENDBRANCH  17  20
ENDBRANCH   1  12
BRANCH   6  22
ATOM     22  O   UNL     1      36.661  -9.102  23.554  1.00  0.00    -0.507 OA
ATOM     23  H   UNL     1      36.288  -9.250  24.480  1.00  0.00     0.293 HD
ENDBRANCH   6  22
BRANCH   8  24
ATOM     24  O   UNL     1      33.358  -5.771  22.607  1.00  0.00    -0.508 OA
ATOM     25  H   UNL     1      32.837  -5.186  21.965  1.00  0.00     0.293 HD
ENDBRANCH   8  24
TORSDOF 5
ENDMDL
MODEL 4
REMARK VINA RESULT:    -7.699      7.369     11.921
REMARK INTER + INTRA:          -9.341
REMARK INTER:                  -9.053
REMARK INTRA:                  -0.288
REMARK UNBOUND:                -0.292
REMARK SMILES O=c1cc(-c2ccc(O)c(O)c2)oc2cc(O)cc(O)c12
REMARK SMILES IDX 4 1 3 2 2 3 1 4 21 5 19 6 18 7 16 8 15 9 14 10 13 11 5 12
REMARK SMILES IDX 6 13 7 14 8 15 12 16 10 17 9 18 11 20 20 22 17 24
REMARK H PARENT 9 19 11 21 20 23 17 25
REMARK Flexibility Score: inf
ROOT
ATOM      1  C   UNL     1      44.719   3.182  19.258  1.00  0.00     0.138 A 
ATOM      2  C   UNL     1      45.358   2.063  19.809  1.00  0.00     0.100 A 
ATOM      3  C   UNL     1      44.599   1.067  20.424  1.00  0.00     0.197 A 
ATOM      4  O   UNL     1      45.194   0.046  20.853  1.00  0.00    -0.289 OA
ATOM      5  C   UNL     1      43.193   1.209  20.513  1.00  0.00     0.107 A 
ATOM      6  C   UNL     1      42.322   0.277  21.152  1.00  0.00     0.134 A 
ATOM      7  C   UNL     1      40.935   0.466  21.077  1.00  0.00     0.093 A 
ATOM      8  C   UNL     1      40.393   1.581  20.440  1.00  0.00     0.123 A 
ATOM      9  C   UNL     1      41.238   2.527  19.858  1.00  0.00     0.094 A 
ATOM     10  C   UNL     1      42.623   2.349  19.885  1.00  0.00     0.146 A 
ATOM     11  O   UNL     1      43.393   3.265  19.308  1.00  0.00    -0.456 OA
ENDROOT
BRANCH   1  12
ATOM     12  C   UNL     1      45.479   4.272  18.594  1.00  0.00     0.021 A 
ATOM     13  C   UNL     1      44.949   5.573  18.578  1.00  0.00     0.016 A 
ATOM     14  C   UNL     1      45.648   6.618  17.966  1.00  0.00     0.051 A 
ATOM     15  C   UNL     1      46.892   6.380  17.369  1.00  0.00     0.157 A 
ATOM     16  C   UNL     1      46.737   4.043  18.002  1.00  0.00     0.062 A 
ATOM     17  C   UNL     1      47.439   5.092  17.390  1.00  0.00     0.158 A 
BRANCH  15  18
ATOM     18  O   UNL     1      47.591   7.420  16.757  1.00  0.00    -0.504 OA
ATOM     19  H   UNL     1      48.559   7.613  16.983  1.00  0.00     0.293 HD
ENDBRANCH  15  18
BRANCH  17  20
ATOM     20  O   UNL     1      48.683   4.861  16.804  1.00  0.00    -0.504 OA
ATOM     21  H   UNL     1      48.804   4.867  15.799  1.00  0.00     0.293 HD
ENDBRANCH  17  20
ENDBRANCH   1  12
BRANCH   6  22
ATOM     22  O   UNL     1      42.762  -0.825  21.890  1.00  0.00    -0.507 OA
ATOM     23  H   UNL     1      43.453  -1.490  21.576  1.00  0.00     0.293 HD
ENDBRANCH   6  22
BRANCH   8  24
ATOM     24  O   UNL     1      39.010   1.743  20.398  1.00  0.00    -0.508 OA
ATOM     25  H   UNL     1      38.584   2.662  20.364  1.00  0.00     0.293 HD
ENDBRANCH   8  24
TORSDOF 5
ENDMDL
MODEL 5
REMARK VINA RESULT:    -7.555      2.345      7.056
REMARK INTER + INTRA:          -9.172
REMARK INTER:                  -8.855
REMARK INTRA:                  -0.317
REMARK UNBOUND:                -0.292
REMARK SMILES O=c1cc(-c2ccc(O)c(O)c2)oc2cc(O)cc(O)c12
REMARK SMILES IDX 4 1 3 2 2 3 1 4 21 5 19 6 18 7 16 8 15 9 14 10 13 11 5 12
REMARK SMILES IDX 6 13 7 14 8 15 12 16 10 17 9 18 11 20 20 22 17 24
REMARK H PARENT 9 19 11 21 20 23 17 25
REMARK Flexibility Score: inf
ROOT
ATOM      1  C   UNL     1      44.983  -4.523  21.387  1.00  0.00     0.138 A 
ATOM      2  C   UNL     1      45.567  -3.374  21.937  1.00  0.00     0.100 A 
ATOM      3  C   UNL     1      45.471  -3.140  23.308  1.00  0.00     0.197 A 
ATOM      4  O   UNL     1      46.059  -2.134  23.782  1.00  0.00    -0.289 OA
ATOM      5  C   UNL     1      44.759  -4.046  24.129  1.00  0.00     0.107 A 
ATOM      6  C   UNL     1      44.562  -3.889  25.534  1.00  0.00     0.134 A 
ATOM      7  C   UNL     1      43.939  -4.911  26.262  1.00  0.00     0.093 A 
ATOM      8  C   UNL     1      43.453  -6.054  25.629  1.00  0.00     0.123 A 
ATOM      9  C   UNL     1      43.592  -6.194  24.248  1.00  0.00     0.094 A 
ATOM     10  C   UNL     1      44.241  -5.209  23.499  1.00  0.00     0.146 A 
ATOM     11  O   UNL     1      44.366  -5.387  22.188  1.00  0.00    -0.456 OA
ENDROOT
BRANCH   1  12
ATOM     12  C   UNL     1      45.053  -4.821  19.934  1.00  0.00     0.021 A 
ATOM     13  C   UNL     1      45.621  -3.877  19.062  1.00  0.00     0.016 A 
ATOM     14  C   UNL     1      45.706  -4.136  17.691  1.00  0.00     0.051 A 
ATOM     15  C   UNL     1      45.233  -5.346  17.171  1.00  0.00     0.157 A 
ATOM     16  C   UNL     1      44.591  -6.043  19.405  1.00  0.00     0.062 A 
ATOM     17  C   UNL     1      44.678  -6.303  18.030  1.00  0.00     0.158 A 
BRANCH  15  18
ATOM     18  O   UNL     1      45.314  -5.607  15.804  1.00  0.00    -0.504 OA
ATOM     19  H   UNL     1      44.499  -5.559  15.205  1.00  0.00     0.293 HD
ENDBRANCH  15  18
BRANCH  17  20
ATOM     20  O   UNL     1      44.219  -7.512  17.510  1.00  0.00    -0.504 OA
ATOM     21  H   UNL     1      43.542  -8.079  18.006  1.00  0.00     0.293 HD
ENDBRANCH  17  20
ENDBRANCH   1  12
BRANCH   6  22
ATOM     22  O   UNL     1      44.932  -2.748  26.251  1.00  0.00    -0.507 OA
ATOM     23  H   UNL     1      45.801  -2.250  26.134  1.00  0.00     0.293 HD
ENDBRANCH   6  22
BRANCH   8  24
ATOM     24  O   UNL     1      42.825  -7.043  26.383  1.00  0.00    -0.508 OA
ATOM     25  H   UNL     1      42.294  -6.818  27.216  1.00  0.00     0.293 HD
ENDBRANCH   8  24
TORSDOF 5
ENDMDL
MODEL 6
REMARK VINA RESULT:    -7.409      3.669      8.761
REMARK INTER + INTRA:          -9.001
REMARK INTER:                  -8.705
REMARK INTRA:                  -0.296
REMARK UNBOUND:                -0.292
REMARK SMILES O=c1cc(-c2ccc(O)c(O)c2)oc2cc(O)cc(O)c12
REMARK SMILES IDX 4 1 3 2 2 3 1 4 21 5 19 6 18 7 16 8 15 9 14 10 13 11 5 12
REMARK SMILES IDX 6 13 7 14 8 15 12 16 10 17 9 18 11 20 20 22 17 24
REMARK H PARENT 9 19 11 21 20 23 17 25
REMARK Flexibility Score: inf
ROOT
ATOM      1  C   UNL     1      44.925  -0.745  21.242  1.00  0.00     0.138 A 
ATOM      2  C   UNL     1      44.855  -1.826  20.352  1.00  0.00     0.100 A 
ATOM      3  C   UNL     1      44.721  -3.122  20.850  1.00  0.00     0.197 A 
ATOM      4  O   UNL     1      44.596  -4.064  20.026  1.00  0.00    -0.289 OA
ATOM      5  C   UNL     1      44.688  -3.339  22.248  1.00  0.00     0.107 A 
ATOM      6  C   UNL     1      44.594  -4.620  22.869  1.00  0.00     0.134 A 
ATOM      7  C   UNL     1      44.453  -4.703  24.261  1.00  0.00     0.093 A 
ATOM      8  C   UNL     1      44.463  -3.558  25.056  1.00  0.00     0.123 A 
ATOM      9  C   UNL     1      44.609  -2.303  24.464  1.00  0.00     0.094 A 
ATOM     10  C   UNL     1      44.716  -2.185  23.076  1.00  0.00     0.146 A 
ATOM     11  O   UNL     1      44.838  -0.971  22.549  1.00  0.00    -0.456 OA
ENDROOT
BRANCH   1  12
ATOM     12  C   UNL     1      45.071   0.655  20.767  1.00  0.00     0.021 A 
ATOM     13  C   UNL     1      44.997   1.710  21.692  1.00  0.00     0.016 A 
ATOM     14  C   UNL     1      45.137   3.035  21.271  1.00  0.00     0.051 A 
ATOM     15  C   UNL     1      45.363   3.327  19.921  1.00  0.00     0.157 A 
ATOM     16  C   UNL     1      45.311   0.955  19.411  1.00  0.00     0.062 A 
ATOM     17  C   UNL     1      45.454   2.285  18.990  1.00  0.00     0.158 A 
BRANCH  15  18
ATOM     18  O   UNL     1      45.503   4.648  19.498  1.00  0.00    -0.504 OA
ATOM     19  H   UNL     1      46.179   4.910  18.791  1.00  0.00     0.293 HD
ENDBRANCH  15  18
BRANCH  17  20
ATOM     20  O   UNL     1      45.691   2.579  17.648  1.00  0.00    -0.504 OA
ATOM     21  H   UNL     1      46.207   1.945  17.050  1.00  0.00     0.293 HD
ENDBRANCH  17  20
ENDBRANCH   1  12
BRANCH   6  22
ATOM     22  O   UNL     1      44.660  -5.832  22.175  1.00  0.00    -0.507 OA
ATOM     23  H   UNL     1      44.366  -5.966  21.220  1.00  0.00     0.293 HD
ENDBRANCH   6  22
BRANCH   8  24
ATOM     24  O   UNL     1      44.336  -3.680  26.438  1.00  0.00    -0.508 OA
ATOM     25  H   UNL     1      45.146  -3.700  27.046  1.00  0.00     0.293 HD
ENDBRANCH   8  24
TORSDOF 5
ENDMDL
MODEL 7
REMARK VINA RESULT:    -7.377      9.019     12.430
REMARK INTER + INTRA:          -8.962
REMARK INTER:                  -8.644
REMARK INTRA:                  -0.318
REMARK UNBOUND:                -0.292
REMARK SMILES O=c1cc(-c2ccc(O)c(O)c2)oc2cc(O)cc(O)c12
REMARK SMILES IDX 4 1 3 2 2 3 1 4 21 5 19 6 18 7 16 8 15 9 14 10 13 11 5 12
REMARK SMILES IDX 6 13 7 14 8 15 12 16 10 17 9 18 11 20 20 22 17 24
REMARK H PARENT 9 19 11 21 20 23 17 25
REMARK Flexibility Score: inf
ROOT
ATOM      1  C   UNL     1      43.891   3.666  19.405  1.00  0.00     0.138 A 
ATOM      2  C   UNL     1      43.468   2.367  19.720  1.00  0.00     0.100 A 
ATOM      3  C   UNL     1      42.269   2.180  20.407  1.00  0.00     0.197 A 
ATOM      4  O   UNL     1      41.884   1.001  20.619  1.00  0.00    -0.289 OA
ATOM      5  C   UNL     1      41.505   3.302  20.808  1.00  0.00     0.107 A 
ATOM      6  C   UNL     1      40.287   3.233  21.548  1.00  0.00     0.134 A 
ATOM      7  C   UNL     1      39.558   4.405  21.788  1.00  0.00     0.093 A 
ATOM      8  C   UNL     1      40.032   5.648  21.369  1.00  0.00     0.123 A 
ATOM      9  C   UNL     1      41.249   5.733  20.691  1.00  0.00     0.094 A 
ATOM     10  C   UNL     1      41.982   4.578  20.405  1.00  0.00     0.146 A 
ATOM     11  O   UNL     1      43.129   4.700  19.746  1.00  0.00    -0.456 OA
ENDROOT
BRANCH   1  12
ATOM     12  C   UNL     1      45.160   3.923  18.677  1.00  0.00     0.021 A 
ATOM     13  C   UNL     1      46.004   2.845  18.357  1.00  0.00     0.016 A 
ATOM     14  C   UNL     1      47.200   3.060  17.666  1.00  0.00     0.051 A 
ATOM     15  C   UNL     1      47.567   4.353  17.276  1.00  0.00     0.157 A 
ATOM     16  C   UNL     1      45.530   5.220  18.269  1.00  0.00     0.062 A 
ATOM     17  C   UNL     1      46.730   5.434  17.574  1.00  0.00     0.158 A 
BRANCH  15  18
ATOM     18  O   UNL     1      48.760   4.570  16.587  1.00  0.00    -0.504 OA
ATOM     19  H   UNL     1      49.487   3.865  16.550  1.00  0.00     0.293 HD
ENDBRANCH  15  18
BRANCH  17  20
ATOM     20  O   UNL     1      47.094   6.719  17.174  1.00  0.00    -0.504 OA
ATOM     21  H   UNL     1      47.530   7.370  17.816  1.00  0.00     0.293 HD
ENDBRANCH  17  20
ENDBRANCH   1  12
BRANCH   6  22
ATOM     22  O   UNL     1      39.766   2.054  22.087  1.00  0.00    -0.507 OA
ATOM     23  H   UNL     1      39.911   1.131  21.706  1.00  0.00     0.293 HD
ENDBRANCH   6  22
BRANCH   8  24
ATOM     24  O   UNL     1      39.288   6.794  21.638  1.00  0.00    -0.508 OA
ATOM     25  H   UNL     1      38.394   6.963  21.192  1.00  0.00     0.293 HD
ENDBRANCH   8  24
TORSDOF 5
ENDMDL
MODEL 8
REMARK VINA RESULT:    -7.368      2.461      7.130
REMARK INTER + INTRA:          -8.952
REMARK INTER:                  -8.656
REMARK INTRA:                  -0.296
REMARK UNBOUND:                -0.292
REMARK SMILES O=c1cc(-c2ccc(O)c(O)c2)oc2cc(O)cc(O)c12
REMARK SMILES IDX 4 1 3 2 2 3 1 4 21 5 19 6 18 7 16 8 15 9 14 10 13 11 5 12
REMARK SMILES IDX 6 13 7 14 8 15 12 16 10 17 9 18 11 20 20 22 17 24
REMARK H PARENT 9 19 11 21 20 23 17 25
REMARK Flexibility Score: inf
ROOT
ATOM      1  C   UNL     1      45.018  -4.555  20.997  1.00  0.00     0.138 A 
ATOM      2  C   UNL     1      45.567  -3.298  21.285  1.00  0.00     0.100 A 
ATOM      3  C   UNL     1      45.520  -2.808  22.590  1.00  0.00     0.197 A 
ATOM      4  O   UNL     1      46.076  -1.706  22.832  1.00  0.00    -0.289 OA
ATOM      5  C   UNL     1      44.890  -3.568  23.605  1.00  0.00     0.107 A 
ATOM      6  C   UNL     1      44.747  -3.151  24.962  1.00  0.00     0.134 A 
ATOM      7  C   UNL     1      44.208  -4.038  25.903  1.00  0.00     0.093 A 
ATOM      8  C   UNL     1      43.753  -5.301  25.526  1.00  0.00     0.123 A 
ATOM      9  C   UNL     1      43.840  -5.699  24.192  1.00  0.00     0.094 A 
ATOM     10  C   UNL     1      44.404  -4.851  23.236  1.00  0.00     0.146 A 
ATOM     11  O   UNL     1      44.481  -5.273  21.978  1.00  0.00    -0.456 OA
ENDROOT
BRANCH   1  12
ATOM     12  C   UNL     1      45.040  -5.124  19.625  1.00  0.00     0.021 A 
ATOM     13  C   UNL     1      44.634  -6.454  19.422  1.00  0.00     0.016 A 
ATOM     14  C   UNL     1      44.639  -7.011  18.139  1.00  0.00     0.051 A 
ATOM     15  C   UNL     1      45.040  -6.245  17.039  1.00  0.00     0.157 A 
ATOM     16  C   UNL     1      45.431  -4.355  18.510  1.00  0.00     0.062 A 
ATOM     17  C   UNL     1      45.433  -4.914  17.224  1.00  0.00     0.158 A 
BRANCH  15  18
ATOM     18  O   UNL     1      45.047  -6.797  15.759  1.00  0.00    -0.504 OA
ATOM     19  H   UNL     1      45.626  -6.417  15.020  1.00  0.00     0.293 HD
ENDBRANCH  15  18
BRANCH  17  20
ATOM     20  O   UNL     1      45.821  -4.151  16.124  1.00  0.00    -0.504 OA
ATOM     21  H   UNL     1      45.140  -3.741  15.496  1.00  0.00     0.293 HD
ENDBRANCH  17  20
ENDBRANCH   1  12
BRANCH   6  22
ATOM     22  O   UNL     1      45.090  -1.879  25.429  1.00  0.00    -0.507 OA
ATOM     23  H   UNL     1      45.066  -1.036  24.876  1.00  0.00     0.293 HD
ENDBRANCH   6  22
BRANCH   8  24
ATOM     24  O   UNL     1      43.210  -6.151  26.487  1.00  0.00    -0.508 OA
ATOM     25  H   UNL     1      42.241  -6.447  26.446  1.00  0.00     0.293 HD
ENDBRANCH   8  24
TORSDOF 5
ENDMDL
MODEL 9
REMARK VINA RESULT:    -7.330      3.933      8.816
REMARK INTER + INTRA:          -8.907
REMARK INTER:                  -8.590
REMARK INTRA:                  -0.317
REMARK UNBOUND:                -0.292
REMARK SMILES O=c1cc(-c2ccc(O)c(O)c2)oc2cc(O)cc(O)c12
REMARK SMILES IDX 4 1 3 2 2 3 1 4 21 5 19 6 18 7 16 8 15 9 14 10 13 11 5 12
REMARK SMILES IDX 6 13 7 14 8 15 12 16 10 17 9 18 11 20 20 22 17 24
REMARK H PARENT 9 19 11 21 20 23 17 25
REMARK Flexibility Score: inf
ROOT
ATOM      1  C   UNL     1      45.005  -0.127  21.241  1.00  0.00     0.138 A 
ATOM      2  C   UNL     1      44.964  -1.175  20.312  1.00  0.00     0.100 A 
ATOM      3  C   UNL     1      44.877  -2.493  20.763  1.00  0.00     0.197 A 
ATOM      4  O   UNL     1      44.779  -3.409  19.906  1.00  0.00    -0.289 OA
ATOM      5  C   UNL     1      44.863  -2.762  22.152  1.00  0.00     0.107 A 
ATOM      6  C   UNL     1      44.817  -4.067  22.727  1.00  0.00     0.134 A 
ATOM      7  C   UNL     1      44.689  -4.205  24.115  1.00  0.00     0.093 A 
ATOM      8  C   UNL     1      44.666  -3.091  24.952  1.00  0.00     0.123 A 
ATOM      9  C   UNL     1      44.765  -1.811  24.405  1.00  0.00     0.094 A 
ATOM     10  C   UNL     1      44.858  -1.638  23.022  1.00  0.00     0.146 A 
ATOM     11  O   UNL     1      44.935  -0.403  22.539  1.00  0.00    -0.456 OA
ENDROOT
BRANCH   1  12
ATOM     12  C   UNL     1      45.099   1.294  20.816  1.00  0.00     0.021 A 
ATOM     13  C   UNL     1      45.048   1.611  19.448  1.00  0.00     0.016 A 
ATOM     14  C   UNL     1      45.127   2.940  19.023  1.00  0.00     0.051 A 
ATOM     15  C   UNL     1      45.249   3.974  19.959  1.00  0.00     0.157 A 
ATOM     16  C   UNL     1      45.209   2.341  21.753  1.00  0.00     0.062 A 
ATOM     17  C   UNL     1      45.286   3.674  21.326  1.00  0.00     0.158 A 
BRANCH  15  18
ATOM     18  O   UNL     1      45.330   5.301  19.538  1.00  0.00    -0.504 OA
ATOM     19  H   UNL     1      44.915   6.053  20.075  1.00  0.00     0.293 HD
ENDBRANCH  15  18
BRANCH  17  20
ATOM     20  O   UNL     1      45.396   4.708  22.255  1.00  0.00    -0.504 OA
ATOM     21  H   UNL     1      45.444   4.523  23.250  1.00  0.00     0.293 HD
ENDBRANCH  17  20
ENDBRANCH   1  12
BRANCH   6  22
ATOM     22  O   UNL     1      44.918  -5.250  21.989  1.00  0.00    -0.507 OA
ATOM     23  H   UNL     1      44.426  -6.104  22.199  1.00  0.00     0.293 HD
ENDBRANCH   6  22
BRANCH   8  24
ATOM     24  O   UNL     1      44.554  -3.267  26.330  1.00  0.00    -0.508 OA
ATOM     25  H   UNL     1      45.294  -2.987  26.963  1.00  0.00     0.293 HD
ENDBRANCH   8  24
TORSDOF 5
ENDMDL
