MODEL 1
REMARK VINA RESULT:    -5.231      0.000      0.000
REMARK INTER + INTRA:          -5.634
REMARK INTER:                  -5.537
REMARK INTRA:                  -0.097
REMARK UNBOUND:                -0.097
REMARK SMILES C=C(C)[C@H]1CC=C(C)C(=O)C1
REMARK SMILES IDX 8 1 7 2 6 3 5 4 4 5 11 6 9 7 10 8 2 9 1 10 3 11
REMARK H PARENT
REMARK Flexibility Score: inf
ROOT
ATOM      1  C   UNL     1     -29.000 -53.401  25.843  1.00  0.00     0.048 C 
ATOM      2  C   UNL     1     -27.538 -53.751  25.788  1.00  0.00    -0.012 C 
ATOM      3  C   UNL     1     -26.934 -54.269  26.871  1.00  0.00    -0.019 C 
ATOM      4  C   UNL     1     -25.469 -54.621  26.875  1.00  0.00     0.036 C 
ATOM      5  C   UNL     1     -25.005 -55.086  25.483  1.00  0.00     0.025 C 
ATOM      6  C   UNL     1     -25.346 -54.023  24.423  1.00  0.00     0.089 C 
ATOM      7  C   UNL     1     -26.798 -53.640  24.506  1.00  0.00     0.158 C 
ATOM      8  O   UNL     1     -27.373 -53.188  23.480  1.00  0.00    -0.295 OA
ENDROOT
BRANCH   5   9
ATOM      9  C   UNL     1     -23.521 -55.425  25.473  1.00  0.00    -0.077 C 
ATOM     10  C   UNL     1     -22.649 -54.650  26.137  1.00  0.00     0.008 C 
ATOM     11  C   UNL     1     -22.994 -56.627  24.729  1.00  0.00     0.039 C 
ENDBRANCH   5   9
TORSDOF 1
ENDMDL
MODEL 2
REMARK VINA RESULT:    -5.124      3.504      5.732
REMARK INTER + INTRA:          -5.521
REMARK INTER:                  -5.431
REMARK INTRA:                  -0.089
REMARK UNBOUND:                -0.097
REMARK SMILES C=C(C)[C@H]1CC=C(C)C(=O)C1
REMARK SMILES IDX 8 1 7 2 6 3 5 4 4 5 11 6 9 7 10 8 2 9 1 10 3 11
REMARK H PARENT
REMARK Flexibility Score: inf
ROOT
ATOM      1  C   UNL     1     -19.299 -51.248  23.816  1.00  0.00     0.048 C 
ATOM      2  C   UNL     1     -20.411 -52.246  23.990  1.00  0.00    -0.012 C 
ATOM      3  C   UNL     1     -20.615 -53.190  23.055  1.00  0.00    -0.019 C 
ATOM      4  C   UNL     1     -21.724 -54.201  23.171  1.00  0.00     0.036 C 
ATOM      5  C   UNL     1     -22.002 -54.555  24.644  1.00  0.00     0.025 C 
ATOM      6  C   UNL     1     -22.289 -53.279  25.455  1.00  0.00     0.089 C 
ATOM      7  C   UNL     1     -21.200 -52.263  25.247  1.00  0.00     0.158 C 
ATOM      8  O   UNL     1     -20.987 -51.400  26.141  1.00  0.00    -0.295 OA
ENDROOT
BRANCH   5   9
ATOM      9  C   UNL     1     -23.136 -55.563  24.772  1.00  0.00    -0.077 C 
ATOM     10  C   UNL     1     -22.899 -56.871  24.581  1.00  0.00     0.008 C 
ATOM     11  C   UNL     1     -24.539 -55.128  25.114  1.00  0.00     0.039 C 
ENDBRANCH   5   9
TORSDOF 1
ENDMDL
MODEL 3
REMARK VINA RESULT:    -5.081      5.490      7.145
REMARK INTER + INTRA:          -5.475
REMARK INTER:                  -5.378
REMARK INTRA:                  -0.098
REMARK UNBOUND:                -0.097
REMARK SMILES C=C(C)[C@H]1CC=C(C)C(=O)C1
REMARK SMILES IDX 8 1 7 2 6 3 5 4 4 5 11 6 9 7 10 8 2 9 1 10 3 11
REMARK H PARENT
REMARK Flexibility Score: inf
ROOT
ATOM      1  C   UNL     1     -21.337 -53.873  22.410  1.00  0.00     0.048 C 
ATOM      2  C   UNL     1     -20.622 -53.061  23.454  1.00  0.00    -0.012 C 
ATOM      3  C   UNL     1     -19.903 -51.985  23.088  1.00  0.00    -0.019 C 
ATOM      4  C   UNL     1     -19.153 -51.148  24.089  1.00  0.00     0.036 C 
ATOM      5  C   UNL     1     -19.884 -51.115  25.444  1.00  0.00     0.025 C 
ATOM      6  C   UNL     1     -20.134 -52.546  25.952  1.00  0.00     0.089 C 
ATOM      7  C   UNL     1     -20.811 -53.373  24.893  1.00  0.00     0.158 C 
ATOM      8  O   UNL     1     -21.513 -54.360  25.240  1.00  0.00    -0.295 OA
ENDROOT
BRANCH   5   9
ATOM      9  C   UNL     1     -19.123 -50.286  26.470  1.00  0.00    -0.077 C 
ATOM     10  C   UNL     1     -18.323 -50.890  27.363  1.00  0.00     0.008 C 
ATOM     11  C   UNL     1     -19.242 -48.782  26.510  1.00  0.00     0.039 C 
ENDBRANCH   5   9
TORSDOF 1
ENDMDL
MODEL 4
REMARK VINA RESULT:    -5.062      7.766      9.963
REMARK INTER + INTRA:          -5.455
REMARK INTER:                  -5.357
REMARK INTRA:                  -0.098
REMARK UNBOUND:                -0.097
REMARK SMILES C=C(C)[C@H]1CC=C(C)C(=O)C1
REMARK SMILES IDX 8 1 7 2 6 3 5 4 4 5 11 6 9 7 10 8 2 9 1 10 3 11
REMARK H PARENT
REMARK Flexibility Score: inf
ROOT
ATOM      1  C   UNL     1     -16.888 -51.606  32.220  1.00  0.00     0.048 C 
ATOM      2  C   UNL     1     -17.702 -51.220  31.016  1.00  0.00    -0.012 C 
ATOM      3  C   UNL     1     -18.887 -50.608  31.179  1.00  0.00    -0.019 C 
ATOM      4  C   UNL     1     -19.750 -50.217  30.009  1.00  0.00     0.036 C 
ATOM      5  C   UNL     1     -18.892 -49.841  28.787  1.00  0.00     0.025 C 
ATOM      6  C   UNL     1     -17.925 -50.987  28.440  1.00  0.00     0.089 C 
ATOM      7  C   UNL     1     -17.141 -51.404  29.654  1.00  0.00     0.158 C 
ATOM      8  O   UNL     1     -16.013 -51.945  29.501  1.00  0.00    -0.295 OA
ENDROOT
BRANCH   5   9
ATOM      9  C   UNL     1     -19.757 -49.463  27.592  1.00  0.00    -0.077 C 
ATOM     10  C   UNL     1     -20.931 -50.080  27.388  1.00  0.00     0.008 C 
ATOM     11  C   UNL     1     -19.325 -48.396  26.615  1.00  0.00     0.039 C 
ENDBRANCH   5   9
TORSDOF 1
ENDMDL
MODEL 5
REMARK VINA RESULT:    -4.979      3.514      5.634
REMARK INTER + INTRA:          -5.368
REMARK INTER:                  -5.281
REMARK INTRA:                  -0.087
REMARK UNBOUND:                -0.097
REMARK SMILES C=C(C)[C@H]1CC=C(C)C(=O)C1
REMARK SMILES IDX 8 1 7 2 6 3 5 4 4 5 11 6 9 7 10 8 2 9 1 10 3 11
REMARK H PARENT
REMARK Flexibility Score: inf
ROOT
ATOM      1  C   UNL     1     -19.175 -51.262  24.083  1.00  0.00     0.048 C 
ATOM      2  C   UNL     1     -20.115 -52.424  24.248  1.00  0.00    -0.012 C 
ATOM      3  C   UNL     1     -20.546 -52.766  25.475  1.00  0.00    -0.019 C 
ATOM      4  C   UNL     1     -21.473 -53.931  25.699  1.00  0.00     0.036 C 
ATOM      5  C   UNL     1     -22.430 -54.117  24.507  1.00  0.00     0.025 C 
ATOM      6  C   UNL     1     -21.632 -54.251  23.197  1.00  0.00     0.089 C 
ATOM      7  C   UNL     1     -20.660 -53.112  23.051  1.00  0.00     0.158 C 
ATOM      8  O   UNL     1     -20.284 -52.770  21.898  1.00  0.00    -0.295 OA
ENDROOT
BRANCH   5   9
ATOM      9  C   UNL     1     -23.358 -55.306  24.716  1.00  0.00    -0.077 C 
ATOM     10  C   UNL     1     -24.645 -55.106  25.042  1.00  0.00     0.008 C 
ATOM     11  C   UNL     1     -22.866 -56.724  24.563  1.00  0.00     0.039 C 
ENDBRANCH   5   9
TORSDOF 1
ENDMDL
MODEL 6
REMARK VINA RESULT:    -4.924      1.482      1.984
REMARK INTER + INTRA:          -5.309
REMARK INTER:                  -5.213
REMARK INTRA:                  -0.096
REMARK UNBOUND:                -0.097
REMARK SMILES C=C(C)[C@H]1CC=C(C)C(=O)C1
REMARK SMILES IDX 8 1 7 2 6 3 5 4 4 5 11 6 9 7 10 8 2 9 1 10 3 11
REMARK H PARENT
REMARK Flexibility Score: inf
ROOT
ATOM      1  C   UNL     1     -28.853 -53.416  25.770  1.00  0.00     0.048 C 
ATOM      2  C   UNL     1     -27.494 -54.059  25.777  1.00  0.00    -0.012 C 
ATOM      3  C   UNL     1     -27.077 -54.753  24.704  1.00  0.00    -0.019 C 
ATOM      4  C   UNL     1     -25.733 -55.431  24.665  1.00  0.00     0.036 C 
ATOM      5  C   UNL     1     -24.691 -54.645  25.481  1.00  0.00     0.025 C 
ATOM      6  C   UNL     1     -25.192 -54.427  26.920  1.00  0.00     0.089 C 
ATOM      7  C   UNL     1     -26.570 -53.824  26.915  1.00  0.00     0.158 C 
ATOM      8  O   UNL     1     -26.946 -53.145  27.907  1.00  0.00    -0.295 OA
ENDROOT
BRANCH   5   9
ATOM      9  C   UNL     1     -23.333 -55.334  25.463  1.00  0.00    -0.077 C 
ATOM     10  C   UNL     1     -22.316 -54.837  26.185  1.00  0.00     0.008 C 
ATOM     11  C   UNL     1     -23.094 -56.580  24.646  1.00  0.00     0.039 C 
ENDBRANCH   5   9
TORSDOF 1
ENDMDL
MODEL 7
REMARK VINA RESULT:    -4.806      2.672      4.961
REMARK INTER + INTRA:          -5.184
REMARK INTER:                  -5.095
REMARK INTRA:                  -0.089
REMARK UNBOUND:                -0.097
REMARK SMILES C=C(C)[C@H]1CC=C(C)C(=O)C1
REMARK SMILES IDX 8 1 7 2 6 3 5 4 4 5 11 6 9 7 10 8 2 9 1 10 3 11
REMARK H PARENT
REMARK Flexibility Score: inf
ROOT
ATOM      1  C   UNL     1     -20.552 -53.493  23.975  1.00  0.00     0.048 C 
ATOM      2  C   UNL     1     -21.942 -53.763  24.479  1.00  0.00    -0.012 C 
ATOM      3  C   UNL     1     -22.998 -53.202  23.864  1.00  0.00    -0.019 C 
ATOM      4  C   UNL     1     -24.409 -53.425  24.338  1.00  0.00     0.036 C 
ATOM      5  C   UNL     1     -24.576 -54.830  24.945  1.00  0.00     0.025 C 
ATOM      6  C   UNL     1     -23.543 -55.055  26.064  1.00  0.00     0.089 C 
ATOM      7  C   UNL     1     -22.156 -54.743  25.573  1.00  0.00     0.158 C 
ATOM      8  O   UNL     1     -21.169 -55.298  26.128  1.00  0.00    -0.295 OA
ENDROOT
BRANCH   5   9
ATOM      9  C   UNL     1     -25.996 -55.057  25.445  1.00  0.00    -0.077 C 
ATOM     10  C   UNL     1     -26.972 -55.375  24.580  1.00  0.00     0.008 C 
ATOM     11  C   UNL     1     -26.343 -54.936  26.909  1.00  0.00     0.039 C 
ENDBRANCH   5   9
TORSDOF 1
ENDMDL
MODEL 8
REMARK VINA RESULT:    -4.802      3.390      4.518
REMARK INTER + INTRA:          -5.180
REMARK INTER:                  -5.090
REMARK INTRA:                  -0.090
REMARK UNBOUND:                -0.097
REMARK SMILES C=C(C)[C@H]1CC=C(C)C(=O)C1
REMARK SMILES IDX 8 1 7 2 6 3 5 4 4 5 11 6 9 7 10 8 2 9 1 10 3 11
REMARK H PARENT
REMARK Flexibility Score: inf
ROOT
ATOM      1  C   UNL     1     -25.065 -55.002  25.665  1.00  0.00     0.048 C 
ATOM      2  C   UNL     1     -23.915 -54.253  25.049  1.00  0.00    -0.012 C 
ATOM      3  C   UNL     1     -23.796 -52.929  25.248  1.00  0.00    -0.019 C 
ATOM      4  C   UNL     1     -22.675 -52.129  24.640  1.00  0.00     0.036 C 
ATOM      5  C   UNL     1     -21.391 -52.971  24.522  1.00  0.00     0.025 C 
ATOM      6  C   UNL     1     -21.673 -54.267  23.740  1.00  0.00     0.089 C 
ATOM      7  C   UNL     1     -22.850 -54.995  24.328  1.00  0.00     0.158 C 
ATOM      8  O   UNL     1     -22.942 -56.242  24.171  1.00  0.00    -0.295 OA
ENDROOT
BRANCH   5   9
ATOM      9  C   UNL     1     -20.257 -52.175  23.890  1.00  0.00    -0.077 C 
ATOM     10  C   UNL     1     -19.609 -51.243  24.606  1.00  0.00     0.008 C 
ATOM     11  C   UNL     1     -19.834 -52.410  22.461  1.00  0.00     0.039 C 
ENDBRANCH   5   9
TORSDOF 1
ENDMDL
MODEL 9
REMARK VINA RESULT:    -4.770      2.470      4.591
REMARK INTER + INTRA:          -5.146
REMARK INTER:                  -5.048
REMARK INTRA:                  -0.098
REMARK UNBOUND:                -0.097
REMARK SMILES C=C(C)[C@H]1CC=C(C)C(=O)C1
REMARK SMILES IDX 8 1 7 2 6 3 5 4 4 5 11 6 9 7 10 8 2 9 1 10 3 11
REMARK H PARENT
REMARK Flexibility Score: inf
ROOT
ATOM      1  C   UNL     1     -21.152 -53.863  23.008  1.00  0.00     0.048 C 
ATOM      2  C   UNL     1     -22.308 -53.993  23.960  1.00  0.00    -0.012 C 
ATOM      3  C   UNL     1     -22.870 -55.196  24.169  1.00  0.00    -0.019 C 
ATOM      4  C   UNL     1     -24.041 -55.379  25.098  1.00  0.00     0.036 C 
ATOM      5  C   UNL     1     -23.981 -54.384  26.271  1.00  0.00     0.025 C 
ATOM      6  C   UNL     1     -23.875 -52.942  25.744  1.00  0.00     0.089 C 
ATOM      7  C   UNL     1     -22.746 -52.820  24.758  1.00  0.00     0.158 C 
ATOM      8  O   UNL     1     -22.196 -51.699  24.589  1.00  0.00    -0.295 OA
ENDROOT
BRANCH   5   9
ATOM      9  C   UNL     1     -25.171 -54.549  27.206  1.00  0.00    -0.077 C 
ATOM     10  C   UNL     1     -26.350 -54.975  26.725  1.00  0.00     0.008 C 
ATOM     11  C   UNL     1     -25.062 -54.245  28.680  1.00  0.00     0.039 C 
ENDBRANCH   5   9
TORSDOF 1
ENDMDL
