MODEL 1
REMARK VINA RESULT:    -3.755      0.000      0.000
REMARK INTER + INTRA:          -7.441
REMARK INTER:                  -6.828
REMARK INTRA:                  -0.614
REMARK UNBOUND:                -0.614
REMARK SMILES CCCCCCCCCCCCCC[C@H](C)C(=O)[O-]
REMARK SMILES IDX 9 1 10 2 11 3 12 4 13 5 14 6 15 7 16 8 17 9 18 10 19 11 8 12
REMARK SMILES IDX 7 13 6 14 5 15 4 16 3 17 2 18 1 19
REMARK H PARENT
REMARK Flexibility Score: inf
ROOT
ATOM      1  C   UNL     1      45.751  12.664 -32.491  1.00  0.00     0.000 C 
ENDROOT
BRANCH   1   2
ATOM      2  C   UNL     1      44.396  12.227 -33.071  1.00  0.00     0.000 C 
BRANCH   2   3
ATOM      3  C   UNL     1      44.182  12.717 -34.515  1.00  0.00     0.000 C 
BRANCH   3   4
ATOM      4  C   UNL     1      43.108  11.910 -35.262  1.00  0.00     0.000 C 
BRANCH   4   5
ATOM      5  C   UNL     1      42.330  12.762 -36.280  1.00  0.00     0.001 C 
BRANCH   5   6
ATOM      6  C   UNL     1      40.805  12.701 -36.066  1.00  0.00     0.009 C 
BRANCH   6   7
ATOM      7  C   UNL     1      40.085  14.058 -36.238  1.00  0.00     0.032 C 
ATOM      8  C   UNL     1      40.861  15.168 -35.519  1.00  0.00     0.014 C 
BRANCH   7   9
ATOM      9  C   UNL     1      38.677  14.001 -35.712  1.00  0.00     0.044 C 
ATOM     10  O   UNL     1      38.105  15.053 -35.320  1.00  0.00    -0.550 OA
ATOM     11  O   UNL     1      37.993  12.792 -35.661  1.00  0.00    -0.550 OA
ENDBRANCH   7   9
ENDBRANCH   6   7
ENDBRANCH   5   6
ENDBRANCH   4   5
ENDBRANCH   3   4
ENDBRANCH   2   3
ENDBRANCH   1   2
BRANCH   1  12
ATOM     12  C   UNL     1      46.012  12.076 -31.094  1.00  0.00     0.000 C 
BRANCH  12  13
ATOM     13  C   UNL     1      45.724  13.084 -29.968  1.00  0.00    -0.000 C 
BRANCH  13  14
ATOM     14  C   UNL     1      45.636  12.413 -28.585  1.00  0.00    -0.000 C 
BRANCH  14  15
ATOM     15  C   UNL     1      47.022  12.161 -27.968  1.00  0.00    -0.000 C 
BRANCH  15  16
ATOM     16  C   UNL     1      46.955  11.883 -26.456  1.00  0.00    -0.000 C 
BRANCH  16  17
ATOM     17  C   UNL     1      45.504  11.875 -25.929  1.00  0.00    -0.000 C 
BRANCH  17  18
ATOM     18  C   UNL     1      45.364  12.432 -24.502  1.00  0.00    -0.003 C 
ATOM     19  C   UNL     1      44.152  13.346 -24.331  1.00  0.00     0.004 C 
ENDBRANCH  17  18
ENDBRANCH  16  17
ENDBRANCH  15  16
ENDBRANCH  14  15
ENDBRANCH  13  14
ENDBRANCH  12  13
ENDBRANCH   1  12
TORSDOF 14
ENDMDL
MODEL 2
REMARK VINA RESULT:    -3.111      3.014      6.102
REMARK INTER + INTRA:          -6.271
REMARK INTER:                  -5.748
REMARK INTRA:                  -0.523
REMARK UNBOUND:                -0.614
REMARK SMILES CCCCCCCCCCCCCC[C@H](C)C(=O)[O-]
REMARK SMILES IDX 9 1 10 2 11 3 12 4 13 5 14 6 15 7 16 8 17 9 18 10 19 11 8 12
REMARK SMILES IDX 7 13 6 14 5 15 4 16 3 17 2 18 1 19
REMARK H PARENT
REMARK Flexibility Score: inf
ROOT
ATOM      1  C   UNL     1      41.127  14.712 -35.781  1.00  0.00     0.000 C 
ENDROOT
BRANCH   1   2
ATOM      2  C   UNL     1      39.616  14.456 -35.665  1.00  0.00     0.000 C 
BRANCH   2   3
ATOM      3  C   UNL     1      39.226  13.015 -36.046  1.00  0.00     0.000 C 
BRANCH   3   4
ATOM      4  C   UNL     1      37.714  12.848 -36.261  1.00  0.00     0.000 C 
BRANCH   4   5
ATOM      5  C   UNL     1      36.880  13.629 -35.231  1.00  0.00     0.001 C 
BRANCH   5   6
ATOM      6  C   UNL     1      37.203  13.231 -33.778  1.00  0.00     0.009 C 
BRANCH   6   7
ATOM      7  C   UNL     1      36.875  14.321 -32.733  1.00  0.00     0.032 C 
ATOM      8  C   UNL     1      37.750  15.559 -32.961  1.00  0.00     0.014 C 
BRANCH   7   9
ATOM      9  C   UNL     1      37.071  13.814 -31.330  1.00  0.00     0.044 C 
ATOM     10  O   UNL     1      37.166  12.577 -31.113  1.00  0.00    -0.550 OA
ATOM     11  O   UNL     1      37.156  14.704 -30.266  1.00  0.00    -0.550 OA
ENDBRANCH   7   9
ENDBRANCH   6   7
ENDBRANCH   5   6
ENDBRANCH   4   5
ENDBRANCH   3   4
ENDBRANCH   2   3
ENDBRANCH   1   2
BRANCH   1  12
ATOM     12  C   UNL     1      41.841  13.652 -36.638  1.00  0.00     0.000 C 
BRANCH  12  13
ATOM     13  C   UNL     1      42.414  12.500 -35.794  1.00  0.00    -0.000 C 
BRANCH  13  14
ATOM     14  C   UNL     1      43.835  12.102 -36.229  1.00  0.00    -0.000 C 
BRANCH  14  15
ATOM     15  C   UNL     1      44.854  12.224 -35.085  1.00  0.00    -0.000 C 
BRANCH  15  16
ATOM     16  C   UNL     1      44.190  12.526 -33.729  1.00  0.00    -0.000 C 
BRANCH  16  17
ATOM     17  C   UNL     1      45.180  13.147 -32.722  1.00  0.00    -0.000 C 
BRANCH  17  18
ATOM     18  C   UNL     1      45.552  12.205 -31.564  1.00  0.00    -0.003 C 
ATOM     19  C   UNL     1      45.782  12.938 -30.243  1.00  0.00     0.004 C 
ENDBRANCH  17  18
ENDBRANCH  16  17
ENDBRANCH  15  16
ENDBRANCH  14  15
ENDBRANCH  13  14
ENDBRANCH  12  13
ENDBRANCH   1  12
TORSDOF 14
ENDMDL
MODEL 3
REMARK VINA RESULT:    -1.322     20.311     22.316
REMARK INTER + INTRA:          -3.017
REMARK INTER:                  -2.172
REMARK INTRA:                  -0.845
REMARK UNBOUND:                -0.614
REMARK SMILES CCCCCCCCCCCCCC[C@H](C)C(=O)[O-]
REMARK SMILES IDX 9 1 10 2 11 3 12 4 13 5 14 6 15 7 16 8 17 9 18 10 19 11 8 12
REMARK SMILES IDX 7 13 6 14 5 15 4 16 3 17 2 18 1 19
REMARK H PARENT
REMARK Flexibility Score: inf
ROOT
ATOM      1  C   UNL     1      55.014  26.643 -35.085  1.00  0.00     0.000 C 
ENDROOT
BRANCH   1   2
ATOM      2  C   UNL     1      55.340  28.113 -34.774  1.00  0.00     0.000 C 
BRANCH   2   3
ATOM      3  C   UNL     1      56.738  28.529 -35.268  1.00  0.00     0.000 C 
BRANCH   3   4
ATOM      4  C   UNL     1      57.091  29.978 -34.897  1.00  0.00     0.000 C 
BRANCH   4   5
ATOM      5  C   UNL     1      57.123  30.208 -33.377  1.00  0.00     0.001 C 
BRANCH   5   6
ATOM      6  C   UNL     1      57.002  31.696 -32.996  1.00  0.00     0.009 C 
BRANCH   6   7
ATOM      7  C   UNL     1      56.137  31.964 -31.744  1.00  0.00     0.032 C 
ATOM      8  C   UNL     1      57.002  31.917 -30.478  1.00  0.00     0.014 C 
BRANCH   7   9
ATOM      9  C   UNL     1      55.016  30.968 -31.628  1.00  0.00     0.044 C 
ATOM     10  O   UNL     1      55.205  29.867 -31.046  1.00  0.00    -0.550 OA
ATOM     11  O   UNL     1      53.762  31.257 -32.155  1.00  0.00    -0.550 OA
ENDBRANCH   7   9
ENDBRANCH   6   7
ENDBRANCH   5   6
ENDBRANCH   4   5
ENDBRANCH   3   4
ENDBRANCH   2   3
ENDBRANCH   1   2
BRANCH   1  12
ATOM     12  C   UNL     1      55.744  26.130 -36.338  1.00  0.00     0.000 C 
BRANCH  12  13
ATOM     13  C   UNL     1      54.914  26.311 -37.620  1.00  0.00    -0.000 C 
BRANCH  13  14
ATOM     14  C   UNL     1      54.479  27.770 -37.839  1.00  0.00    -0.000 C 
BRANCH  14  15
ATOM     15  C   UNL     1      55.071  28.371 -39.125  1.00  0.00    -0.000 C 
BRANCH  15  16
ATOM     16  C   UNL     1      55.302  29.889 -39.018  1.00  0.00    -0.000 C 
BRANCH  16  17
ATOM     17  C   UNL     1      54.089  30.620 -38.406  1.00  0.00    -0.000 C 
BRANCH  17  18
ATOM     18  C   UNL     1      54.304  31.056 -36.946  1.00  0.00    -0.003 C 
ATOM     19  C   UNL     1      55.448  32.055 -36.780  1.00  0.00     0.004 C 
ENDBRANCH  17  18
ENDBRANCH  16  17
ENDBRANCH  15  16
ENDBRANCH  14  15
ENDBRANCH  13  14
ENDBRANCH  12  13
ENDBRANCH   1  12
TORSDOF 14
ENDMDL
