MODEL 1
REMARK VINA RESULT:    -4.802      0.000      0.000
REMARK INTER + INTRA:         -14.771
REMARK INTER:                 -10.977
REMARK INTRA:                  -3.793
REMARK UNBOUND:                -3.793
REMARK SMILES CCCCCCCCCCCCCCCCCCCCCCCC(=O)[O-]
REMARK SMILES IDX 13 1 14 2 15 3 16 4 17 5 18 6 19 7 20 8 21 9 22 10 23 11
REMARK SMILES IDX 24 12 25 13 26 14 12 15 11 16 10 17 9 18 8 19 7 20 6 21 5 22
REMARK SMILES IDX 4 23 3 24 2 25 1 26
REMARK H PARENT
REMARK Flexibility Score: inf
ROOT
ATOM      1  C   UNL     1     -48.856  11.247 -28.855  1.00  0.00     0.000 C 
ENDROOT
BRANCH   1   2
ATOM      2  C   UNL     1     -49.925  12.337 -29.048  1.00  0.00     0.000 C 
BRANCH   2   3
ATOM      3  C   UNL     1     -49.434  13.507 -29.917  1.00  0.00     0.000 C 
BRANCH   3   4
ATOM      4  C   UNL     1     -50.472  14.637 -30.040  1.00  0.00     0.000 C 
BRANCH   4   5
ATOM      5  C   UNL     1     -51.664  14.338 -30.972  1.00  0.00     0.000 C 
BRANCH   5   6
ATOM      6  C   UNL     1     -53.053  14.622 -30.373  1.00  0.00     0.000 C 
BRANCH   6   7
ATOM      7  C   UNL     1     -53.114  14.357 -28.858  1.00  0.00     0.000 C 
BRANCH   7   8
ATOM      8  C   UNL     1     -53.729  15.532 -28.079  1.00  0.00     0.000 C 
BRANCH   8   9
ATOM      9  C   UNL     1     -52.668  16.373 -27.348  1.00  0.00     0.000 C 
BRANCH   9  10
ATOM     10  C   UNL     1     -52.678  17.853 -27.774  1.00  0.00     0.006 C 
BRANCH  10  11
ATOM     11  C   UNL     1     -53.372  18.112 -29.124  1.00  0.00     0.053 C 
BRANCH  11  12
ATOM     12  C   UNL     1     -52.401  18.293 -30.249  1.00  0.00     0.041 C 
ATOM     13  O   UNL     1     -51.199  17.943 -30.114  1.00  0.00    -0.550 OA
ATOM     14  O   UNL     1     -52.830  18.823 -31.459  1.00  0.00    -0.550 OA
ENDBRANCH  11  12
ENDBRANCH  10  11
ENDBRANCH   9  10
ENDBRANCH   8   9
ENDBRANCH   7   8
ENDBRANCH   6   7
ENDBRANCH   5   6
ENDBRANCH   4   5
ENDBRANCH   3   4
ENDBRANCH   2   3
ENDBRANCH   1   2
BRANCH   1  15
ATOM     15  C   UNL     1     -49.103   9.935 -29.629  1.00  0.00     0.000 C 
BRANCH  15  16
ATOM     16  C   UNL     1     -47.888   8.996 -29.744  1.00  0.00     0.000 C 
BRANCH  16  17
ATOM     17  C   UNL     1     -47.667   8.477 -31.175  1.00  0.00     0.000 C 
BRANCH  17  18
ATOM     18  C   UNL     1     -48.779   8.908 -32.147  1.00  0.00    -0.000 C 
BRANCH  18  19
ATOM     19  C   UNL     1     -49.255   7.817 -33.123  1.00  0.00    -0.000 C 
BRANCH  19  20
ATOM     20  C   UNL     1     -50.664   7.295 -32.799  1.00  0.00    -0.000 C 
BRANCH  20  21
ATOM     21  C   UNL     1     -50.672   6.519 -31.478  1.00  0.00    -0.000 C 
BRANCH  21  22
ATOM     22  C   UNL     1     -51.651   7.149 -30.476  1.00  0.00    -0.000 C 
BRANCH  22  23
ATOM     23  C   UNL     1     -52.512   8.263 -31.100  1.00  0.00    -0.000 C 
BRANCH  23  24
ATOM     24  C   UNL     1     -52.755   9.488 -30.195  1.00  0.00    -0.000 C 
BRANCH  24  25
ATOM     25  C   UNL     1     -52.699  10.847 -30.914  1.00  0.00    -0.003 C 
ATOM     26  C   UNL     1     -51.916  10.796 -32.225  1.00  0.00     0.004 C 
ENDBRANCH  24  25
ENDBRANCH  23  24
ENDBRANCH  22  23
ENDBRANCH  21  22
ENDBRANCH  20  21
ENDBRANCH  19  20
ENDBRANCH  18  19
ENDBRANCH  17  18
ENDBRANCH  16  17
ENDBRANCH  15  16
ENDBRANCH   1  15
TORSDOF 22
ENDMDL
MODEL 2
REMARK VINA RESULT:    -4.735      1.305      3.334
REMARK INTER + INTRA:         -14.619
REMARK INTER:                 -10.400
REMARK INTRA:                  -4.219
REMARK UNBOUND:                -3.793
REMARK SMILES CCCCCCCCCCCCCCCCCCCCCCCC(=O)[O-]
REMARK SMILES IDX 13 1 14 2 15 3 16 4 17 5 18 6 19 7 20 8 21 9 22 10 23 11
REMARK SMILES IDX 24 12 25 13 26 14 12 15 11 16 10 17 9 18 8 19 7 20 6 21 5 22
REMARK SMILES IDX 4 23 3 24 2 25 1 26
REMARK H PARENT
REMARK Flexibility Score: inf
ROOT
ATOM      1  C   UNL     1     -50.271  11.644 -30.697  1.00  0.00     0.000 C 
ENDROOT
BRANCH   1   2
ATOM      2  C   UNL     1     -50.376  12.117 -29.236  1.00  0.00     0.000 C 
BRANCH   2   3
ATOM      3  C   UNL     1     -50.030  13.605 -29.064  1.00  0.00     0.000 C 
BRANCH   3   4
ATOM      4  C   UNL     1     -49.835  14.334 -30.405  1.00  0.00     0.000 C 
BRANCH   4   5
ATOM      5  C   UNL     1     -50.520  15.712 -30.512  1.00  0.00     0.000 C 
BRANCH   5   6
ATOM      6  C   UNL     1     -51.728  15.773 -31.464  1.00  0.00     0.000 C 
BRANCH   6   7
ATOM      7  C   UNL     1     -52.596  14.503 -31.406  1.00  0.00     0.000 C 
BRANCH   7   8
ATOM      8  C   UNL     1     -53.837  14.677 -30.513  1.00  0.00     0.000 C 
BRANCH   8   9
ATOM      9  C   UNL     1     -53.701  13.941 -29.169  1.00  0.00     0.000 C 
BRANCH   9  10
ATOM     10  C   UNL     1     -53.665  14.896 -27.962  1.00  0.00     0.006 C 
BRANCH  10  11
ATOM     11  C   UNL     1     -53.876  16.377 -28.329  1.00  0.00     0.053 C 
BRANCH  11  12
ATOM     12  C   UNL     1     -52.804  17.268 -27.785  1.00  0.00     0.041 C 
ATOM     13  O   UNL     1     -52.443  17.167 -26.582  1.00  0.00    -0.550 OA
ATOM     14  O   UNL     1     -52.179  18.191 -28.613  1.00  0.00    -0.550 OA
ENDBRANCH  11  12
ENDBRANCH  10  11
ENDBRANCH   9  10
ENDBRANCH   8   9
ENDBRANCH   7   8
ENDBRANCH   6   7
ENDBRANCH   5   6
ENDBRANCH   4   5
ENDBRANCH   3   4
ENDBRANCH   2   3
ENDBRANCH   1   2
BRANCH   1  15
ATOM     15  C   UNL     1     -51.449  10.783 -31.199  1.00  0.00     0.000 C 
BRANCH  15  16
ATOM     16  C   UNL     1     -52.630  10.645 -30.221  1.00  0.00     0.000 C 
BRANCH  16  17
ATOM     17  C   UNL     1     -53.170   9.208 -30.136  1.00  0.00     0.000 C 
BRANCH  17  18
ATOM     18  C   UNL     1     -52.060   8.160 -29.948  1.00  0.00    -0.000 C 
BRANCH  18  19
ATOM     19  C   UNL     1     -52.129   6.953 -30.902  1.00  0.00    -0.000 C 
BRANCH  19  20
ATOM     20  C   UNL     1     -52.286   7.361 -32.376  1.00  0.00    -0.000 C 
BRANCH  20  21
ATOM     21  C   UNL     1     -50.919   7.575 -33.036  1.00  0.00    -0.000 C 
BRANCH  21  22
ATOM     22  C   UNL     1     -49.903   6.533 -32.544  1.00  0.00    -0.000 C 
BRANCH  22  23
ATOM     23  C   UNL     1     -48.498   7.123 -32.331  1.00  0.00    -0.000 C 
BRANCH  23  24
ATOM     24  C   UNL     1     -48.462   8.490 -31.617  1.00  0.00    -0.000 C 
BRANCH  24  25
ATOM     25  C   UNL     1     -48.353   8.420 -30.084  1.00  0.00    -0.003 C 
ATOM     26  C   UNL     1     -47.403   9.467 -29.506  1.00  0.00     0.004 C 
ENDBRANCH  24  25
ENDBRANCH  23  24
ENDBRANCH  22  23
ENDBRANCH  21  22
ENDBRANCH  20  21
ENDBRANCH  19  20
ENDBRANCH  18  19
ENDBRANCH  17  18
ENDBRANCH  16  17
ENDBRANCH  15  16
ENDBRANCH   1  15
TORSDOF 22
ENDMDL
MODEL 3
REMARK VINA RESULT:    -4.654      1.118      2.214
REMARK INTER + INTRA:         -14.433
REMARK INTER:                 -11.143
REMARK INTRA:                  -3.290
REMARK UNBOUND:                -3.793
REMARK SMILES CCCCCCCCCCCCCCCCCCCCCCCC(=O)[O-]
REMARK SMILES IDX 13 1 14 2 15 3 16 4 17 5 18 6 19 7 20 8 21 9 22 10 23 11
REMARK SMILES IDX 24 12 25 13 26 14 12 15 11 16 10 17 9 18 8 19 7 20 6 21 5 22
REMARK SMILES IDX 4 23 3 24 2 25 1 26
REMARK H PARENT
REMARK Flexibility Score: inf
ROOT
ATOM      1  C   UNL     1     -48.831  10.002 -29.252  1.00  0.00     0.000 C 
ENDROOT
BRANCH   1   2
ATOM      2  C   UNL     1     -48.823  11.498 -28.892  1.00  0.00     0.000 C 
BRANCH   2   3
ATOM      3  C   UNL     1     -49.822  12.318 -29.725  1.00  0.00     0.000 C 
BRANCH   3   4
ATOM      4  C   UNL     1     -49.328  13.746 -30.015  1.00  0.00     0.000 C 
BRANCH   4   5
ATOM      5  C   UNL     1     -50.433  14.772 -30.341  1.00  0.00     0.000 C 
BRANCH   5   6
ATOM      6  C   UNL     1     -51.834  14.177 -30.570  1.00  0.00     0.000 C 
BRANCH   6   7
ATOM      7  C   UNL     1     -52.879  14.713 -29.576  1.00  0.00     0.000 C 
BRANCH   7   8
ATOM      8  C   UNL     1     -52.236  15.370 -28.342  1.00  0.00     0.000 C 
BRANCH   8   9
ATOM      9  C   UNL     1     -52.848  16.744 -28.021  1.00  0.00     0.000 C 
BRANCH   9  10
ATOM     10  C   UNL     1     -52.252  17.881 -28.871  1.00  0.00     0.006 C 
BRANCH  10  11
ATOM     11  C   UNL     1     -53.262  18.547 -29.823  1.00  0.00     0.053 C 
BRANCH  11  12
ATOM     12  C   UNL     1     -52.796  18.561 -31.246  1.00  0.00     0.041 C 
ATOM     13  O   UNL     1     -52.710  19.648 -31.876  1.00  0.00    -0.550 OA
ATOM     14  O   UNL     1     -52.427  17.376 -31.869  1.00  0.00    -0.550 OA
ENDBRANCH  11  12
ENDBRANCH  10  11
ENDBRANCH   9  10
ENDBRANCH   8   9
ENDBRANCH   7   8
ENDBRANCH   6   7
ENDBRANCH   5   6
ENDBRANCH   4   5
ENDBRANCH   3   4
ENDBRANCH   2   3
ENDBRANCH   1   2
BRANCH   1  15
ATOM     15  C   UNL     1     -47.456   9.405 -29.623  1.00  0.00     0.000 C 
BRANCH  15  16
ATOM     16  C   UNL     1     -47.382   8.725 -31.002  1.00  0.00     0.000 C 
BRANCH  16  17
ATOM     17  C   UNL     1     -48.700   8.043 -31.404  1.00  0.00     0.000 C 
BRANCH  17  18
ATOM     18  C   UNL     1     -49.281   8.589 -32.720  1.00  0.00    -0.000 C 
BRANCH  18  19
ATOM     19  C   UNL     1     -49.853  10.017 -32.642  1.00  0.00    -0.000 C 
BRANCH  19  20
ATOM     20  C   UNL     1     -51.383  10.059 -32.780  1.00  0.00    -0.000 C 
BRANCH  20  21
ATOM     21  C   UNL     1     -52.054  10.222 -31.411  1.00  0.00    -0.000 C 
BRANCH  21  22
ATOM     22  C   UNL     1     -52.184   8.867 -30.699  1.00  0.00    -0.000 C 
BRANCH  22  23
ATOM     23  C   UNL     1     -52.981   7.834 -31.516  1.00  0.00    -0.000 C 
BRANCH  23  24
ATOM     24  C   UNL     1     -52.256   6.496 -31.766  1.00  0.00    -0.000 C 
BRANCH  24  25
ATOM     25  C   UNL     1     -52.114   6.101 -33.246  1.00  0.00    -0.003 C 
ATOM     26  C   UNL     1     -52.841   7.058 -34.190  1.00  0.00     0.004 C 
ENDBRANCH  24  25
ENDBRANCH  23  24
ENDBRANCH  22  23
ENDBRANCH  21  22
ENDBRANCH  20  21
ENDBRANCH  19  20
ENDBRANCH  18  19
ENDBRANCH  17  18
ENDBRANCH  16  17
ENDBRANCH  15  16
ENDBRANCH   1  15
TORSDOF 22
ENDMDL
MODEL 4
REMARK VINA RESULT:    -4.559      1.824      2.472
REMARK INTER + INTRA:         -14.216
REMARK INTER:                 -11.544
REMARK INTRA:                  -2.671
REMARK UNBOUND:                -3.793
REMARK SMILES CCCCCCCCCCCCCCCCCCCCCCCC(=O)[O-]
REMARK SMILES IDX 13 1 14 2 15 3 16 4 17 5 18 6 19 7 20 8 21 9 22 10 23 11
REMARK SMILES IDX 24 12 25 13 26 14 12 15 11 16 10 17 9 18 8 19 7 20 6 21 5 22
REMARK SMILES IDX 4 23 3 24 2 25 1 26
REMARK H PARENT
REMARK Flexibility Score: inf
ROOT
ATOM      1  C   UNL     1     -48.846  10.249 -29.411  1.00  0.00     0.000 C 
ENDROOT
BRANCH   1   2
ATOM      2  C   UNL     1     -48.842  11.422 -28.415  1.00  0.00     0.000 C 
BRANCH   2   3
ATOM      3  C   UNL     1     -49.980  12.424 -28.669  1.00  0.00     0.000 C 
BRANCH   3   4
ATOM      4  C   UNL     1     -49.621  13.484 -29.726  1.00  0.00     0.000 C 
BRANCH   4   5
ATOM      5  C   UNL     1     -50.754  14.466 -30.087  1.00  0.00     0.000 C 
BRANCH   5   6
ATOM      6  C   UNL     1     -50.341  15.641 -30.991  1.00  0.00     0.000 C 
BRANCH   6   7
ATOM      7  C   UNL     1     -51.273  16.857 -30.849  1.00  0.00     0.000 C 
BRANCH   7   8
ATOM      8  C   UNL     1     -52.756  16.458 -30.771  1.00  0.00     0.000 C 
BRANCH   8   9
ATOM      9  C   UNL     1     -53.660  17.630 -30.352  1.00  0.00     0.000 C 
BRANCH   9  10
ATOM     10  C   UNL     1     -53.110  18.410 -29.143  1.00  0.00     0.006 C 
BRANCH  10  11
ATOM     11  C   UNL     1     -53.682  17.951 -27.790  1.00  0.00     0.053 C 
BRANCH  11  12
ATOM     12  C   UNL     1     -52.751  17.047 -27.043  1.00  0.00     0.041 C 
ATOM     13  O   UNL     1     -52.071  17.489 -26.080  1.00  0.00    -0.550 OA
ATOM     14  O   UNL     1     -52.654  15.706 -27.392  1.00  0.00    -0.550 OA
ENDBRANCH  11  12
ENDBRANCH  10  11
ENDBRANCH   9  10
ENDBRANCH   8   9
ENDBRANCH   7   8
ENDBRANCH   6   7
ENDBRANCH   5   6
ENDBRANCH   4   5
ENDBRANCH   3   4
ENDBRANCH   2   3
ENDBRANCH   1   2
BRANCH   1  15
ATOM     15  C   UNL     1     -47.507   9.493 -29.546  1.00  0.00     0.000 C 
BRANCH  15  16
ATOM     16  C   UNL     1     -47.462   8.421 -30.650  1.00  0.00     0.000 C 
BRANCH  16  17
ATOM     17  C   UNL     1     -48.069   7.080 -30.205  1.00  0.00     0.000 C 
BRANCH  17  18
ATOM     18  C   UNL     1     -48.882   6.392 -31.315  1.00  0.00    -0.000 C 
BRANCH  18  19
ATOM     19  C   UNL     1     -48.537   6.833 -32.749  1.00  0.00    -0.000 C 
BRANCH  19  20
ATOM     20  C   UNL     1     -49.533   6.307 -33.795  1.00  0.00    -0.000 C 
BRANCH  20  21
ATOM     21  C   UNL     1     -50.882   5.969 -33.149  1.00  0.00    -0.000 C 
BRANCH  21  22
ATOM     22  C   UNL     1     -51.917   7.068 -33.432  1.00  0.00    -0.000 C 
BRANCH  22  23
ATOM     23  C   UNL     1     -52.478   7.706 -32.148  1.00  0.00    -0.000 C 
BRANCH  23  24
ATOM     24  C   UNL     1     -51.567   8.762 -31.489  1.00  0.00    -0.000 C 
BRANCH  24  25
ATOM     25  C   UNL     1     -51.317  10.023 -32.334  1.00  0.00    -0.003 C 
ATOM     26  C   UNL     1     -49.883  10.115 -32.855  1.00  0.00     0.004 C 
ENDBRANCH  24  25
ENDBRANCH  23  24
ENDBRANCH  22  23
ENDBRANCH  21  22
ENDBRANCH  20  21
ENDBRANCH  19  20
ENDBRANCH  18  19
ENDBRANCH  17  18
ENDBRANCH  16  17
ENDBRANCH  15  16
ENDBRANCH   1  15
TORSDOF 22
ENDMDL
MODEL 5
REMARK VINA RESULT:    -4.475      1.035      2.513
REMARK INTER + INTRA:         -14.024
REMARK INTER:                 -10.499
REMARK INTRA:                  -3.525
REMARK UNBOUND:                -3.793
REMARK SMILES CCCCCCCCCCCCCCCCCCCCCCCC(=O)[O-]
REMARK SMILES IDX 13 1 14 2 15 3 16 4 17 5 18 6 19 7 20 8 21 9 22 10 23 11
REMARK SMILES IDX 24 12 25 13 26 14 12 15 11 16 10 17 9 18 8 19 7 20 6 21 5 22
REMARK SMILES IDX 4 23 3 24 2 25 1 26
REMARK H PARENT
REMARK Flexibility Score: inf
ROOT
ATOM      1  C   UNL     1     -49.357  12.747 -29.660  1.00  0.00     0.000 C 
ENDROOT
BRANCH   1   2
ATOM      2  C   UNL     1     -50.392  13.698 -29.032  1.00  0.00     0.000 C 
BRANCH   2   3
ATOM      3  C   UNL     1     -50.761  14.872 -29.954  1.00  0.00     0.000 C 
BRANCH   3   4
ATOM      4  C   UNL     1     -51.821  14.496 -31.005  1.00  0.00     0.000 C 
BRANCH   4   5
ATOM      5  C   UNL     1     -53.286  14.688 -30.562  1.00  0.00     0.000 C 
BRANCH   5   6
ATOM      6  C   UNL     1     -53.804  13.655 -29.545  1.00  0.00     0.000 C 
BRANCH   6   7
ATOM      7  C   UNL     1     -54.039  14.260 -28.149  1.00  0.00     0.000 C 
BRANCH   7   8
ATOM      8  C   UNL     1     -54.125  15.796 -28.179  1.00  0.00     0.000 C 
BRANCH   8   9
ATOM      9  C   UNL     1     -52.958  16.464 -27.431  1.00  0.00     0.000 C 
BRANCH   9  10
ATOM     10  C   UNL     1     -52.639  17.876 -27.956  1.00  0.00     0.006 C 
BRANCH  10  11
ATOM     11  C   UNL     1     -53.365  18.236 -29.266  1.00  0.00     0.053 C 
BRANCH  11  12
ATOM     12  C   UNL     1     -52.425  18.428 -30.415  1.00  0.00     0.041 C 
ATOM     13  O   UNL     1     -51.220  18.076 -30.318  1.00  0.00    -0.550 OA
ATOM     14  O   UNL     1     -52.887  18.969 -31.609  1.00  0.00    -0.550 OA
ENDBRANCH  11  12
ENDBRANCH  10  11
ENDBRANCH   9  10
ENDBRANCH   8   9
ENDBRANCH   7   8
ENDBRANCH   6   7
ENDBRANCH   5   6
ENDBRANCH   4   5
ENDBRANCH   3   4
ENDBRANCH   2   3
ENDBRANCH   1   2
BRANCH   1  15
ATOM     15  C   UNL     1     -49.680  11.243 -29.531  1.00  0.00     0.000 C 
BRANCH  15  16
ATOM     16  C   UNL     1     -51.061  10.816 -30.062  1.00  0.00     0.000 C 
BRANCH  16  17
ATOM     17  C   UNL     1     -51.164  10.901 -31.594  1.00  0.00     0.000 C 
BRANCH  17  18
ATOM     18  C   UNL     1     -49.917  10.355 -32.310  1.00  0.00    -0.000 C 
BRANCH  18  19
ATOM     19  C   UNL     1     -50.058   8.931 -32.878  1.00  0.00    -0.000 C 
BRANCH  19  20
ATOM     20  C   UNL     1     -51.484   8.372 -32.751  1.00  0.00    -0.000 C 
BRANCH  20  21
ATOM     21  C   UNL     1     -51.468   6.943 -32.196  1.00  0.00    -0.000 C 
BRANCH  21  22
ATOM     22  C   UNL     1     -51.024   6.931 -30.726  1.00  0.00    -0.000 C 
BRANCH  22  23
ATOM     23  C   UNL     1     -49.535   6.583 -30.552  1.00  0.00    -0.000 C 
BRANCH  23  24
ATOM     24  C   UNL     1     -48.711   7.613 -29.752  1.00  0.00    -0.000 C 
BRANCH  24  25
ATOM     25  C   UNL     1     -47.414   8.078 -30.436  1.00  0.00    -0.003 C 
ATOM     26  C   UNL     1     -46.779   9.287 -29.750  1.00  0.00     0.004 C 
ENDBRANCH  24  25
ENDBRANCH  23  24
ENDBRANCH  22  23
ENDBRANCH  21  22
ENDBRANCH  20  21
ENDBRANCH  19  20
ENDBRANCH  18  19
ENDBRANCH  17  18
ENDBRANCH  16  17
ENDBRANCH  15  16
ENDBRANCH   1  15
TORSDOF 22
ENDMDL
MODEL 6
REMARK VINA RESULT:    -4.470      3.209      8.927
REMARK INTER + INTRA:         -14.012
REMARK INTER:                 -11.268
REMARK INTRA:                  -2.744
REMARK UNBOUND:                -3.793
REMARK SMILES CCCCCCCCCCCCCCCCCCCCCCCC(=O)[O-]
REMARK SMILES IDX 13 1 14 2 15 3 16 4 17 5 18 6 19 7 20 8 21 9 22 10 23 11
REMARK SMILES IDX 24 12 25 13 26 14 12 15 11 16 10 17 9 18 8 19 7 20 6 21 5 22
REMARK SMILES IDX 4 23 3 24 2 25 1 26
REMARK H PARENT
REMARK Flexibility Score: inf
ROOT
ATOM      1  C   UNL     1     -49.989  12.397 -30.290  1.00  0.00     0.000 C 
ENDROOT
BRANCH   1   2
ATOM      2  C   UNL     1     -50.192  10.985 -30.867  1.00  0.00     0.000 C 
BRANCH   2   3
ATOM      3  C   UNL     1     -51.667  10.668 -31.163  1.00  0.00     0.000 C 
BRANCH   3   4
ATOM      4  C   UNL     1     -51.951  10.489 -32.665  1.00  0.00     0.000 C 
BRANCH   4   5
ATOM      5  C   UNL     1     -52.444   9.087 -33.080  1.00  0.00     0.000 C 
BRANCH   5   6
ATOM      6  C   UNL     1     -51.842   7.917 -32.282  1.00  0.00     0.000 C 
BRANCH   6   7
ATOM      7  C   UNL     1     -51.305   6.793 -33.187  1.00  0.00     0.000 C 
BRANCH   7   8
ATOM      8  C   UNL     1     -49.793   6.916 -33.444  1.00  0.00     0.000 C 
BRANCH   8   9
ATOM      9  C   UNL     1     -48.954   6.533 -32.213  1.00  0.00     0.000 C 
BRANCH   9  10
ATOM     10  C   UNL     1     -48.159   7.719 -31.636  1.00  0.00     0.006 C 
BRANCH  10  11
ATOM     11  C   UNL     1     -48.396   7.959 -30.134  1.00  0.00     0.053 C 
BRANCH  11  12
ATOM     12  C   UNL     1     -47.139   8.306 -29.397  1.00  0.00     0.041 C 
ATOM     13  O   UNL     1     -46.700   9.486 -29.411  1.00  0.00    -0.550 OA
ATOM     14  O   UNL     1     -46.468   7.333 -28.668  1.00  0.00    -0.550 OA
ENDBRANCH  11  12
ENDBRANCH  10  11
ENDBRANCH   9  10
ENDBRANCH   8   9
ENDBRANCH   7   8
ENDBRANCH   6   7
ENDBRANCH   5   6
ENDBRANCH   4   5
ENDBRANCH   3   4
ENDBRANCH   2   3
ENDBRANCH   1   2
BRANCH   1  15
ATOM     15  C   UNL     1     -50.524  12.608 -28.858  1.00  0.00     0.000 C 
BRANCH  15  16
ATOM     16  C   UNL     1     -51.352  13.888 -28.644  1.00  0.00     0.000 C 
BRANCH  16  17
ATOM     17  C   UNL     1     -52.845  13.694 -28.961  1.00  0.00     0.000 C 
BRANCH  17  18
ATOM     18  C   UNL     1     -53.744  14.736 -28.272  1.00  0.00    -0.000 C 
BRANCH  18  19
ATOM     19  C   UNL     1     -53.011  15.971 -27.717  1.00  0.00    -0.000 C 
BRANCH  19  20
ATOM     20  C   UNL     1     -53.920  17.204 -27.592  1.00  0.00    -0.000 C 
BRANCH  20  21
ATOM     21  C   UNL     1     -53.439  18.337 -28.505  1.00  0.00    -0.000 C 
BRANCH  21  22
ATOM     22  C   UNL     1     -53.837  18.072 -29.965  1.00  0.00    -0.000 C 
BRANCH  22  23
ATOM     23  C   UNL     1     -52.653  18.198 -30.941  1.00  0.00    -0.000 C 
BRANCH  23  24
ATOM     24  C   UNL     1     -51.268  17.897 -30.332  1.00  0.00    -0.000 C 
BRANCH  24  25
ATOM     25  C   UNL     1     -50.701  16.506 -30.667  1.00  0.00    -0.003 C 
ATOM     26  C   UNL     1     -51.461  15.808 -31.793  1.00  0.00     0.004 C 
ENDBRANCH  24  25
ENDBRANCH  23  24
ENDBRANCH  22  23
ENDBRANCH  21  22
ENDBRANCH  20  21
ENDBRANCH  19  20
ENDBRANCH  18  19
ENDBRANCH  17  18
ENDBRANCH  16  17
ENDBRANCH  15  16
ENDBRANCH   1  15
TORSDOF 22
ENDMDL
MODEL 7
REMARK VINA RESULT:    -4.430      3.229      9.021
REMARK INTER + INTRA:         -13.920
REMARK INTER:                 -11.262
REMARK INTRA:                  -2.658
REMARK UNBOUND:                -3.793
REMARK SMILES CCCCCCCCCCCCCCCCCCCCCCCC(=O)[O-]
REMARK SMILES IDX 13 1 14 2 15 3 16 4 17 5 18 6 19 7 20 8 21 9 22 10 23 11
REMARK SMILES IDX 24 12 25 13 26 14 12 15 11 16 10 17 9 18 8 19 7 20 6 21 5 22
REMARK SMILES IDX 4 23 3 24 2 25 1 26
REMARK H PARENT
REMARK Flexibility Score: inf
ROOT
ATOM      1  C   UNL     1     -50.630  11.067 -31.082  1.00  0.00     0.000 C 
ENDROOT
BRANCH   1   2
ATOM      2  C   UNL     1     -51.717   9.982 -31.193  1.00  0.00     0.000 C 
BRANCH   2   3
ATOM      3  C   UNL     1     -51.850   9.414 -32.615  1.00  0.00     0.000 C 
BRANCH   3   4
ATOM      4  C   UNL     1     -52.994   8.393 -32.747  1.00  0.00     0.000 C 
BRANCH   4   5
ATOM      5  C   UNL     1     -52.611   7.057 -33.416  1.00  0.00     0.000 C 
BRANCH   5   6
ATOM      6  C   UNL     1     -51.270   6.454 -32.958  1.00  0.00     0.000 C 
BRANCH   6   7
ATOM      7  C   UNL     1     -50.283   6.246 -34.121  1.00  0.00     0.000 C 
BRANCH   7   8
ATOM      8  C   UNL     1     -48.815   6.302 -33.665  1.00  0.00     0.000 C 
BRANCH   8   9
ATOM      9  C   UNL     1     -48.678   6.530 -32.150  1.00  0.00     0.000 C 
BRANCH   9  10
ATOM     10  C   UNL     1     -48.235   7.962 -31.796  1.00  0.00     0.006 C 
BRANCH  10  11
ATOM     11  C   UNL     1     -48.427   8.329 -30.313  1.00  0.00     0.053 C 
BRANCH  11  12
ATOM     12  C   UNL     1     -47.130   8.512 -29.588  1.00  0.00     0.041 C 
ATOM     13  O   UNL     1     -46.534   9.621 -29.621  1.00  0.00    -0.550 OA
ATOM     14  O   UNL     1     -46.591   7.466 -28.850  1.00  0.00    -0.550 OA
ENDBRANCH  11  12
ENDBRANCH  10  11
ENDBRANCH   9  10
ENDBRANCH   8   9
ENDBRANCH   7   8
ENDBRANCH   6   7
ENDBRANCH   5   6
ENDBRANCH   4   5
ENDBRANCH   3   4
ENDBRANCH   2   3
ENDBRANCH   1   2
BRANCH   1  15
ATOM     15  C   UNL     1     -50.788  12.040 -29.894  1.00  0.00     0.000 C 
BRANCH  15  16
ATOM     16  C   UNL     1     -52.228  12.503 -29.607  1.00  0.00     0.000 C 
BRANCH  16  17
ATOM     17  C   UNL     1     -52.438  14.003 -29.874  1.00  0.00     0.000 C 
BRANCH  17  18
ATOM     18  C   UNL     1     -52.282  14.376 -31.359  1.00  0.00    -0.000 C 
BRANCH  18  19
ATOM     19  C   UNL     1     -51.583  15.721 -31.628  1.00  0.00    -0.000 C 
BRANCH  19  20
ATOM     20  C   UNL     1     -50.981  16.348 -30.361  1.00  0.00    -0.000 C 
BRANCH  20  21
ATOM     21  C   UNL     1     -51.225  17.861 -30.327  1.00  0.00    -0.000 C 
BRANCH  21  22
ATOM     22  C   UNL     1     -52.530  18.223 -31.051  1.00  0.00    -0.000 C 
BRANCH  22  23
ATOM     23  C   UNL     1     -53.736  18.321 -30.100  1.00  0.00    -0.000 C 
BRANCH  23  24
ATOM     24  C   UNL     1     -53.382  18.477 -28.607  1.00  0.00    -0.000 C 
BRANCH  24  25
ATOM     25  C   UNL     1     -53.749  17.273 -27.723  1.00  0.00    -0.003 C 
ATOM     26  C   UNL     1     -52.561  16.733 -26.928  1.00  0.00     0.004 C 
ENDBRANCH  24  25
ENDBRANCH  23  24
ENDBRANCH  22  23
ENDBRANCH  21  22
ENDBRANCH  20  21
ENDBRANCH  19  20
ENDBRANCH  18  19
ENDBRANCH  17  18
ENDBRANCH  16  17
ENDBRANCH  15  16
ENDBRANCH   1  15
TORSDOF 22
ENDMDL
MODEL 8
REMARK VINA RESULT:    -4.429      1.366      2.045
REMARK INTER + INTRA:         -13.918
REMARK INTER:                 -10.939
REMARK INTRA:                  -2.979
REMARK UNBOUND:                -3.793
REMARK SMILES CCCCCCCCCCCCCCCCCCCCCCCC(=O)[O-]
REMARK SMILES IDX 13 1 14 2 15 3 16 4 17 5 18 6 19 7 20 8 21 9 22 10 23 11
REMARK SMILES IDX 24 12 25 13 26 14 12 15 11 16 10 17 9 18 8 19 7 20 6 21 5 22
REMARK SMILES IDX 4 23 3 24 2 25 1 26
REMARK H PARENT
REMARK Flexibility Score: inf
ROOT
ATOM      1  C   UNL     1     -49.664  11.050 -30.116  1.00  0.00     0.000 C 
ENDROOT
BRANCH   1   2
ATOM      2  C   UNL     1     -49.580  12.220 -29.119  1.00  0.00     0.000 C 
BRANCH   2   3
ATOM      3  C   UNL     1     -50.813  13.137 -29.169  1.00  0.00     0.000 C 
BRANCH   3   4
ATOM      4  C   UNL     1     -52.130  12.359 -29.344  1.00  0.00     0.000 C 
BRANCH   4   5
ATOM      5  C   UNL     1     -53.356  12.973 -28.637  1.00  0.00     0.000 C 
BRANCH   5   6
ATOM      6  C   UNL     1     -53.821  14.332 -29.190  1.00  0.00     0.000 C 
BRANCH   6   7
ATOM      7  C   UNL     1     -53.981  15.398 -28.092  1.00  0.00     0.000 C 
BRANCH   7   8
ATOM      8  C   UNL     1     -52.639  16.027 -27.681  1.00  0.00     0.000 C 
BRANCH   8   9
ATOM      9  C   UNL     1     -52.714  17.560 -27.580  1.00  0.00     0.000 C 
BRANCH   9  10
ATOM     10  C   UNL     1     -52.841  18.247 -28.953  1.00  0.00     0.006 C 
BRANCH  10  11
ATOM     11  C   UNL     1     -51.733  17.860 -29.950  1.00  0.00     0.053 C 
BRANCH  11  12
ATOM     12  C   UNL     1     -52.258  17.119 -31.140  1.00  0.00     0.041 C 
ATOM     13  O   UNL     1     -53.225  17.582 -31.802  1.00  0.00    -0.550 OA
ATOM     14  O   UNL     1     -51.660  15.931 -31.539  1.00  0.00    -0.550 OA
ENDBRANCH  11  12
ENDBRANCH  10  11
ENDBRANCH   9  10
ENDBRANCH   8   9
ENDBRANCH   7   8
ENDBRANCH   6   7
ENDBRANCH   5   6
ENDBRANCH   4   5
ENDBRANCH   3   4
ENDBRANCH   2   3
ENDBRANCH   1   2
BRANCH   1  15
ATOM     15  C   UNL     1     -49.032   9.726 -29.635  1.00  0.00     0.000 C 
BRANCH  15  16
ATOM     16  C   UNL     1     -48.620   8.748 -30.750  1.00  0.00     0.000 C 
BRANCH  16  17
ATOM     17  C   UNL     1     -49.115   9.183 -32.140  1.00  0.00     0.000 C 
BRANCH  17  18
ATOM     18  C   UNL     1     -48.876   8.117 -33.223  1.00  0.00    -0.000 C 
BRANCH  18  19
ATOM     19  C   UNL     1     -48.863   6.662 -32.719  1.00  0.00    -0.000 C 
BRANCH  19  20
ATOM     20  C   UNL     1     -50.267   6.043 -32.636  1.00  0.00    -0.000 C 
BRANCH  20  21
ATOM     21  C   UNL     1     -51.113   6.432 -33.853  1.00  0.00    -0.000 C 
BRANCH  21  22
ATOM     22  C   UNL     1     -52.611   6.407 -33.512  1.00  0.00    -0.000 C 
BRANCH  22  23
ATOM     23  C   UNL     1     -53.281   7.785 -33.655  1.00  0.00    -0.000 C 
BRANCH  23  24
ATOM     24  C   UNL     1     -52.547   8.946 -32.954  1.00  0.00    -0.000 C 
BRANCH  24  25
ATOM     25  C   UNL     1     -53.120   9.342 -31.582  1.00  0.00    -0.003 C 
ATOM     26  C   UNL     1     -52.461   8.594 -30.424  1.00  0.00     0.004 C 
ENDBRANCH  24  25
ENDBRANCH  23  24
ENDBRANCH  22  23
ENDBRANCH  21  22
ENDBRANCH  20  21
ENDBRANCH  19  20
ENDBRANCH  18  19
ENDBRANCH  17  18
ENDBRANCH  16  17
ENDBRANCH  15  16
ENDBRANCH   1  15
TORSDOF 22
ENDMDL
MODEL 9
REMARK VINA RESULT:    -4.334      2.933      8.863
REMARK INTER + INTRA:         -13.701
REMARK INTER:                 -10.793
REMARK INTRA:                  -2.908
REMARK UNBOUND:                -3.793
REMARK SMILES CCCCCCCCCCCCCCCCCCCCCCCC(=O)[O-]
REMARK SMILES IDX 13 1 14 2 15 3 16 4 17 5 18 6 19 7 20 8 21 9 22 10 23 11
REMARK SMILES IDX 24 12 25 13 26 14 12 15 11 16 10 17 9 18 8 19 7 20 6 21 5 22
REMARK SMILES IDX 4 23 3 24 2 25 1 26
REMARK H PARENT
REMARK Flexibility Score: inf
ROOT
ATOM      1  C   UNL     1     -51.395  10.573 -31.732  1.00  0.00     0.000 C 
ENDROOT
BRANCH   1   2
ATOM      2  C   UNL     1     -51.944   9.240 -31.193  1.00  0.00     0.000 C 
BRANCH   2   3
ATOM      3  C   UNL     1     -53.206   8.770 -31.935  1.00  0.00     0.000 C 
BRANCH   3   4
ATOM      4  C   UNL     1     -53.047   8.800 -33.465  1.00  0.00     0.000 C 
BRANCH   4   5
ATOM      5  C   UNL     1     -53.153   7.429 -34.165  1.00  0.00     0.000 C 
BRANCH   5   6
ATOM      6  C   UNL     1     -52.444   6.268 -33.446  1.00  0.00     0.000 C 
BRANCH   6   7
ATOM      7  C   UNL     1     -50.966   6.129 -33.852  1.00  0.00     0.000 C 
BRANCH   7   8
ATOM      8  C   UNL     1     -50.006   6.354 -32.672  1.00  0.00     0.000 C 
BRANCH   8   9
ATOM      9  C   UNL     1     -48.749   7.142 -33.078  1.00  0.00     0.000 C 
BRANCH   9  10
ATOM     10  C   UNL     1     -48.480   8.354 -32.167  1.00  0.00     0.006 C 
BRANCH  10  11
ATOM     11  C   UNL     1     -48.237   7.987 -30.692  1.00  0.00     0.053 C 
BRANCH  11  12
ATOM     12  C   UNL     1     -47.816   9.161 -29.863  1.00  0.00     0.041 C 
ATOM     13  O   UNL     1     -46.595   9.390 -29.659  1.00  0.00    -0.550 OA
ATOM     14  O   UNL     1     -48.772  10.022 -29.340  1.00  0.00    -0.550 OA
ENDBRANCH  11  12
ENDBRANCH  10  11
ENDBRANCH   9  10
ENDBRANCH   8   9
ENDBRANCH   7   8
ENDBRANCH   6   7
ENDBRANCH   5   6
ENDBRANCH   4   5
ENDBRANCH   3   4
ENDBRANCH   2   3
ENDBRANCH   1   2
BRANCH   1  15
ATOM     15  C   UNL     1     -51.581  11.789 -30.799  1.00  0.00     0.000 C 
BRANCH  15  16
ATOM     16  C   UNL     1     -52.979  11.929 -30.168  1.00  0.00     0.000 C 
BRANCH  16  17
ATOM     17  C   UNL     1     -53.871  12.937 -30.911  1.00  0.00     0.000 C 
BRANCH  17  18
ATOM     18  C   UNL     1     -53.451  14.398 -30.676  1.00  0.00    -0.000 C 
BRANCH  18  19
ATOM     19  C   UNL     1     -53.920  15.009 -29.343  1.00  0.00    -0.000 C 
BRANCH  19  20
ATOM     20  C   UNL     1     -52.801  15.090 -28.292  1.00  0.00    -0.000 C 
BRANCH  20  21
ATOM     21  C   UNL     1     -52.966  16.330 -27.407  1.00  0.00    -0.000 C 
BRANCH  21  22
ATOM     22  C   UNL     1     -54.043  17.268 -27.972  1.00  0.00    -0.000 C 
BRANCH  22  23
ATOM     23  C   UNL     1     -53.456  18.546 -28.599  1.00  0.00    -0.000 C 
BRANCH  23  24
ATOM     24  C   UNL     1     -53.707  18.708 -30.112  1.00  0.00    -0.000 C 
BRANCH  24  25
ATOM     25  C   UNL     1     -52.622  18.102 -31.019  1.00  0.00    -0.003 C 
ATOM     26  C   UNL     1     -51.287  17.910 -30.302  1.00  0.00     0.004 C 
ENDBRANCH  24  25
ENDBRANCH  23  24
ENDBRANCH  22  23
ENDBRANCH  21  22
ENDBRANCH  20  21
ENDBRANCH  19  20
ENDBRANCH  18  19
ENDBRANCH  17  18
ENDBRANCH  16  17
ENDBRANCH  15  16
ENDBRANCH   1  15
TORSDOF 22
ENDMDL
