MODEL 1
REMARK VINA RESULT:    -2.889      0.000      0.000
REMARK INTER + INTRA:          -3.288
REMARK INTER:                  -3.058
REMARK INTRA:                  -0.230
REMARK UNBOUND:                -0.230
REMARK SMILES CC1=CC[C@H]2[C@H]3[C@@H]1[C@]2(C)CC[C@H]3C(C)C
REMARK SMILES IDX 1 1 2 2 3 3 4 4 5 5 6 6 7 7 8 8 10 9 11 10 12 11 9 12 13 13
REMARK SMILES IDX 14 14 15 15
REMARK H PARENT
REMARK Flexibility Score: inf
ROOT
ATOM      1  C   UNL     1       3.250  13.885  14.774  1.00  0.00     0.039 C 
ATOM      2  C   UNL     1       3.459  13.432  13.360  1.00  0.00    -0.073 C 
ATOM      3  C   UNL     1       4.185  14.172  12.481  1.00  0.00    -0.027 C 
ATOM      4  C   UNL     1       4.374  13.649  11.053  1.00  0.00     0.031 C 
ATOM      5  C   UNL     1       3.667  12.265  10.879  1.00  0.00     0.003 C 
ATOM      6  C   UNL     1       4.051  11.393  12.099  1.00  0.00     0.004 C 
ATOM      7  C   UNL     1       2.901  12.098  12.851  1.00  0.00     0.024 C 
ATOM      8  C   UNL     1       2.232  12.286  11.473  1.00  0.00    -0.022 C 
ATOM      9  C   UNL     1       1.460  10.985  11.117  1.00  0.00     0.008 C 
ATOM     10  C   UNL     1       2.387   9.745  11.042  1.00  0.00     0.005 C 
ATOM     11  C   UNL     1       3.702   9.886  11.880  1.00  0.00    -0.005 C 
ATOM     12  C   UNL     1       1.341  13.532  11.250  1.00  0.00     0.012 C 
ENDROOT
BRANCH  11  13
ATOM     13  C   UNL     1       4.875   9.081  11.234  1.00  0.00    -0.014 C 
ATOM     14  C   UNL     1       6.116   9.019  12.147  1.00  0.00     0.007 C 
ATOM     15  C   UNL     1       4.440   7.642  10.895  1.00  0.00     0.007 C 
ENDBRANCH  11  13
TORSDOF 1
ENDMDL
MODEL 2
REMARK VINA RESULT:    -2.852      1.462      3.148
REMARK INTER + INTRA:          -3.249
REMARK INTER:                  -2.964
REMARK INTRA:                  -0.284
REMARK UNBOUND:                -0.230
REMARK SMILES CC1=CC[C@H]2[C@H]3[C@@H]1[C@]2(C)CC[C@H]3C(C)C
REMARK SMILES IDX 1 1 2 2 3 3 4 4 5 5 6 6 7 7 8 8 10 9 11 10 12 11 9 12 13 13
REMARK SMILES IDX 14 14 15 15
REMARK H PARENT
REMARK Flexibility Score: inf
ROOT
ATOM      1  C   UNL     1      -0.125  11.339  11.067  1.00  0.00     0.039 C 
ATOM      2  C   UNL     1       1.125  11.220  11.887  1.00  0.00    -0.073 C 
ATOM      3  C   UNL     1       1.182  11.694  13.160  1.00  0.00    -0.027 C 
ATOM      4  C   UNL     1       2.484  11.531  13.953  1.00  0.00     0.031 C 
ATOM      5  C   UNL     1       3.557  10.784  13.094  1.00  0.00     0.003 C 
ATOM      6  C   UNL     1       2.863   9.559  12.450  1.00  0.00     0.004 C 
ATOM      7  C   UNL     1       2.380  10.526  11.348  1.00  0.00     0.024 C 
ATOM      8  C   UNL     1       3.635  11.368  11.657  1.00  0.00    -0.022 C 
ATOM      9  C   UNL     1       4.838  10.767  10.875  1.00  0.00     0.008 C 
ATOM     10  C   UNL     1       5.129   9.297  11.268  1.00  0.00     0.005 C 
ATOM     11  C   UNL     1       3.891   8.542  11.858  1.00  0.00    -0.005 C 
ATOM     12  C   UNL     1       3.562  12.901  11.460  1.00  0.00     0.012 C 
ENDROOT
BRANCH  11  13
ATOM     13  C   UNL     1       4.328   7.455  12.891  1.00  0.00    -0.014 C 
ATOM     14  C   UNL     1       4.286   6.032  12.299  1.00  0.00     0.007 C 
ATOM     15  C   UNL     1       5.753   7.728  13.415  1.00  0.00     0.007 C 
ENDBRANCH  11  13
TORSDOF 1
ENDMDL
MODEL 3
REMARK VINA RESULT:    -2.381      1.625      4.831
REMARK INTER + INTRA:          -2.750
REMARK INTER:                  -2.504
REMARK INTRA:                  -0.245
REMARK UNBOUND:                -0.230
REMARK SMILES CC1=CC[C@H]2[C@H]3[C@@H]1[C@]2(C)CC[C@H]3C(C)C
REMARK SMILES IDX 1 1 2 2 3 3 4 4 5 5 6 6 7 7 8 8 10 9 11 10 12 11 9 12 13 13
REMARK SMILES IDX 14 14 15 15
REMARK H PARENT
REMARK Flexibility Score: inf
ROOT
ATOM      1  C   UNL     1       4.171   9.981  10.890  1.00  0.00     0.039 C 
ATOM      2  C   UNL     1       3.605  11.085  11.732  1.00  0.00    -0.073 C 
ATOM      3  C   UNL     1       3.610  11.011  13.089  1.00  0.00    -0.027 C 
ATOM      4  C   UNL     1       3.029  12.178  13.896  1.00  0.00     0.031 C 
ATOM      5  C   UNL     1       2.531  13.310  12.939  1.00  0.00     0.003 C 
ATOM      6  C   UNL     1       3.642  13.549  11.887  1.00  0.00     0.004 C 
ATOM      7  C   UNL     1       3.034  12.363  11.108  1.00  0.00     0.024 C 
ATOM      8  C   UNL     1       1.689  12.730  11.769  1.00  0.00    -0.022 C 
ATOM      9  C   UNL     1       1.025  13.866  10.941  1.00  0.00     0.008 C 
ATOM     10  C   UNL     1       1.900  15.143  10.875  1.00  0.00     0.005 C 
ATOM     11  C   UNL     1       3.427  14.877  11.093  1.00  0.00    -0.005 C 
ATOM     12  C   UNL     1       0.676  11.596  12.058  1.00  0.00     0.012 C 
ENDROOT
BRANCH  11  13
ATOM     13  C   UNL     1       4.126  16.103  11.765  1.00  0.00    -0.014 C 
ATOM     14  C   UNL     1       5.399  16.537  11.012  1.00  0.00     0.007 C 
ATOM     15  C   UNL     1       3.169  17.309  11.851  1.00  0.00     0.007 C 
ENDBRANCH  11  13
TORSDOF 1
ENDMDL
MODEL 4
REMARK VINA RESULT:    -2.304      2.422      6.269
REMARK INTER + INTRA:          -2.669
REMARK INTER:                  -2.428
REMARK INTRA:                  -0.241
REMARK UNBOUND:                -0.230
REMARK SMILES CC1=CC[C@H]2[C@H]3[C@@H]1[C@]2(C)CC[C@H]3C(C)C
REMARK SMILES IDX 1 1 2 2 3 3 4 4 5 5 6 6 7 7 8 8 10 9 11 10 12 11 9 12 13 13
REMARK SMILES IDX 14 14 15 15
REMARK H PARENT
REMARK Flexibility Score: inf
ROOT
ATOM      1  C   UNL     1       8.834   6.362  10.904  1.00  0.00     0.039 C 
ATOM      2  C   UNL     1       7.962   6.904  11.996  1.00  0.00    -0.073 C 
ATOM      3  C   UNL     1       8.494   7.398  13.146  1.00  0.00    -0.027 C 
ATOM      4  C   UNL     1       7.551   7.950  14.221  1.00  0.00     0.031 C 
ATOM      5  C   UNL     1       6.064   7.851  13.747  1.00  0.00     0.003 C 
ATOM      6  C   UNL     1       6.005   8.381  12.293  1.00  0.00     0.004 C 
ATOM      7  C   UNL     1       6.437   6.965  11.855  1.00  0.00     0.024 C 
ATOM      8  C   UNL     1       5.756   6.453  13.142  1.00  0.00    -0.022 C 
ATOM      9  C   UNL     1       4.236   6.286  12.864  1.00  0.00     0.008 C 
ATOM     10  C   UNL     1       3.557   7.617  12.451  1.00  0.00     0.005 C 
ATOM     11  C   UNL     1       4.541   8.662  11.827  1.00  0.00    -0.005 C 
ATOM     12  C   UNL     1       6.331   5.191  13.829  1.00  0.00     0.012 C 
ENDROOT
BRANCH  11  13
ATOM     13  C   UNL     1       4.081  10.125  12.129  1.00  0.00    -0.014 C 
ATOM     14  C   UNL     1       4.119  11.023  10.876  1.00  0.00     0.007 C 
ATOM     15  C   UNL     1       2.653  10.149  12.709  1.00  0.00     0.007 C 
ENDBRANCH  11  13
TORSDOF 1
ENDMDL
MODEL 5
REMARK VINA RESULT:    -1.997      2.028      5.770
REMARK INTER + INTRA:          -2.344
REMARK INTER:                  -2.060
REMARK INTRA:                  -0.283
REMARK UNBOUND:                -0.230
REMARK SMILES CC1=CC[C@H]2[C@H]3[C@@H]1[C@]2(C)CC[C@H]3C(C)C
REMARK SMILES IDX 1 1 2 2 3 3 4 4 5 5 6 6 7 7 8 8 10 9 11 10 12 11 9 12 13 13
REMARK SMILES IDX 14 14 15 15
REMARK H PARENT
REMARK Flexibility Score: inf
ROOT
ATOM      1  C   UNL     1       9.212   7.504  12.745  1.00  0.00     0.039 C 
ATOM      2  C   UNL     1       7.765   7.623  13.123  1.00  0.00    -0.073 C 
ATOM      3  C   UNL     1       7.366   7.545  14.419  1.00  0.00    -0.027 C 
ATOM      4  C   UNL     1       5.874   7.687  14.744  1.00  0.00     0.031 C 
ATOM      5  C   UNL     1       5.051   7.931  13.437  1.00  0.00     0.003 C 
ATOM      6  C   UNL     1       5.791   9.018  12.620  1.00  0.00     0.004 C 
ATOM      7  C   UNL     1       6.677   7.878  12.074  1.00  0.00     0.024 C 
ATOM      8  C   UNL     1       5.471   6.944  12.313  1.00  0.00    -0.022 C 
ATOM      9  C   UNL     1       4.516   7.049  11.091  1.00  0.00     0.008 C 
ATOM     10  C   UNL     1       3.982   8.487  10.875  1.00  0.00     0.005 C 
ATOM     11  C   UNL     1       4.903   9.602  11.474  1.00  0.00    -0.005 C 
ATOM     12  C   UNL     1       5.745   5.464  12.672  1.00  0.00     0.012 C 
ENDROOT
BRANCH  11  13
ATOM     13  C   UNL     1       4.071  10.844  11.928  1.00  0.00    -0.014 C 
ATOM     14  C   UNL     1       4.074  11.969  10.875  1.00  0.00     0.007 C 
ATOM     15  C   UNL     1       2.609  10.453  12.226  1.00  0.00     0.007 C 
ENDBRANCH  11  13
TORSDOF 1
ENDMDL
MODEL 6
REMARK VINA RESULT:    -1.378      1.839      5.035
REMARK INTER + INTRA:          -1.688
REMARK INTER:                  -1.426
REMARK INTRA:                  -0.262
REMARK UNBOUND:                -0.230
REMARK SMILES CC1=CC[C@H]2[C@H]3[C@@H]1[C@]2(C)CC[C@H]3C(C)C
REMARK SMILES IDX 1 1 2 2 3 3 4 4 5 5 6 6 7 7 8 8 10 9 11 10 12 11 9 12 13 13
REMARK SMILES IDX 14 14 15 15
REMARK H PARENT
REMARK Flexibility Score: inf
ROOT
ATOM      1  C   UNL     1      -0.042  11.153  11.558  1.00  0.00     0.039 C 
ATOM      2  C   UNL     1       1.385  11.612  11.567  1.00  0.00    -0.073 C 
ATOM      3  C   UNL     1       2.347  10.943  10.877  1.00  0.00    -0.027 C 
ATOM      4  C   UNL     1       3.786  11.469  10.915  1.00  0.00     0.031 C 
ATOM      5  C   UNL     1       3.871  12.770  11.779  1.00  0.00     0.003 C 
ATOM      6  C   UNL     1       2.702  13.689  11.347  1.00  0.00     0.004 C 
ATOM      7  C   UNL     1       1.821  12.875  12.318  1.00  0.00     0.024 C 
ATOM      8  C   UNL     1       3.110  12.604  13.123  1.00  0.00    -0.022 C 
ATOM      9  C   UNL     1       3.368  13.815  14.064  1.00  0.00     0.008 C 
ATOM     10  C   UNL     1       3.548  15.144  13.288  1.00  0.00     0.005 C 
ATOM     11  C   UNL     1       2.874  15.149  11.876  1.00  0.00    -0.005 C 
ATOM     12  C   UNL     1       3.229  11.270  13.899  1.00  0.00     0.012 C 
ENDROOT
BRANCH  11  13
ATOM     13  C   UNL     1       3.653  16.065  10.878  1.00  0.00    -0.014 C 
ATOM     14  C   UNL     1       3.136  17.518  10.888  1.00  0.00     0.007 C 
ATOM     15  C   UNL     1       5.161  16.077  11.198  1.00  0.00     0.007 C 
ENDBRANCH  11  13
TORSDOF 1
ENDMDL
MODEL 7
REMARK VINA RESULT:    -0.941      2.236      5.548
REMARK INTER + INTRA:          -1.225
REMARK INTER:                  -0.961
REMARK INTRA:                  -0.264
REMARK UNBOUND:                -0.230
REMARK SMILES CC1=CC[C@H]2[C@H]3[C@@H]1[C@]2(C)CC[C@H]3C(C)C
REMARK SMILES IDX 1 1 2 2 3 3 4 4 5 5 6 6 7 7 8 8 10 9 11 10 12 11 9 12 13 13
REMARK SMILES IDX 14 14 15 15
REMARK H PARENT
REMARK Flexibility Score: inf
ROOT
ATOM      1  C   UNL     1       7.289   7.230  14.907  1.00  0.00     0.039 C 
ATOM      2  C   UNL     1       6.253   7.216  13.824  1.00  0.00    -0.073 C 
ATOM      3  C   UNL     1       5.625   6.066  13.461  1.00  0.00    -0.027 C 
ATOM      4  C   UNL     1       4.565   6.118  12.356  1.00  0.00     0.031 C 
ATOM      5  C   UNL     1       4.384   7.583  11.841  1.00  0.00     0.003 C 
ATOM      6  C   UNL     1       4.279   8.501  13.083  1.00  0.00     0.004 C 
ATOM      7  C   UNL     1       5.823   8.498  13.104  1.00  0.00     0.024 C 
ATOM      8  C   UNL     1       5.756   8.263  11.580  1.00  0.00    -0.022 C 
ATOM      9  C   UNL     1       5.574   9.637  10.875  1.00  0.00     0.008 C 
ATOM     10  C   UNL     1       4.277  10.363  11.313  1.00  0.00     0.005 C 
ATOM     11  C   UNL     1       3.751   9.926  12.721  1.00  0.00    -0.005 C 
ATOM     12  C   UNL     1       6.887   7.446  10.909  1.00  0.00     0.012 C 
ENDROOT
BRANCH  11  13
ATOM     13  C   UNL     1       2.194  10.033  12.803  1.00  0.00    -0.014 C 
ATOM     14  C   UNL     1       1.731  11.085  13.830  1.00  0.00     0.007 C 
ATOM     15  C   UNL     1       1.589  10.386  11.430  1.00  0.00     0.007 C 
ENDBRANCH  11  13
TORSDOF 1
ENDMDL
MODEL 8
REMARK VINA RESULT:    -0.776      1.374      2.035
REMARK INTER + INTRA:          -1.052
REMARK INTER:                  -0.819
REMARK INTRA:                  -0.233
REMARK UNBOUND:                -0.230
REMARK SMILES CC1=CC[C@H]2[C@H]3[C@@H]1[C@]2(C)CC[C@H]3C(C)C
REMARK SMILES IDX 1 1 2 2 3 3 4 4 5 5 6 6 7 7 8 8 10 9 11 10 12 11 9 12 13 13
REMARK SMILES IDX 14 14 15 15
REMARK H PARENT
REMARK Flexibility Score: inf
ROOT
ATOM      1  C   UNL     1       3.823  14.175  13.326  1.00  0.00     0.039 C 
ATOM      2  C   UNL     1       3.179  12.998  12.656  1.00  0.00    -0.073 C 
ATOM      3  C   UNL     1       2.445  13.145  11.521  1.00  0.00    -0.027 C 
ATOM      4  C   UNL     1       1.823  11.902  10.875  1.00  0.00     0.031 C 
ATOM      5  C   UNL     1       2.195  10.619  11.688  1.00  0.00     0.003 C 
ATOM      6  C   UNL     1       3.713  10.683  11.984  1.00  0.00     0.004 C 
ATOM      7  C   UNL     1       3.350  11.573  13.192  1.00  0.00     0.024 C 
ATOM      8  C   UNL     1       1.992  10.839  13.213  1.00  0.00    -0.022 C 
ATOM      9  C   UNL     1       2.161   9.508  13.997  1.00  0.00     0.008 C 
ATOM     10  C   UNL     1       3.212   8.568  13.354  1.00  0.00     0.005 C 
ATOM     11  C   UNL     1       4.276   9.312  12.479  1.00  0.00    -0.005 C 
ATOM     12  C   UNL     1       0.744  11.612  13.704  1.00  0.00     0.012 C 
ENDROOT
BRANCH  11  13
ATOM     13  C   UNL     1       4.780   8.408  11.308  1.00  0.00    -0.014 C 
ATOM     14  C   UNL     1       6.295   8.554  11.064  1.00  0.00     0.007 C 
ATOM     15  C   UNL     1       4.467   6.923  11.580  1.00  0.00     0.007 C 
ENDBRANCH  11  13
TORSDOF 1
ENDMDL
MODEL 9
REMARK VINA RESULT:    -0.704      1.051      1.250
REMARK INTER + INTRA:          -0.975
REMARK INTER:                  -0.973
REMARK INTRA:                  -0.002
REMARK UNBOUND:                -0.230
REMARK SMILES CC1=CC[C@H]2[C@H]3[C@@H]1[C@]2(C)CC[C@H]3C(C)C
REMARK SMILES IDX 1 1 2 2 3 3 4 4 5 5 6 6 7 7 8 8 10 9 11 10 12 11 9 12 13 13
REMARK SMILES IDX 14 14 15 15
REMARK H PARENT
REMARK Flexibility Score: inf
ROOT
ATOM      1  C   UNL     1       2.188  12.738  15.839  1.00  0.00     0.039 C 
ATOM      2  C   UNL     1       2.665  12.686  14.419  1.00  0.00    -0.073 C 
ATOM      3  C   UNL     1       3.659  13.500  13.976  1.00  0.00    -0.027 C 
ATOM      4  C   UNL     1       4.112  13.390  12.516  1.00  0.00     0.031 C 
ATOM      5  C   UNL     1       3.303  12.274  11.776  1.00  0.00     0.003 C 
ATOM      6  C   UNL     1       3.284  11.029  12.696  1.00  0.00     0.004 C 
ATOM      7  C   UNL     1       2.085  11.687  13.411  1.00  0.00     0.024 C 
ATOM      8  C   UNL     1       1.783  12.390  12.071  1.00  0.00    -0.022 C 
ATOM      9  C   UNL     1       0.964  11.417  11.176  1.00  0.00     0.008 C 
ATOM     10  C   UNL     1       1.727  10.102  10.875  1.00  0.00     0.005 C 
ATOM     11  C   UNL     1       2.817   9.744  11.940  1.00  0.00    -0.005 C 
ATOM     12  C   UNL     1       1.125  13.791  12.104  1.00  0.00     0.012 C 
ENDROOT
BRANCH  11  13
ATOM     13  C   UNL     1       4.004   8.957  11.295  1.00  0.00    -0.014 C 
ATOM     14  C   UNL     1       5.171   9.881  10.895  1.00  0.00     0.007 C 
ATOM     15  C   UNL     1       4.538   7.875  12.254  1.00  0.00     0.007 C 
ENDBRANCH  11  13
TORSDOF 1
ENDMDL
