MODEL 1
REMARK VINA RESULT:     6.074      0.000      0.000
REMARK INTER + INTRA:           6.583
REMARK INTER:                   6.607
REMARK INTRA:                  -0.024
REMARK UNBOUND:                -0.024
REMARK SMILES CC1(C)[C@@H]2CC=C(CO)[C@H]1C2
REMARK SMILES IDX 8 1 7 2 1 3 2 4 4 5 3 6 10 7 5 8 11 9 6 10 9 11
REMARK H PARENT 9 12
REMARK Flexibility Score: inf
ROOT
ATOM      1  C   UNL     1      31.902  31.510  54.141  1.00  0.00     0.187 C 
ENDROOT
BRANCH   1   2
ATOM      2  C   UNL     1      33.384  31.652  53.930  1.00  0.00    -0.045 C 
ATOM      3  C   UNL     1      34.758  34.259  54.191  1.00  0.00     0.012 C 
ATOM      4  C   UNL     1      35.326  32.970  54.847  1.00  0.00    -0.026 C 
ATOM      5  C   UNL     1      36.117  31.969  53.959  1.00  0.00    -0.000 C 
ATOM      6  C   UNL     1      36.117  33.377  56.116  1.00  0.00     0.012 C 
ATOM      7  C   UNL     1      34.356  31.789  55.112  1.00  0.00     0.023 C 
ATOM      8  C   UNL     1      35.457  31.860  52.541  1.00  0.00     0.031 C 
ATOM      9  C   UNL     1      35.511  30.821  54.792  1.00  0.00     0.013 C 
ATOM     10  C   UNL     1      33.934  31.667  52.679  1.00  0.00    -0.025 C 
ENDBRANCH   1   2
BRANCH   1  11
ATOM     11  O   UNL     1      31.204  32.042  53.048  1.00  0.00    -0.392 OA
ATOM     12  H   UNL     1      31.057  31.297  52.410  1.00  0.00     0.211 HD
ENDBRANCH   1  11
TORSDOF 2
ENDMDL
MODEL 2
REMARK VINA RESULT:     8.633      2.236      3.363
REMARK INTER + INTRA:           9.366
REMARK INTER:                   9.407
REMARK INTRA:                  -0.041
REMARK UNBOUND:                -0.024
REMARK SMILES CC1(C)[C@@H]2CC=C(CO)[C@H]1C2
REMARK SMILES IDX 8 1 7 2 1 3 2 4 4 5 3 6 10 7 5 8 11 9 6 10 9 11
REMARK H PARENT 9 12
REMARK Flexibility Score: inf
ROOT
ATOM      1  C   UNL     1      34.955  34.716  55.323  1.00  0.00     0.187 C 
ENDROOT
BRANCH   1   2
ATOM      2  C   UNL     1      35.058  33.384  54.635  1.00  0.00    -0.045 C 
ATOM      3  C   UNL     1      36.124  30.991  56.010  1.00  0.00     0.012 C 
ATOM      4  C   UNL     1      34.818  30.933  55.170  1.00  0.00    -0.026 C 
ATOM      5  C   UNL     1      34.930  30.827  53.624  1.00  0.00    -0.000 C 
ATOM      6  C   UNL     1      33.905  29.833  55.767  1.00  0.00     0.012 C 
ATOM      7  C   UNL     1      34.051  32.256  54.909  1.00  0.00     0.023 C 
ATOM      8  C   UNL     1      36.117  31.710  53.103  1.00  0.00     0.031 C 
ATOM      9  C   UNL     1      33.672  31.713  53.517  1.00  0.00     0.013 C 
ATOM     10  C   UNL     1      36.051  33.114  53.736  1.00  0.00    -0.025 C 
ENDBRANCH   1   2
BRANCH   1  11
ATOM     11  O   UNL     1      36.099  34.951  56.098  1.00  0.00    -0.392 OA
ATOM     12  H   UNL     1      35.898  35.730  56.679  1.00  0.00     0.211 HD
ENDBRANCH   1  11
TORSDOF 2
ENDMDL
MODEL 3
REMARK VINA RESULT:     8.737      2.188      3.704
REMARK INTER + INTRA:           9.479
REMARK INTER:                   9.502
REMARK INTRA:                  -0.023
REMARK UNBOUND:                -0.024
REMARK SMILES CC1(C)[C@@H]2CC=C(CO)[C@H]1C2
REMARK SMILES IDX 8 1 7 2 1 3 2 4 4 5 3 6 10 7 5 8 11 9 6 10 9 11
REMARK H PARENT 9 12
REMARK Flexibility Score: inf
ROOT
ATOM      1  C   UNL     1      35.558  34.773  54.877  1.00  0.00     0.187 C 
ENDROOT
BRANCH   1   2
ATOM      2  C   UNL     1      35.432  33.279  54.768  1.00  0.00    -0.045 C 
ATOM      3  C   UNL     1      32.800  31.942  54.563  1.00  0.00     0.012 C 
ATOM      4  C   UNL     1      33.983  31.562  53.628  1.00  0.00    -0.026 C 
ATOM      5  C   UNL     1      35.088  30.614  54.173  1.00  0.00    -0.000 C 
ATOM      6  C   UNL     1      33.397  31.065  52.282  1.00  0.00     0.012 C 
ATOM      7  C   UNL     1      35.125  32.592  53.429  1.00  0.00     0.023 C 
ATOM      8  C   UNL     1      35.396  30.944  55.674  1.00  0.00     0.031 C 
ATOM      9  C   UNL     1      36.117  31.415  53.349  1.00  0.00     0.013 C 
ATOM     10  C   UNL     1      35.583  32.464  55.855  1.00  0.00    -0.025 C 
ENDBRANCH   1   2
BRANCH   1  11
ATOM     11  O   UNL     1      36.095  35.125  56.124  1.00  0.00    -0.392 OA
ATOM     12  H   UNL     1      36.483  34.299  56.514  1.00  0.00     0.211 HD
ENDBRANCH   1  11
TORSDOF 2
ENDMDL
MODEL 4
REMARK VINA RESULT:     8.989      1.038      2.204
REMARK INTER + INTRA:           9.753
REMARK INTER:                   9.811
REMARK INTRA:                  -0.057
REMARK UNBOUND:                -0.024
REMARK SMILES CC1(C)[C@@H]2CC=C(CO)[C@H]1C2
REMARK SMILES IDX 8 1 7 2 1 3 2 4 4 5 3 6 10 7 5 8 11 9 6 10 9 11
REMARK H PARENT 9 12
REMARK Flexibility Score: inf
ROOT
ATOM      1  C   UNL     1      32.087  32.137  52.907  1.00  0.00     0.187 C 
ENDROOT
BRANCH   1   2
ATOM      2  C   UNL     1      33.445  32.435  53.478  1.00  0.00    -0.045 C 
ATOM      3  C   UNL     1      34.287  31.415  56.125  1.00  0.00     0.012 C 
ATOM      4  C   UNL     1      35.215  31.318  54.882  1.00  0.00    -0.026 C 
ATOM      5  C   UNL     1      36.016  32.578  54.450  1.00  0.00    -0.000 C 
ATOM      6  C   UNL     1      36.125  30.075  55.050  1.00  0.00     0.012 C 
ATOM      7  C   UNL     1      34.569  31.388  53.473  1.00  0.00     0.023 C 
ATOM      8  C   UNL     1      35.143  33.867  54.635  1.00  0.00     0.031 C 
ATOM      9  C   UNL     1      35.818  32.146  52.983  1.00  0.00     0.013 C 
ATOM     10  C   UNL     1      33.742  33.650  54.030  1.00  0.00    -0.025 C 
ENDBRANCH   1   2
BRANCH   1  11
ATOM     11  O   UNL     1      31.248  31.611  53.899  1.00  0.00    -0.392 OA
ATOM     12  H   UNL     1      31.424  30.636  53.938  1.00  0.00     0.211 HD
ENDBRANCH   1  11
TORSDOF 2
ENDMDL
