MODEL 1
REMARK VINA RESULT:    -3.440      0.000      0.000
REMARK INTER + INTRA:          -3.440
REMARK INTER:                  -3.440
REMARK INTRA:                   0.000
REMARK UNBOUND:                 0.000
REMARK SMILES c1cc[nH]c1
REMARK SMILES IDX 1 1 5 2 4 3 3 4 2 5
REMARK H PARENT 4 6
REMARK Flexibility Score: inf
ROOT
ATOM      1  C   UNL     1      22.996  23.442  17.844  1.00  0.00     0.019 A 
ATOM      2  C   UNL     1      23.651  22.247  17.629  1.00  0.00     0.082 A 
ATOM      3  N   UNL     1      23.804  21.592  18.793  1.00  0.00    -0.368 N 
ATOM      4  C   UNL     1      23.252  22.355  19.753  1.00  0.00     0.082 A 
ATOM      5  C   UNL     1      22.741  23.511  19.200  1.00  0.00     0.019 A 
ATOM      6  H   UNL     1      24.265  20.664  18.926  1.00  0.00     0.165 HD
ENDROOT
TORSDOF 0
ENDMDL
MODEL 2
REMARK VINA RESULT:    -3.422      0.099      1.627
REMARK INTER + INTRA:          -3.422
REMARK INTER:                  -3.422
REMARK INTRA:                   0.000
REMARK UNBOUND:                 0.000
REMARK SMILES c1cc[nH]c1
REMARK SMILES IDX 1 1 5 2 4 3 3 4 2 5
REMARK H PARENT 4 6
REMARK Flexibility Score: inf
ROOT
ATOM      1  C   UNL     1      22.775  23.415  19.196  1.00  0.00     0.019 A 
ATOM      2  C   UNL     1      23.284  22.256  19.744  1.00  0.00     0.082 A 
ATOM      3  N   UNL     1      23.855  21.507  18.785  1.00  0.00    -0.368 N 
ATOM      4  C   UNL     1      23.717  22.176  17.626  1.00  0.00     0.082 A 
ATOM      5  C   UNL     1      23.051  23.364  17.844  1.00  0.00     0.019 A 
ATOM      6  H   UNL     1      24.318  20.581  18.915  1.00  0.00     0.165 HD
ENDROOT
TORSDOF 0
ENDMDL
MODEL 3
REMARK VINA RESULT:    -2.876     19.107     19.475
REMARK INTER + INTRA:          -2.876
REMARK INTER:                  -2.876
REMARK INTRA:                   0.000
REMARK UNBOUND:                 0.000
REMARK SMILES c1cc[nH]c1
REMARK SMILES IDX 1 1 5 2 4 3 3 4 2 5
REMARK H PARENT 4 6
REMARK Flexibility Score: inf
ROOT
ATOM      1  C   UNL     1       3.875  26.374  15.716  1.00  0.00     0.019 A 
ATOM      2  C   UNL     1       3.885  27.466  14.872  1.00  0.00     0.082 A 
ATOM      3  N   UNL     1       5.010  27.468  14.137  1.00  0.00    -0.368 N 
ATOM      4  C   UNL     1       5.723  26.386  14.500  1.00  0.00     0.082 A 
ATOM      5  C   UNL     1       5.048  25.685  15.478  1.00  0.00     0.019 A 
ATOM      6  H   UNL     1       5.280  28.175  13.419  1.00  0.00     0.165 HD
ENDROOT
TORSDOF 0
ENDMDL
MODEL 4
REMARK VINA RESULT:    -2.872     19.098     19.442
REMARK INTER + INTRA:          -2.872
REMARK INTER:                  -2.872
REMARK INTRA:                   0.000
REMARK UNBOUND:                 0.000
REMARK SMILES c1cc[nH]c1
REMARK SMILES IDX 1 1 5 2 4 3 3 4 2 5
REMARK H PARENT 4 6
REMARK Flexibility Score: inf
ROOT
ATOM      1  C   UNL     1       5.039  25.671  15.464  1.00  0.00     0.019 A 
ATOM      2  C   UNL     1       5.731  26.376  14.500  1.00  0.00     0.082 A 
ATOM      3  N   UNL     1       5.038  27.472  14.147  1.00  0.00    -0.368 N 
ATOM      4  C   UNL     1       3.907  27.478  14.875  1.00  0.00     0.082 A 
ATOM      5  C   UNL     1       3.875  26.374  15.703  1.00  0.00     0.019 A 
ATOM      6  H   UNL     1       5.324  28.186  13.441  1.00  0.00     0.165 HD
ENDROOT
TORSDOF 0
ENDMDL
MODEL 5
REMARK VINA RESULT:    -2.575      1.728      1.893
REMARK INTER + INTRA:          -2.575
REMARK INTER:                  -2.575
REMARK INTRA:                   0.000
REMARK UNBOUND:                 0.000
REMARK SMILES c1cc[nH]c1
REMARK SMILES IDX 1 1 5 2 4 3 3 4 2 5
REMARK H PARENT 4 6
REMARK Flexibility Score: inf
ROOT
ATOM      1  C   UNL     1      23.125  22.797  18.739  1.00  0.00     0.019 A 
ATOM      2  C   UNL     1      24.125  23.732  18.908  1.00  0.00     0.082 A 
ATOM      3  N   UNL     1      24.124  24.180  20.176  1.00  0.00    -0.368 N 
ATOM      4  C   UNL     1      23.134  23.541  20.822  1.00  0.00     0.082 A 
ATOM      5  C   UNL     1      22.493  22.674  19.961  1.00  0.00     0.019 A 
ATOM      6  H   UNL     1      24.772  24.892  20.582  1.00  0.00     0.165 HD
ENDROOT
TORSDOF 0
ENDMDL
MODEL 6
REMARK VINA RESULT:    -2.448     20.090     20.476
REMARK INTER + INTRA:          -2.448
REMARK INTER:                  -2.448
REMARK INTRA:                   0.000
REMARK UNBOUND:                 0.000
REMARK SMILES c1cc[nH]c1
REMARK SMILES IDX 1 1 5 2 4 3 3 4 2 5
REMARK H PARENT 4 6
REMARK Flexibility Score: inf
ROOT
ATOM      1  C   UNL     1       3.876  28.603  12.720  1.00  0.00     0.019 A 
ATOM      2  C   UNL     1       4.567  29.666  13.265  1.00  0.00     0.082 A 
ATOM      3  N   UNL     1       5.010  29.344  14.493  1.00  0.00    -0.368 N 
ATOM      4  C   UNL     1       4.610  28.084  14.741  1.00  0.00     0.082 A 
ATOM      5  C   UNL     1       3.903  27.594  13.662  1.00  0.00     0.019 A 
ATOM      6  H   UNL     1       5.560  29.957  15.133  1.00  0.00     0.165 HD
ENDROOT
TORSDOF 0
ENDMDL
MODEL 7
REMARK VINA RESULT:    -2.236     20.085     20.404
REMARK INTER + INTRA:          -2.236
REMARK INTER:                  -2.236
REMARK INTRA:                   0.000
REMARK UNBOUND:                 0.000
REMARK SMILES c1cc[nH]c1
REMARK SMILES IDX 1 1 5 2 4 3 3 4 2 5
REMARK H PARENT 4 6
REMARK Flexibility Score: inf
ROOT
ATOM      1  C   UNL     1       5.001  29.067  14.530  1.00  0.00     0.019 A 
ATOM      2  C   UNL     1       4.557  29.319  13.249  1.00  0.00     0.082 A 
ATOM      3  N   UNL     1       3.876  28.258  12.783  1.00  0.00    -0.368 N 
ATOM      4  C   UNL     1       3.878  27.327  13.754  1.00  0.00     0.082 A 
ATOM      5  C   UNL     1       4.568  27.797  14.853  1.00  0.00     0.019 A 
ATOM      6  H   UNL     1       3.428  28.172  11.843  1.00  0.00     0.165 HD
ENDROOT
TORSDOF 0
ENDMDL
MODEL 8
REMARK VINA RESULT:    -1.982     21.048     21.470
REMARK INTER + INTRA:          -1.982
REMARK INTER:                  -1.982
REMARK INTRA:                   0.000
REMARK UNBOUND:                 0.000
REMARK SMILES c1cc[nH]c1
REMARK SMILES IDX 1 1 5 2 4 3 3 4 2 5
REMARK H PARENT 4 6
REMARK Flexibility Score: inf
ROOT
ATOM      1  C   UNL     1       4.650  29.046  12.195  1.00  0.00     0.019 A 
ATOM      2  C   UNL     1       4.825  29.900  11.126  1.00  0.00     0.082 A 
ATOM      3  N   UNL     1       4.353  31.121  11.431  1.00  0.00    -0.368 N 
ATOM      4  C   UNL     1       3.876  31.059  12.687  1.00  0.00     0.082 A 
ATOM      5  C   UNL     1       4.044  29.786  13.192  1.00  0.00     0.019 A 
ATOM      6  H   UNL     1       4.356  31.960  10.810  1.00  0.00     0.165 HD
ENDROOT
TORSDOF 0
ENDMDL
MODEL 9
REMARK VINA RESULT:    -1.872     19.799     20.194
REMARK INTER + INTRA:          -1.872
REMARK INTER:                  -1.872
REMARK INTRA:                   0.000
REMARK UNBOUND:                 0.000
REMARK SMILES c1cc[nH]c1
REMARK SMILES IDX 1 1 5 2 4 3 3 4 2 5
REMARK H PARENT 4 6
REMARK Flexibility Score: inf
ROOT
ATOM      1  C   UNL     1       4.610  29.267  13.831  1.00  0.00     0.019 A 
ATOM      2  C   UNL     1       5.108  28.612  14.938  1.00  0.00     0.082 A 
ATOM      3  N   UNL     1       4.706  27.329  14.931  1.00  0.00    -0.368 N 
ATOM      4  C   UNL     1       3.956  27.154  13.828  1.00  0.00     0.082 A 
ATOM      5  C   UNL     1       3.875  28.337  13.122  1.00  0.00     0.019 A 
ATOM      6  H   UNL     1       4.935  26.603  15.646  1.00  0.00     0.165 HD
ENDROOT
TORSDOF 0
ENDMDL
