MODEL 1
REMARK VINA RESULT:    -3.352      0.000      0.000
REMARK INTER + INTRA:          -4.004
REMARK INTER:                  -3.940
REMARK INTRA:                  -0.064
REMARK UNBOUND:                -0.064
REMARK SMILES O=C([O-])CCC(=O)[O-]
REMARK SMILES IDX 4 1 2 2 1 3 3 4 5 5 6 6 7 7 8 8
REMARK H PARENT
REMARK Flexibility Score: inf
ROOT
ATOM      1  C   UNL     1      16.828 -21.157  23.441  1.00  0.00     0.059 C 
ENDROOT
BRANCH   1   2
ATOM      2  C   UNL     1      15.801 -21.115  24.528  1.00  0.00     0.042 C 
ATOM      3  O   UNL     1      14.789 -20.376  24.415  1.00  0.00    -0.550 OA
ATOM      4  O   UNL     1      15.988 -21.855  25.689  1.00  0.00    -0.550 OA
ENDBRANCH   1   2
BRANCH   1   5
ATOM      5  C   UNL     1      16.223 -21.717  22.153  1.00  0.00     0.059 C 
BRANCH   5   6
ATOM      6  C   UNL     1      15.809 -20.606  21.243  1.00  0.00     0.042 C 
ATOM      7  O   UNL     1      16.654 -19.763  20.847  1.00  0.00    -0.550 OA
ATOM      8  O   UNL     1      14.477 -20.472  20.870  1.00  0.00    -0.550 OA
ENDBRANCH   5   6
ENDBRANCH   1   5
TORSDOF 3
ENDMDL
MODEL 2
REMARK VINA RESULT:    -3.340      1.885      2.491
REMARK INTER + INTRA:          -3.989
REMARK INTER:                  -3.847
REMARK INTRA:                  -0.142
REMARK UNBOUND:                -0.064
REMARK SMILES O=C([O-])CCC(=O)[O-]
REMARK SMILES IDX 4 1 2 2 1 3 3 4 5 5 6 6 7 7 8 8
REMARK H PARENT
REMARK Flexibility Score: inf
ROOT
ATOM      1  C   UNL     1      16.031 -21.475  22.825  1.00  0.00     0.059 C 
ENDROOT
BRANCH   1   2
ATOM      2  C   UNL     1      15.464 -21.017  24.132  1.00  0.00     0.042 C 
ATOM      3  O   UNL     1      15.857 -21.534  25.210  1.00  0.00    -0.550 OA
ATOM      4  O   UNL     1      14.463 -20.054  24.155  1.00  0.00    -0.550 OA
ENDBRANCH   1   2
BRANCH   1   5
ATOM      5  C   UNL     1      14.982 -21.367  21.718  1.00  0.00     0.059 C 
BRANCH   5   6
ATOM      6  C   UNL     1      14.118 -22.587  21.695  1.00  0.00     0.042 C 
ATOM      7  O   UNL     1      14.570 -23.675  21.253  1.00  0.00    -0.550 OA
ATOM      8  O   UNL     1      12.796 -22.512  22.117  1.00  0.00    -0.550 OA
ENDBRANCH   5   6
ENDBRANCH   1   5
TORSDOF 3
ENDMDL
MODEL 3
REMARK VINA RESULT:    -3.337      2.062      3.585
REMARK INTER + INTRA:          -3.986
REMARK INTER:                  -3.863
REMARK INTRA:                  -0.123
REMARK UNBOUND:                -0.064
REMARK SMILES O=C([O-])CCC(=O)[O-]
REMARK SMILES IDX 4 1 2 2 1 3 3 4 5 5 6 6 7 7 8 8
REMARK H PARENT
REMARK Flexibility Score: inf
ROOT
ATOM      1  C   UNL     1      14.929 -21.684  21.254  1.00  0.00     0.059 C 
ENDROOT
BRANCH   1   2
ATOM      2  C   UNL     1      13.983 -22.827  21.449  1.00  0.00     0.042 C 
ATOM      3  O   UNL     1      12.824 -22.621  21.894  1.00  0.00    -0.550 OA
ATOM      4  O   UNL     1      14.400 -24.125  21.188  1.00  0.00    -0.550 OA
ENDBRANCH   1   2
BRANCH   1   5
ATOM      5  C   UNL     1      15.929 -21.613  22.408  1.00  0.00     0.059 C 
BRANCH   5   6
ATOM      6  C   UNL     1      15.311 -20.949  23.597  1.00  0.00     0.042 C 
ATOM      7  O   UNL     1      14.593 -19.926  23.449  1.00  0.00    -0.550 OA
ATOM      8  O   UNL     1      15.568 -21.431  24.875  1.00  0.00    -0.550 OA
ENDBRANCH   5   6
ENDBRANCH   1   5
TORSDOF 3
ENDMDL
MODEL 4
REMARK VINA RESULT:    -3.314      1.988      3.700
REMARK INTER + INTRA:          -3.959
REMARK INTER:                  -3.825
REMARK INTRA:                  -0.134
REMARK UNBOUND:                -0.064
REMARK SMILES O=C([O-])CCC(=O)[O-]
REMARK SMILES IDX 4 1 2 2 1 3 3 4 5 5 6 6 7 7 8 8
REMARK H PARENT
REMARK Flexibility Score: inf
ROOT
ATOM      1  C   UNL     1      14.731 -21.269  21.825  1.00  0.00     0.059 C 
ENDROOT
BRANCH   1   2
ATOM      2  C   UNL     1      13.825 -22.461  21.818  1.00  0.00     0.042 C 
ATOM      3  O   UNL     1      14.256 -23.582  21.443  1.00  0.00    -0.550 OA
ATOM      4  O   UNL     1      12.491 -22.320  22.177  1.00  0.00    -0.550 OA
ENDBRANCH   1   2
BRANCH   1   5
ATOM      5  C   UNL     1      15.842 -21.447  22.861  1.00  0.00     0.059 C 
BRANCH   5   6
ATOM      6  C   UNL     1      15.368 -21.024  24.214  1.00  0.00     0.042 C 
ATOM      7  O   UNL     1      15.864 -21.541  25.249  1.00  0.00    -0.550 OA
ATOM      8  O   UNL     1      14.342 -20.094  24.333  1.00  0.00    -0.550 OA
ENDBRANCH   5   6
ENDBRANCH   1   5
TORSDOF 3
ENDMDL
MODEL 5
REMARK VINA RESULT:    -3.224      1.205      1.994
REMARK INTER + INTRA:          -3.854
REMARK INTER:                  -3.792
REMARK INTRA:                  -0.061
REMARK UNBOUND:                -0.064
REMARK SMILES O=C([O-])CCC(=O)[O-]
REMARK SMILES IDX 4 1 2 2 1 3 3 4 5 5 6 6 7 7 8 8
REMARK H PARENT
REMARK Flexibility Score: inf
ROOT
ATOM      1  C   UNL     1      16.035 -21.379  22.784  1.00  0.00     0.059 C 
ENDROOT
BRANCH   1   2
ATOM      2  C   UNL     1      15.501 -21.042  24.140  1.00  0.00     0.042 C 
ATOM      3  O   UNL     1      16.086 -21.461  25.173  1.00  0.00    -0.550 OA
ATOM      4  O   UNL     1      14.329 -20.308  24.263  1.00  0.00    -0.550 OA
ENDBRANCH   1   2
BRANCH   1   5
ATOM      5  C   UNL     1      15.010 -22.191  21.991  1.00  0.00     0.059 C 
BRANCH   5   6
ATOM      6  C   UNL     1      14.862 -21.640  20.608  1.00  0.00     0.042 C 
ATOM      7  O   UNL     1      13.981 -22.099  19.835  1.00  0.00    -0.550 OA
ATOM      8  O   UNL     1      15.729 -20.654  20.156  1.00  0.00    -0.550 OA
ENDBRANCH   5   6
ENDBRANCH   1   5
TORSDOF 3
ENDMDL
MODEL 6
REMARK VINA RESULT:    -3.206      0.747      3.734
REMARK INTER + INTRA:          -3.832
REMARK INTER:                  -3.711
REMARK INTRA:                  -0.121
REMARK UNBOUND:                -0.064
REMARK SMILES O=C([O-])CCC(=O)[O-]
REMARK SMILES IDX 4 1 2 2 1 3 3 4 5 5 6 6 7 7 8 8
REMARK H PARENT
REMARK Flexibility Score: inf
ROOT
ATOM      1  C   UNL     1      16.036 -21.506  22.025  1.00  0.00     0.059 C 
ENDROOT
BRANCH   1   2
ATOM      2  C   UNL     1      15.754 -20.340  21.130  1.00  0.00     0.042 C 
ATOM      3  O   UNL     1      14.575 -20.089  20.769  1.00  0.00    -0.550 OA
ATOM      4  O   UNL     1      16.800 -19.560  20.655  1.00  0.00    -0.550 OA
ENDBRANCH   1   2
BRANCH   1   5
ATOM      5  C   UNL     1      14.869 -21.738  22.986  1.00  0.00     0.059 C 
BRANCH   5   6
ATOM      6  C   UNL     1      15.085 -20.988  24.262  1.00  0.00     0.042 C 
ATOM      7  O   UNL     1      14.534 -19.871  24.441  1.00  0.00    -0.550 OA
ATOM      8  O   UNL     1      15.936 -21.499  25.234  1.00  0.00    -0.550 OA
ENDBRANCH   5   6
ENDBRANCH   1   5
TORSDOF 3
ENDMDL
MODEL 7
REMARK VINA RESULT:    -3.149      2.248      3.800
REMARK INTER + INTRA:          -3.766
REMARK INTER:                  -3.689
REMARK INTRA:                  -0.077
REMARK UNBOUND:                -0.064
REMARK SMILES O=C([O-])CCC(=O)[O-]
REMARK SMILES IDX 4 1 2 2 1 3 3 4 5 5 6 6 7 7 8 8
REMARK H PARENT
REMARK Flexibility Score: inf
ROOT
ATOM      1  C   UNL     1      14.031 -22.639  22.021  1.00  0.00     0.059 C 
ENDROOT
BRANCH   1   2
ATOM      2  C   UNL     1      12.830 -21.858  21.589  1.00  0.00     0.042 C 
ATOM      3  O   UNL     1      11.770 -21.900  22.266  1.00  0.00    -0.550 OA
ATOM      4  O   UNL     1      12.866 -21.123  20.411  1.00  0.00    -0.550 OA
ENDBRANCH   1   2
BRANCH   1   5
ATOM      5  C   UNL     1      15.314 -21.878  21.684  1.00  0.00     0.059 C 
BRANCH   5   6
ATOM      6  C   UNL     1      15.991 -21.413  22.933  1.00  0.00     0.042 C 
ATOM      7  O   UNL     1      15.328 -21.256  23.992  1.00  0.00    -0.550 OA
ATOM      8  O   UNL     1      17.345 -21.104  22.918  1.00  0.00    -0.550 OA
ENDBRANCH   5   6
ENDBRANCH   1   5
TORSDOF 3
ENDMDL
MODEL 8
REMARK VINA RESULT:    -3.050      2.570      3.818
REMARK INTER + INTRA:          -3.649
REMARK INTER:                  -3.480
REMARK INTRA:                  -0.169
REMARK UNBOUND:                -0.064
REMARK SMILES O=C([O-])CCC(=O)[O-]
REMARK SMILES IDX 4 1 2 2 1 3 3 4 5 5 6 6 7 7 8 8
REMARK H PARENT
REMARK Flexibility Score: inf
ROOT
ATOM      1  C   UNL     1      15.871 -21.610  21.763  1.00  0.00     0.059 C 
ENDROOT
BRANCH   1   2
ATOM      2  C   UNL     1      15.502 -20.604  20.718  1.00  0.00     0.042 C 
ATOM      3  O   UNL     1      15.549 -20.911  19.499  1.00  0.00    -0.550 OA
ATOM      4  O   UNL     1      15.155 -19.312  21.090  1.00  0.00    -0.550 OA
ENDBRANCH   1   2
BRANCH   1   5
ATOM      5  C   UNL     1      14.683 -21.885  22.686  1.00  0.00     0.059 C 
BRANCH   5   6
ATOM      6  C   UNL     1      13.638 -22.681  21.971  1.00  0.00     0.042 C 
ATOM      7  O   UNL     1      13.950 -23.744  21.373  1.00  0.00    -0.550 OA
ATOM      8  O   UNL     1      12.327 -22.224  21.922  1.00  0.00    -0.550 OA
ENDBRANCH   5   6
ENDBRANCH   1   5
TORSDOF 3
ENDMDL
MODEL 9
REMARK VINA RESULT:    -3.045      2.135      3.300
REMARK INTER + INTRA:          -3.643
REMARK INTER:                  -3.453
REMARK INTRA:                  -0.190
REMARK UNBOUND:                -0.064
REMARK SMILES O=C([O-])CCC(=O)[O-]
REMARK SMILES IDX 4 1 2 2 1 3 3 4 5 5 6 6 7 7 8 8
REMARK H PARENT
REMARK Flexibility Score: inf
ROOT
ATOM      1  C   UNL     1      14.974 -22.608  21.513  1.00  0.00     0.059 C 
ENDROOT
BRANCH   1   2
ATOM      2  C   UNL     1      15.585 -21.418  22.184  1.00  0.00     0.042 C 
ATOM      3  O   UNL     1      15.510 -21.287  23.433  1.00  0.00    -0.550 OA
ATOM      4  O   UNL     1      16.194 -20.429  21.423  1.00  0.00    -0.550 OA
ENDBRANCH   1   2
BRANCH   1   5
ATOM      5  C   UNL     1      13.936 -22.166  20.480  1.00  0.00     0.059 C 
BRANCH   5   6
ATOM      6  C   UNL     1      12.798 -21.464  21.149  1.00  0.00     0.042 C 
ATOM      7  O   UNL     1      12.072 -22.078  21.974  1.00  0.00    -0.550 OA
ATOM      8  O   UNL     1      12.507 -20.145  20.825  1.00  0.00    -0.550 OA
ENDBRANCH   5   6
ENDBRANCH   1   5
TORSDOF 3
ENDMDL
