MODEL 1
REMARK VINA RESULT:    -5.363      0.000      0.000
REMARK INTER + INTRA:          -7.266
REMARK INTER:                  -7.557
REMARK INTRA:                   0.291
REMARK UNBOUND:                 0.291
REMARK SMILES CC1=CCC(=C(C)C)C(=O)CC(C)=CCC1
REMARK SMILES IDX 12 1 14 2 13 3 15 4 16 5 2 6 1 7 3 8 11 10 9 11 10 12 5 13
REMARK SMILES IDX 6 14 7 15 8 16 4 17
REMARK H PARENT
REMARK Flexibility Score: 60.00
ROOT
ATOM      1  C   UNL     1     -31.726  15.481   2.792  1.00  0.00    -0.070 C 
ATOM      2  C   UNL     1     -30.428  15.765   3.038  1.00  0.00    -0.027 C 
ATOM      3  C   UNL     1     -32.761  16.504   3.190  1.00  0.00     0.039 C 
ENDROOT
BRANCH   2   4
ATOM      4  C   UNL     1     -29.260  14.833   2.801  1.00  0.00     0.032 C 
BRANCH   4   5
ATOM      5  C   UNL     1     -28.715  14.832   1.359  1.00  0.00     0.034 C 
BRANCH   5   6
ATOM      6  C   UNL     1     -28.453  13.436   0.819  1.00  0.00    -0.077 C 
ATOM      7  C   UNL     1     -27.279  12.677   1.381  1.00  0.00     0.039 C 
ATOM      8  C   UNL     1     -29.163  12.859  -0.180  1.00  0.00    -0.023 CG0
ATOM      9  G   UNL     1     -30.387  13.421  -0.877  1.00  0.00     0.000 G0
ENDBRANCH   5   6
ENDBRANCH   4   5
ENDBRANCH   2   4
BRANCH   1  10
ATOM     10  C   UNL     1     -32.194  14.156   2.224  1.00  0.00     0.111 C 
BRANCH  10  11
ATOM     11  C   UNL     1     -32.263  14.188   0.720  1.00  0.00     0.163 C 
ATOM     12  O   UNL     1     -32.879  15.142   0.174  1.00  0.00    -0.294 OA
BRANCH  11  13
ATOM     13  C   UNL     1     -31.685  13.106  -0.131  1.00  0.00    -0.002 C 
ATOM     14  C   UNL     1     -32.256  11.863  -0.164  1.00  0.00    -0.069 C 
ATOM     15  C   UNL     1     -33.571  11.585   0.530  1.00  0.00     0.039 C 
ATOM     16  C   UNL     1     -31.607  10.704  -0.889  1.00  0.00     0.039 C 
BRANCH  13  17
ATOM     17  C   UNL     1     -30.396  13.417  -0.873  1.00  0.00     0.066 CG0
ATOM     18  G   UNL     1     -29.176  12.854  -0.169  1.00  0.00     0.000 G0
ENDBRANCH  13  17
ENDBRANCH  11  13
ENDBRANCH  10  11
ENDBRANCH   1  10
TORSDOF 0
ENDMDL
MODEL 2
REMARK VINA RESULT:    -5.071      1.736      3.622
REMARK INTER + INTRA:          -6.855
REMARK INTER:                  -7.199
REMARK INTRA:                   0.344
REMARK UNBOUND:                 0.291
REMARK SMILES CC1=CCC(=C(C)C)C(=O)CC(C)=CCC1
REMARK SMILES IDX 12 1 14 2 13 3 15 4 16 5 2 6 1 7 3 8 11 10 9 11 10 12 5 13
REMARK SMILES IDX 6 14 7 15 8 16 4 17
REMARK H PARENT
REMARK Flexibility Score: 60.00
ROOT
ATOM      1  C   UNL     1     -29.699  15.030   2.024  1.00  0.00    -0.070 C 
ATOM      2  C   UNL     1     -30.828  15.237   2.739  1.00  0.00    -0.027 C 
ATOM      3  C   UNL     1     -28.544  14.344   2.712  1.00  0.00     0.039 C 
ENDROOT
BRANCH   2   4
ATOM      4  C   UNL     1     -32.050  15.989   2.259  1.00  0.00     0.032 C 
BRANCH   4   5
ATOM      5  C   UNL     1     -32.754  15.368   1.035  1.00  0.00     0.034 C 
BRANCH   5   6
ATOM      6  C   UNL     1     -32.893  13.858   1.128  1.00  0.00    -0.077 C 
ATOM      7  C   UNL     1     -33.766  13.301   2.223  1.00  0.00     0.039 C 
ATOM      8  C   UNL     1     -32.231  12.981   0.336  1.00  0.00    -0.023 CG0
ATOM      9  G   UNL     1     -31.322  13.308  -0.833  1.00  0.00     0.000 G0
ENDBRANCH   5   6
ENDBRANCH   4   5
ENDBRANCH   2   4
BRANCH   1  10
ATOM     10  C   UNL     1     -29.507  15.533   0.608  1.00  0.00     0.111 C 
BRANCH  10  11
ATOM     11  C   UNL     1     -29.062  14.432  -0.317  1.00  0.00     0.163 C 
ATOM     12  O   UNL     1     -28.015  14.612  -0.996  1.00  0.00    -0.294 OA
BRANCH  11  13
ATOM     13  C   UNL     1     -29.847  13.175  -0.502  1.00  0.00    -0.002 C 
ATOM     14  C   UNL     1     -29.234  11.954  -0.442  1.00  0.00    -0.069 C 
ATOM     15  C   UNL     1     -27.784  11.823  -0.034  1.00  0.00     0.039 C 
ATOM     16  C   UNL     1     -29.967  10.673  -0.780  1.00  0.00     0.039 C 
BRANCH  13  17
ATOM     17  C   UNL     1     -31.319  13.318  -0.851  1.00  0.00     0.066 CG0
ATOM     18  G   UNL     1     -32.224  12.986   0.321  1.00  0.00     0.000 G0
ENDBRANCH  13  17
ENDBRANCH  11  13
ENDBRANCH  10  11
ENDBRANCH   1  10
TORSDOF 0
ENDMDL
MODEL 3
REMARK VINA RESULT:    -4.860      1.471      2.072
REMARK INTER + INTRA:          -6.558
REMARK INTER:                  -7.552
REMARK INTRA:                   0.994
REMARK UNBOUND:                 0.291
REMARK SMILES CC1=CCC(=C(C)C)C(=O)CC(C)=CCC1
REMARK SMILES IDX 12 1 14 2 13 3 15 4 16 5 2 6 1 7 3 8 11 10 9 11 10 12 5 13
REMARK SMILES IDX 6 14 7 15 8 16 4 17
REMARK H PARENT
REMARK Flexibility Score: 60.00
ROOT
ATOM      1  C   UNL     1     -31.736  15.849   2.314  1.00  0.00    -0.070 C 
ATOM      2  C   UNL     1     -30.579  15.477   2.904  1.00  0.00    -0.027 C 
ATOM      3  C   UNL     1     -32.977  15.913   3.171  1.00  0.00     0.039 C 
ENDROOT
BRANCH   2   4
ATOM      4  C   UNL     1     -29.258  15.261   2.198  1.00  0.00     0.032 C 
BRANCH   4   5
ATOM      5  C   UNL     1     -28.989  13.808   1.757  1.00  0.00     0.034 C 
BRANCH   5   6
ATOM      6  C   UNL     1     -29.419  13.527   0.328  1.00  0.00    -0.077 C 
ATOM      7  C   UNL     1     -28.417  13.787  -0.769  1.00  0.00     0.039 C 
ATOM      8  C   UNL     1     -30.662  13.126  -0.031  1.00  0.00    -0.023 CG0
ATOM      9  G   UNL     1     -31.817  12.787   0.892  1.00  0.00     0.000 G0
ENDBRANCH   5   6
ENDBRANCH   4   5
ENDBRANCH   2   4
BRANCH   1  10
ATOM     10  C   UNL     1     -31.866  16.113   0.827  1.00  0.00     0.111 C 
BRANCH  10  11
ATOM     11  C   UNL     1     -32.721  15.075   0.151  1.00  0.00     0.163 C 
ATOM     12  O   UNL     1     -33.265  15.376  -0.945  1.00  0.00    -0.294 OA
BRANCH  11  13
ATOM     13  C   UNL     1     -32.993  13.740   0.762  1.00  0.00    -0.002 C 
ATOM     14  C   UNL     1     -34.230  13.440   1.262  1.00  0.00    -0.069 C 
ATOM     15  C   UNL     1     -35.401  14.379   1.076  1.00  0.00     0.039 C 
ATOM     16  C   UNL     1     -34.494  12.161   2.027  1.00  0.00     0.039 C 
BRANCH  13  17
ATOM     17  C   UNL     1     -31.821  12.780   0.887  1.00  0.00     0.066 CG0
ATOM     18  G   UNL     1     -30.675  13.148  -0.035  1.00  0.00     0.000 G0
ENDBRANCH  13  17
ENDBRANCH  11  13
ENDBRANCH  10  11
ENDBRANCH   1  10
TORSDOF 0
ENDMDL
MODEL 4
REMARK VINA RESULT:    -4.834      1.461      3.634
REMARK INTER + INTRA:          -6.521
REMARK INTER:                  -6.761
REMARK INTRA:                   0.240
REMARK UNBOUND:                 0.291
REMARK SMILES CC1=CCC(=C(C)C)C(=O)CC(C)=CCC1
REMARK SMILES IDX 12 1 14 2 13 3 15 4 16 5 2 6 1 7 3 8 11 10 9 11 10 12 5 13
REMARK SMILES IDX 6 14 7 15 8 16 4 17
REMARK H PARENT
REMARK Flexibility Score: 60.00
ROOT
ATOM      1  C   UNL     1     -32.422  12.021  -0.071  1.00  0.00    -0.070 C 
ATOM      2  C   UNL     1     -31.256  11.343   0.018  1.00  0.00    -0.027 C 
ATOM      3  C   UNL     1     -33.595  11.518   0.735  1.00  0.00     0.039 C 
ENDROOT
BRANCH   2   4
ATOM      4  C   UNL     1     -30.004  11.631  -0.781  1.00  0.00     0.032 C 
BRANCH   4   5
ATOM      5  C   UNL     1     -29.524  13.096  -0.725  1.00  0.00     0.034 C 
BRANCH   5   6
ATOM      6  C   UNL     1     -29.280  13.592   0.690  1.00  0.00    -0.077 C 
ATOM      7  C   UNL     1     -28.253  12.865   1.520  1.00  0.00     0.039 C 
ATOM      8  C   UNL     1     -29.973  14.597   1.276  1.00  0.00    -0.023 CG0
ATOM      9  G   UNL     1     -31.030  15.477   0.635  1.00  0.00     0.000 G0
ENDBRANCH   5   6
ENDBRANCH   4   5
ENDBRANCH   2   4
BRANCH   1  10
ATOM     10  C   UNL     1     -32.632  13.196  -1.005  1.00  0.00     0.111 C 
BRANCH  10  11
ATOM     11  C   UNL     1     -33.167  14.399  -0.273  1.00  0.00     0.163 C 
ATOM     12  O   UNL     1     -34.232  14.925  -0.694  1.00  0.00    -0.294 OA
BRANCH  11  13
ATOM     13  C   UNL     1     -32.451  15.017   0.883  1.00  0.00    -0.002 C 
ATOM     14  C   UNL     1     -33.090  15.214   2.075  1.00  0.00    -0.069 C 
ATOM     15  C   UNL     1     -34.483  14.674   2.318  1.00  0.00     0.039 C 
ATOM     16  C   UNL     1     -32.446  15.979   3.212  1.00  0.00     0.039 C 
BRANCH  13  17
ATOM     17  C   UNL     1     -31.030  15.499   0.644  1.00  0.00     0.066 CG0
ATOM     18  G   UNL     1     -29.998  14.591   1.285  1.00  0.00     0.000 G0
ENDBRANCH  13  17
ENDBRANCH  11  13
ENDBRANCH  10  11
ENDBRANCH   1  10
TORSDOF 0
ENDMDL
MODEL 5
REMARK VINA RESULT:    -4.702      1.886      3.947
REMARK INTER + INTRA:          -6.334
REMARK INTER:                  -6.705
REMARK INTRA:                   0.371
REMARK UNBOUND:                 0.291
REMARK SMILES CC1=CCC(=C(C)C)C(=O)CC(C)=CCC1
REMARK SMILES IDX 12 1 14 2 13 3 15 4 16 5 2 6 1 7 3 8 11 10 9 11 10 12 5 13
REMARK SMILES IDX 6 14 7 15 8 16 4 17
REMARK H PARENT
REMARK Flexibility Score: 60.00
ROOT
ATOM      1  C   UNL     1     -32.099  15.361   2.288  1.00  0.00    -0.070 C 
ATOM      2  C   UNL     1     -33.293  14.953   2.770  1.00  0.00    -0.027 C 
ATOM      3  C   UNL     1     -30.882  15.168   3.159  1.00  0.00     0.039 C 
ENDROOT
BRANCH   2   4
ATOM      4  C   UNL     1     -34.632  15.147   2.092  1.00  0.00     0.032 C 
BRANCH   4   5
ATOM      5  C   UNL     1     -35.193  13.890   1.396  1.00  0.00     0.034 C 
BRANCH   5   6
ATOM      6  C   UNL     1     -34.392  12.635   1.692  1.00  0.00    -0.077 C 
ATOM      7  C   UNL     1     -34.676  11.910   2.982  1.00  0.00     0.039 C 
ATOM      8  C   UNL     1     -33.393  12.164   0.907  1.00  0.00    -0.023 CG0
ATOM      9  G   UNL     1     -32.947  12.713  -0.435  1.00  0.00     0.000 G0
ENDBRANCH   5   6
ENDBRANCH   4   5
ENDBRANCH   2   4
BRANCH   1  10
ATOM     10  C   UNL     1     -31.938  16.081   0.964  1.00  0.00     0.111 C 
BRANCH  10  11
ATOM     11  C   UNL     1     -32.325  15.204  -0.197  1.00  0.00     0.163 C 
ATOM     12  O   UNL     1     -33.108  15.677  -1.064  1.00  0.00    -0.294 OA
BRANCH  11  13
ATOM     13  C   UNL     1     -31.868  13.787  -0.317  1.00  0.00    -0.002 C 
ATOM     14  C   UNL     1     -30.536  13.488  -0.398  1.00  0.00    -0.069 C 
ATOM     15  C   UNL     1     -29.479  14.553  -0.210  1.00  0.00     0.039 C 
ATOM     16  C   UNL     1     -30.048  12.083  -0.679  1.00  0.00     0.039 C 
BRANCH  13  17
ATOM     17  C   UNL     1     -32.941  12.718  -0.443  1.00  0.00     0.066 CG0
ATOM     18  G   UNL     1     -33.373  12.174   0.905  1.00  0.00     0.000 G0
ENDBRANCH  13  17
ENDBRANCH  11  13
ENDBRANCH  10  11
ENDBRANCH   1  10
TORSDOF 0
ENDMDL
MODEL 6
REMARK VINA RESULT:    -4.667      1.384      3.623
REMARK INTER + INTRA:          -6.285
REMARK INTER:                  -6.454
REMARK INTRA:                   0.169
REMARK UNBOUND:                 0.291
REMARK SMILES CC1=CCC(=C(C)C)C(=O)CC(C)=CCC1
REMARK SMILES IDX 12 1 14 2 13 3 15 4 16 5 2 6 1 7 3 8 11 10 9 11 10 12 5 13
REMARK SMILES IDX 6 14 7 15 8 16 4 17
REMARK H PARENT
REMARK Flexibility Score: 60.00
ROOT
ATOM      1  C   UNL     1     -32.488  15.009   2.496  1.00  0.00    -0.070 C 
ATOM      2  C   UNL     1     -33.665  14.507   2.060  1.00  0.00    -0.027 C 
ATOM      3  C   UNL     1     -32.466  16.437   2.981  1.00  0.00     0.039 C 
ENDROOT
BRANCH   2   4
ATOM      4  C   UNL     1     -33.868  13.138   1.449  1.00  0.00     0.032 C 
BRANCH   4   5
ATOM      5  C   UNL     1     -33.606  13.061  -0.069  1.00  0.00     0.034 C 
BRANCH   5   6
ATOM      6  C   UNL     1     -32.703  11.905  -0.462  1.00  0.00    -0.077 C 
ATOM      7  C   UNL     1     -33.280  10.514  -0.401  1.00  0.00     0.039 C 
ATOM      8  C   UNL     1     -31.397  12.037  -0.797  1.00  0.00    -0.023 CG0
ATOM      9  G   UNL     1     -30.614  13.328  -0.943  1.00  0.00     0.000 G0
ENDBRANCH   5   6
ENDBRANCH   4   5
ENDBRANCH   2   4
BRANCH   1  10
ATOM     10  C   UNL     1     -31.182  14.242   2.433  1.00  0.00     0.111 C 
BRANCH  10  11
ATOM     11  C   UNL     1     -30.352  14.654   1.246  1.00  0.00     0.163 C 
ATOM     12  O   UNL     1     -30.178  15.886   1.042  1.00  0.00    -0.294 OA
BRANCH  11  13
ATOM     13  C   UNL     1     -29.790  13.665   0.280  1.00  0.00    -0.002 C 
ATOM     14  C   UNL     1     -28.534  13.152   0.455  1.00  0.00    -0.069 C 
ATOM     15  C   UNL     1     -27.736  13.444   1.707  1.00  0.00     0.039 C 
ATOM     16  C   UNL     1     -27.876  12.273  -0.586  1.00  0.00     0.039 C 
BRANCH  13  17
ATOM     17  C   UNL     1     -30.629  13.332  -0.944  1.00  0.00     0.066 CG0
ATOM     18  G   UNL     1     -31.388  12.029  -0.784  1.00  0.00     0.000 G0
ENDBRANCH  13  17
ENDBRANCH  11  13
ENDBRANCH  10  11
ENDBRANCH   1  10
TORSDOF 0
ENDMDL
MODEL 7
REMARK VINA RESULT:    -4.561      1.762      5.003
REMARK INTER + INTRA:          -6.137
REMARK INTER:                  -6.699
REMARK INTRA:                   0.562
REMARK UNBOUND:                 0.291
REMARK SMILES CC1=CCC(=C(C)C)C(=O)CC(C)=CCC1
REMARK SMILES IDX 12 1 14 2 13 3 15 4 16 5 2 6 1 7 3 8 11 10 9 11 10 12 5 13
REMARK SMILES IDX 6 14 7 15 8 16 4 17
REMARK H PARENT
REMARK Flexibility Score: 60.00
ROOT
ATOM      1  C   UNL     1     -29.321  12.616  -0.324  1.00  0.00    -0.070 C 
ATOM      2  C   UNL     1     -30.414  11.822  -0.368  1.00  0.00    -0.027 C 
ATOM      3  C   UNL     1     -28.177  12.194   0.566  1.00  0.00     0.039 C 
ENDROOT
BRANCH   2   4
ATOM      4  C   UNL     1     -31.692  12.122  -1.119  1.00  0.00     0.032 C 
BRANCH   4   5
ATOM      5  C   UNL     1     -32.920  12.393  -0.226  1.00  0.00     0.034 C 
BRANCH   5   6
ATOM      6  C   UNL     1     -33.274  13.867  -0.126  1.00  0.00    -0.077 C 
ATOM      7  C   UNL     1     -34.374  14.385  -1.015  1.00  0.00     0.039 C 
ATOM      8  C   UNL     1     -32.619  14.757   0.658  1.00  0.00    -0.023 CG0
ATOM      9  G   UNL     1     -31.502  14.464   1.641  1.00  0.00     0.000 G0
ENDBRANCH   5   6
ENDBRANCH   4   5
ENDBRANCH   2   4
BRANCH   1  10
ATOM     10  C   UNL     1     -29.227  13.944  -1.047  1.00  0.00     0.111 C 
BRANCH  10  11
ATOM     11  C   UNL     1     -29.909  15.045  -0.278  1.00  0.00     0.163 C 
ATOM     12  O   UNL     1     -30.241  16.088  -0.902  1.00  0.00    -0.294 OA
BRANCH  11  13
ATOM     13  C   UNL     1     -30.143  14.966   1.195  1.00  0.00    -0.002 C 
ATOM     14  C   UNL     1     -29.137  15.244   2.078  1.00  0.00    -0.069 C 
ATOM     15  C   UNL     1     -27.807  15.790   1.607  1.00  0.00     0.039 C 
ATOM     16  C   UNL     1     -29.296  15.021   3.567  1.00  0.00     0.039 C 
BRANCH  13  17
ATOM     17  C   UNL     1     -31.506  14.475   1.657  1.00  0.00     0.066 CG0
ATOM     18  G   UNL     1     -32.593  14.750   0.637  1.00  0.00     0.000 G0
ENDBRANCH  13  17
ENDBRANCH  11  13
ENDBRANCH  10  11
ENDBRANCH   1  10
TORSDOF 0
ENDMDL
MODEL 8
REMARK VINA RESULT:    -4.423      1.549      3.228
REMARK INTER + INTRA:          -5.942
REMARK INTER:                  -6.394
REMARK INTRA:                   0.452
REMARK UNBOUND:                 0.291
REMARK SMILES CC1=CCC(=C(C)C)C(=O)CC(C)=CCC1
REMARK SMILES IDX 12 1 14 2 13 3 15 4 16 5 2 6 1 7 3 8 11 10 9 11 10 12 5 13
REMARK SMILES IDX 6 14 7 15 8 16 4 17
REMARK H PARENT
REMARK Flexibility Score: 60.00
ROOT
ATOM      1  C   UNL     1     -28.138  14.087   1.875  1.00  0.00    -0.070 C 
ATOM      2  C   UNL     1     -27.355  13.288   1.116  1.00  0.00    -0.027 C 
ATOM      3  C   UNL     1     -27.536  15.363   2.410  1.00  0.00     0.039 C 
ENDROOT
BRANCH   2   4
ATOM      4  C   UNL     1     -27.743  11.931   0.573  1.00  0.00     0.032 C 
BRANCH   4   5
ATOM      5  C   UNL     1     -28.464  11.961  -0.790  1.00  0.00     0.034 C 
BRANCH   5   6
ATOM      6  C   UNL     1     -29.872  11.395  -0.736  1.00  0.00    -0.077 C 
ATOM      7  C   UNL     1     -30.027   9.896  -0.778  1.00  0.00     0.039 C 
ATOM      8  C   UNL     1     -30.998  12.148  -0.721  1.00  0.00    -0.023 CG0
ATOM      9  G   UNL     1     -31.086  13.661  -0.657  1.00  0.00     0.000 G0
ENDBRANCH   5   6
ENDBRANCH   4   5
ENDBRANCH   2   4
BRANCH   1  10
ATOM     10  C   UNL     1     -29.549  13.719   2.288  1.00  0.00     0.111 C 
BRANCH  10  11
ATOM     11  C   UNL     1     -30.566  14.646   1.676  1.00  0.00     0.163 C 
ATOM     12  O   UNL     1     -30.572  15.850   2.047  1.00  0.00    -0.294 OA
BRANCH  11  13
ATOM     13  C   UNL     1     -31.596  14.174   0.703  1.00  0.00    -0.002 C 
ATOM     14  C   UNL     1     -32.916  14.119   1.056  1.00  0.00    -0.069 C 
ATOM     15  C   UNL     1     -33.400  14.676   2.376  1.00  0.00     0.039 C 
ATOM     16  C   UNL     1     -33.960  13.499   0.152  1.00  0.00     0.039 C 
BRANCH  13  17
ATOM     17  C   UNL     1     -31.103  13.674  -0.645  1.00  0.00     0.066 CG0
ATOM     18  G   UNL     1     -31.011  12.161  -0.699  1.00  0.00     0.000 G0
ENDBRANCH  13  17
ENDBRANCH  11  13
ENDBRANCH  10  11
ENDBRANCH   1  10
TORSDOF 0
ENDMDL
MODEL 9
REMARK VINA RESULT:    -4.366      1.773      4.754
REMARK INTER + INTRA:          -5.862
REMARK INTER:                  -6.169
REMARK INTRA:                   0.307
REMARK UNBOUND:                 0.291
REMARK SMILES CC1=CCC(=C(C)C)C(=O)CC(C)=CCC1
REMARK SMILES IDX 12 1 14 2 13 3 15 4 16 5 2 6 1 7 3 8 11 10 9 11 10 12 5 13
REMARK SMILES IDX 6 14 7 15 8 16 4 17
REMARK H PARENT
REMARK Flexibility Score: 60.00
ROOT
ATOM      1  C   UNL     1     -32.416  11.789   0.044  1.00  0.00    -0.070 C 
ATOM      2  C   UNL     1     -33.629  12.372   0.163  1.00  0.00    -0.027 C 
ATOM      3  C   UNL     1     -32.287  10.611  -0.890  1.00  0.00     0.039 C 
ENDROOT
BRANCH   2   4
ATOM      4  C   UNL     1     -33.978  13.496   1.114  1.00  0.00     0.032 C 
BRANCH   4   5
ATOM      5  C   UNL     1     -33.313  14.849   0.790  1.00  0.00     0.034 C 
BRANCH   5   6
ATOM      6  C   UNL     1     -32.515  15.417   1.951  1.00  0.00    -0.077 C 
ATOM      7  C   UNL     1     -33.244  15.665   3.246  1.00  0.00     0.039 C 
ATOM      8  C   UNL     1     -31.212  15.778   1.876  1.00  0.00    -0.023 CG0
ATOM      9  G   UNL     1     -30.280  15.605   0.692  1.00  0.00     0.000 G0
ENDBRANCH   5   6
ENDBRANCH   4   5
ENDBRANCH   2   4
BRANCH   1  10
ATOM     10  C   UNL     1     -31.211  12.199   0.867  1.00  0.00     0.111 C 
BRANCH  10  11
ATOM     11  C   UNL     1     -30.279  13.086   0.084  1.00  0.00     0.163 C 
ATOM     12  O   UNL     1     -30.063  12.801  -1.125  1.00  0.00    -0.294 OA
BRANCH  11  13
ATOM     13  C   UNL     1     -29.563  14.240   0.704  1.00  0.00    -0.002 C 
ATOM     14  C   UNL     1     -28.361  14.061   1.331  1.00  0.00    -0.069 C 
ATOM     15  C   UNL     1     -27.642  12.731   1.285  1.00  0.00     0.039 C 
ATOM     16  C   UNL     1     -27.688  15.175   2.104  1.00  0.00     0.039 C 
BRANCH  13  17
ATOM     17  C   UNL     1     -30.268  15.586   0.689  1.00  0.00     0.066 CG0
ATOM     18  G   UNL     1     -31.182  15.770   1.886  1.00  0.00     0.000 G0
ENDBRANCH  13  17
ENDBRANCH  11  13
ENDBRANCH  10  11
ENDBRANCH   1  10
TORSDOF 0
ENDMDL
