MODEL 1
REMARK VINA RESULT:    -3.993      0.000      0.000
REMARK INTER + INTRA:          -9.603
REMARK INTER:                  -7.260
REMARK INTRA:                  -2.343
REMARK UNBOUND:                -2.343
REMARK SMILES CCCCCCCCCCCCCCCC(=O)[O-]
REMARK SMILES IDX 9 1 10 2 11 3 12 4 13 5 14 6 15 7 16 8 17 9 18 10 8 11 7 12
REMARK SMILES IDX 6 13 5 14 4 15 3 16 2 17 1 18
REMARK H PARENT
REMARK Flexibility Score: inf
ROOT
ATOM      1  C   UNL     1     154.393 170.876 164.454  1.00  0.00     0.000 C 
ENDROOT
BRANCH   1   2
ATOM      2  C   UNL     1     153.461 171.189 163.278  1.00  0.00     0.000 C 
BRANCH   2   3
ATOM      3  C   UNL     1     153.090 172.680 163.252  1.00  0.00     0.000 C 
BRANCH   3   4
ATOM      4  C   UNL     1     153.922 173.478 162.235  1.00  0.00     0.000 C 
BRANCH   4   5
ATOM      5  C   UNL     1     153.731 174.999 162.380  1.00  0.00     0.000 C 
BRANCH   5   6
ATOM      6  C   UNL     1     154.471 175.792 161.291  1.00  0.00     0.006 C 
BRANCH   6   7
ATOM      7  C   UNL     1     155.872 175.236 161.006  1.00  0.00     0.053 C 
BRANCH   7   8
ATOM      8  C   UNL     1     155.957 174.735 159.598  1.00  0.00     0.041 C 
ATOM      9  O   UNL     1     157.009 174.180 159.186  1.00  0.00    -0.550 OA
ATOM     10  O   UNL     1     154.858 174.837 158.756  1.00  0.00    -0.550 OA
ENDBRANCH   7   8
ENDBRANCH   6   7
ENDBRANCH   5   6
ENDBRANCH   4   5
ENDBRANCH   3   4
ENDBRANCH   2   3
ENDBRANCH   1   2
BRANCH   1  11
ATOM     11  C   UNL     1     154.058 171.749 165.670  1.00  0.00     0.000 C 
BRANCH  11  12
ATOM     12  C   UNL     1     155.192 171.714 166.702  1.00  0.00    -0.000 C 
BRANCH  12  13
ATOM     13  C   UNL     1     155.889 173.080 166.797  1.00  0.00    -0.000 C 
BRANCH  13  14
ATOM     14  C   UNL     1     155.245 174.146 165.891  1.00  0.00    -0.000 C 
BRANCH  14  15
ATOM     15  C   UNL     1     156.238 174.977 165.057  1.00  0.00    -0.000 C 
BRANCH  15  16
ATOM     16  C   UNL     1     157.659 174.393 165.060  1.00  0.00    -0.000 C 
BRANCH  16  17
ATOM     17  C   UNL     1     158.097 174.010 163.642  1.00  0.00    -0.003 C 
ATOM     18  C   UNL     1     157.401 172.733 163.177  1.00  0.00     0.004 C 
ENDBRANCH  16  17
ENDBRANCH  15  16
ENDBRANCH  14  15
ENDBRANCH  13  14
ENDBRANCH  12  13
ENDBRANCH  11  12
ENDBRANCH   1  11
TORSDOF 14
ENDMDL
MODEL 2
REMARK VINA RESULT:    -3.841      1.313      2.049
REMARK INTER + INTRA:          -9.328
REMARK INTER:                  -6.986
REMARK INTRA:                  -2.341
REMARK UNBOUND:                -2.343
REMARK SMILES CCCCCCCCCCCCCCCC(=O)[O-]
REMARK SMILES IDX 9 1 10 2 11 3 12 4 13 5 14 6 15 7 16 8 17 9 18 10 8 11 7 12
REMARK SMILES IDX 6 13 5 14 4 15 3 16 2 17 1 18
REMARK H PARENT
REMARK Flexibility Score: inf
ROOT
ATOM      1  C   UNL     1     154.441 172.617 163.137  1.00  0.00     0.000 C 
ENDROOT
BRANCH   1   2
ATOM      2  C   UNL     1     153.349 173.684 162.995  1.00  0.00     0.000 C 
BRANCH   2   3
ATOM      3  C   UNL     1     153.870 174.902 162.217  1.00  0.00     0.000 C 
BRANCH   3   4
ATOM      4  C   UNL     1     155.180 174.610 161.468  1.00  0.00     0.000 C 
BRANCH   4   5
ATOM      5  C   UNL     1     156.000 175.884 161.193  1.00  0.00     0.000 C 
BRANCH   5   6
ATOM      6  C   UNL     1     157.188 175.629 160.252  1.00  0.00     0.006 C 
BRANCH   6   7
ATOM      7  C   UNL     1     157.077 174.289 159.514  1.00  0.00     0.053 C 
BRANCH   7   8
ATOM      8  C   UNL     1     157.184 174.498 158.035  1.00  0.00     0.041 C 
ATOM      9  O   UNL     1     156.837 173.586 157.240  1.00  0.00    -0.550 OA
ATOM     10  O   UNL     1     157.619 175.718 157.536  1.00  0.00    -0.550 OA
ENDBRANCH   7   8
ENDBRANCH   6   7
ENDBRANCH   5   6
ENDBRANCH   4   5
ENDBRANCH   3   4
ENDBRANCH   2   3
ENDBRANCH   1   2
BRANCH   1  11
ATOM     11  C   UNL     1     154.586 172.168 164.597  1.00  0.00     0.000 C 
BRANCH  11  12
ATOM     12  C   UNL     1     153.962 173.192 165.552  1.00  0.00    -0.000 C 
BRANCH  12  13
ATOM     13  C   UNL     1     155.034 173.835 166.445  1.00  0.00    -0.000 C 
BRANCH  13  14
ATOM     14  C   UNL     1     156.363 173.057 166.440  1.00  0.00    -0.000 C 
BRANCH  14  15
ATOM     15  C   UNL     1     157.587 173.863 165.969  1.00  0.00    -0.000 C 
BRANCH  15  16
ATOM     16  C   UNL     1     157.312 174.684 164.700  1.00  0.00    -0.000 C 
BRANCH  16  17
ATOM     17  C   UNL     1     158.369 174.404 163.626  1.00  0.00    -0.003 C 
ATOM     18  C   UNL     1     158.201 173.005 163.040  1.00  0.00     0.004 C 
ENDBRANCH  16  17
ENDBRANCH  15  16
ENDBRANCH  14  15
ENDBRANCH  13  14
ENDBRANCH  12  13
ENDBRANCH  11  12
ENDBRANCH   1  11
TORSDOF 14
ENDMDL
MODEL 3
REMARK VINA RESULT:    -3.836      2.915      5.940
REMARK INTER + INTRA:          -9.319
REMARK INTER:                  -7.255
REMARK INTRA:                  -2.064
REMARK UNBOUND:                -2.343
REMARK SMILES CCCCCCCCCCCCCCCC(=O)[O-]
REMARK SMILES IDX 9 1 10 2 11 3 12 4 13 5 14 6 15 7 16 8 17 9 18 10 8 11 7 12
REMARK SMILES IDX 6 13 5 14 4 15 3 16 2 17 1 18
REMARK H PARENT
REMARK Flexibility Score: inf
ROOT
ATOM      1  C   UNL     1     157.105 175.782 160.868  1.00  0.00     0.000 C 
ENDROOT
BRANCH   1   2
ATOM      2  C   UNL     1     157.826 175.115 162.045  1.00  0.00     0.000 C 
BRANCH   2   3
ATOM      3  C   UNL     1     157.688 173.586 161.979  1.00  0.00     0.000 C 
BRANCH   3   4
ATOM      4  C   UNL     1     157.947 172.910 163.334  1.00  0.00     0.000 C 
BRANCH   4   5
ATOM      5  C   UNL     1     158.289 173.921 164.443  1.00  0.00     0.000 C 
BRANCH   5   6
ATOM      6  C   UNL     1     157.072 174.274 165.314  1.00  0.00     0.006 C 
BRANCH   6   7
ATOM      7  C   UNL     1     157.048 173.497 166.636  1.00  0.00     0.053 C 
BRANCH   7   8
ATOM      8  C   UNL     1     155.683 172.937 166.888  1.00  0.00     0.041 C 
ATOM      9  O   UNL     1     154.681 173.699 166.908  1.00  0.00    -0.550 OA
ATOM     10  O   UNL     1     155.512 171.569 167.050  1.00  0.00    -0.550 OA
ENDBRANCH   7   8
ENDBRANCH   6   7
ENDBRANCH   5   6
ENDBRANCH   4   5
ENDBRANCH   3   4
ENDBRANCH   2   3
ENDBRANCH   1   2
BRANCH   1  11
ATOM     11  C   UNL     1     156.385 174.741 160.001  1.00  0.00     0.000 C 
BRANCH  11  12
ATOM     12  C   UNL     1     154.868 174.964 160.018  1.00  0.00    -0.000 C 
BRANCH  12  13
ATOM     13  C   UNL     1     154.457 175.850 161.203  1.00  0.00    -0.000 C 
BRANCH  13  14
ATOM     14  C   UNL     1     153.449 175.164 162.143  1.00  0.00    -0.000 C 
BRANCH  14  15
ATOM     15  C   UNL     1     154.078 174.341 163.282  1.00  0.00    -0.000 C 
BRANCH  15  16
ATOM     16  C   UNL     1     154.344 172.880 162.890  1.00  0.00    -0.000 C 
BRANCH  16  17
ATOM     17  C   UNL     1     153.762 171.917 163.932  1.00  0.00    -0.003 C 
ATOM     18  C   UNL     1     154.481 170.572 163.902  1.00  0.00     0.004 C 
ENDBRANCH  16  17
ENDBRANCH  15  16
ENDBRANCH  14  15
ENDBRANCH  13  14
ENDBRANCH  12  13
ENDBRANCH  11  12
ENDBRANCH   1  11
TORSDOF 14
ENDMDL
MODEL 4
REMARK VINA RESULT:    -3.830      2.926      4.974
REMARK INTER + INTRA:          -9.308
REMARK INTER:                  -7.225
REMARK INTRA:                  -2.083
REMARK UNBOUND:                -2.343
REMARK SMILES CCCCCCCCCCCCCCCC(=O)[O-]
REMARK SMILES IDX 9 1 10 2 11 3 12 4 13 5 14 6 15 7 16 8 17 9 18 10 8 11 7 12
REMARK SMILES IDX 6 13 5 14 4 15 3 16 2 17 1 18
REMARK H PARENT
REMARK Flexibility Score: inf
ROOT
ATOM      1  C   UNL     1     154.554 171.894 163.643  1.00  0.00     0.000 C 
ENDROOT
BRANCH   1   2
ATOM      2  C   UNL     1     154.393 171.456 165.104  1.00  0.00     0.000 C 
BRANCH   2   3
ATOM      3  C   UNL     1     155.346 172.239 166.020  1.00  0.00     0.000 C 
BRANCH   3   4
ATOM      4  C   UNL     1     155.063 173.750 166.015  1.00  0.00     0.000 C 
BRANCH   4   5
ATOM      5  C   UNL     1     156.289 174.579 165.590  1.00  0.00     0.000 C 
BRANCH   5   6
ATOM      6  C   UNL     1     157.617 173.891 165.945  1.00  0.00     0.006 C 
BRANCH   6   7
ATOM      7  C   UNL     1     158.837 174.758 165.612  1.00  0.00     0.053 C 
BRANCH   7   8
ATOM      8  C   UNL     1     160.093 174.098 166.091  1.00  0.00     0.041 C 
ATOM      9  O   UNL     1     160.783 173.402 165.302  1.00  0.00    -0.550 OA
ATOM     10  O   UNL     1     160.525 174.293 167.396  1.00  0.00    -0.550 OA
ENDBRANCH   7   8
ENDBRANCH   6   7
ENDBRANCH   5   6
ENDBRANCH   4   5
ENDBRANCH   3   4
ENDBRANCH   2   3
ENDBRANCH   1   2
BRANCH   1  11
ATOM     11  C   UNL     1     153.190 172.166 162.996  1.00  0.00     0.000 C 
BRANCH  11  12
ATOM     12  C   UNL     1     153.269 173.348 162.021  1.00  0.00    -0.000 C 
BRANCH  12  13
ATOM     13  C   UNL     1     153.699 174.631 162.748  1.00  0.00    -0.000 C 
BRANCH  13  14
ATOM     14  C   UNL     1     154.451 175.615 161.833  1.00  0.00    -0.000 C 
BRANCH  14  15
ATOM     15  C   UNL     1     155.953 175.770 162.139  1.00  0.00    -0.000 C 
BRANCH  15  16
ATOM     16  C   UNL     1     156.849 175.039 161.127  1.00  0.00    -0.000 C 
BRANCH  16  17
ATOM     17  C   UNL     1     158.106 174.487 161.809  1.00  0.00    -0.003 C 
ATOM     18  C   UNL     1     157.829 173.135 162.462  1.00  0.00     0.004 C 
ENDBRANCH  16  17
ENDBRANCH  15  16
ENDBRANCH  14  15
ENDBRANCH  13  14
ENDBRANCH  12  13
ENDBRANCH  11  12
ENDBRANCH   1  11
TORSDOF 14
ENDMDL
MODEL 5
REMARK VINA RESULT:    -3.705      1.278      3.720
REMARK INTER + INTRA:          -9.081
REMARK INTER:                  -7.281
REMARK INTRA:                  -1.800
REMARK UNBOUND:                -2.343
REMARK SMILES CCCCCCCCCCCCCCCC(=O)[O-]
REMARK SMILES IDX 9 1 10 2 11 3 12 4 13 5 14 6 15 7 16 8 17 9 18 10 8 11 7 12
REMARK SMILES IDX 6 13 5 14 4 15 3 16 2 17 1 18
REMARK H PARENT
REMARK Flexibility Score: inf
ROOT
ATOM      1  C   UNL     1     156.398 173.301 165.673  1.00  0.00     0.000 C 
ENDROOT
BRANCH   1   2
ATOM      2  C   UNL     1     156.497 174.759 165.209  1.00  0.00     0.000 C 
BRANCH   2   3
ATOM      3  C   UNL     1     157.867 175.042 164.574  1.00  0.00     0.000 C 
BRANCH   3   4
ATOM      4  C   UNL     1     158.647 173.756 164.254  1.00  0.00     0.000 C 
BRANCH   4   5
ATOM      5  C   UNL     1     158.803 173.522 162.740  1.00  0.00     0.000 C 
BRANCH   5   6
ATOM      6  C   UNL     1     157.481 173.699 161.977  1.00  0.00     0.006 C 
BRANCH   6   7
ATOM      7  C   UNL     1     157.600 174.693 160.815  1.00  0.00     0.053 C 
BRANCH   7   8
ATOM      8  C   UNL     1     156.608 174.364 159.743  1.00  0.00     0.041 C 
ATOM      9  O   UNL     1     156.999 173.914 158.635  1.00  0.00    -0.550 OA
ATOM     10  O   UNL     1     155.249 174.508 159.987  1.00  0.00    -0.550 OA
ENDBRANCH   7   8
ENDBRANCH   6   7
ENDBRANCH   5   6
ENDBRANCH   4   5
ENDBRANCH   3   4
ENDBRANCH   2   3
ENDBRANCH   1   2
BRANCH   1  11
ATOM     11  C   UNL     1     155.640 173.196 167.003  1.00  0.00     0.000 C 
BRANCH  11  12
ATOM     12  C   UNL     1     155.659 171.759 167.536  1.00  0.00    -0.000 C 
BRANCH  12  13
ATOM     13  C   UNL     1     154.717 170.859 166.722  1.00  0.00    -0.000 C 
BRANCH  13  14
ATOM     14  C   UNL     1     153.315 171.470 166.539  1.00  0.00    -0.000 C 
BRANCH  14  15
ATOM     15  C   UNL     1     152.875 171.662 165.075  1.00  0.00    -0.000 C 
BRANCH  15  16
ATOM     16  C   UNL     1     153.993 171.355 164.068  1.00  0.00    -0.000 C 
BRANCH  16  17
ATOM     17  C   UNL     1     153.927 172.308 162.869  1.00  0.00    -0.003 C 
ATOM     18  C   UNL     1     153.572 173.725 163.310  1.00  0.00     0.004 C 
ENDBRANCH  16  17
ENDBRANCH  15  16
ENDBRANCH  14  15
ENDBRANCH  13  14
ENDBRANCH  12  13
ENDBRANCH  11  12
ENDBRANCH   1  11
TORSDOF 14
ENDMDL
MODEL 6
REMARK VINA RESULT:    -3.649      2.905      4.835
REMARK INTER + INTRA:          -8.979
REMARK INTER:                  -7.006
REMARK INTRA:                  -1.973
REMARK UNBOUND:                -2.343
REMARK SMILES CCCCCCCCCCCCCCCC(=O)[O-]
REMARK SMILES IDX 9 1 10 2 11 3 12 4 13 5 14 6 15 7 16 8 17 9 18 10 8 11 7 12
REMARK SMILES IDX 6 13 5 14 4 15 3 16 2 17 1 18
REMARK H PARENT
REMARK Flexibility Score: inf
ROOT
ATOM      1  C   UNL     1     153.979 171.531 165.673  1.00  0.00     0.000 C 
ENDROOT
BRANCH   1   2
ATOM      2  C   UNL     1     155.222 171.711 166.553  1.00  0.00     0.000 C 
BRANCH   2   3
ATOM      3  C   UNL     1     155.416 173.187 166.934  1.00  0.00     0.000 C 
BRANCH   3   4
ATOM      4  C   UNL     1     154.993 174.148 165.811  1.00  0.00     0.000 C 
BRANCH   4   5
ATOM      5  C   UNL     1     156.196 174.811 165.116  1.00  0.00     0.000 C 
BRANCH   5   6
ATOM      6  C   UNL     1     157.380 173.847 164.942  1.00  0.00     0.006 C 
BRANCH   6   7
ATOM      7  C   UNL     1     158.689 174.575 164.610  1.00  0.00     0.053 C 
BRANCH   7   8
ATOM      8  C   UNL     1     159.531 174.722 165.839  1.00  0.00     0.041 C 
ATOM      9  O   UNL     1     160.332 175.687 165.947  1.00  0.00    -0.550 OA
ATOM     10  O   UNL     1     159.394 173.820 166.886  1.00  0.00    -0.550 OA
ENDBRANCH   7   8
ENDBRANCH   6   7
ENDBRANCH   5   6
ENDBRANCH   4   5
ENDBRANCH   3   4
ENDBRANCH   2   3
ENDBRANCH   1   2
BRANCH   1  11
ATOM     11  C   UNL     1     154.348 170.906 164.322  1.00  0.00     0.000 C 
BRANCH  11  12
ATOM     12  C   UNL     1     153.269 171.192 163.270  1.00  0.00    -0.000 C 
BRANCH  12  13
ATOM     13  C   UNL     1     152.875 172.677 163.278  1.00  0.00    -0.000 C 
BRANCH  13  14
ATOM     14  C   UNL     1     153.456 173.458 162.086  1.00  0.00    -0.000 C 
BRANCH  14  15
ATOM     15  C   UNL     1     153.678 174.961 162.338  1.00  0.00    -0.000 C 
BRANCH  15  16
ATOM     16  C   UNL     1     154.965 175.494 161.690  1.00  0.00    -0.000 C 
BRANCH  16  17
ATOM     17  C   UNL     1     155.730 174.369 160.983  1.00  0.00    -0.003 C 
ATOM     18  C   UNL     1     157.236 174.527 161.169  1.00  0.00     0.004 C 
ENDBRANCH  16  17
ENDBRANCH  15  16
ENDBRANCH  14  15
ENDBRANCH  13  14
ENDBRANCH  12  13
ENDBRANCH  11  12
ENDBRANCH   1  11
TORSDOF 14
ENDMDL
MODEL 7
REMARK VINA RESULT:    -3.550      3.878      6.756
REMARK INTER + INTRA:          -8.798
REMARK INTER:                  -6.937
REMARK INTRA:                  -1.862
REMARK UNBOUND:                -2.343
REMARK SMILES CCCCCCCCCCCCCCCC(=O)[O-]
REMARK SMILES IDX 9 1 10 2 11 3 12 4 13 5 14 6 15 7 16 8 17 9 18 10 8 11 7 12
REMARK SMILES IDX 6 13 5 14 4 15 3 16 2 17 1 18
REMARK H PARENT
REMARK Flexibility Score: inf
ROOT
ATOM      1  C   UNL     1     159.228 173.607 163.756  1.00  0.00     0.000 C 
ENDROOT
BRANCH   1   2
ATOM      2  C   UNL     1     158.753 175.012 164.145  1.00  0.00     0.000 C 
BRANCH   2   3
ATOM      3  C   UNL     1     159.340 175.434 165.501  1.00  0.00     0.000 C 
BRANCH   3   4
ATOM      4  C   UNL     1     159.563 174.242 166.446  1.00  0.00     0.000 C 
BRANCH   4   5
ATOM      5  C   UNL     1     160.722 174.478 167.431  1.00  0.00     0.000 C 
BRANCH   5   6
ATOM      6  C   UNL     1     161.679 175.584 166.960  1.00  0.00     0.006 C 
BRANCH   6   7
ATOM      7  C   UNL     1     163.097 175.063 166.693  1.00  0.00     0.053 C 
BRANCH   7   8
ATOM      8  C   UNL     1     163.078 174.034 165.606  1.00  0.00     0.041 C 
ATOM      9  O   UNL     1     162.789 174.365 164.426  1.00  0.00    -0.550 OA
ATOM     10  O   UNL     1     163.427 172.720 165.886  1.00  0.00    -0.550 OA
ENDBRANCH   7   8
ENDBRANCH   6   7
ENDBRANCH   5   6
ENDBRANCH   4   5
ENDBRANCH   3   4
ENDBRANCH   2   3
ENDBRANCH   1   2
BRANCH   1  11
ATOM     11  C   UNL     1     158.200 172.907 162.857  1.00  0.00     0.000 C 
BRANCH  11  12
ATOM     12  C   UNL     1     156.830 173.589 162.954  1.00  0.00    -0.000 C 
BRANCH  12  13
ATOM     13  C   UNL     1     155.782 172.632 163.541  1.00  0.00    -0.000 C 
BRANCH  13  14
ATOM     14  C   UNL     1     154.844 173.318 164.552  1.00  0.00    -0.000 C 
BRANCH  14  15
ATOM     15  C   UNL     1     155.540 173.896 165.797  1.00  0.00    -0.000 C 
BRANCH  15  16
ATOM     16  C   UNL     1     156.262 172.827 166.632  1.00  0.00    -0.000 C 
BRANCH  16  17
ATOM     17  C   UNL     1     155.274 171.776 167.149  1.00  0.00    -0.003 C 
ATOM     18  C   UNL     1     155.950 170.817 168.125  1.00  0.00     0.004 C 
ENDBRANCH  16  17
ENDBRANCH  15  16
ENDBRANCH  14  15
ENDBRANCH  13  14
ENDBRANCH  12  13
ENDBRANCH  11  12
ENDBRANCH   1  11
TORSDOF 14
ENDMDL
MODEL 8
REMARK VINA RESULT:    -3.537      2.905      5.936
REMARK INTER + INTRA:          -8.775
REMARK INTER:                  -6.854
REMARK INTRA:                  -1.921
REMARK UNBOUND:                -2.343
REMARK SMILES CCCCCCCCCCCCCCCC(=O)[O-]
REMARK SMILES IDX 9 1 10 2 11 3 12 4 13 5 14 6 15 7 16 8 17 9 18 10 8 11 7 12
REMARK SMILES IDX 6 13 5 14 4 15 3 16 2 17 1 18
REMARK H PARENT
REMARK Flexibility Score: inf
ROOT
ATOM      1  C   UNL     1     157.002 175.842 160.983  1.00  0.00     0.000 C 
ENDROOT
BRANCH   1   2
ATOM      2  C   UNL     1     157.794 175.345 162.199  1.00  0.00     0.000 C 
BRANCH   2   3
ATOM      3  C   UNL     1     158.056 173.835 162.103  1.00  0.00     0.000 C 
BRANCH   3   4
ATOM      4  C   UNL     1     157.723 173.093 163.408  1.00  0.00     0.000 C 
BRANCH   4   5
ATOM      5  C   UNL     1     157.235 174.041 164.518  1.00  0.00     0.000 C 
BRANCH   5   6
ATOM      6  C   UNL     1     158.216 174.121 165.698  1.00  0.00     0.006 C 
BRANCH   6   7
ATOM      7  C   UNL     1     159.413 175.034 165.408  1.00  0.00     0.053 C 
BRANCH   7   8
ATOM      8  C   UNL     1     160.686 174.247 165.425  1.00  0.00     0.041 C 
ATOM      9  O   UNL     1     161.168 173.845 166.517  1.00  0.00    -0.550 OA
ATOM     10  O   UNL     1     161.313 173.914 164.232  1.00  0.00    -0.550 OA
ENDBRANCH   7   8
ENDBRANCH   6   7
ENDBRANCH   5   6
ENDBRANCH   4   5
ENDBRANCH   3   4
ENDBRANCH   2   3
ENDBRANCH   1   2
BRANCH   1  11
ATOM     11  C   UNL     1     156.446 174.665 160.170  1.00  0.00     0.000 C 
BRANCH  11  12
ATOM     12  C   UNL     1     154.915 174.709 160.116  1.00  0.00    -0.000 C 
BRANCH  12  13
ATOM     13  C   UNL     1     154.358 175.719 161.130  1.00  0.00    -0.000 C 
BRANCH  13  14
ATOM     14  C   UNL     1     153.290 175.110 162.058  1.00  0.00    -0.000 C 
BRANCH  14  15
ATOM     15  C   UNL     1     153.844 174.322 163.259  1.00  0.00    -0.000 C 
BRANCH  15  16
ATOM     16  C   UNL     1     154.169 172.860 162.918  1.00  0.00    -0.000 C 
BRANCH  16  17
ATOM     17  C   UNL     1     153.682 171.918 164.026  1.00  0.00    -0.003 C 
ATOM     18  C   UNL     1     154.467 170.610 164.022  1.00  0.00     0.004 C 
ENDBRANCH  16  17
ENDBRANCH  15  16
ENDBRANCH  14  15
ENDBRANCH  13  14
ENDBRANCH  12  13
ENDBRANCH  11  12
ENDBRANCH   1  11
TORSDOF 14
ENDMDL
MODEL 9
REMARK VINA RESULT:    -3.496      2.346      5.485
REMARK INTER + INTRA:          -8.700
REMARK INTER:                  -6.736
REMARK INTRA:                  -1.964
REMARK UNBOUND:                -2.343
REMARK SMILES CCCCCCCCCCCCCCCC(=O)[O-]
REMARK SMILES IDX 9 1 10 2 11 3 12 4 13 5 14 6 15 7 16 8 17 9 18 10 8 11 7 12
REMARK SMILES IDX 6 13 5 14 4 15 3 16 2 17 1 18
REMARK H PARENT
REMARK Flexibility Score: inf
ROOT
ATOM      1  C   UNL     1     157.747 175.285 163.110  1.00  0.00     0.000 C 
ENDROOT
BRANCH   1   2
ATOM      2  C   UNL     1     158.120 175.383 164.594  1.00  0.00     0.000 C 
BRANCH   2   3
ATOM      3  C   UNL     1     158.021 174.010 165.277  1.00  0.00     0.000 C 
BRANCH   3   4
ATOM      4  C   UNL     1     156.829 173.915 166.243  1.00  0.00     0.000 C 
BRANCH   4   5
ATOM      5  C   UNL     1     155.914 172.716 165.935  1.00  0.00     0.000 C 
BRANCH   5   6
ATOM      6  C   UNL     1     154.522 173.147 165.445  1.00  0.00     0.006 C 
BRANCH   6   7
ATOM      7  C   UNL     1     153.572 171.959 165.249  1.00  0.00     0.053 C 
BRANCH   7   8
ATOM      8  C   UNL     1     153.747 171.370 163.885  1.00  0.00     0.041 C 
ATOM      9  O   UNL     1     154.485 170.363 163.720  1.00  0.00    -0.550 OA
ATOM     10  O   UNL     1     153.057 171.902 162.804  1.00  0.00    -0.550 OA
ENDBRANCH   7   8
ENDBRANCH   6   7
ENDBRANCH   5   6
ENDBRANCH   4   5
ENDBRANCH   3   4
ENDBRANCH   2   3
ENDBRANCH   1   2
BRANCH   1  11
ATOM     11  C   UNL     1     157.687 173.822 162.653  1.00  0.00     0.000 C 
BRANCH  11  12
ATOM     12  C   UNL     1     156.252 173.416 162.293  1.00  0.00    -0.000 C 
BRANCH  12  13
ATOM     13  C   UNL     1     155.356 174.653 162.135  1.00  0.00    -0.000 C 
BRANCH  13  14
ATOM     14  C   UNL     1     154.811 174.820 160.704  1.00  0.00    -0.000 C 
BRANCH  14  15
ATOM     15  C   UNL     1     155.478 175.937 159.880  1.00  0.00    -0.000 C 
BRANCH  15  16
ATOM     16  C   UNL     1     156.925 175.607 159.483  1.00  0.00    -0.000 C 
BRANCH  16  17
ATOM     17  C   UNL     1     156.990 174.294 158.695  1.00  0.00    -0.003 C 
ATOM     18  C   UNL     1     157.339 174.547 157.230  1.00  0.00     0.004 C 
ENDBRANCH  16  17
ENDBRANCH  15  16
ENDBRANCH  14  15
ENDBRANCH  13  14
ENDBRANCH  12  13
ENDBRANCH  11  12
ENDBRANCH   1  11
TORSDOF 14
ENDMDL
