MODEL 1
REMARK VINA RESULT:    -4.832      0.000      0.000
REMARK INTER + INTRA:          -8.888
REMARK INTER:                  -7.657
REMARK INTRA:                  -1.231
REMARK UNBOUND:                -1.231
REMARK SMILES CCCCCCCCCCCC(=O)[O-]
REMARK SMILES IDX 7 1 8 2 9 3 10 4 11 5 12 6 13 7 14 8 6 9 5 10 4 11 3 12 2 13
REMARK SMILES IDX 1 14
REMARK H PARENT
REMARK Flexibility Score: inf
ROOT
ATOM      1  C   UNL     1     104.722 -81.913  23.105  1.00  0.00     0.000 C 
ENDROOT
BRANCH   1   2
ATOM      2  C   UNL     1     106.087 -81.438  22.594  1.00  0.00     0.000 C 
BRANCH   2   3
ATOM      3  C   UNL     1     107.059 -82.618  22.441  1.00  0.00     0.000 C 
BRANCH   3   4
ATOM      4  C   UNL     1     107.366 -83.310  23.779  1.00  0.00     0.006 C 
BRANCH   4   5
ATOM      5  C   UNL     1     108.039 -82.372  24.789  1.00  0.00     0.053 C 
BRANCH   5   6
ATOM      6  C   UNL     1     107.206 -82.255  26.026  1.00  0.00     0.041 C 
ATOM      7  O   UNL     1     107.291 -83.127  26.931  1.00  0.00    -0.550 OA
ATOM      8  O   UNL     1     106.372 -81.159  26.202  1.00  0.00    -0.550 OA
ENDBRANCH   5   6
ENDBRANCH   4   5
ENDBRANCH   3   4
ENDBRANCH   2   3
ENDBRANCH   1   2
BRANCH   1   9
ATOM      9  C   UNL     1     103.680 -81.907  21.976  1.00  0.00     0.000 C 
BRANCH   9  10
ATOM     10  C   UNL     1     103.495 -83.291  21.331  1.00  0.00    -0.000 C 
BRANCH  10  11
ATOM     11  C   UNL     1     103.556 -83.240  19.795  1.00  0.00    -0.000 C 
BRANCH  11  12
ATOM     12  C   UNL     1     104.908 -83.715  19.234  1.00  0.00    -0.000 C 
BRANCH  12  13
ATOM     13  C   UNL     1     105.862 -82.589  18.797  1.00  0.00    -0.003 C 
ATOM     14  C   UNL     1     105.136 -81.290  18.449  1.00  0.00     0.004 C 
ENDBRANCH  12  13
ENDBRANCH  11  12
ENDBRANCH  10  11
ENDBRANCH   9  10
ENDBRANCH   1   9
TORSDOF 10
ENDMDL
MODEL 2
REMARK VINA RESULT:    -4.710      9.276     11.390
REMARK INTER + INTRA:          -8.694
REMARK INTER:                  -7.698
REMARK INTRA:                  -0.996
REMARK UNBOUND:                -1.231
REMARK SMILES CCCCCCCCCCCC(=O)[O-]
REMARK SMILES IDX 7 1 8 2 9 3 10 4 11 5 12 6 13 7 14 8 6 9 5 10 4 11 3 12 2 13
REMARK SMILES IDX 1 14
REMARK H PARENT
REMARK Flexibility Score: inf
ROOT
ATOM      1  C   UNL     1     118.642 -82.505  22.247  1.00  0.00     0.000 C 
ENDROOT
BRANCH   1   2
ATOM      2  C   UNL     1     117.721 -83.359  21.368  1.00  0.00     0.000 C 
BRANCH   2   3
ATOM      3  C   UNL     1     116.247 -83.140  21.740  1.00  0.00     0.000 C 
BRANCH   3   4
ATOM      4  C   UNL     1     115.361 -82.863  20.514  1.00  0.00     0.006 C 
BRANCH   4   5
ATOM      5  C   UNL     1     114.142 -83.793  20.444  1.00  0.00     0.053 C 
BRANCH   5   6
ATOM      6  C   UNL     1     112.981 -83.185  21.164  1.00  0.00     0.041 C 
ATOM      7  O   UNL     1     112.422 -82.153  20.708  1.00  0.00    -0.550 OA
ATOM      8  O   UNL     1     112.485 -83.784  22.315  1.00  0.00    -0.550 OA
ENDBRANCH   5   6
ENDBRANCH   4   5
ENDBRANCH   3   4
ENDBRANCH   2   3
ENDBRANCH   1   2
BRANCH   1   9
ATOM      9  C   UNL     1     119.021 -81.196  21.539  1.00  0.00     0.000 C 
BRANCH   9  10
ATOM     10  C   UNL     1     118.839 -79.960  22.437  1.00  0.00    -0.000 C 
BRANCH  10  11
ATOM     11  C   UNL     1     117.960 -78.880  21.784  1.00  0.00    -0.000 C 
BRANCH  11  12
ATOM     12  C   UNL     1     116.709 -79.460  21.100  1.00  0.00    -0.000 C 
BRANCH  12  13
ATOM     13  C   UNL     1     115.381 -78.791  21.498  1.00  0.00    -0.003 C 
ATOM     14  C   UNL     1     114.250 -79.071  20.509  1.00  0.00     0.004 C 
ENDBRANCH  12  13
ENDBRANCH  11  12
ENDBRANCH  10  11
ENDBRANCH   9  10
ENDBRANCH   1   9
TORSDOF 10
ENDMDL
MODEL 3
REMARK VINA RESULT:    -4.692     10.564     12.451
REMARK INTER + INTRA:          -8.666
REMARK INTER:                  -7.583
REMARK INTRA:                  -1.084
REMARK UNBOUND:                -1.231
REMARK SMILES CCCCCCCCCCCC(=O)[O-]
REMARK SMILES IDX 7 1 8 2 9 3 10 4 11 5 12 6 13 7 14 8 6 9 5 10 4 11 3 12 2 13
REMARK SMILES IDX 1 14
REMARK H PARENT
REMARK Flexibility Score: inf
ROOT
ATOM      1  C   UNL     1     114.879 -81.742  20.891  1.00  0.00     0.000 C 
ENDROOT
BRANCH   1   2
ATOM      2  C   UNL     1     116.034 -82.101  21.833  1.00  0.00     0.000 C 
BRANCH   2   3
ATOM      3  C   UNL     1     116.769 -83.360  21.350  1.00  0.00     0.000 C 
BRANCH   3   4
ATOM      4  C   UNL     1     118.294 -83.175  21.299  1.00  0.00     0.006 C 
BRANCH   4   5
ATOM      5  C   UNL     1     118.779 -82.023  22.189  1.00  0.00     0.053 C 
BRANCH   5   6
ATOM      6  C   UNL     1     119.646 -82.546  23.290  1.00  0.00     0.041 C 
ATOM      7  O   UNL     1     119.510 -83.731  23.695  1.00  0.00    -0.550 OA
ATOM      8  O   UNL     1     120.638 -81.741  23.836  1.00  0.00    -0.550 OA
ENDBRANCH   5   6
ENDBRANCH   4   5
ENDBRANCH   3   4
ENDBRANCH   2   3
ENDBRANCH   1   2
BRANCH   1   9
ATOM      9  C   UNL     1     115.077 -80.346  20.284  1.00  0.00     0.000 C 
BRANCH   9  10
ATOM     10  C   UNL     1     116.233 -79.571  20.940  1.00  0.00    -0.000 C 
BRANCH  10  11
ATOM     11  C   UNL     1     115.766 -78.265  21.603  1.00  0.00    -0.000 C 
BRANCH  11  12
ATOM     12  C   UNL     1     116.788 -77.705  22.608  1.00  0.00    -0.000 C 
BRANCH  12  13
ATOM     13  C   UNL     1     118.202 -78.305  22.499  1.00  0.00    -0.003 C 
ATOM     14  C   UNL     1     118.861 -78.536  23.858  1.00  0.00     0.004 C 
ENDBRANCH  12  13
ENDBRANCH  11  12
ENDBRANCH  10  11
ENDBRANCH   9  10
ENDBRANCH   1   9
TORSDOF 10
ENDMDL
MODEL 4
REMARK VINA RESULT:    -4.688      1.911      2.201
REMARK INTER + INTRA:          -8.660
REMARK INTER:                  -7.686
REMARK INTRA:                  -0.974
REMARK UNBOUND:                -1.231
REMARK SMILES CCCCCCCCCCCC(=O)[O-]
REMARK SMILES IDX 7 1 8 2 9 3 10 4 11 5 12 6 13 7 14 8 6 9 5 10 4 11 3 12 2 13
REMARK SMILES IDX 1 14
REMARK H PARENT
REMARK Flexibility Score: inf
ROOT
ATOM      1  C   UNL     1     105.645 -81.612  23.028  1.00  0.00     0.000 C 
ENDROOT
BRANCH   1   2
ATOM      2  C   UNL     1     106.064 -81.793  24.492  1.00  0.00     0.000 C 
BRANCH   2   3
ATOM      3  C   UNL     1     107.043 -82.967  24.644  1.00  0.00     0.000 C 
BRANCH   3   4
ATOM      4  C   UNL     1     107.804 -83.276  23.345  1.00  0.00     0.006 C 
BRANCH   4   5
ATOM      5  C   UNL     1     109.313 -83.025  23.470  1.00  0.00     0.053 C 
BRANCH   5   6
ATOM      6  C   UNL     1     109.571 -81.633  23.951  1.00  0.00     0.041 C 
ATOM      7  O   UNL     1     110.106 -81.439  25.074  1.00  0.00    -0.550 OA
ATOM      8  O   UNL     1     109.264 -80.548  23.138  1.00  0.00    -0.550 OA
ENDBRANCH   5   6
ENDBRANCH   4   5
ENDBRANCH   3   4
ENDBRANCH   2   3
ENDBRANCH   1   2
BRANCH   1   9
ATOM      9  C   UNL     1     104.205 -82.099  22.804  1.00  0.00     0.000 C 
BRANCH   9  10
ATOM     10  C   UNL     1     104.143 -83.515  22.207  1.00  0.00    -0.000 C 
BRANCH  10  11
ATOM     11  C   UNL     1     104.911 -83.630  20.879  1.00  0.00    -0.000 C 
BRANCH  11  12
ATOM     12  C   UNL     1     104.248 -82.844  19.735  1.00  0.00    -0.000 C 
BRANCH  12  13
ATOM     13  C   UNL     1     105.211 -81.996  18.885  1.00  0.00    -0.003 C 
ATOM     14  C   UNL     1     106.265 -82.832  18.160  1.00  0.00     0.004 C 
ENDBRANCH  12  13
ENDBRANCH  11  12
ENDBRANCH  10  11
ENDBRANCH   9  10
ENDBRANCH   1   9
TORSDOF 10
ENDMDL
MODEL 5
REMARK VINA RESULT:    -4.679      9.561     11.408
REMARK INTER + INTRA:          -8.646
REMARK INTER:                  -7.573
REMARK INTRA:                  -1.073
REMARK UNBOUND:                -1.231
REMARK SMILES CCCCCCCCCCCC(=O)[O-]
REMARK SMILES IDX 7 1 8 2 9 3 10 4 11 5 12 6 13 7 14 8 6 9 5 10 4 11 3 12 2 13
REMARK SMILES IDX 1 14
REMARK H PARENT
REMARK Flexibility Score: inf
ROOT
ATOM      1  C   UNL     1     119.210 -81.544  22.508  1.00  0.00     0.000 C 
ENDROOT
BRANCH   1   2
ATOM      2  C   UNL     1     118.978 -80.819  21.177  1.00  0.00     0.000 C 
BRANCH   2   3
ATOM      3  C   UNL     1     118.248 -79.486  21.397  1.00  0.00     0.000 C 
BRANCH   3   4
ATOM      4  C   UNL     1     116.758 -79.673  21.727  1.00  0.00     0.006 C 
BRANCH   4   5
ATOM      5  C   UNL     1     115.873 -79.693  20.474  1.00  0.00     0.053 C 
BRANCH   5   6
ATOM      6  C   UNL     1     114.443 -79.455  20.842  1.00  0.00     0.041 C 
ATOM      7  O   UNL     1     114.063 -79.602  22.034  1.00  0.00    -0.550 OA
ATOM      8  O   UNL     1     113.539 -79.025  19.879  1.00  0.00    -0.550 OA
ENDBRANCH   5   6
ENDBRANCH   4   5
ENDBRANCH   3   4
ENDBRANCH   2   3
ENDBRANCH   1   2
BRANCH   1   9
ATOM      9  C   UNL     1     118.643 -82.971  22.464  1.00  0.00     0.000 C 
BRANCH   9  10
ATOM     10  C   UNL     1     117.771 -83.225  21.222  1.00  0.00    -0.000 C 
BRANCH  10  11
ATOM     11  C   UNL     1     116.280 -83.376  21.569  1.00  0.00    -0.000 C 
BRANCH  11  12
ATOM     12  C   UNL     1     115.362 -83.217  20.344  1.00  0.00    -0.000 C 
BRANCH  12  13
ATOM     13  C   UNL     1     114.014 -83.954  20.442  1.00  0.00    -0.003 C 
ATOM     14  C   UNL     1     112.972 -83.189  21.258  1.00  0.00     0.004 C 
ENDBRANCH  12  13
ENDBRANCH  11  12
ENDBRANCH  10  11
ENDBRANCH   9  10
ENDBRANCH   1   9
TORSDOF 10
ENDMDL
MODEL 6
REMARK VINA RESULT:    -4.622     10.116     11.953
REMARK INTER + INTRA:          -8.555
REMARK INTER:                  -7.289
REMARK INTRA:                  -1.266
REMARK UNBOUND:                -1.231
REMARK SMILES CCCCCCCCCCCC(=O)[O-]
REMARK SMILES IDX 7 1 8 2 9 3 10 4 11 5 12 6 13 7 14 8 6 9 5 10 4 11 3 12 2 13
REMARK SMILES IDX 1 14
REMARK H PARENT
REMARK Flexibility Score: inf
ROOT
ATOM      1  C   UNL     1     114.757 -81.291  20.914  1.00  0.00     0.000 C 
ENDROOT
BRANCH   1   2
ATOM      2  C   UNL     1     115.701 -80.178  20.442  1.00  0.00     0.000 C 
BRANCH   2   3
ATOM      3  C   UNL     1     115.480 -78.889  21.248  1.00  0.00     0.000 C 
BRANCH   3   4
ATOM      4  C   UNL     1     116.268 -78.873  22.568  1.00  0.00     0.006 C 
BRANCH   4   5
ATOM      5  C   UNL     1     117.295 -77.735  22.629  1.00  0.00     0.053 C 
BRANCH   5   6
ATOM      6  C   UNL     1     116.897 -76.728  23.661  1.00  0.00     0.041 C 
ATOM      7  O   UNL     1     117.730 -75.879  24.073  1.00  0.00    -0.550 OA
ATOM      8  O   UNL     1     115.591 -76.697  24.135  1.00  0.00    -0.550 OA
ENDBRANCH   5   6
ENDBRANCH   4   5
ENDBRANCH   3   4
ENDBRANCH   2   3
ENDBRANCH   1   2
BRANCH   1   9
ATOM      9  C   UNL     1     115.471 -82.242  21.887  1.00  0.00     0.000 C 
BRANCH   9  10
ATOM     10  C   UNL     1     116.204 -83.386  21.167  1.00  0.00    -0.000 C 
BRANCH  10  11
ATOM     11  C   UNL     1     117.734 -83.245  21.241  1.00  0.00    -0.000 C 
BRANCH  11  12
ATOM     12  C   UNL     1     118.218 -82.668  22.583  1.00  0.00    -0.000 C 
BRANCH  12  13
ATOM     13  C   UNL     1     119.100 -81.411  22.472  1.00  0.00    -0.003 C 
ATOM     14  C   UNL     1     119.210 -80.882  21.042  1.00  0.00     0.004 C 
ENDBRANCH  12  13
ENDBRANCH  11  12
ENDBRANCH  10  11
ENDBRANCH   9  10
ENDBRANCH   1   9
TORSDOF 10
ENDMDL
MODEL 7
REMARK VINA RESULT:    -4.613     10.535     12.133
REMARK INTER + INTRA:          -8.541
REMARK INTER:                  -7.626
REMARK INTRA:                  -0.915
REMARK UNBOUND:                -1.231
REMARK SMILES CCCCCCCCCCCC(=O)[O-]
REMARK SMILES IDX 7 1 8 2 9 3 10 4 11 5 12 6 13 7 14 8 6 9 5 10 4 11 3 12 2 13
REMARK SMILES IDX 1 14
REMARK H PARENT
REMARK Flexibility Score: inf
ROOT
ATOM      1  C   UNL     1     115.941 -82.000  21.882  1.00  0.00     0.000 C 
ENDROOT
BRANCH   1   2
ATOM      2  C   UNL     1     116.683 -83.275  21.464  1.00  0.00     0.000 C 
BRANCH   2   3
ATOM      3  C   UNL     1     118.200 -83.040  21.418  1.00  0.00     0.000 C 
BRANCH   3   4
ATOM      4  C   UNL     1     118.734 -82.360  22.689  1.00  0.00     0.006 C 
BRANCH   4   5
ATOM      5  C   UNL     1     119.325 -83.361  23.690  1.00  0.00     0.053 C 
BRANCH   5   6
ATOM      6  C   UNL     1     119.727 -82.663  24.950  1.00  0.00     0.041 C 
ATOM      7  O   UNL     1     120.339 -81.563  24.896  1.00  0.00    -0.550 OA
ATOM      8  O   UNL     1     119.385 -83.201  26.184  1.00  0.00    -0.550 OA
ENDBRANCH   5   6
ENDBRANCH   4   5
ENDBRANCH   3   4
ENDBRANCH   2   3
ENDBRANCH   1   2
BRANCH   1   9
ATOM      9  C   UNL     1     115.287 -81.322  20.668  1.00  0.00     0.000 C 
BRANCH   9  10
ATOM     10  C   UNL     1     115.552 -79.808  20.620  1.00  0.00    -0.000 C 
BRANCH  10  11
ATOM     11  C   UNL     1     116.861 -79.414  21.325  1.00  0.00    -0.000 C 
BRANCH  11  12
ATOM     12  C   UNL     1     116.697 -78.199  22.256  1.00  0.00    -0.000 C 
BRANCH  12  13
ATOM     13  C   UNL     1     115.267 -77.635  22.343  1.00  0.00    -0.003 C 
ATOM     14  C   UNL     1     114.610 -77.879  23.701  1.00  0.00     0.004 C 
ENDBRANCH  12  13
ENDBRANCH  11  12
ENDBRANCH  10  11
ENDBRANCH   9  10
ENDBRANCH   1   9
TORSDOF 10
ENDMDL
MODEL 8
REMARK VINA RESULT:    -4.600      8.623     10.096
REMARK INTER + INTRA:          -8.521
REMARK INTER:                  -7.193
REMARK INTRA:                  -1.328
REMARK UNBOUND:                -1.231
REMARK SMILES CCCCCCCCCCCC(=O)[O-]
REMARK SMILES IDX 7 1 8 2 9 3 10 4 11 5 12 6 13 7 14 8 6 9 5 10 4 11 3 12 2 13
REMARK SMILES IDX 1 14
REMARK H PARENT
REMARK Flexibility Score: inf
ROOT
ATOM      1  C   UNL     1     116.073 -80.937  21.566  1.00  0.00     0.000 C 
ENDROOT
BRANCH   1   2
ATOM      2  C   UNL     1     115.380 -80.274  20.368  1.00  0.00     0.000 C 
BRANCH   2   3
ATOM      3  C   UNL     1     114.674 -78.976  20.789  1.00  0.00     0.000 C 
BRANCH   3   4
ATOM      4  C   UNL     1     114.857 -78.659  22.282  1.00  0.00     0.006 C 
BRANCH   4   5
ATOM      5  C   UNL     1     115.137 -77.173  22.540  1.00  0.00     0.053 C 
BRANCH   5   6
ATOM      6  C   UNL     1     116.554 -76.978  22.977  1.00  0.00     0.041 C 
ATOM      7  O   UNL     1     117.458 -77.749  22.557  1.00  0.00    -0.550 OA
ATOM      8  O   UNL     1     116.887 -75.917  23.809  1.00  0.00    -0.550 OA
ENDBRANCH   5   6
ENDBRANCH   4   5
ENDBRANCH   3   4
ENDBRANCH   2   3
ENDBRANCH   1   2
BRANCH   1   9
ATOM      9  C   UNL     1     115.682 -82.418  21.676  1.00  0.00     0.000 C 
BRANCH   9  10
ATOM     10  C   UNL     1     114.980 -82.943  20.412  1.00  0.00    -0.000 C 
BRANCH  10  11
ATOM     11  C   UNL     1     113.781 -83.849  20.736  1.00  0.00    -0.000 C 
BRANCH  11  12
ATOM     12  C   UNL     1     112.695 -83.132  21.559  1.00  0.00    -0.000 C 
BRANCH  12  13
ATOM     13  C   UNL     1     112.038 -81.928  20.859  1.00  0.00    -0.003 C 
ATOM     14  C   UNL     1     111.634 -80.819  21.829  1.00  0.00     0.004 C 
ENDBRANCH  12  13
ENDBRANCH  11  12
ENDBRANCH  10  11
ENDBRANCH   9  10
ENDBRANCH   1   9
TORSDOF 10
ENDMDL
MODEL 9
REMARK VINA RESULT:    -4.561      1.861      2.266
REMARK INTER + INTRA:          -8.458
REMARK INTER:                  -7.183
REMARK INTRA:                  -1.275
REMARK UNBOUND:                -1.231
REMARK SMILES CCCCCCCCCCCC(=O)[O-]
REMARK SMILES IDX 7 1 8 2 9 3 10 4 11 5 12 6 13 7 14 8 6 9 5 10 4 11 3 12 2 13
REMARK SMILES IDX 1 14
REMARK H PARENT
REMARK Flexibility Score: inf
ROOT
ATOM      1  C   UNL     1     103.125 -82.253  22.578  1.00  0.00     0.000 C 
ENDROOT
BRANCH   1   2
ATOM      2  C   UNL     1     104.414 -82.987  22.967  1.00  0.00     0.000 C 
BRANCH   2   3
ATOM      3  C   UNL     1     105.401 -82.039  23.664  1.00  0.00     0.000 C 
BRANCH   3   4
ATOM      4  C   UNL     1     106.523 -82.787  24.402  1.00  0.00     0.006 C 
BRANCH   4   5
ATOM      5  C   UNL     1     107.616 -83.295  23.453  1.00  0.00     0.053 C 
BRANCH   5   6
ATOM      6  C   UNL     1     108.939 -82.701  23.817  1.00  0.00     0.041 C 
ATOM      7  O   UNL     1     109.947 -82.904  23.090  1.00  0.00    -0.550 OA
ATOM      8  O   UNL     1     109.050 -81.881  24.934  1.00  0.00    -0.550 OA
ENDBRANCH   5   6
ENDBRANCH   4   5
ENDBRANCH   3   4
ENDBRANCH   2   3
ENDBRANCH   1   2
BRANCH   1   9
ATOM      9  C   UNL     1     102.666 -82.656  21.170  1.00  0.00     0.000 C 
BRANCH   9  10
ATOM     10  C   UNL     1     103.759 -83.393  20.377  1.00  0.00    -0.000 C 
BRANCH  10  11
ATOM     11  C   UNL     1     104.322 -82.547  19.222  1.00  0.00    -0.000 C 
BRANCH  11  12
ATOM     12  C   UNL     1     105.861 -82.529  19.189  1.00  0.00    -0.000 C 
BRANCH  12  13
ATOM     13  C   UNL     1     106.523 -81.600  20.223  1.00  0.00    -0.003 C 
ATOM     14  C   UNL     1     105.789 -80.270  20.389  1.00  0.00     0.004 C 
ENDBRANCH  12  13
ENDBRANCH  11  12
ENDBRANCH  10  11
ENDBRANCH   9  10
ENDBRANCH   1   9
TORSDOF 10
ENDMDL
