MODEL 1
REMARK VINA RESULT:     0.387      0.000      0.000
REMARK INTER + INTRA:           0.371
REMARK INTER:                   0.421
REMARK INTRA:                  -0.050
REMARK UNBOUND:                -0.050
REMARK SMILES CCc1cccc(O)c1
REMARK SMILES IDX 3 1 9 2 7 3 6 4 5 5 4 6 2 7 1 8 8 9
REMARK H PARENT 8 10
REMARK Flexibility Score: inf
ROOT
ATOM      1  C   UNL     1       7.386  41.549  24.580  1.00  0.00    -0.045 A 
ATOM      2  C   UNL     1       7.244  42.831  24.025  1.00  0.00     0.049 A 
ATOM      3  C   UNL     1       5.987  43.443  23.969  1.00  0.00     0.115 A 
ATOM      4  C   UNL     1       4.862  42.768  24.461  1.00  0.00     0.046 A 
ATOM      5  C   UNL     1       4.994  41.485  25.003  1.00  0.00     0.004 A 
ATOM      6  C   UNL     1       6.250  40.875  25.058  1.00  0.00     0.004 A 
ENDROOT
BRANCH   1   7
ATOM      7  C   UNL     1       8.734  40.879  24.610  1.00  0.00     0.032 C 
ATOM      8  C   UNL     1       9.435  41.014  23.262  1.00  0.00     0.009 C 
ENDBRANCH   1   7
BRANCH   3   9
ATOM      9  O   UNL     1       5.866  44.717  23.421  1.00  0.00    -0.508 OA
ATOM     10  H   UNL     1       6.121  44.906  22.458  1.00  0.00     0.293 HD
ENDBRANCH   3   9
TORSDOF 2
ENDMDL
MODEL 2
REMARK VINA RESULT:     2.151      1.626      2.292
REMARK INTER + INTRA:           2.290
REMARK INTER:                   2.359
REMARK INTRA:                  -0.069
REMARK UNBOUND:                -0.050
REMARK SMILES CCc1cccc(O)c1
REMARK SMILES IDX 3 1 9 2 7 3 6 4 5 5 4 6 2 7 1 8 8 9
REMARK H PARENT 8 10
REMARK Flexibility Score: inf
ROOT
ATOM      1  C   UNL     1       7.208  41.556  24.572  1.00  0.00    -0.045 A 
ATOM      2  C   UNL     1       6.048  40.900  25.017  1.00  0.00     0.049 A 
ATOM      3  C   UNL     1       4.806  41.543  24.961  1.00  0.00     0.115 A 
ATOM      4  C   UNL     1       4.722  42.852  24.466  1.00  0.00     0.046 A 
ATOM      5  C   UNL     1       5.875  43.515  24.035  1.00  0.00     0.004 A 
ATOM      6  C   UNL     1       7.115  42.872  24.092  1.00  0.00     0.004 A 
ENDROOT
BRANCH   1   7
ATOM      7  C   UNL     1       8.548  40.875  24.664  1.00  0.00     0.032 C 
ATOM      8  C   UNL     1       9.406  41.204  23.447  1.00  0.00     0.009 C 
ENDBRANCH   1   7
BRANCH   3   9
ATOM      9  O   UNL     1       3.666  40.876  25.400  1.00  0.00    -0.508 OA
ATOM     10  H   UNL     1       3.018  40.450  24.748  1.00  0.00     0.293 HD
ENDBRANCH   3   9
TORSDOF 2
ENDMDL
