MODEL 1
REMARK VINA RESULT:     9.119      0.000      0.000
REMARK INTER + INTRA:          12.605
REMARK INTER:                  12.851
REMARK INTRA:                  -0.245
REMARK UNBOUND:                -0.245
REMARK SMILES CCCCCCCCC(=O)[O-]
REMARK SMILES IDX 6 1 7 2 8 3 9 4 10 5 11 6 5 7 4 8 3 9 2 10 1 11
REMARK H PARENT
REMARK Flexibility Score: inf
ROOT
ATOM      1  C   UNL     1     -14.115  -8.727 -23.275  1.00  0.00     0.000 C 
ENDROOT
BRANCH   1   2
ATOM      2  C   UNL     1     -14.903  -7.417 -23.412  1.00  0.00     0.006 C 
BRANCH   2   3
ATOM      3  C   UNL     1     -14.975  -6.971 -24.875  1.00  0.00     0.053 C 
BRANCH   3   4
ATOM      4  C   UNL     1     -14.572  -5.536 -25.004  1.00  0.00     0.041 C 
ATOM      5  O   UNL     1     -15.449  -4.640 -25.124  1.00  0.00    -0.550 OA
ATOM      6  O   UNL     1     -13.230  -5.183 -24.945  1.00  0.00    -0.550 OA
ENDBRANCH   3   4
ENDBRANCH   2   3
ENDBRANCH   1   2
BRANCH   1   7
ATOM      7  C   UNL     1     -12.856  -8.523 -22.418  1.00  0.00     0.000 C 
BRANCH   7   8
ATOM      8  C   UNL     1     -13.132  -7.717 -21.139  1.00  0.00    -0.000 C 
BRANCH   8   9
ATOM      9  C   UNL     1     -12.302  -8.208 -19.941  1.00  0.00    -0.000 C 
BRANCH   9  10
ATOM     10  C   UNL     1     -13.027  -8.007 -18.600  1.00  0.00    -0.003 C 
ATOM     11  C   UNL     1     -12.869  -9.199 -17.657  1.00  0.00     0.004 C 
ENDBRANCH   9  10
ENDBRANCH   8   9
ENDBRANCH   7   8
ENDBRANCH   1   7
TORSDOF 7
ENDMDL
MODEL 2
REMARK VINA RESULT:    10.206      3.349      5.942
REMARK INTER + INTRA:          14.137
REMARK INTER:                  14.493
REMARK INTRA:                  -0.356
REMARK UNBOUND:                -0.245
REMARK SMILES CCCCCCCCC(=O)[O-]
REMARK SMILES IDX 6 1 7 2 8 3 9 4 10 5 11 6 5 7 4 8 3 9 2 10 1 11
REMARK H PARENT
REMARK Flexibility Score: inf
ROOT
ATOM      1  C   UNL     1     -13.043  -8.490 -22.409  1.00  0.00     0.000 C 
ENDROOT
BRANCH   1   2
ATOM      2  C   UNL     1     -13.311  -7.827 -21.052  1.00  0.00     0.006 C 
BRANCH   2   3
ATOM      3  C   UNL     1     -12.275  -8.264 -20.013  1.00  0.00     0.053 C 
BRANCH   3   4
ATOM      4  C   UNL     1     -12.927  -8.489 -18.686  1.00  0.00     0.041 C 
ATOM      5  O   UNL     1     -13.680  -7.609 -18.192  1.00  0.00    -0.550 OA
ATOM      6  O   UNL     1     -12.742  -9.692 -18.015  1.00  0.00    -0.550 OA
ENDBRANCH   3   4
ENDBRANCH   2   3
ENDBRANCH   1   2
BRANCH   1   7
ATOM      7  C   UNL     1     -14.314  -8.511 -23.271  1.00  0.00     0.000 C 
BRANCH   7   8
ATOM      8  C   UNL     1     -14.949  -7.119 -23.427  1.00  0.00    -0.000 C 
BRANCH   8   9
ATOM      9  C   UNL     1     -15.070  -6.686 -24.897  1.00  0.00    -0.000 C 
BRANCH   9  10
ATOM     10  C   UNL     1     -14.604  -5.239 -25.125  1.00  0.00    -0.003 C 
ATOM     11  C   UNL     1     -13.173  -4.994 -24.649  1.00  0.00     0.004 C 
ENDBRANCH   9  10
ENDBRANCH   8   9
ENDBRANCH   7   8
ENDBRANCH   1   7
TORSDOF 7
ENDMDL
MODEL 3
REMARK VINA RESULT:    10.667     15.768     17.028
REMARK INTER + INTRA:          14.787
REMARK INTER:                  14.990
REMARK INTRA:                  -0.203
REMARK UNBOUND:                -0.245
REMARK SMILES CCCCCCCCC(=O)[O-]
REMARK SMILES IDX 6 1 7 2 8 3 9 4 10 5 11 6 5 7 4 8 3 9 2 10 1 11
REMARK H PARENT
REMARK Flexibility Score: inf
ROOT
ATOM      1  C   UNL     1     -25.520  -4.469 -11.819  1.00  0.00     0.000 C 
ENDROOT
BRANCH   1   2
ATOM      2  C   UNL     1     -27.046  -4.437 -11.967  1.00  0.00     0.006 C 
BRANCH   2   3
ATOM      3  C   UNL     1     -27.675  -3.457 -10.972  1.00  0.00     0.053 C 
BRANCH   3   4
ATOM      4  C   UNL     1     -29.163  -3.604 -10.962  1.00  0.00     0.041 C 
ATOM      5  O   UNL     1     -29.872  -2.931 -11.757  1.00  0.00    -0.550 OA
ATOM      6  O   UNL     1     -29.766  -4.519 -10.107  1.00  0.00    -0.550 OA
ENDBRANCH   3   4
ENDBRANCH   2   3
ENDBRANCH   1   2
BRANCH   1   7
ATOM      7  C   UNL     1     -24.844  -3.658 -12.935  1.00  0.00     0.000 C 
BRANCH   7   8
ATOM      8  C   UNL     1     -25.276  -4.107 -14.340  1.00  0.00    -0.000 C 
BRANCH   8   9
ATOM      9  C   UNL     1     -24.655  -3.245 -15.452  1.00  0.00    -0.000 C 
BRANCH   9  10
ATOM     10  C   UNL     1     -24.833  -3.866 -16.847  1.00  0.00    -0.003 C 
ATOM     11  C   UNL     1     -23.511  -4.319 -17.467  1.00  0.00     0.004 C 
ENDBRANCH   9  10
ENDBRANCH   8   9
ENDBRANCH   7   8
ENDBRANCH   1   7
TORSDOF 7
ENDMDL
MODEL 4
REMARK VINA RESULT:    11.125     14.169     15.006
REMARK INTER + INTRA:          15.432
REMARK INTER:                  15.592
REMARK INTRA:                  -0.160
REMARK UNBOUND:                -0.245
REMARK SMILES CCCCCCCCC(=O)[O-]
REMARK SMILES IDX 6 1 7 2 8 3 9 4 10 5 11 6 5 7 4 8 3 9 2 10 1 11
REMARK H PARENT
REMARK Flexibility Score: inf
ROOT
ATOM      1  C   UNL     1     -24.772  -3.385 -14.163  1.00  0.00     0.000 C 
ENDROOT
BRANCH   1   2
ATOM      2  C   UNL     1     -25.084  -4.065 -15.502  1.00  0.00     0.006 C 
BRANCH   2   3
ATOM      3  C   UNL     1     -24.614  -3.204 -16.678  1.00  0.00     0.053 C 
BRANCH   3   4
ATOM      4  C   UNL     1     -23.701  -3.986 -17.567  1.00  0.00     0.041 C 
ATOM      5  O   UNL     1     -23.983  -5.174 -17.878  1.00  0.00    -0.550 OA
ATOM      6  O   UNL     1     -22.562  -3.389 -18.093  1.00  0.00    -0.550 OA
ENDBRANCH   3   4
ENDBRANCH   2   3
ENDBRANCH   1   2
BRANCH   1   7
ATOM      7  C   UNL     1     -25.102  -4.314 -12.985  1.00  0.00     0.000 C 
BRANCH   7   8
ATOM      8  C   UNL     1     -25.955  -3.627 -11.907  1.00  0.00    -0.000 C 
BRANCH   8   9
ATOM      9  C   UNL     1     -27.238  -4.410 -11.581  1.00  0.00    -0.000 C 
BRANCH   9  10
ATOM     10  C   UNL     1     -28.407  -3.490 -11.193  1.00  0.00    -0.003 C 
ATOM     11  C   UNL     1     -29.516  -4.226 -10.442  1.00  0.00     0.004 C 
ENDBRANCH   9  10
ENDBRANCH   8   9
ENDBRANCH   7   8
ENDBRANCH   1   7
TORSDOF 7
ENDMDL
MODEL 5
REMARK VINA RESULT:    11.820     16.884     18.110
REMARK INTER + INTRA:          16.412
REMARK INTER:                  16.809
REMARK INTRA:                  -0.397
REMARK UNBOUND:                -0.245
REMARK SMILES CCCCCCCCC(=O)[O-]
REMARK SMILES IDX 6 1 7 2 8 3 9 4 10 5 11 6 5 7 4 8 3 9 2 10 1 11
REMARK H PARENT
REMARK Flexibility Score: inf
ROOT
ATOM      1  C   UNL     1     -27.352  -4.880 -11.557  1.00  0.00     0.000 C 
ENDROOT
BRANCH   1   2
ATOM      2  C   UNL     1     -27.733  -3.469 -11.089  1.00  0.00     0.006 C 
BRANCH   2   3
ATOM      3  C   UNL     1     -29.254  -3.304 -11.026  1.00  0.00     0.053 C 
BRANCH   3   4
ATOM      4  C   UNL     1     -29.859  -4.355 -10.151  1.00  0.00     0.041 C 
ATOM      5  O   UNL     1     -30.755  -5.117 -10.602  1.00  0.00    -0.550 OA
ATOM      6  O   UNL     1     -29.401  -4.525  -8.850  1.00  0.00    -0.550 OA
ENDBRANCH   3   4
ENDBRANCH   2   3
ENDBRANCH   1   2
BRANCH   1   7
ATOM      7  C   UNL     1     -25.881  -4.934 -11.995  1.00  0.00     0.000 C 
BRANCH   7   8
ATOM      8  C   UNL     1     -25.216  -3.547 -12.018  1.00  0.00    -0.000 C 
BRANCH   8   9
ATOM      9  C   UNL     1     -24.454  -3.279 -13.326  1.00  0.00    -0.000 C 
BRANCH   9  10
ATOM     10  C   UNL     1     -25.141  -3.910 -14.548  1.00  0.00    -0.003 C 
ATOM     11  C   UNL     1     -24.864  -3.148 -15.843  1.00  0.00     0.004 C 
ENDBRANCH   9  10
ENDBRANCH   8   9
ENDBRANCH   7   8
ENDBRANCH   1   7
TORSDOF 7
ENDMDL
MODEL 6
REMARK VINA RESULT:    11.835     13.169     14.060
REMARK INTER + INTRA:          16.432
REMARK INTER:                  16.660
REMARK INTRA:                  -0.227
REMARK UNBOUND:                -0.245
REMARK SMILES CCCCCCCCC(=O)[O-]
REMARK SMILES IDX 6 1 7 2 8 3 9 4 10 5 11 6 5 7 4 8 3 9 2 10 1 11
REMARK H PARENT
REMARK Flexibility Score: inf
ROOT
ATOM      1  C   UNL     1     -25.218  -3.949 -14.401  1.00  0.00     0.000 C 
ENDROOT
BRANCH   1   2
ATOM      2  C   UNL     1     -24.427  -3.419 -15.604  1.00  0.00     0.006 C 
BRANCH   2   3
ATOM      3  C   UNL     1     -24.908  -4.068 -16.906  1.00  0.00     0.053 C 
BRANCH   3   4
ATOM      4  C   UNL     1     -23.743  -4.419 -17.777  1.00  0.00     0.041 C 
ATOM      5  O   UNL     1     -23.707  -5.528 -18.371  1.00  0.00    -0.550 OA
ATOM      6  O   UNL     1     -22.718  -3.500 -17.970  1.00  0.00    -0.550 OA
ENDBRANCH   3   4
ENDBRANCH   2   3
ENDBRANCH   1   2
BRANCH   1   7
ATOM      7  C   UNL     1     -24.551  -3.535 -13.081  1.00  0.00     0.000 C 
BRANCH   7   8
ATOM      8  C   UNL     1     -25.391  -3.909 -11.848  1.00  0.00    -0.000 C 
BRANCH   8   9
ATOM      9  C   UNL     1     -26.177  -5.215 -12.043  1.00  0.00    -0.000 C 
BRANCH   9  10
ATOM     10  C   UNL     1     -25.598  -6.379 -11.222  1.00  0.00    -0.003 C 
ATOM     11  C   UNL     1     -26.645  -7.436 -10.872  1.00  0.00     0.004 C 
ENDBRANCH   9  10
ENDBRANCH   8   9
ENDBRANCH   7   8
ENDBRANCH   1   7
TORSDOF 7
ENDMDL
