MODEL 1
REMARK VINA RESULT:    -4.380      0.000      0.000
REMARK INTER + INTRA:          -7.102
REMARK INTER:                  -6.428
REMARK INTRA:                  -0.674
REMARK UNBOUND:                -0.674
REMARK SMILES O=C([O-])CCCCCCCC(=O)[O-]
REMARK SMILES IDX 7 1 6 2 5 3 4 4 2 5 1 6 3 7 8 8 9 9 10 10 11 11 12 12 13 13
REMARK H PARENT
REMARK Flexibility Score: inf
ROOT
ATOM      1  C   UNL     1      98.847  91.729  86.896  1.00  0.00     0.000 C 
ENDROOT
BRANCH   1   2
ATOM      2  C   UNL     1     100.320  91.931  86.504  1.00  0.00     0.000 C 
BRANCH   2   3
ATOM      3  C   UNL     1     100.871  90.773  85.656  1.00  0.00     0.006 C 
BRANCH   3   4
ATOM      4  C   UNL     1      99.956  89.542  85.691  1.00  0.00     0.053 C 
BRANCH   4   5
ATOM      5  C   UNL     1     100.584  88.401  86.433  1.00  0.00     0.041 C 
ATOM      6  O   UNL     1     100.390  87.216  86.054  1.00  0.00    -0.550 OA
ATOM      7  O   UNL     1     101.405  88.648  87.525  1.00  0.00    -0.550 OA
ENDBRANCH   4   5
ENDBRANCH   3   4
ENDBRANCH   2   3
ENDBRANCH   1   2
BRANCH   1   8
ATOM      8  C   UNL     1      98.535  92.239  88.311  1.00  0.00     0.000 C 
BRANCH   8   9
ATOM      9  C   UNL     1      99.532  91.674  89.330  1.00  0.00     0.006 C 
BRANCH   9  10
ATOM     10  C   UNL     1      99.141  90.253  89.750  1.00  0.00     0.053 C 
BRANCH  10  11
ATOM     11  C   UNL     1      98.472  90.269  91.088  1.00  0.00     0.041 C 
ATOM     12  O   UNL     1      99.152  90.431  92.135  1.00  0.00    -0.550 OA
ATOM     13  O   UNL     1      97.090  90.151  91.176  1.00  0.00    -0.550 OA
ENDBRANCH  10  11
ENDBRANCH   9  10
ENDBRANCH   8   9
ENDBRANCH   1   8
TORSDOF 8
ENDMDL
MODEL 2
REMARK VINA RESULT:    -4.377      2.227      3.818
REMARK INTER + INTRA:          -7.097
REMARK INTER:                  -6.441
REMARK INTRA:                  -0.656
REMARK UNBOUND:                -0.674
REMARK SMILES O=C([O-])CCCCCCCC(=O)[O-]
REMARK SMILES IDX 7 1 6 2 5 3 4 4 2 5 1 6 3 7 8 8 9 9 10 10 11 11 12 12 13 13
REMARK H PARENT
REMARK Flexibility Score: inf
ROOT
ATOM      1  C   UNL     1     100.695  89.453  85.878  1.00  0.00     0.000 C 
ENDROOT
BRANCH   1   2
ATOM      2  C   UNL     1      99.570  89.902  84.931  1.00  0.00     0.000 C 
BRANCH   2   3
ATOM      3  C   UNL     1      99.005  91.285  85.296  1.00  0.00     0.006 C 
BRANCH   3   4
ATOM      4  C   UNL     1      99.900  92.032  86.294  1.00  0.00     0.053 C 
BRANCH   4   5
ATOM      5  C   UNL     1      99.151  92.422  87.532  1.00  0.00     0.041 C 
ATOM      6  O   UNL     1      97.893  92.468  87.522  1.00  0.00    -0.550 OA
ATOM      7  O   UNL     1      99.842  92.705  88.703  1.00  0.00    -0.550 OA
ENDBRANCH   4   5
ENDBRANCH   3   4
ENDBRANCH   2   3
ENDBRANCH   1   2
BRANCH   1   8
ATOM      8  C   UNL     1     100.538  87.995  86.338  1.00  0.00     0.000 C 
BRANCH   8   9
ATOM      9  C   UNL     1      99.648  87.906  87.583  1.00  0.00     0.006 C 
BRANCH   9  10
ATOM     10  C   UNL     1      99.984  89.020  88.579  1.00  0.00     0.053 C 
BRANCH  10  11
ATOM     11  C   UNL     1     100.618  88.450  89.808  1.00  0.00     0.041 C 
ATOM     12  O   UNL     1     101.667  87.758  89.717  1.00  0.00    -0.550 OA
ATOM     13  O   UNL     1     100.080  88.723  91.059  1.00  0.00    -0.550 OA
ENDBRANCH  10  11
ENDBRANCH   9  10
ENDBRANCH   8   9
ENDBRANCH   1   8
TORSDOF 8
ENDMDL
MODEL 3
REMARK VINA RESULT:    -4.266      2.199      3.972
REMARK INTER + INTRA:          -6.934
REMARK INTER:                  -6.306
REMARK INTRA:                  -0.629
REMARK UNBOUND:                -0.674
REMARK SMILES O=C([O-])CCCCCCCC(=O)[O-]
REMARK SMILES IDX 7 1 6 2 5 3 4 4 2 5 1 6 3 7 8 8 9 9 10 10 11 11 12 12 13 13
REMARK H PARENT
REMARK Flexibility Score: inf
ROOT
ATOM      1  C   UNL     1     100.612  89.543  85.899  1.00  0.00     0.000 C 
ENDROOT
BRANCH   1   2
ATOM      2  C   UNL     1     100.457  88.093  86.386  1.00  0.00     0.000 C 
BRANCH   2   3
ATOM      3  C   UNL     1     100.454  87.981  87.920  1.00  0.00     0.006 C 
BRANCH   3   4
ATOM      4  C   UNL     1      99.683  89.130  88.583  1.00  0.00     0.053 C 
BRANCH   4   5
ATOM      5  C   UNL     1     100.063  89.299  90.023  1.00  0.00     0.041 C 
ATOM      6  O   UNL     1     100.887  88.512  90.556  1.00  0.00    -0.550 OA
ATOM      7  O   UNL     1      99.528  90.344  90.766  1.00  0.00    -0.550 OA
ENDBRANCH   4   5
ENDBRANCH   3   4
ENDBRANCH   2   3
ENDBRANCH   1   2
BRANCH   1   8
ATOM      8  C   UNL     1      99.475  89.979  84.961  1.00  0.00     0.000 C 
BRANCH   8   9
ATOM      9  C   UNL     1      99.002  91.399  85.297  1.00  0.00     0.006 C 
BRANCH   9  10
ATOM     10  C   UNL     1      99.934  92.061  86.316  1.00  0.00     0.053 C 
BRANCH  10  11
ATOM     11  C   UNL     1      99.166  92.499  87.522  1.00  0.00     0.041 C 
ATOM     12  O   UNL     1      99.772  92.823  88.577  1.00  0.00    -0.550 OA
ATOM     13  O   UNL     1      97.781  92.595  87.467  1.00  0.00    -0.550 OA
ENDBRANCH  10  11
ENDBRANCH   9  10
ENDBRANCH   8   9
ENDBRANCH   1   8
TORSDOF 8
ENDMDL
MODEL 4
REMARK VINA RESULT:    -4.167      0.925      4.708
REMARK INTER + INTRA:          -6.789
REMARK INTER:                  -6.127
REMARK INTRA:                  -0.662
REMARK UNBOUND:                -0.674
REMARK SMILES O=C([O-])CCCCCCCC(=O)[O-]
REMARK SMILES IDX 7 1 6 2 5 3 4 4 2 5 1 6 3 7 8 8 9 9 10 10 11 11 12 12 13 13
REMARK H PARENT
REMARK Flexibility Score: inf
ROOT
ATOM      1  C   UNL     1     100.593  91.867  87.169  1.00  0.00     0.000 C 
ENDROOT
BRANCH   1   2
ATOM      2  C   UNL     1      99.971  92.537  88.405  1.00  0.00     0.000 C 
BRANCH   2   3
ATOM      3  C   UNL     1      98.794  91.734  88.985  1.00  0.00     0.006 C 
BRANCH   3   4
ATOM      4  C   UNL     1      99.247  90.404  89.602  1.00  0.00     0.053 C 
BRANCH   4   5
ATOM      5  C   UNL     1      98.716  90.223  90.991  1.00  0.00     0.041 C 
ATOM      6  O   UNL     1      99.504  90.208  91.973  1.00  0.00    -0.550 OA
ATOM      7  O   UNL     1      97.349  90.102  91.203  1.00  0.00    -0.550 OA
ENDBRANCH   4   5
ENDBRANCH   3   4
ENDBRANCH   2   3
ENDBRANCH   1   2
BRANCH   1   8
ATOM      8  C   UNL     1      99.624  91.807  85.977  1.00  0.00     0.000 C 
BRANCH   8   9
ATOM      9  C   UNL     1      99.728  90.460  85.253  1.00  0.00     0.006 C 
BRANCH   9  10
ATOM     10  C   UNL     1      98.899  89.387  85.966  1.00  0.00     0.053 C 
BRANCH  10  11
ATOM     11  C   UNL     1      99.790  88.330  86.537  1.00  0.00     0.041 C 
ATOM     12  O   UNL     1      99.297  87.360  87.170  1.00  0.00    -0.550 OA
ATOM     13  O   UNL     1     101.162  88.391  86.330  1.00  0.00    -0.550 OA
ENDBRANCH  10  11
ENDBRANCH   9  10
ENDBRANCH   8   9
ENDBRANCH   1   8
TORSDOF 8
ENDMDL
MODEL 5
REMARK VINA RESULT:    -4.118      2.116      5.127
REMARK INTER + INTRA:          -6.718
REMARK INTER:                  -6.240
REMARK INTRA:                  -0.478
REMARK UNBOUND:                -0.674
REMARK SMILES O=C([O-])CCCCCCCC(=O)[O-]
REMARK SMILES IDX 7 1 6 2 5 3 4 4 2 5 1 6 3 7 8 8 9 9 10 10 11 11 12 12 13 13
REMARK H PARENT
REMARK Flexibility Score: inf
ROOT
ATOM      1  C   UNL     1     101.147  88.753  87.314  1.00  0.00     0.000 C 
ENDROOT
BRANCH   1   2
ATOM      2  C   UNL     1     100.426  88.350  88.611  1.00  0.00     0.000 C 
BRANCH   2   3
ATOM      3  C   UNL     1      99.624  89.509  89.227  1.00  0.00     0.006 C 
BRANCH   3   4
ATOM      4  C   UNL     1      99.878  89.652  90.734  1.00  0.00     0.053 C 
BRANCH   4   5
ATOM      5  C   UNL     1      98.722  90.298  91.436  1.00  0.00     0.041 C 
ATOM      6  O   UNL     1      97.627  90.457  90.837  1.00  0.00    -0.550 OA
ATOM      7  O   UNL     1      98.848  90.699  92.759  1.00  0.00    -0.550 OA
ENDBRANCH   4   5
ENDBRANCH   3   4
ENDBRANCH   2   3
ENDBRANCH   1   2
BRANCH   1   8
ATOM      8  C   UNL     1     100.424  88.254  86.053  1.00  0.00     0.000 C 
BRANCH   8   9
ATOM      9  C   UNL     1      99.615  89.382  85.403  1.00  0.00     0.006 C 
BRANCH   9  10
ATOM     10  C   UNL     1     100.246  90.748  85.693  1.00  0.00     0.053 C 
BRANCH  10  11
ATOM     11  C   UNL     1      99.233  91.677  86.284  1.00  0.00     0.041 C 
ATOM     12  O   UNL     1      98.045  91.667  85.869  1.00  0.00    -0.550 OA
ATOM     13  O   UNL     1      99.590  92.522  87.328  1.00  0.00    -0.550 OA
ENDBRANCH  10  11
ENDBRANCH   9  10
ENDBRANCH   8   9
ENDBRANCH   1   8
TORSDOF 8
ENDMDL
MODEL 6
REMARK VINA RESULT:    -4.099      1.998      3.137
REMARK INTER + INTRA:          -6.690
REMARK INTER:                  -6.013
REMARK INTRA:                  -0.677
REMARK UNBOUND:                -0.674
REMARK SMILES O=C([O-])CCCCCCCC(=O)[O-]
REMARK SMILES IDX 7 1 6 2 5 3 4 4 2 5 1 6 3 7 8 8 9 9 10 10 11 11 12 12 13 13
REMARK H PARENT
REMARK Flexibility Score: inf
ROOT
ATOM      1  C   UNL     1     101.070  88.431  87.182  1.00  0.00     0.000 C 
ENDROOT
BRANCH   1   2
ATOM      2  C   UNL     1      99.856  88.536  86.244  1.00  0.00     0.000 C 
BRANCH   2   3
ATOM      3  C   UNL     1     100.003  89.667  85.211  1.00  0.00     0.006 C 
BRANCH   3   4
ATOM      4  C   UNL     1      98.801  90.621  85.222  1.00  0.00     0.053 C 
BRANCH   4   5
ATOM      5  C   UNL     1      98.963  91.711  86.237  1.00  0.00     0.041 C 
ATOM      6  O   UNL     1      97.950  92.254  86.750  1.00  0.00    -0.550 OA
ATOM      7  O   UNL     1     100.233  92.107  86.636  1.00  0.00    -0.550 OA
ENDBRANCH   4   5
ENDBRANCH   3   4
ENDBRANCH   2   3
ENDBRANCH   1   2
BRANCH   1   8
ATOM      8  C   UNL     1     100.683  88.533  88.666  1.00  0.00     0.000 C 
BRANCH   8   9
ATOM      9  C   UNL     1      99.379  89.322  88.838  1.00  0.00     0.006 C 
BRANCH   9  10
ATOM     10  C   UNL     1      99.576  90.508  89.787  1.00  0.00     0.053 C 
BRANCH  10  11
ATOM     11  C   UNL     1      98.926  90.237  91.106  1.00  0.00     0.041 C 
ATOM     12  O   UNL     1      97.673  90.289  91.219  1.00  0.00    -0.550 OA
ATOM     13  O   UNL     1      99.702  89.880  92.203  1.00  0.00    -0.550 OA
ENDBRANCH  10  11
ENDBRANCH   9  10
ENDBRANCH   8   9
ENDBRANCH   1   8
TORSDOF 8
ENDMDL
MODEL 7
REMARK VINA RESULT:    -3.973      1.725      2.833
REMARK INTER + INTRA:          -6.504
REMARK INTER:                  -6.001
REMARK INTRA:                  -0.503
REMARK UNBOUND:                -0.674
REMARK SMILES O=C([O-])CCCCCCCC(=O)[O-]
REMARK SMILES IDX 7 1 6 2 5 3 4 4 2 5 1 6 3 7 8 8 9 9 10 10 11 11 12 12 13 13
REMARK H PARENT
REMARK Flexibility Score: inf
ROOT
ATOM      1  C   UNL     1      99.649  91.553  89.498  1.00  0.00     0.000 C 
ENDROOT
BRANCH   1   2
ATOM      2  C   UNL     1      98.736  92.279  88.496  1.00  0.00     0.000 C 
BRANCH   2   3
ATOM      3  C   UNL     1      99.331  92.323  87.078  1.00  0.00     0.006 C 
BRANCH   3   4
ATOM      4  C   UNL     1      98.828  91.167  86.203  1.00  0.00     0.053 C 
BRANCH   4   5
ATOM      5  C   UNL     1      99.927  90.209  85.858  1.00  0.00     0.041 C 
ATOM      6  O   UNL     1     101.023  90.254  86.475  1.00  0.00    -0.550 OA
ATOM      7  O   UNL     1      99.730  89.248  84.875  1.00  0.00    -0.550 OA
ENDBRANCH   4   5
ENDBRANCH   3   4
ENDBRANCH   2   3
ENDBRANCH   1   2
BRANCH   1   8
ATOM      8  C   UNL     1      99.137  90.148  89.856  1.00  0.00     0.000 C 
BRANCH   8   9
ATOM      9  C   UNL     1      98.297  90.182  91.139  1.00  0.00     0.006 C 
BRANCH   9  10
ATOM     10  C   UNL     1      99.192  90.213  92.381  1.00  0.00     0.053 C 
BRANCH  10  11
ATOM     11  C   UNL     1     100.220  89.129  92.313  1.00  0.00     0.041 C 
ATOM     12  O   UNL     1      99.870  87.920  92.347  1.00  0.00    -0.550 OA
ATOM     13  O   UNL     1     101.563  89.452  92.162  1.00  0.00    -0.550 OA
ENDBRANCH  10  11
ENDBRANCH   9  10
ENDBRANCH   8   9
ENDBRANCH   1   8
TORSDOF 8
ENDMDL
MODEL 8
REMARK VINA RESULT:    -3.905     11.436     12.319
REMARK INTER + INTRA:          -6.405
REMARK INTER:                  -5.835
REMARK INTRA:                  -0.571
REMARK UNBOUND:                -0.674
REMARK SMILES O=C([O-])CCCCCCCC(=O)[O-]
REMARK SMILES IDX 7 1 6 2 5 3 4 4 2 5 1 6 3 7 8 8 9 9 10 10 11 11 12 12 13 13
REMARK H PARENT
REMARK Flexibility Score: inf
ROOT
ATOM      1  C   UNL     1     104.451  96.987  97.514  1.00  0.00     0.000 C 
ENDROOT
BRANCH   1   2
ATOM      2  C   UNL     1     105.420  96.975  96.320  1.00  0.00     0.000 C 
BRANCH   2   3
ATOM      3  C   UNL     1     104.879  97.756  95.110  1.00  0.00     0.006 C 
BRANCH   3   4
ATOM      4  C   UNL     1     103.452  98.270  95.343  1.00  0.00     0.053 C 
BRANCH   4   5
ATOM      5  C   UNL     1     103.354  99.752  95.148  1.00  0.00     0.041 C 
ATOM      6  O   UNL     1     103.191 100.229  93.994  1.00  0.00    -0.550 OA
ATOM      7  O   UNL     1     103.413 100.604  96.243  1.00  0.00    -0.550 OA
ENDBRANCH   4   5
ENDBRANCH   3   4
ENDBRANCH   2   3
ENDBRANCH   1   2
BRANCH   1   8
ATOM      8  C   UNL     1     104.162  95.579  98.057  1.00  0.00     0.000 C 
BRANCH   8   9
ATOM      9  C   UNL     1     102.827  95.545  98.810  1.00  0.00     0.006 C 
BRANCH   9  10
ATOM     10  C   UNL     1     102.072  96.868  98.649  1.00  0.00     0.053 C 
BRANCH  10  11
ATOM     11  C   UNL     1     100.746  96.639  97.995  1.00  0.00     0.041 C 
ATOM     12  O   UNL     1     100.173  97.575  97.379  1.00  0.00    -0.550 OA
ATOM     13  O   UNL     1     100.166  95.377  98.025  1.00  0.00    -0.550 OA
ENDBRANCH  10  11
ENDBRANCH   9  10
ENDBRANCH   8   9
ENDBRANCH   1   8
TORSDOF 8
ENDMDL
MODEL 9
REMARK VINA RESULT:    -3.890      2.811      3.687
REMARK INTER + INTRA:          -6.382
REMARK INTER:                  -5.960
REMARK INTRA:                  -0.422
REMARK UNBOUND:                -0.674
REMARK SMILES O=C([O-])CCCCCCCC(=O)[O-]
REMARK SMILES IDX 7 1 6 2 5 3 4 4 2 5 1 6 3 7 8 8 9 9 10 10 11 11 12 12 13 13
REMARK H PARENT
REMARK Flexibility Score: inf
ROOT
ATOM      1  C   UNL     1     100.318  88.477  88.108  1.00  0.00     0.000 C 
ENDROOT
BRANCH   1   2
ATOM      2  C   UNL     1      99.548  88.259  86.795  1.00  0.00     0.000 C 
BRANCH   2   3
ATOM      3  C   UNL     1      99.979  89.236  85.687  1.00  0.00     0.006 C 
BRANCH   3   4
ATOM      4  C   UNL     1      98.860  90.214  85.309  1.00  0.00     0.053 C 
BRANCH   4   5
ATOM      5  C   UNL     1      99.024  91.540  85.988  1.00  0.00     0.041 C 
ATOM      6  O   UNL     1     100.141  92.119  85.984  1.00  0.00    -0.550 OA
ATOM      7  O   UNL     1      97.935  92.148  86.599  1.00  0.00    -0.550 OA
ENDBRANCH   4   5
ENDBRANCH   3   4
ENDBRANCH   2   3
ENDBRANCH   1   2
BRANCH   1   8
ATOM      8  C   UNL     1      99.666  89.538  89.009  1.00  0.00     0.000 C 
BRANCH   8   9
ATOM      9  C   UNL     1     100.157  89.404  90.455  1.00  0.00     0.006 C 
BRANCH   9  10
ATOM     10  C   UNL     1     100.681  87.992  90.729  1.00  0.00     0.053 C 
BRANCH  10  11
ATOM     11  C   UNL     1     101.365  87.936  92.058  1.00  0.00     0.041 C 
ATOM     12  O   UNL     1     102.070  86.938  92.367  1.00  0.00    -0.550 OA
ATOM     13  O   UNL     1     101.265  89.006  92.938  1.00  0.00    -0.550 OA
ENDBRANCH  10  11
ENDBRANCH   9  10
ENDBRANCH   8   9
ENDBRANCH   1   8
TORSDOF 8
ENDMDL
