MODEL 1
REMARK VINA RESULT:    -2.914      0.000      0.000
REMARK INTER + INTRA:          -3.292
REMARK INTER:                  -3.255
REMARK INTRA:                  -0.038
REMARK UNBOUND:                -0.038
REMARK SMILES CCCC(=O)[O-]
REMARK SMILES IDX 3 1 4 2 5 3 6 4 2 5 1 6
REMARK H PARENT
REMARK Flexibility Score: inf
ROOT
ATOM      1  C   UNL     1      27.681  -4.394  -2.845  1.00  0.00     0.052 C 
ENDROOT
BRANCH   1   2
ATOM      2  C   UNL     1      26.319  -4.125  -3.409  1.00  0.00     0.041 C 
ATOM      3  O   UNL     1      25.747  -4.989  -4.125  1.00  0.00    -0.550 OA
ATOM      4  O   UNL     1      25.667  -2.935  -3.114  1.00  0.00    -0.550 OA
ENDBRANCH   1   2
BRANCH   1   5
ATOM      5  C   UNL     1      27.622  -5.355  -1.650  1.00  0.00     0.003 C 
ATOM      6  C   UNL     1      27.626  -4.618  -0.311  1.00  0.00     0.004 C 
ENDBRANCH   1   5
TORSDOF 2
ENDMDL
MODEL 2
REMARK VINA RESULT:    -2.716      2.292      3.120
REMARK INTER + INTRA:          -3.071
REMARK INTER:                  -3.066
REMARK INTRA:                  -0.006
REMARK UNBOUND:                -0.038
REMARK SMILES CCCC(=O)[O-]
REMARK SMILES IDX 3 1 4 2 5 3 6 4 2 5 1 6
REMARK H PARENT
REMARK Flexibility Score: inf
ROOT
ATOM      1  C   UNL     1      26.259  -4.462  -2.499  1.00  0.00     0.052 C 
ENDROOT
BRANCH   1   2
ATOM      2  C   UNL     1      27.525  -5.039  -1.940  1.00  0.00     0.041 C 
ATOM      3  O   UNL     1      28.291  -5.715  -2.676  1.00  0.00    -0.550 OA
ATOM      4  O   UNL     1      27.873  -4.800  -0.618  1.00  0.00    -0.550 OA
ENDBRANCH   1   2
BRANCH   1   5
ATOM      5  C   UNL     1      26.416  -2.975  -2.844  1.00  0.00     0.003 C 
ATOM      6  C   UNL     1      25.070  -2.288  -3.077  1.00  0.00     0.004 C 
ENDBRANCH   1   5
TORSDOF 2
ENDMDL
MODEL 3
REMARK VINA RESULT:    -2.702      1.839      2.457
REMARK INTER + INTRA:          -3.056
REMARK INTER:                  -3.002
REMARK INTRA:                  -0.054
REMARK UNBOUND:                -0.038
REMARK SMILES CCCC(=O)[O-]
REMARK SMILES IDX 3 1 4 2 5 3 6 4 2 5 1 6
REMARK H PARENT
REMARK Flexibility Score: inf
ROOT
ATOM      1  C   UNL     1      26.124  -5.094  -3.475  1.00  0.00     0.052 C 
ENDROOT
BRANCH   1   2
ATOM      2  C   UNL     1      26.330  -3.895  -2.599  1.00  0.00     0.041 C 
ATOM      3  O   UNL     1      25.971  -2.754  -2.992  1.00  0.00    -0.550 OA
ATOM      4  O   UNL     1      26.887  -4.044  -1.336  1.00  0.00    -0.550 OA
ENDBRANCH   1   2
BRANCH   1   5
ATOM      5  C   UNL     1      27.274  -6.100  -3.343  1.00  0.00     0.003 C 
ATOM      6  C   UNL     1      28.515  -5.670  -4.125  1.00  0.00     0.004 C 
ENDBRANCH   1   5
TORSDOF 2
ENDMDL
MODEL 4
REMARK VINA RESULT:    -2.502      2.059      3.208
REMARK INTER + INTRA:          -2.832
REMARK INTER:                  -2.827
REMARK INTRA:                  -0.005
REMARK UNBOUND:                -0.038
REMARK SMILES CCCC(=O)[O-]
REMARK SMILES IDX 3 1 4 2 5 3 6 4 2 5 1 6
REMARK H PARENT
REMARK Flexibility Score: inf
ROOT
ATOM      1  C   UNL     1      26.126  -3.249  -2.378  1.00  0.00     0.052 C 
ENDROOT
BRANCH   1   2
ATOM      2  C   UNL     1      26.849  -4.411  -2.988  1.00  0.00     0.041 C 
ATOM      3  O   UNL     1      27.787  -4.215  -3.806  1.00  0.00    -0.550 OA
ATOM      4  O   UNL     1      26.511  -5.709  -2.627  1.00  0.00    -0.550 OA
ENDBRANCH   1   2
BRANCH   1   5
ATOM      5  C   UNL     1      25.400  -2.411  -3.438  1.00  0.00     0.003 C 
ATOM      6  C   UNL     1      24.269  -1.573  -2.843  1.00  0.00     0.004 C 
ENDBRANCH   1   5
TORSDOF 2
ENDMDL
MODEL 5
REMARK VINA RESULT:    -2.394     18.836     19.212
REMARK INTER + INTRA:          -2.712
REMARK INTER:                  -2.704
REMARK INTRA:                  -0.009
REMARK UNBOUND:                -0.038
REMARK SMILES CCCC(=O)[O-]
REMARK SMILES IDX 3 1 4 2 5 3 6 4 2 5 1 6
REMARK H PARENT
REMARK Flexibility Score: inf
ROOT
ATOM      1  C   UNL     1       9.979  -4.709   6.823  1.00  0.00     0.052 C 
ENDROOT
BRANCH   1   2
ATOM      2  C   UNL     1      10.342  -4.965   5.392  1.00  0.00     0.041 C 
ATOM      3  O   UNL     1      11.267  -4.308   4.846  1.00  0.00    -0.550 OA
ATOM      4  O   UNL     1       9.682  -5.953   4.672  1.00  0.00    -0.550 OA
ENDBRANCH   1   2
BRANCH   1   5
ATOM      5  C   UNL     1       9.110  -5.834   7.399  1.00  0.00     0.003 C 
ATOM      6  C   UNL     1       8.999  -5.761   8.922  1.00  0.00     0.004 C 
ENDBRANCH   1   5
TORSDOF 2
ENDMDL
MODEL 6
REMARK VINA RESULT:    -2.328     23.285     23.936
REMARK INTER + INTRA:          -2.638
REMARK INTER:                  -2.633
REMARK INTRA:                  -0.005
REMARK UNBOUND:                -0.038
REMARK SMILES CCCC(=O)[O-]
REMARK SMILES IDX 3 1 4 2 5 3 6 4 2 5 1 6
REMARK H PARENT
REMARK Flexibility Score: inf
ROOT
ATOM      1  C   UNL     1       9.891  -2.812  13.443  1.00  0.00     0.052 C 
ENDROOT
BRANCH   1   2
ATOM      2  C   UNL     1      10.330  -1.444  13.871  1.00  0.00     0.041 C 
ATOM      3  O   UNL     1      11.519  -1.246  14.234  1.00  0.00    -0.550 OA
ATOM      4  O   UNL     1       9.435  -0.383  13.835  1.00  0.00    -0.550 OA
ENDBRANCH   1   2
BRANCH   1   5
ATOM      5  C   UNL     1       8.878  -3.417  14.422  1.00  0.00     0.003 C 
ATOM      6  C   UNL     1       8.875  -4.945  14.386  1.00  0.00     0.004 C 
ENDBRANCH   1   5
TORSDOF 2
ENDMDL
MODEL 7
REMARK VINA RESULT:    -2.324     19.326     19.749
REMARK INTER + INTRA:          -2.634
REMARK INTER:                  -2.606
REMARK INTRA:                  -0.028
REMARK UNBOUND:                -0.038
REMARK SMILES CCCC(=O)[O-]
REMARK SMILES IDX 3 1 4 2 5 3 6 4 2 5 1 6
REMARK H PARENT
REMARK Flexibility Score: inf
ROOT
ATOM      1  C   UNL     1       9.331  -4.643   6.927  1.00  0.00     0.052 C 
ENDROOT
BRANCH   1   2
ATOM      2  C   UNL     1       9.779  -5.401   8.140  1.00  0.00     0.041 C 
ATOM      3  O   UNL     1      10.982  -5.754   8.258  1.00  0.00    -0.550 OA
ATOM      4  O   UNL     1       8.875  -5.687   9.154  1.00  0.00    -0.550 OA
ENDBRANCH   1   2
BRANCH   1   5
ATOM      5  C   UNL     1       9.601  -5.425   5.635  1.00  0.00     0.003 C 
ATOM      6  C   UNL     1      10.814  -4.889   4.875  1.00  0.00     0.004 C 
ENDBRANCH   1   5
TORSDOF 2
ENDMDL
MODEL 8
REMARK VINA RESULT:    -2.166     12.943     13.518
REMARK INTER + INTRA:          -2.457
REMARK INTER:                  -2.412
REMARK INTRA:                  -0.045
REMARK UNBOUND:                -0.038
REMARK SMILES CCCC(=O)[O-]
REMARK SMILES IDX 3 1 4 2 5 3 6 4 2 5 1 6
REMARK H PARENT
REMARK Flexibility Score: inf
ROOT
ATOM      1  C   UNL     1      27.579   9.258  -0.397  1.00  0.00     0.052 C 
ENDROOT
BRANCH   1   2
ATOM      2  C   UNL     1      27.321   7.952  -1.087  1.00  0.00     0.041 C 
ATOM      3  O   UNL     1      27.892   6.903  -0.690  1.00  0.00    -0.550 OA
ATOM      4  O   UNL     1      26.424   7.890  -2.145  1.00  0.00    -0.550 OA
ENDBRANCH   1   2
BRANCH   1   5
ATOM      5  C   UNL     1      28.844   9.942  -0.930  1.00  0.00     0.003 C 
ATOM      6  C   UNL     1      28.589  10.703  -2.231  1.00  0.00     0.004 C 
ENDBRANCH   1   5
TORSDOF 2
ENDMDL
