MODEL 1
REMARK VINA RESULT:    -7.350      0.000      0.000
REMARK INTER + INTRA:          -7.350
REMARK INTER:                  -7.350
REMARK INTRA:                   0.000
REMARK UNBOUND:                 0.000
REMARK SMILES C[NH+]1CCN(C2=[NH+]c3ccccc3Oc3ccc(Cl)cc32)CC1
REMARK SMILES IDX 7 1 6 2 21 3 5 4 8 5 9 6 13 7 10 8 12 9 14 10 11 11 15 12
REMARK SMILES IDX 16 13 17 14 18 15 20 16 19 17 4 18 22 19 3 20 23 21 2 22
REMARK SMILES IDX 1 23
REMARK H PARENT 7 24 2 25
REMARK Flexibility Score: inf
ROOT
ATOM      1  N   UNL     1     115.881 123.833 142.292  1.00  0.00    -0.237 N 
ATOM      2  C   UNL     1     115.375 122.911 141.515  1.00  0.00     0.286 C 
ATOM      3  C   UNL     1     113.942 122.863 141.122  1.00  0.00     0.108 A 
ATOM      4  N   UNL     1     116.252 121.908 140.965  1.00  0.00    -0.250 N 
ATOM      5  C   UNL     1     115.195 124.938 142.906  1.00  0.00     0.168 A 
ATOM      6  C   UNL     1     115.909 126.131 143.113  1.00  0.00     0.056 A 
ATOM      7  C   UNL     1     113.911 124.804 143.475  1.00  0.00     0.173 A 
ATOM      8  C   UNL     1     115.357 127.175 143.859  1.00  0.00     0.005 A 
ATOM      9  C   UNL     1     113.381 125.842 144.252  1.00  0.00     0.052 A 
ATOM     10  O   UNL     1     113.131 123.667 143.292  1.00  0.00    -0.452 OA
ATOM     11  C   UNL     1     114.096 127.027 144.437  1.00  0.00     0.004 A 
ATOM     12  C   UNL     1     112.899 123.123 142.032  1.00  0.00     0.143 A 
ATOM     13  C   UNL     1     111.574 122.845 141.675  1.00  0.00     0.049 A 
ATOM     14  C   UNL     1     111.266 122.363 140.403  1.00  0.00     0.024 A 
ATOM     15  C   UNL     1     112.288 122.144 139.478  1.00  0.00     0.042 A 
ATOM     16  C   UNL     1     113.616 122.386 139.837  1.00  0.00     0.041 A 
ATOM     17  Cl  UNL     1     111.907 121.539 137.876  1.00  0.00    -0.084 Cl
ATOM     18  C   UNL     1     117.524 122.284 140.345  1.00  0.00     0.298 C 
ATOM     19  C   UNL     1     116.020 120.492 141.262  1.00  0.00     0.298 C 
ATOM     20  C   UNL     1     117.798 121.380 139.137  1.00  0.00     0.308 C 
ATOM     21  C   UNL     1     116.340 119.644 140.026  1.00  0.00     0.308 C 
ATOM     22  N   UNL     1     117.691 119.953 139.509  1.00  0.00    -0.331 N 
ATOM     23  C   UNL     1     117.990 119.104 138.343  1.00  0.00     0.332 C 
ATOM     24  H   UNL     1     116.912 123.799 142.468  1.00  0.00     0.312 HD
ATOM     25  H   UNL     1     118.400 119.738 140.251  1.00  0.00     0.348 HD
ENDROOT
TORSDOF 0
ENDMDL
MODEL 2
REMARK VINA RESULT:    -7.242      2.533      4.498
REMARK INTER + INTRA:          -7.242
REMARK INTER:                  -7.242
REMARK INTRA:                   0.000
REMARK UNBOUND:                 0.000
REMARK SMILES C[NH+]1CCN(C2=[NH+]c3ccccc3Oc3ccc(Cl)cc32)CC1
REMARK SMILES IDX 7 1 6 2 21 3 5 4 8 5 9 6 13 7 10 8 12 9 14 10 11 11 15 12
REMARK SMILES IDX 16 13 17 14 18 15 20 16 19 17 4 18 22 19 3 20 23 21 2 22
REMARK SMILES IDX 1 23
REMARK H PARENT 7 24 2 25
REMARK Flexibility Score: inf
ROOT
ATOM      1  N   UNL     1     112.801 122.276 140.469  1.00  0.00    -0.237 N 
ATOM      2  C   UNL     1     113.991 122.376 141.004  1.00  0.00     0.286 C 
ATOM      3  C   UNL     1     114.226 122.781 142.415  1.00  0.00     0.108 A 
ATOM      4  N   UNL     1     115.141 122.031 140.207  1.00  0.00    -0.250 N 
ATOM      5  C   UNL     1     111.532 122.530 141.096  1.00  0.00     0.168 A 
ATOM      6  C   UNL     1     110.421 121.779 140.674  1.00  0.00     0.056 A 
ATOM      7  C   UNL     1     111.327 123.620 141.966  1.00  0.00     0.173 A 
ATOM      8  C   UNL     1     109.134 122.097 141.114  1.00  0.00     0.005 A 
ATOM      9  C   UNL     1     110.029 123.953 142.374  1.00  0.00     0.052 A 
ATOM     10  O   UNL     1     112.378 124.393 142.452  1.00  0.00    -0.452 OA
ATOM     11  C   UNL     1     108.936 123.190 141.957  1.00  0.00     0.004 A 
ATOM     12  C   UNL     1     113.508 123.825 143.031  1.00  0.00     0.143 A 
ATOM     13  C   UNL     1     113.920 124.316 144.276  1.00  0.00     0.049 A 
ATOM     14  C   UNL     1     115.004 123.745 144.943  1.00  0.00     0.024 A 
ATOM     15  C   UNL     1     115.694 122.681 144.362  1.00  0.00     0.042 A 
ATOM     16  C   UNL     1     115.312 122.207 143.104  1.00  0.00     0.041 A 
ATOM     17  Cl  UNL     1     117.057 121.958 145.196  1.00  0.00    -0.084 Cl
ATOM     18  C   UNL     1     115.169 120.793 139.427  1.00  0.00     0.298 C 
ATOM     19  C   UNL     1     116.177 123.035 139.948  1.00  0.00     0.298 C 
ATOM     20  C   UNL     1     116.581 120.196 139.452  1.00  0.00     0.308 C 
ATOM     21  C   UNL     1     117.558 122.370 139.957  1.00  0.00     0.308 C 
ATOM     22  N   UNL     1     117.588 121.202 139.049  1.00  0.00    -0.331 N 
ATOM     23  C   UNL     1     118.932 120.600 139.048  1.00  0.00     0.332 C 
ATOM     24  H   UNL     1     112.747 121.937 139.480  1.00  0.00     0.312 HD
ATOM     25  H   UNL     1     117.380 121.522 138.072  1.00  0.00     0.348 HD
ENDROOT
TORSDOF 0
ENDMDL
MODEL 3
REMARK VINA RESULT:    -7.057      3.609      6.284
REMARK INTER + INTRA:          -7.057
REMARK INTER:                  -7.057
REMARK INTRA:                   0.000
REMARK UNBOUND:                 0.000
REMARK SMILES C[NH+]1CCN(C2=[NH+]c3ccccc3Oc3ccc(Cl)cc32)CC1
REMARK SMILES IDX 7 1 6 2 21 3 5 4 8 5 9 6 13 7 10 8 12 9 14 10 11 11 15 12
REMARK SMILES IDX 16 13 17 14 18 15 20 16 19 17 4 18 22 19 3 20 23 21 2 22
REMARK SMILES IDX 1 23
REMARK H PARENT 7 24 2 25
REMARK Flexibility Score: inf
ROOT
ATOM      1  N   UNL     1     116.314 123.874 139.404  1.00  0.00    -0.237 N 
ATOM      2  C   UNL     1     115.476 124.603 140.096  1.00  0.00     0.286 C 
ATOM      3  C   UNL     1     115.495 124.692 141.580  1.00  0.00     0.108 A 
ATOM      4  N   UNL     1     114.508 125.405 139.391  1.00  0.00    -0.250 N 
ATOM      5  C   UNL     1     117.373 123.041 139.905  1.00  0.00     0.168 A 
ATOM      6  C   UNL     1     118.528 122.889 139.117  1.00  0.00     0.056 A 
ATOM      7  C   UNL     1     117.218 122.230 141.048  1.00  0.00     0.173 A 
ATOM      8  C   UNL     1     119.512 121.960 139.461  1.00  0.00     0.005 A 
ATOM      9  C   UNL     1     118.194 121.277 141.365  1.00  0.00     0.052 A 
ATOM     10  O   UNL     1     116.119 122.341 141.895  1.00  0.00    -0.452 OA
ATOM     11  C   UNL     1     119.341 121.147 140.581  1.00  0.00     0.004 A 
ATOM     12  C   UNL     1     115.695 123.566 142.402  1.00  0.00     0.143 A 
ATOM     13  C   UNL     1     115.479 123.661 143.782  1.00  0.00     0.049 A 
ATOM     14  C   UNL     1     115.120 124.877 144.364  1.00  0.00     0.024 A 
ATOM     15  C   UNL     1     114.963 126.009 143.564  1.00  0.00     0.042 A 
ATOM     16  C   UNL     1     115.142 125.916 142.181  1.00  0.00     0.041 A 
ATOM     17  Cl  UNL     1     114.512 127.542 144.289  1.00  0.00    -0.084 Cl
ATOM     18  C   UNL     1     114.910 126.243 138.259  1.00  0.00     0.298 C 
ATOM     19  C   UNL     1     113.076 125.185 139.614  1.00  0.00     0.298 C 
ATOM     20  C   UNL     1     114.112 127.552 138.276  1.00  0.00     0.308 C 
ATOM     21  C   UNL     1     112.335 126.526 139.588  1.00  0.00     0.308 C 
ATOM     22  N   UNL     1     112.660 127.286 138.361  1.00  0.00    -0.331 N 
ATOM     23  C   UNL     1     111.912 128.555 138.342  1.00  0.00     0.332 C 
ATOM     24  H   UNL     1     116.242 123.920 138.361  1.00  0.00     0.312 HD
ATOM     25  H   UNL     1     112.364 126.728 137.524  1.00  0.00     0.348 HD
ENDROOT
TORSDOF 0
ENDMDL
MODEL 4
REMARK VINA RESULT:    -7.014      2.808      5.843
REMARK INTER + INTRA:          -7.014
REMARK INTER:                  -7.014
REMARK INTRA:                   0.000
REMARK UNBOUND:                 0.000
REMARK SMILES C[NH+]1CCN(C2=[NH+]c3ccccc3Oc3ccc(Cl)cc32)CC1
REMARK SMILES IDX 7 1 6 2 21 3 5 4 8 5 9 6 13 7 10 8 12 9 14 10 11 11 15 12
REMARK SMILES IDX 16 13 17 14 18 15 20 16 19 17 4 18 22 19 3 20 23 21 2 22
REMARK SMILES IDX 1 23
REMARK H PARENT 7 24 2 25
REMARK Flexibility Score: inf
ROOT
ATOM      1  N   UNL     1     115.446 122.431 139.643  1.00  0.00    -0.237 N 
ATOM      2  C   UNL     1     114.503 122.760 140.487  1.00  0.00     0.286 C 
ATOM      3  C   UNL     1     114.752 123.065 141.921  1.00  0.00     0.108 A 
ATOM      4  N   UNL     1     113.151 122.882 140.004  1.00  0.00    -0.250 N 
ATOM      5  C   UNL     1     116.853 122.295 139.908  1.00  0.00     0.168 A 
ATOM      6  C   UNL     1     117.756 122.602 138.875  1.00  0.00     0.056 A 
ATOM      7  C   UNL     1     117.343 121.688 141.083  1.00  0.00     0.173 A 
ATOM      8  C   UNL     1     119.118 122.323 139.009  1.00  0.00     0.005 A 
ATOM      9  C   UNL     1     118.705 121.381 141.194  1.00  0.00     0.052 A 
ATOM     10  O   UNL     1     116.518 121.381 142.161  1.00  0.00    -0.452 OA
ATOM     11  C   UNL     1     119.592 121.705 140.165  1.00  0.00     0.004 A 
ATOM     12  C   UNL     1     115.641 122.311 142.711  1.00  0.00     0.143 A 
ATOM     13  C   UNL     1     115.670 122.494 144.099  1.00  0.00     0.049 A 
ATOM     14  C   UNL     1     114.865 123.458 144.706  1.00  0.00     0.024 A 
ATOM     15  C   UNL     1     114.014 124.242 143.927  1.00  0.00     0.042 A 
ATOM     16  C   UNL     1     113.953 124.043 142.546  1.00  0.00     0.041 A 
ATOM     17  Cl  UNL     1     113.000 125.457 144.685  1.00  0.00    -0.084 Cl
ATOM     18  C   UNL     1     112.856 123.632 138.781  1.00  0.00     0.298 C 
ATOM     19  C   UNL     1     112.094 122.037 140.567  1.00  0.00     0.298 C 
ATOM     20  C   UNL     1     111.529 124.382 138.940  1.00  0.00     0.308 C 
ATOM     21  C   UNL     1     110.790 122.835 140.671  1.00  0.00     0.308 C 
ATOM     22  N   UNL     1     110.453 123.466 139.376  1.00  0.00    -0.331 N 
ATOM     23  C   UNL     1     109.181 124.200 139.490  1.00  0.00     0.332 C 
ATOM     24  H   UNL     1     115.166 122.281 138.646  1.00  0.00     0.312 HD
ATOM     25  H   UNL     1     110.326 122.718 138.652  1.00  0.00     0.348 HD
ENDROOT
TORSDOF 0
ENDMDL
MODEL 5
REMARK VINA RESULT:    -6.826      3.164      4.518
REMARK INTER + INTRA:          -6.826
REMARK INTER:                  -6.826
REMARK INTRA:                   0.000
REMARK UNBOUND:                 0.000
REMARK SMILES C[NH+]1CCN(C2=[NH+]c3ccccc3Oc3ccc(Cl)cc32)CC1
REMARK SMILES IDX 7 1 6 2 21 3 5 4 8 5 9 6 13 7 10 8 12 9 14 10 11 11 15 12
REMARK SMILES IDX 16 13 17 14 18 15 20 16 19 17 4 18 22 19 3 20 23 21 2 22
REMARK SMILES IDX 1 23
REMARK H PARENT 7 24 2 25
REMARK Flexibility Score: inf
ROOT
ATOM      1  N   UNL     1     112.075 124.994 141.679  1.00  0.00    -0.237 N 
ATOM      2  C   UNL     1     113.220 124.472 141.322  1.00  0.00     0.286 C 
ATOM      3  C   UNL     1     114.045 123.615 142.214  1.00  0.00     0.108 A 
ATOM      4  N   UNL     1     113.695 124.692 139.980  1.00  0.00    -0.250 N 
ATOM      5  C   UNL     1     111.406 124.865 142.945  1.00  0.00     0.168 A 
ATOM      6  C   UNL     1     110.000 124.881 142.959  1.00  0.00     0.056 A 
ATOM      7  C   UNL     1     112.100 124.917 144.172  1.00  0.00     0.173 A 
ATOM      8  C   UNL     1     109.297 124.936 144.164  1.00  0.00     0.005 A 
ATOM      9  C   UNL     1     111.386 125.008 145.373  1.00  0.00     0.052 A 
ATOM     10  O   UNL     1     113.489 124.875 144.243  1.00  0.00    -0.452 OA
ATOM     11  C   UNL     1     109.990 125.009 145.372  1.00  0.00     0.004 A 
ATOM     12  C   UNL     1     114.236 123.908 143.579  1.00  0.00     0.143 A 
ATOM     13  C   UNL     1     115.197 123.205 144.316  1.00  0.00     0.049 A 
ATOM     14  C   UNL     1     115.932 122.176 143.728  1.00  0.00     0.024 A 
ATOM     15  C   UNL     1     115.718 121.848 142.389  1.00  0.00     0.042 A 
ATOM     16  C   UNL     1     114.787 122.566 141.635  1.00  0.00     0.041 A 
ATOM     17  Cl  UNL     1     116.639 120.553 141.644  1.00  0.00    -0.084 Cl
ATOM     18  C   UNL     1     112.808 124.505 138.830  1.00  0.00     0.298 C 
ATOM     19  C   UNL     1     114.977 125.367 139.761  1.00  0.00     0.298 C 
ATOM     20  C   UNL     1     113.596 123.901 137.662  1.00  0.00     0.308 C 
ATOM     21  C   UNL     1     115.698 124.737 138.564  1.00  0.00     0.308 C 
ATOM     22  N   UNL     1     114.813 124.691 137.379  1.00  0.00    -0.331 N 
ATOM     23  C   UNL     1     115.536 124.113 136.233  1.00  0.00     0.332 C 
ATOM     24  H   UNL     1     111.553 125.544 140.957  1.00  0.00     0.312 HD
ATOM     25  H   UNL     1     114.535 125.668 137.121  1.00  0.00     0.348 HD
ENDROOT
TORSDOF 0
ENDMDL
MODEL 6
REMARK VINA RESULT:    -6.774      6.122      9.731
REMARK INTER + INTRA:          -6.774
REMARK INTER:                  -6.774
REMARK INTRA:                   0.000
REMARK UNBOUND:                 0.000
REMARK SMILES C[NH+]1CCN(C2=[NH+]c3ccccc3Oc3ccc(Cl)cc32)CC1
REMARK SMILES IDX 7 1 6 2 21 3 5 4 8 5 9 6 13 7 10 8 12 9 14 10 11 11 15 12
REMARK SMILES IDX 16 13 17 14 18 15 20 16 19 17 4 18 22 19 3 20 23 21 2 22
REMARK SMILES IDX 1 23
REMARK H PARENT 7 24 2 25
REMARK Flexibility Score: inf
ROOT
ATOM      1  N   UNL     1     113.078 117.124 136.944  1.00  0.00    -0.237 N 
ATOM      2  C   UNL     1     114.382 117.031 136.900  1.00  0.00     0.286 C 
ATOM      3  C   UNL     1     115.115 116.231 135.883  1.00  0.00     0.108 A 
ATOM      4  N   UNL     1     115.164 117.779 137.852  1.00  0.00    -0.250 N 
ATOM      5  C   UNL     1     112.123 116.498 136.070  1.00  0.00     0.168 A 
ATOM      6  C   UNL     1     110.917 117.173 135.812  1.00  0.00     0.056 A 
ATOM      7  C   UNL     1     112.267 115.167 135.627  1.00  0.00     0.173 A 
ATOM      8  C   UNL     1     109.881 116.545 135.118  1.00  0.00     0.005 A 
ATOM      9  C   UNL     1     111.209 114.534 134.963  1.00  0.00     0.052 A 
ATOM     10  O   UNL     1     113.440 114.442 135.818  1.00  0.00    -0.452 OA
ATOM     11  C   UNL     1     110.022 115.222 134.701  1.00  0.00     0.004 A 
ATOM     12  C   UNL     1     114.689 114.951 135.478  1.00  0.00     0.143 A 
ATOM     13  C   UNL     1     115.530 114.150 134.695  1.00  0.00     0.049 A 
ATOM     14  C   UNL     1     116.767 114.628 134.263  1.00  0.00     0.024 A 
ATOM     15  C   UNL     1     117.179 115.911 134.622  1.00  0.00     0.042 A 
ATOM     16  C   UNL     1     116.363 116.705 135.431  1.00  0.00     0.041 A 
ATOM     17  Cl  UNL     1     118.734 116.518 134.080  1.00  0.00    -0.084 Cl
ATOM     18  C   UNL     1     114.883 119.194 138.106  1.00  0.00     0.298 C 
ATOM     19  C   UNL     1     116.061 117.076 138.773  1.00  0.00     0.298 C 
ATOM     20  C   UNL     1     116.197 119.950 138.335  1.00  0.00     0.308 C 
ATOM     21  C   UNL     1     117.339 117.897 138.981  1.00  0.00     0.308 C 
ATOM     22  N   UNL     1     117.015 119.287 139.373  1.00  0.00    -0.331 N 
ATOM     23  C   UNL     1     118.256 120.048 139.600  1.00  0.00     0.332 C 
ATOM     24  H   UNL     1     112.667 117.752 137.673  1.00  0.00     0.312 HD
ATOM     25  H   UNL     1     116.480 119.273 140.275  1.00  0.00     0.348 HD
ENDROOT
TORSDOF 0
ENDMDL
MODEL 7
REMARK VINA RESULT:    -6.750      3.895      5.173
REMARK INTER + INTRA:          -6.750
REMARK INTER:                  -6.750
REMARK INTRA:                   0.000
REMARK UNBOUND:                 0.000
REMARK SMILES C[NH+]1CCN(C2=[NH+]c3ccccc3Oc3ccc(Cl)cc32)CC1
REMARK SMILES IDX 7 1 6 2 21 3 5 4 8 5 9 6 13 7 10 8 12 9 14 10 11 11 15 12
REMARK SMILES IDX 16 13 17 14 18 15 20 16 19 17 4 18 22 19 3 20 23 21 2 22
REMARK SMILES IDX 1 23
REMARK H PARENT 7 24 2 25
REMARK Flexibility Score: inf
ROOT
ATOM      1  N   UNL     1     114.872 126.474 140.706  1.00  0.00    -0.237 N 
ATOM      2  C   UNL     1     113.951 126.089 139.861  1.00  0.00     0.286 C 
ATOM      3  C   UNL     1     112.962 125.018 140.153  1.00  0.00     0.108 A 
ATOM      4  N   UNL     1     113.848 126.765 138.592  1.00  0.00    -0.250 N 
ATOM      5  C   UNL     1     115.118 125.964 142.028  1.00  0.00     0.168 A 
ATOM      6  C   UNL     1     115.620 126.850 142.998  1.00  0.00     0.056 A 
ATOM      7  C   UNL     1     115.058 124.588 142.328  1.00  0.00     0.173 A 
ATOM      8  C   UNL     1     116.044 126.381 144.243  1.00  0.00     0.005 A 
ATOM      9  C   UNL     1     115.519 124.123 143.567  1.00  0.00     0.052 A 
ATOM     10  O   UNL     1     114.546 123.653 141.433  1.00  0.00    -0.452 OA
ATOM     11  C   UNL     1     116.002 125.016 144.525  1.00  0.00     0.004 A 
ATOM     12  C   UNL     1     113.315 123.823 140.809  1.00  0.00     0.143 A 
ATOM     13  C   UNL     1     112.406 122.758 140.857  1.00  0.00     0.049 A 
ATOM     14  C   UNL     1     111.130 122.887 140.310  1.00  0.00     0.024 A 
ATOM     15  C   UNL     1     110.754 124.083 139.698  1.00  0.00     0.042 A 
ATOM     16  C   UNL     1     111.666 125.139 139.614  1.00  0.00     0.041 A 
ATOM     17  Cl  UNL     1     109.150 124.252 139.010  1.00  0.00    -0.084 Cl
ATOM     18  C   UNL     1     113.856 128.228 138.519  1.00  0.00     0.298 C 
ATOM     19  C   UNL     1     114.010 126.010 137.347  1.00  0.00     0.298 C 
ATOM     20  C   UNL     1     112.896 128.697 137.420  1.00  0.00     0.308 C 
ATOM     21  C   UNL     1     113.045 126.547 136.284  1.00  0.00     0.308 C 
ATOM     22  N   UNL     1     113.181 128.014 136.140  1.00  0.00    -0.331 N 
ATOM     23  C   UNL     1     112.269 128.503 135.092  1.00  0.00     0.332 C 
ATOM     24  H   UNL     1     115.487 127.269 140.416  1.00  0.00     0.312 HD
ATOM     25  H   UNL     1     114.160 128.240 135.842  1.00  0.00     0.348 HD
ENDROOT
TORSDOF 0
ENDMDL
MODEL 8
REMARK VINA RESULT:    -6.674      2.855      4.536
REMARK INTER + INTRA:          -6.674
REMARK INTER:                  -6.674
REMARK INTRA:                   0.000
REMARK UNBOUND:                 0.000
REMARK SMILES C[NH+]1CCN(C2=[NH+]c3ccccc3Oc3ccc(Cl)cc32)CC1
REMARK SMILES IDX 7 1 6 2 21 3 5 4 8 5 9 6 13 7 10 8 12 9 14 10 11 11 15 12
REMARK SMILES IDX 16 13 17 14 18 15 20 16 19 17 4 18 22 19 3 20 23 21 2 22
REMARK SMILES IDX 1 23
REMARK H PARENT 7 24 2 25
REMARK Flexibility Score: inf
ROOT
ATOM      1  N   UNL     1     111.693 124.225 141.637  1.00  0.00    -0.237 N 
ATOM      2  C   UNL     1     112.551 123.568 140.900  1.00  0.00     0.286 C 
ATOM      3  C   UNL     1     113.792 122.950 141.437  1.00  0.00     0.108 A 
ATOM      4  N   UNL     1     112.266 123.385 139.499  1.00  0.00    -0.250 N 
ATOM      5  C   UNL     1     111.765 124.483 143.049  1.00  0.00     0.168 A 
ATOM      6  C   UNL     1     110.562 124.572 143.771  1.00  0.00     0.056 A 
ATOM      7  C   UNL     1     112.971 124.837 143.689  1.00  0.00     0.173 A 
ATOM      8  C   UNL     1     110.555 124.993 145.102  1.00  0.00     0.005 A 
ATOM      9  C   UNL     1     112.950 125.292 145.014  1.00  0.00     0.052 A 
ATOM     10  O   UNL     1     114.205 124.747 143.053  1.00  0.00    -0.452 OA
ATOM     11  C   UNL     1     111.748 125.362 145.722  1.00  0.00     0.004 A 
ATOM     12  C   UNL     1     114.611 123.598 142.383  1.00  0.00     0.143 A 
ATOM     13  C   UNL     1     115.876 123.079 142.684  1.00  0.00     0.049 A 
ATOM     14  C   UNL     1     116.316 121.892 142.098  1.00  0.00     0.024 A 
ATOM     15  C   UNL     1     115.494 121.218 141.194  1.00  0.00     0.042 A 
ATOM     16  C   UNL     1     114.245 121.747 140.861  1.00  0.00     0.041 A 
ATOM     17  Cl  UNL     1     116.042 119.725 140.454  1.00  0.00    -0.084 Cl
ATOM     18  C   UNL     1     110.946 122.932 139.055  1.00  0.00     0.298 C 
ATOM     19  C   UNL     1     113.192 123.908 138.491  1.00  0.00     0.298 C 
ATOM     20  C   UNL     1     111.099 121.990 137.855  1.00  0.00     0.308 C 
ATOM     21  C   UNL     1     113.275 122.937 137.308  1.00  0.00     0.308 C 
ATOM     22  N   UNL     1     111.926 122.610 136.797  1.00  0.00    -0.331 N 
ATOM     23  C   UNL     1     112.031 121.703 135.642  1.00  0.00     0.332 C 
ATOM     24  H   UNL     1     110.829 124.579 141.165  1.00  0.00     0.312 HD
ATOM     25  H   UNL     1     111.460 123.491 136.470  1.00  0.00     0.348 HD
ENDROOT
TORSDOF 0
ENDMDL
MODEL 9
REMARK VINA RESULT:    -6.624      3.737      5.299
REMARK INTER + INTRA:          -6.624
REMARK INTER:                  -6.624
REMARK INTRA:                   0.000
REMARK UNBOUND:                 0.000
REMARK SMILES C[NH+]1CCN(C2=[NH+]c3ccccc3Oc3ccc(Cl)cc32)CC1
REMARK SMILES IDX 7 1 6 2 21 3 5 4 8 5 9 6 13 7 10 8 12 9 14 10 11 11 15 12
REMARK SMILES IDX 16 13 17 14 18 15 20 16 19 17 4 18 22 19 3 20 23 21 2 22
REMARK SMILES IDX 1 23
REMARK H PARENT 7 24 2 25
REMARK Flexibility Score: inf
ROOT
ATOM      1  N   UNL     1     112.950 124.400 141.796  1.00  0.00    -0.237 N 
ATOM      2  C   UNL     1     112.520 124.705 140.599  1.00  0.00     0.286 C 
ATOM      3  C   UNL     1     113.139 125.753 139.746  1.00  0.00     0.108 A 
ATOM      4  N   UNL     1     111.417 123.960 140.048  1.00  0.00    -0.250 N 
ATOM      5  C   UNL     1     114.052 124.987 142.509  1.00  0.00     0.168 A 
ATOM      6  C   UNL     1     114.778 124.174 143.397  1.00  0.00     0.056 A 
ATOM      7  C   UNL     1     114.304 126.375 142.496  1.00  0.00     0.173 A 
ATOM      8  C   UNL     1     115.741 124.723 144.246  1.00  0.00     0.005 A 
ATOM      9  C   UNL     1     115.247 126.921 143.376  1.00  0.00     0.052 A 
ATOM     10  O   UNL     1     113.649 127.242 141.626  1.00  0.00    -0.452 OA
ATOM     11  C   UNL     1     115.970 126.098 144.242  1.00  0.00     0.004 A 
ATOM     12  C   UNL     1     113.562 126.994 140.260  1.00  0.00     0.143 A 
ATOM     13  C   UNL     1     113.926 128.026 139.386  1.00  0.00     0.049 A 
ATOM     14  C   UNL     1     113.927 127.821 138.006  1.00  0.00     0.024 A 
ATOM     15  C   UNL     1     113.552 126.581 137.488  1.00  0.00     0.042 A 
ATOM     16  C   UNL     1     113.154 125.557 138.351  1.00  0.00     0.041 A 
ATOM     17  Cl  UNL     1     113.552 126.318 135.753  1.00  0.00    -0.084 Cl
ATOM     18  C   UNL     1     111.396 122.497 140.107  1.00  0.00     0.298 C 
ATOM     19  C   UNL     1     110.182 124.653 139.671  1.00  0.00     0.298 C 
ATOM     20  C   UNL     1     110.778 121.935 138.821  1.00  0.00     0.308 C 
ATOM     21  C   UNL     1     109.601 124.025 138.400  1.00  0.00     0.308 C 
ATOM     22  N   UNL     1     109.465 122.560 138.548  1.00  0.00    -0.331 N 
ATOM     23  C   UNL     1     108.875 121.982 137.329  1.00  0.00     0.332 C 
ATOM     24  H   UNL     1     112.470 123.614 142.293  1.00  0.00     0.312 HD
ATOM     25  H   UNL     1     108.816 122.354 139.346  1.00  0.00     0.348 HD
ENDROOT
TORSDOF 0
ENDMDL
