MODEL 1
REMARK VINA RESULT:     4.212      0.000      0.000
REMARK INTER + INTRA:          13.023
REMARK INTER:                   6.428
REMARK INTRA:                   6.595
REMARK UNBOUND:                 6.595
REMARK SMILES CC1=CCC[C@@H](C)C(=O)C[C@H](C(C)C)C(=O)C1
REMARK SMILES IDX 8 1 9 2 6 3 7 4 5 5 4 6 3 7 2 8 1 9 10 11 11 12 15 13 16 14
REMARK SMILES IDX 17 15 12 17 13 18 14 19
REMARK H PARENT
REMARK Flexibility Score: 70.00
ROOT
ATOM      1  C   UNL     1      27.150  27.821  25.325  1.00  0.00     0.136 C 
ATOM      2  O   UNL     1      27.968  28.415  24.641  1.00  0.00    -0.299 OA
ENDROOT
BRANCH   1   3
ATOM      3  C   UNL     1      26.899  28.314  26.742  1.00  0.00     0.053 C 
ATOM      4  C   UNL     1      28.155  28.162  27.609  1.00  0.00     0.016 C 
BRANCH   3   5
ATOM      5  C   UNL     1      25.688  27.614  27.387  1.00  0.00     0.015 C 
BRANCH   5   6
ATOM      6  C   UNL     1      25.809  26.083  27.288  1.00  0.00     0.028 C 
BRANCH   6   7
ATOM      7  C   UNL     1      24.527  25.348  27.587  1.00  0.00    -0.028 C 
ATOM      8  C   UNL     1      24.051  24.258  26.931  1.00  0.00    -0.070 CG0
ATOM      9  C   UNL     1      22.664  23.789  27.299  1.00  0.00     0.039 C 
ATOM     10  G   UNL     1      24.854  23.416  25.942  1.00  0.00     0.000 G0
ENDBRANCH   6   7
ENDBRANCH   5   6
ENDBRANCH   3   5
ENDBRANCH   1   3
BRANCH   1  11
ATOM     11  C   UNL     1      26.464  26.590  24.765  1.00  0.00     0.087 C 
BRANCH  11  12
ATOM     12  C   UNL     1      26.623  25.275  25.588  1.00  0.00     0.066 C 
BRANCH  12  13
ATOM     13  C   UNL     1      25.819  24.107  25.032  1.00  0.00     0.140 C 
ATOM     14  O   UNL     1      26.050  23.671  23.913  1.00  0.00    -0.299 OA
BRANCH  13  15
ATOM     15  C   UNL     1      24.838  23.392  25.928  1.00  0.00     0.106 CG0
ATOM     16  G   UNL     1      24.132  24.257  26.969  1.00  0.00     0.000 G0
ENDBRANCH  13  15
ENDBRANCH  12  13
BRANCH  12  17
ATOM     17  C   UNL     1      28.088  24.884  25.979  1.00  0.00    -0.006 C 
ATOM     18  C   UNL     1      28.357  23.374  26.008  1.00  0.00     0.008 C 
ATOM     19  C   UNL     1      29.124  25.579  25.080  1.00  0.00     0.008 C 
ENDBRANCH  12  17
ENDBRANCH  11  12
ENDBRANCH   1  11
TORSDOF 1
ENDMDL
MODEL 2
REMARK VINA RESULT:     4.475     12.922     14.712
REMARK INTER + INTRA:          13.424
REMARK INTER:                  11.106
REMARK INTRA:                   2.318
REMARK UNBOUND:                 6.595
REMARK SMILES CC1=CCC[C@@H](C)C(=O)C[C@H](C(C)C)C(=O)C1
REMARK SMILES IDX 8 1 9 2 6 3 7 4 5 5 4 6 3 7 2 8 1 9 10 11 11 12 15 13 16 14
REMARK SMILES IDX 17 15 12 17 13 18 14 19
REMARK H PARENT
REMARK Flexibility Score: 70.00
ROOT
ATOM      1  C   UNL     1      13.237  31.584  27.614  1.00  0.00     0.136 C 
ATOM      2  O   UNL     1      13.051  30.378  27.653  1.00  0.00    -0.299 OA
ENDROOT
BRANCH   1   3
ATOM      3  C   UNL     1      12.251  32.441  26.834  1.00  0.00     0.053 C 
ATOM      4  C   UNL     1      12.892  33.767  26.407  1.00  0.00     0.016 C 
BRANCH   3   5
ATOM      5  C   UNL     1      10.949  32.678  27.622  1.00  0.00     0.015 C 
BRANCH   5   6
ATOM      6  C   UNL     1      11.131  32.353  29.114  1.00  0.00     0.028 C 
BRANCH   6   7
ATOM      7  C   UNL     1      10.744  30.943  29.485  1.00  0.00    -0.028 C 
ATOM      8  C   UNL     1      11.515  30.044  30.149  1.00  0.00    -0.070 CG0
ATOM      9  C   UNL     1      10.980  28.637  30.265  1.00  0.00     0.039 C 
ATOM     10  G   UNL     1      12.816  30.378  30.876  1.00  0.00     0.000 G0
ENDBRANCH   6   7
ENDBRANCH   5   6
ENDBRANCH   3   5
ENDBRANCH   1   3
BRANCH   1  11
ATOM     11  C   UNL     1      14.463  32.172  28.287  1.00  0.00     0.087 C 
BRANCH  11  12
ATOM     12  C   UNL     1      14.773  31.659  29.726  1.00  0.00     0.066 C 
BRANCH  12  13
ATOM     13  C   UNL     1      14.069  30.353  30.072  1.00  0.00     0.140 C 
ATOM     14  O   UNL     1      14.589  29.279  29.805  1.00  0.00    -0.299 OA
BRANCH  13  15
ATOM     15  C   UNL     1      12.798  30.391  30.883  1.00  0.00     0.106 CG0
ATOM     16  G   UNL     1      11.517  30.038  30.132  1.00  0.00     0.000 G0
ENDBRANCH  13  15
ENDBRANCH  12  13
BRANCH  12  17
ATOM     17  C   UNL     1      16.280  31.679  30.151  1.00  0.00    -0.006 C 
ATOM     18  C   UNL     1      17.271  31.528  28.990  1.00  0.00     0.008 C 
ATOM     19  C   UNL     1      16.626  32.934  30.970  1.00  0.00     0.008 C 
ENDBRANCH  12  17
ENDBRANCH  11  12
ENDBRANCH   1  11
TORSDOF 1
ENDMDL
MODEL 3
REMARK VINA RESULT:     4.878     12.874     14.943
REMARK INTER + INTRA:          14.039
REMARK INTER:                  12.595
REMARK INTRA:                   1.444
REMARK UNBOUND:                 6.595
REMARK SMILES CC1=CCC[C@@H](C)C(=O)C[C@H](C(C)C)C(=O)C1
REMARK SMILES IDX 8 1 9 2 6 3 7 4 5 5 4 6 3 7 2 8 1 9 10 11 11 12 15 13 16 14
REMARK SMILES IDX 17 15 12 17 13 18 14 19
REMARK H PARENT
REMARK Flexibility Score: 70.00
ROOT
ATOM      1  C   UNL     1      12.626  30.483  30.661  1.00  0.00     0.136 C 
ATOM      2  O   UNL     1      12.823  31.392  31.452  1.00  0.00    -0.299 OA
ENDROOT
BRANCH   1   3
ATOM      3  C   UNL     1      11.201  30.231  30.192  1.00  0.00     0.053 C 
ATOM      4  C   UNL     1      10.834  28.747  30.316  1.00  0.00     0.016 C 
BRANCH   3   5
ATOM      5  C   UNL     1      10.971  30.744  28.757  1.00  0.00     0.015 C 
BRANCH   5   6
ATOM      6  C   UNL     1      10.650  32.249  28.746  1.00  0.00     0.028 C 
BRANCH   6   7
ATOM      7  C   UNL     1      11.288  33.002  27.607  1.00  0.00    -0.028 C 
ATOM      8  C   UNL     1      12.506  32.756  27.059  1.00  0.00    -0.070 CG0
ATOM      9  C   UNL     1      13.009  33.745  26.035  1.00  0.00     0.039 C 
ATOM     10  G   UNL     1      13.343  31.506  27.319  1.00  0.00     0.000 G0
ENDBRANCH   6   7
ENDBRANCH   5   6
ENDBRANCH   3   5
ENDBRANCH   1   3
BRANCH   1  11
ATOM     11  C   UNL     1      13.787  29.610  30.224  1.00  0.00     0.087 C 
BRANCH  11  12
ATOM     12  C   UNL     1      14.739  30.215  29.147  1.00  0.00     0.066 C 
BRANCH  12  13
ATOM     13  C   UNL     1      14.233  31.523  28.552  1.00  0.00     0.140 C 
ATOM     14  O   UNL     1      14.635  32.596  28.979  1.00  0.00    -0.299 OA
BRANCH  13  15
ATOM     15  C   UNL     1      13.346  31.486  27.332  1.00  0.00     0.106 CG0
ATOM     16  G   UNL     1      12.521  32.743  27.068  1.00  0.00     0.000 G0
ENDBRANCH  13  15
ENDBRANCH  12  13
BRANCH  12  17
ATOM     17  C   UNL     1      16.259  30.256  29.521  1.00  0.00    -0.006 C 
ATOM     18  C   UNL     1      16.618  31.265  30.620  1.00  0.00     0.008 C 
ATOM     19  C   UNL     1      16.793  28.864  29.899  1.00  0.00     0.008 C 
ENDBRANCH  12  17
ENDBRANCH  11  12
ENDBRANCH   1  11
TORSDOF 1
ENDMDL
MODEL 4
REMARK VINA RESULT:     5.189     13.075     14.854
REMARK INTER + INTRA:          14.514
REMARK INTER:                  13.084
REMARK INTRA:                   1.430
REMARK UNBOUND:                 6.595
REMARK SMILES CC1=CCC[C@@H](C)C(=O)C[C@H](C(C)C)C(=O)C1
REMARK SMILES IDX 8 1 9 2 6 3 7 4 5 5 4 6 3 7 2 8 1 9 10 11 11 12 15 13 16 14
REMARK SMILES IDX 17 15 12 17 13 18 14 19
REMARK H PARENT
REMARK Flexibility Score: 70.00
ROOT
ATOM      1  C   UNL     1      13.313  32.666  27.195  1.00  0.00     0.136 C 
ATOM      2  O   UNL     1      13.982  33.674  27.353  1.00  0.00    -0.299 OA
ENDROOT
BRANCH   1   3
ATOM      3  C   UNL     1      11.969  32.795  26.494  1.00  0.00     0.053 C 
ATOM      4  C   UNL     1      11.981  33.952  25.487  1.00  0.00     0.016 C 
BRANCH   3   5
ATOM      5  C   UNL     1      10.810  32.942  27.499  1.00  0.00     0.015 C 
BRANCH   5   6
ATOM      6  C   UNL     1      11.218  32.452  28.899  1.00  0.00     0.028 C 
BRANCH   6   7
ATOM      7  C   UNL     1      10.710  31.073  29.236  1.00  0.00    -0.028 C 
ATOM      8  C   UNL     1      11.361  30.129  29.965  1.00  0.00    -0.070 CG0
ATOM      9  C   UNL     1      10.727  28.761  30.035  1.00  0.00     0.039 C 
ATOM     10  G   UNL     1      12.614  30.383  30.800  1.00  0.00     0.000 G0
ENDBRANCH   6   7
ENDBRANCH   5   6
ENDBRANCH   3   5
ENDBRANCH   1   3
BRANCH   1  11
ATOM     11  C   UNL     1      13.812  31.345  27.748  1.00  0.00     0.087 C 
BRANCH  11  12
ATOM     12  C   UNL     1      14.402  31.380  29.191  1.00  0.00     0.066 C 
BRANCH  12  13
ATOM     13  C   UNL     1      13.922  30.236  30.074  1.00  0.00     0.140 C 
ATOM     14  O   UNL     1      14.645  29.274  30.291  1.00  0.00    -0.299 OA
BRANCH  13  15
ATOM     15  C   UNL     1      12.606  30.365  30.802  1.00  0.00     0.106 CG0
ATOM     16  G   UNL     1      11.353  30.137  29.961  1.00  0.00     0.000 G0
ENDBRANCH  13  15
ENDBRANCH  12  13
BRANCH  12  17
ATOM     17  C   UNL     1      15.944  31.633  29.296  1.00  0.00    -0.006 C 
ATOM     18  C   UNL     1      16.391  32.316  30.595  1.00  0.00     0.008 C 
ATOM     19  C   UNL     1      16.751  30.340  29.086  1.00  0.00     0.008 C 
ENDBRANCH  12  17
ENDBRANCH  11  12
ENDBRANCH   1  11
TORSDOF 1
ENDMDL
MODEL 5
REMARK VINA RESULT:     6.809      2.603      4.362
REMARK INTER + INTRA:          16.986
REMARK INTER:                  17.210
REMARK INTRA:                  -0.224
REMARK UNBOUND:                 6.595
REMARK SMILES CC1=CCC[C@@H](C)C(=O)C[C@H](C(C)C)C(=O)C1
REMARK SMILES IDX 8 1 9 2 6 3 7 4 5 5 4 6 3 7 2 8 1 9 10 11 11 12 15 13 16 14
REMARK SMILES IDX 17 15 12 17 13 18 14 19
REMARK H PARENT
REMARK Flexibility Score: 70.00
ROOT
ATOM      1  C   UNL     1      27.676  26.877  25.977  1.00  0.00     0.136 C 
ATOM      2  O   UNL     1      28.534  26.162  26.471  1.00  0.00    -0.299 OA
ENDROOT
BRANCH   1   3
ATOM      3  C   UNL     1      28.073  28.275  25.528  1.00  0.00     0.053 C 
ATOM      4  C   UNL     1      28.821  28.233  24.189  1.00  0.00     0.016 C 
BRANCH   3   5
ATOM      5  C   UNL     1      28.896  29.011  26.604  1.00  0.00     0.015 C 
BRANCH   5   6
ATOM      6  C   UNL     1      28.016  29.970  27.422  1.00  0.00     0.028 C 
BRANCH   6   7
ATOM      7  C   UNL     1      27.415  29.346  28.657  1.00  0.00    -0.028 C 
ATOM      8  C   UNL     1      26.127  28.944  28.811  1.00  0.00    -0.070 CG0
ATOM      9  C   UNL     1      25.711  28.498  30.193  1.00  0.00     0.039 C 
ATOM     10  G   UNL     1      25.115  28.804  27.678  1.00  0.00     0.000 G0
ENDBRANCH   6   7
ENDBRANCH   5   6
ENDBRANCH   3   5
ENDBRANCH   1   3
BRANCH   1  11
ATOM     11  C   UNL     1      26.249  26.373  25.882  1.00  0.00     0.087 C 
BRANCH  11  12
ATOM     12  C   UNL     1      25.463  26.270  27.225  1.00  0.00     0.066 C 
BRANCH  12  13
ATOM     13  C   UNL     1      24.512  27.435  27.466  1.00  0.00     0.140 C 
ATOM     14  O   UNL     1      23.309  27.243  27.576  1.00  0.00    -0.299 OA
BRANCH  13  15
ATOM     15  C   UNL     1      25.078  28.811  27.718  1.00  0.00     0.106 CG0
ATOM     16  G   UNL     1      26.161  28.901  28.790  1.00  0.00     0.000 G0
ENDBRANCH  13  15
ENDBRANCH  12  13
BRANCH  12  17
ATOM     17  C   UNL     1      24.821  24.877  27.538  1.00  0.00    -0.006 C 
ATOM     18  C   UNL     1      25.103  23.794  26.487  1.00  0.00     0.008 C 
ATOM     19  C   UNL     1      25.221  24.363  28.932  1.00  0.00     0.008 C 
ENDBRANCH  12  17
ENDBRANCH  11  12
ENDBRANCH   1  11
TORSDOF 1
ENDMDL
MODEL 6
REMARK VINA RESULT:     7.059     12.612     14.324
REMARK INTER + INTRA:          17.368
REMARK INTER:                  16.828
REMARK INTRA:                   0.541
REMARK UNBOUND:                 6.595
REMARK SMILES CC1=CCC[C@@H](C)C(=O)C[C@H](C(C)C)C(=O)C1
REMARK SMILES IDX 8 1 9 2 6 3 7 4 5 5 4 6 3 7 2 8 1 9 10 11 11 12 15 13 16 14
REMARK SMILES IDX 17 15 12 17 13 18 14 19
REMARK H PARENT
REMARK Flexibility Score: 70.00
ROOT
ATOM      1  C   UNL     1      15.682  32.604  28.512  1.00  0.00     0.136 C 
ATOM      2  O   UNL     1      16.549  32.592  27.652  1.00  0.00    -0.299 OA
ENDROOT
BRANCH   1   3
ATOM      3  C   UNL     1      15.970  31.913  29.836  1.00  0.00     0.053 C 
ATOM      4  C   UNL     1      16.940  32.741  30.690  1.00  0.00     0.016 C 
BRANCH   3   5
ATOM      5  C   UNL     1      16.491  30.477  29.633  1.00  0.00     0.015 C 
BRANCH   5   6
ATOM      6  C   UNL     1      15.331  29.476  29.500  1.00  0.00     0.028 C 
BRANCH   6   7
ATOM      7  C   UNL     1      14.139  29.802  30.366  1.00  0.00    -0.028 C 
ATOM      8  C   UNL     1      12.946  30.294  29.942  1.00  0.00    -0.070 CG0
ATOM      9  C   UNL     1      11.957  30.699  31.008  1.00  0.00     0.039 C 
ATOM     10  G   UNL     1      12.498  30.360  28.485  1.00  0.00     0.000 G0
ENDBRANCH   6   7
ENDBRANCH   5   6
ENDBRANCH   3   5
ENDBRANCH   1   3
BRANCH   1  11
ATOM     11  C   UNL     1      14.342  33.248  28.211  1.00  0.00     0.087 C 
BRANCH  11  12
ATOM     12  C   UNL     1      13.403  32.468  27.241  1.00  0.00     0.066 C 
BRANCH  12  13
ATOM     13  C   UNL     1      12.259  31.751  27.946  1.00  0.00     0.140 C 
ATOM     14  O   UNL     1      11.137  32.238  27.959  1.00  0.00    -0.299 OA
BRANCH  13  15
ATOM     15  C   UNL     1      12.482  30.365  28.497  1.00  0.00     0.106 CG0
ATOM     16  G   UNL     1      12.963  30.292  29.944  1.00  0.00     0.000 G0
ENDBRANCH  13  15
ENDBRANCH  12  13
BRANCH  12  17
ATOM     17  C   UNL     1      12.949  33.240  25.957  1.00  0.00    -0.006 C 
ATOM     18  C   UNL     1      11.628  34.007  26.109  1.00  0.00     0.008 C 
ATOM     19  C   UNL     1      14.044  34.190  25.443  1.00  0.00     0.008 C 
ENDBRANCH  12  17
ENDBRANCH  11  12
ENDBRANCH   1  11
TORSDOF 1
ENDMDL
MODEL 7
REMARK VINA RESULT:     7.190     11.232     13.153
REMARK INTER + INTRA:          17.568
REMARK INTER:                  16.129
REMARK INTRA:                   1.440
REMARK UNBOUND:                 6.595
REMARK SMILES CC1=CCC[C@@H](C)C(=O)C[C@H](C(C)C)C(=O)C1
REMARK SMILES IDX 8 1 9 2 6 3 7 4 5 5 4 6 3 7 2 8 1 9 10 11 11 12 15 13 16 14
REMARK SMILES IDX 17 15 12 17 13 18 14 19
REMARK H PARENT
REMARK Flexibility Score: 70.00
ROOT
ATOM      1  C   UNL     1      16.124  32.350  29.241  1.00  0.00     0.136 C 
ATOM      2  O   UNL     1      17.088  32.314  28.493  1.00  0.00    -0.299 OA
ENDROOT
BRANCH   1   3
ATOM      3  C   UNL     1      16.368  32.231  30.738  1.00  0.00     0.053 C 
ATOM      4  C   UNL     1      16.412  33.613  31.401  1.00  0.00     0.016 C 
BRANCH   3   5
ATOM      5  C   UNL     1      17.643  31.422  31.048  1.00  0.00     0.015 C 
BRANCH   5   6
ATOM      6  C   UNL     1      17.374  29.909  30.983  1.00  0.00     0.028 C 
BRANCH   6   7
ATOM      7  C   UNL     1      17.118  29.393  29.589  1.00  0.00    -0.028 C 
ATOM      8  C   UNL     1      15.955  28.868  29.125  1.00  0.00    -0.070 CG0
ATOM      9  C   UNL     1      15.980  28.264  27.742  1.00  0.00     0.039 C 
ATOM     10  G   UNL     1      14.613  28.945  29.849  1.00  0.00     0.000 G0
ENDBRANCH   6   7
ENDBRANCH   5   6
ENDBRANCH   3   5
ENDBRANCH   1   3
BRANCH   1  11
ATOM     11  C   UNL     1      14.729  32.452  28.655  1.00  0.00     0.087 C 
BRANCH  11  12
ATOM     12  C   UNL     1      13.904  31.130  28.602  1.00  0.00     0.066 C 
BRANCH  12  13
ATOM     13  C   UNL     1      13.975  30.315  29.888  1.00  0.00     0.140 C 
ATOM     14  O   UNL     1      13.398  30.696  30.896  1.00  0.00    -0.299 OA
BRANCH  13  15
ATOM     15  C   UNL     1      14.635  28.959  29.868  1.00  0.00     0.106 CG0
ATOM     16  G   UNL     1      15.963  28.874  29.119  1.00  0.00     0.000 G0
ENDBRANCH  13  15
ENDBRANCH  12  13
BRANCH  12  17
ATOM     17  C   UNL     1      12.452  31.250  28.029  1.00  0.00    -0.006 C 
ATOM     18  C   UNL     1      11.339  30.997  29.054  1.00  0.00     0.008 C 
ATOM     19  C   UNL     1      12.221  32.604  27.336  1.00  0.00     0.008 C 
ENDBRANCH  12  17
ENDBRANCH  11  12
ENDBRANCH   1  11
TORSDOF 1
ENDMDL
