MODEL 1
REMARK VINA RESULT:    -4.269      0.000      0.000
REMARK INTER + INTRA:          -5.035
REMARK INTER:                  -4.893
REMARK INTRA:                  -0.142
REMARK UNBOUND:                -0.142
REMARK SMILES O=C([O-])C=Cc1ccc(O)cc1
REMARK SMILES IDX 6 1 7 2 12 3 8 4 11 5 9 6 5 7 4 8 2 9 1 10 3 11 10 12
REMARK H PARENT 10 13
REMARK Flexibility Score: inf
ROOT
ATOM      1  C   UNL     1    -115.503  -4.893 -47.728  1.00  0.00    -0.025 A 
ATOM      2  C   UNL     1    -115.471  -5.743 -48.853  1.00  0.00     0.012 A 
ATOM      3  C   UNL     1    -114.301  -4.326 -47.272  1.00  0.00     0.012 A 
ATOM      4  C   UNL     1    -114.264  -5.996 -49.514  1.00  0.00     0.047 A 
ATOM      5  C   UNL     1    -113.098  -4.580 -47.937  1.00  0.00     0.047 A 
ATOM      6  C   UNL     1    -113.076  -5.412 -49.059  1.00  0.00     0.115 A 
ENDROOT
BRANCH   1   7
ATOM      7  C   UNL     1    -116.754  -4.600 -46.984  1.00  0.00     0.010 C 
ATOM      8  C   UNL     1    -116.922  -4.853 -45.679  1.00  0.00     0.025 C 
BRANCH   8   9
ATOM      9  C   UNL     1    -118.184  -4.556 -44.985  1.00  0.00     0.064 C 
ATOM     10  O   UNL     1    -118.358  -4.968 -43.809  1.00  0.00    -0.545 OA
ATOM     11  O   UNL     1    -119.190  -3.825 -45.607  1.00  0.00    -0.545 OA
ENDBRANCH   8   9
ENDBRANCH   1   7
BRANCH   6  12
ATOM     12  O   UNL     1    -111.868  -5.657 -49.710  1.00  0.00    -0.508 OA
ATOM     13  H   UNL     1    -111.576  -6.599 -49.947  1.00  0.00     0.293 HD
ENDBRANCH   6  12
TORSDOF 3
ENDMDL
MODEL 2
REMARK VINA RESULT:    -4.226      0.286      1.426
REMARK INTER + INTRA:          -4.986
REMARK INTER:                  -4.852
REMARK INTRA:                  -0.134
REMARK UNBOUND:                -0.142
REMARK SMILES O=C([O-])C=Cc1ccc(O)cc1
REMARK SMILES IDX 6 1 7 2 12 3 8 4 11 5 9 6 5 7 4 8 2 9 1 10 3 11 10 12
REMARK H PARENT 10 13
REMARK Flexibility Score: inf
ROOT
ATOM      1  C   UNL     1    -115.337  -4.621 -47.452  1.00  0.00    -0.025 A 
ATOM      2  C   UNL     1    -114.090  -4.102 -47.047  1.00  0.00     0.012 A 
ATOM      3  C   UNL     1    -115.390  -5.450 -48.586  1.00  0.00     0.012 A 
ATOM      4  C   UNL     1    -112.925  -4.429 -47.750  1.00  0.00     0.047 A 
ATOM      5  C   UNL     1    -114.224  -5.776 -49.284  1.00  0.00     0.047 A 
ATOM      6  C   UNL     1    -112.990  -5.270 -48.868  1.00  0.00     0.115 A 
ENDROOT
BRANCH   1   7
ATOM      7  C   UNL     1    -116.603  -4.296 -46.750  1.00  0.00     0.010 C 
ATOM      8  C   UNL     1    -116.997  -4.885 -45.612  1.00  0.00     0.025 C 
BRANCH   8   9
ATOM      9  C   UNL     1    -118.267  -4.538 -44.956  1.00  0.00     0.064 C 
ATOM     10  O   UNL     1    -118.454  -4.862 -43.754  1.00  0.00    -0.545 OA
ATOM     11  O   UNL     1    -119.266  -3.856 -45.641  1.00  0.00    -0.545 OA
ENDBRANCH   8   9
ENDBRANCH   1   7
BRANCH   6  12
ATOM     12  O   UNL     1    -111.835  -5.603 -49.575  1.00  0.00    -0.508 OA
ATOM     13  H   UNL     1    -111.868  -6.214 -50.383  1.00  0.00     0.293 HD
ENDBRANCH   6  12
TORSDOF 3
ENDMDL
MODEL 3
REMARK VINA RESULT:    -4.184      0.302      1.704
REMARK INTER + INTRA:          -4.938
REMARK INTER:                  -4.800
REMARK INTRA:                  -0.138
REMARK UNBOUND:                -0.142
REMARK SMILES O=C([O-])C=Cc1ccc(O)cc1
REMARK SMILES IDX 6 1 7 2 12 3 8 4 11 5 9 6 5 7 4 8 2 9 1 10 3 11 10 12
REMARK H PARENT 10 13
REMARK Flexibility Score: inf
ROOT
ATOM      1  C   UNL     1    -115.331  -4.994 -47.870  1.00  0.00    -0.025 A 
ATOM      2  C   UNL     1    -114.079  -4.470 -47.488  1.00  0.00     0.012 A 
ATOM      3  C   UNL     1    -115.398  -5.848 -48.984  1.00  0.00     0.012 A 
ATOM      4  C   UNL     1    -112.922  -4.816 -48.194  1.00  0.00     0.047 A 
ATOM      5  C   UNL     1    -114.239  -6.193 -49.685  1.00  0.00     0.047 A 
ATOM      6  C   UNL     1    -112.999  -5.681 -49.292  1.00  0.00     0.115 A 
ENDROOT
BRANCH   1   7
ATOM      7  C   UNL     1    -116.590  -4.650 -47.163  1.00  0.00     0.010 C 
ATOM      8  C   UNL     1    -116.800  -4.879 -45.859  1.00  0.00     0.025 C 
BRANCH   8   9
ATOM      9  C   UNL     1    -118.069  -4.530 -45.202  1.00  0.00     0.064 C 
ATOM     10  O   UNL     1    -118.913  -3.827 -45.815  1.00  0.00    -0.545 OA
ATOM     11  O   UNL     1    -118.353  -4.965 -43.912  1.00  0.00    -0.545 OA
ENDBRANCH   8   9
ENDBRANCH   1   7
BRANCH   6  12
ATOM     12  O   UNL     1    -111.853  -6.033 -50.002  1.00  0.00    -0.508 OA
ATOM     13  H   UNL     1    -111.420  -5.394 -50.659  1.00  0.00     0.293 HD
ENDBRANCH   6  12
TORSDOF 3
ENDMDL
MODEL 4
REMARK VINA RESULT:    -4.023      3.131      3.926
REMARK INTER + INTRA:          -4.753
REMARK INTER:                  -4.616
REMARK INTRA:                  -0.137
REMARK UNBOUND:                -0.142
REMARK SMILES O=C([O-])C=Cc1ccc(O)cc1
REMARK SMILES IDX 6 1 7 2 12 3 8 4 11 5 9 6 5 7 4 8 2 9 1 10 3 11 10 12
REMARK H PARENT 10 13
REMARK Flexibility Score: inf
ROOT
ATOM      1  C   UNL     1    -114.089  -5.152 -48.640  1.00  0.00    -0.025 A 
ATOM      2  C   UNL     1    -112.965  -5.548 -49.394  1.00  0.00     0.012 A 
ATOM      3  C   UNL     1    -115.318  -5.792 -48.870  1.00  0.00     0.012 A 
ATOM      4  C   UNL     1    -113.071  -6.576 -50.337  1.00  0.00     0.047 A 
ATOM      5  C   UNL     1    -115.420  -6.821 -49.812  1.00  0.00     0.047 A 
ATOM      6  C   UNL     1    -114.298  -7.217 -50.545  1.00  0.00     0.115 A 
ENDROOT
BRANCH   1   7
ATOM      7  C   UNL     1    -114.033  -4.060 -47.637  1.00  0.00     0.010 C 
ATOM      8  C   UNL     1    -113.212  -4.060 -46.579  1.00  0.00     0.025 C 
BRANCH   8   9
ATOM      9  C   UNL     1    -113.199  -2.959 -45.603  1.00  0.00     0.064 C 
ATOM     10  O   UNL     1    -114.279  -2.400 -45.283  1.00  0.00    -0.545 OA
ATOM     11  O   UNL     1    -112.010  -2.524 -45.028  1.00  0.00    -0.545 OA
ENDBRANCH   8   9
ENDBRANCH   1   7
BRANCH   6  12
ATOM     12  O   UNL     1    -114.414  -8.244 -51.480  1.00  0.00    -0.508 OA
ATOM     13  H   UNL     1    -115.175  -8.265 -52.150  1.00  0.00     0.293 HD
ENDBRANCH   6  12
TORSDOF 3
ENDMDL
MODEL 5
REMARK VINA RESULT:    -3.943      5.180      7.856
REMARK INTER + INTRA:          -4.661
REMARK INTER:                  -4.523
REMARK INTRA:                  -0.138
REMARK UNBOUND:                -0.142
REMARK SMILES O=C([O-])C=Cc1ccc(O)cc1
REMARK SMILES IDX 6 1 7 2 12 3 8 4 11 5 9 6 5 7 4 8 2 9 1 10 3 11 10 12
REMARK H PARENT 10 13
REMARK Flexibility Score: inf
ROOT
ATOM      1  C   UNL     1    -113.335  -6.155 -52.126  1.00  0.00    -0.025 A 
ATOM      2  C   UNL     1    -114.002  -7.011 -53.026  1.00  0.00     0.012 A 
ATOM      3  C   UNL     1    -113.581  -6.293 -50.749  1.00  0.00     0.012 A 
ATOM      4  C   UNL     1    -114.876  -7.995 -52.551  1.00  0.00     0.047 A 
ATOM      5  C   UNL     1    -114.453  -7.280 -50.279  1.00  0.00     0.047 A 
ATOM      6  C   UNL     1    -115.100  -8.133 -51.176  1.00  0.00     0.115 A 
ENDROOT
BRANCH   1   7
ATOM      7  C   UNL     1    -112.408  -5.087 -52.578  1.00  0.00     0.010 C 
ATOM      8  C   UNL     1    -111.970  -4.964 -53.838  1.00  0.00     0.025 C 
BRANCH   8   9
ATOM      9  C   UNL     1    -111.043  -3.894 -54.238  1.00  0.00     0.064 C 
ATOM     10  O   UNL     1    -109.850  -4.180 -54.521  1.00  0.00    -0.545 OA
ATOM     11  O   UNL     1    -111.462  -2.570 -54.310  1.00  0.00    -0.545 OA
ENDBRANCH   8   9
ENDBRANCH   1   7
BRANCH   6  12
ATOM     12  O   UNL     1    -115.967  -9.111 -50.692  1.00  0.00    -0.508 OA
ATOM     13  H   UNL     1    -116.957  -9.094 -50.908  1.00  0.00     0.293 HD
ENDBRANCH   6  12
TORSDOF 3
ENDMDL
MODEL 6
REMARK VINA RESULT:    -3.835      2.509      3.198
REMARK INTER + INTRA:          -4.538
REMARK INTER:                  -4.394
REMARK INTRA:                  -0.144
REMARK UNBOUND:                -0.142
REMARK SMILES O=C([O-])C=Cc1ccc(O)cc1
REMARK SMILES IDX 6 1 7 2 12 3 8 4 11 5 9 6 5 7 4 8 2 9 1 10 3 11 10 12
REMARK H PARENT 10 13
REMARK Flexibility Score: inf
ROOT
ATOM      1  C   UNL     1    -114.387  -5.278 -48.771  1.00  0.00    -0.025 A 
ATOM      2  C   UNL     1    -115.585  -5.984 -49.006  1.00  0.00     0.012 A 
ATOM      3  C   UNL     1    -113.209  -5.713 -49.402  1.00  0.00     0.012 A 
ATOM      4  C   UNL     1    -115.600  -7.083 -49.872  1.00  0.00     0.047 A 
ATOM      5  C   UNL     1    -113.229  -6.810 -50.268  1.00  0.00     0.047 A 
ATOM      6  C   UNL     1    -114.423  -7.496 -50.507  1.00  0.00     0.115 A 
ENDROOT
BRANCH   1   7
ATOM      7  C   UNL     1    -114.313  -4.114 -47.853  1.00  0.00     0.010 C 
ATOM      8  C   UNL     1    -115.129  -3.938 -46.805  1.00  0.00     0.025 C 
BRANCH   8   9
ATOM      9  C   UNL     1    -115.026  -2.762 -45.927  1.00  0.00     0.064 C 
ATOM     10  O   UNL     1    -114.261  -1.815 -46.245  1.00  0.00    -0.545 OA
ATOM     11  O   UNL     1    -115.761  -2.679 -44.750  1.00  0.00    -0.545 OA
ENDBRANCH   8   9
ENDBRANCH   1   7
BRANCH   6  12
ATOM     12  O   UNL     1    -114.427  -8.588 -51.373  1.00  0.00    -0.508 OA
ATOM     13  H   UNL     1    -114.323  -8.470 -52.374  1.00  0.00     0.293 HD
ENDBRANCH   6  12
TORSDOF 3
ENDMDL
MODEL 7
REMARK VINA RESULT:    -3.792      3.718      5.614
REMARK INTER + INTRA:          -4.488
REMARK INTER:                  -4.339
REMARK INTRA:                  -0.150
REMARK UNBOUND:                -0.142
REMARK SMILES O=C([O-])C=Cc1ccc(O)cc1
REMARK SMILES IDX 6 1 7 2 12 3 8 4 11 5 9 6 5 7 4 8 2 9 1 10 3 11 10 12
REMARK H PARENT 10 13
REMARK Flexibility Score: inf
ROOT
ATOM      1  C   UNL     1    -113.342  -5.471 -49.666  1.00  0.00    -0.025 A 
ATOM      2  C   UNL     1    -113.267  -6.624 -50.474  1.00  0.00     0.012 A 
ATOM      3  C   UNL     1    -114.542  -5.196 -48.988  1.00  0.00     0.012 A 
ATOM      4  C   UNL     1    -114.361  -7.489 -50.577  1.00  0.00     0.047 A 
ATOM      5  C   UNL     1    -115.633  -6.065 -49.092  1.00  0.00     0.047 A 
ATOM      6  C   UNL     1    -115.545  -7.213 -49.883  1.00  0.00     0.115 A 
ENDROOT
BRANCH   1   7
ATOM      7  C   UNL     1    -112.216  -4.515 -49.532  1.00  0.00     0.010 C 
ATOM      8  C   UNL     1    -112.074  -3.669 -48.503  1.00  0.00     0.025 C 
BRANCH   8   9
ATOM      9  C   UNL     1    -110.945  -2.730 -48.416  1.00  0.00     0.064 C 
ATOM     10  O   UNL     1    -110.696  -2.156 -47.324  1.00  0.00    -0.545 OA
ATOM     11  O   UNL     1    -110.145  -2.466 -49.522  1.00  0.00    -0.545 OA
ENDBRANCH   8   9
ENDBRANCH   1   7
BRANCH   6  12
ATOM     12  O   UNL     1    -116.642  -8.069 -49.978  1.00  0.00    -0.508 OA
ATOM     13  H   UNL     1    -116.539  -9.073 -49.881  1.00  0.00     0.293 HD
ENDBRANCH   6  12
TORSDOF 3
ENDMDL
MODEL 8
REMARK VINA RESULT:    -3.753      4.581      5.827
REMARK INTER + INTRA:          -4.444
REMARK INTER:                  -4.293
REMARK INTRA:                  -0.151
REMARK UNBOUND:                -0.142
REMARK SMILES O=C([O-])C=Cc1ccc(O)cc1
REMARK SMILES IDX 6 1 7 2 12 3 8 4 11 5 9 6 5 7 4 8 2 9 1 10 3 11 10 12
REMARK H PARENT 10 13
REMARK Flexibility Score: inf
ROOT
ATOM      1  C   UNL     1    -113.433  -6.358 -51.073  1.00  0.00    -0.025 A 
ATOM      2  C   UNL     1    -113.620  -6.561 -52.456  1.00  0.00     0.012 A 
ATOM      3  C   UNL     1    -114.080  -7.217 -50.168  1.00  0.00     0.012 A 
ATOM      4  C   UNL     1    -114.418  -7.614 -52.915  1.00  0.00     0.047 A 
ATOM      5  C   UNL     1    -114.875  -8.270 -50.632  1.00  0.00     0.047 A 
ATOM      6  C   UNL     1    -115.044  -8.473 -52.004  1.00  0.00     0.115 A 
ENDROOT
BRANCH   1   7
ATOM      7  C   UNL     1    -112.608  -5.250 -50.533  1.00  0.00     0.010 C 
ATOM      8  C   UNL     1    -112.710  -4.784 -49.281  1.00  0.00     0.025 C 
BRANCH   8   9
ATOM      9  C   UNL     1    -111.877  -3.676 -48.791  1.00  0.00     0.064 C 
ATOM     10  O   UNL     1    -111.896  -3.377 -47.569  1.00  0.00    -0.545 OA
ATOM     11  O   UNL     1    -111.066  -2.951 -49.657  1.00  0.00    -0.545 OA
ENDBRANCH   8   9
ENDBRANCH   1   7
BRANCH   6  12
ATOM     12  O   UNL     1    -115.840  -9.526 -52.451  1.00  0.00    -0.508 OA
ATOM     13  H   UNL     1    -115.453 -10.287 -52.997  1.00  0.00     0.293 HD
ENDBRANCH   6  12
TORSDOF 3
ENDMDL
MODEL 9
REMARK VINA RESULT:    -3.681      2.600      5.759
REMARK INTER + INTRA:          -4.361
REMARK INTER:                  -4.211
REMARK INTRA:                  -0.150
REMARK UNBOUND:                -0.142
REMARK SMILES O=C([O-])C=Cc1ccc(O)cc1
REMARK SMILES IDX 6 1 7 2 12 3 8 4 11 5 9 6 5 7 4 8 2 9 1 10 3 11 10 12
REMARK H PARENT 10 13
REMARK Flexibility Score: inf
ROOT
ATOM      1  C   UNL     1    -113.499  -3.982 -46.929  1.00  0.00    -0.025 A 
ATOM      2  C   UNL     1    -112.607  -3.199 -46.168  1.00  0.00     0.012 A 
ATOM      3  C   UNL     1    -114.877  -3.886 -46.669  1.00  0.00     0.012 A 
ATOM      4  C   UNL     1    -113.091  -2.324 -45.189  1.00  0.00     0.047 A 
ATOM      5  C   UNL     1    -115.356  -3.009 -45.691  1.00  0.00     0.047 A 
ATOM      6  C   UNL     1    -114.467  -2.225 -44.951  1.00  0.00     0.115 A 
ENDROOT
BRANCH   1   7
ATOM      7  C   UNL     1    -113.038  -4.934 -47.970  1.00  0.00     0.010 C 
ATOM      8  C   UNL     1    -113.819  -5.396 -48.956  1.00  0.00     0.025 C 
BRANCH   8   9
ATOM      9  C   UNL     1    -113.321  -6.347 -49.962  1.00  0.00     0.064 C 
ATOM     10  O   UNL     1    -112.269  -6.082 -50.600  1.00  0.00    -0.545 OA
ATOM     11  O   UNL     1    -113.994  -7.536 -50.221  1.00  0.00    -0.545 OA
ENDBRANCH   8   9
ENDBRANCH   1   7
BRANCH   6  12
ATOM     12  O   UNL     1    -114.959  -1.356 -43.979  1.00  0.00    -0.508 OA
ATOM     13  H   UNL     1    -114.392  -1.069 -43.190  1.00  0.00     0.293 HD
ENDBRANCH   6  12
TORSDOF 3
ENDMDL
