MODEL 1
REMARK VINA RESULT:    -4.604      0.000      0.000
REMARK INTER + INTRA:          -7.791
REMARK INTER:                  -7.161
REMARK INTRA:                  -0.630
REMARK UNBOUND:                -0.630
REMARK SMILES COc1cc(CNC(=O)CCCCC=CC(C)C)ccc1O
REMARK SMILES IDX 11 1 12 2 13 3 14 4 15 5 16 6 17 7 18 8 10 9 8 10 9 11 7 12
REMARK SMILES IDX 6 14 5 15 4 16 19 17 3 18 20 19 21 20 2 21 1 22 22 23
REMARK H PARENT 7 13 22 24
REMARK Flexibility Score: inf
ROOT
ATOM      1  C   UNL     1     -23.596 -19.814 -14.039  1.00  0.00     0.010 C 
ENDROOT
BRANCH   1   2
ATOM      2  C   UNL     1     -22.981 -18.407 -13.984  1.00  0.00     0.005 C 
BRANCH   2   3
ATOM      3  C   UNL     1     -21.575 -18.445 -13.379  1.00  0.00     0.027 C 
BRANCH   3   4
ATOM      4  C   UNL     1     -20.944 -17.079 -13.378  1.00  0.00    -0.031 C 
ATOM      5  C   UNL     1     -19.658 -16.921 -13.025  1.00  0.00    -0.028 C 
BRANCH   5   6
ATOM      6  C   UNL     1     -18.973 -15.574 -13.000  1.00  0.00     0.005 C 
ATOM      7  C   UNL     1     -17.462 -15.721 -12.794  1.00  0.00     0.012 C 
ATOM      8  C   UNL     1     -19.590 -14.652 -11.942  1.00  0.00     0.012 C 
ENDBRANCH   5   6
ENDBRANCH   3   4
ENDBRANCH   2   3
ENDBRANCH   1   2
BRANCH   1   9
ATOM      9  C   UNL     1     -25.115 -19.776 -14.255  1.00  0.00     0.100 C 
BRANCH   9  10
ATOM     10  C   UNL     1     -25.658 -18.379 -14.134  1.00  0.00     0.220 C 
ATOM     11  O   UNL     1     -25.851 -17.889 -12.989  1.00  0.00    -0.275 OA
ATOM     12  N   UNL     1     -25.931 -17.604 -15.310  1.00  0.00    -0.352 N 
ATOM     13  H   UNL     1     -25.843 -18.061 -16.247  1.00  0.00     0.163 HD
BRANCH  12  14
ATOM     14  C   UNL     1     -26.086 -16.153 -15.277  1.00  0.00     0.151 C 
BRANCH  14  15
ATOM     15  C   UNL     1     -24.730 -15.504 -15.208  1.00  0.00    -0.025 A 
ATOM     16  C   UNL     1     -24.242 -15.018 -13.986  1.00  0.00     0.056 A 
ATOM     17  C   UNL     1     -23.913 -15.454 -16.346  1.00  0.00     0.009 A 
ATOM     18  C   UNL     1     -22.942 -14.481 -13.897  1.00  0.00     0.160 A 
ATOM     19  C   UNL     1     -22.632 -14.906 -16.268  1.00  0.00     0.050 A 
ATOM     20  C   UNL     1     -22.144 -14.419 -15.049  1.00  0.00     0.157 A 
BRANCH  18  21
ATOM     21  O   UNL     1     -22.410 -14.008 -12.687  1.00  0.00    -0.493 OA
ATOM     22  C   UNL     1     -23.145 -13.890 -11.474  1.00  0.00     0.278 C 
ENDBRANCH  18  21
BRANCH  20  23
ATOM     23  O   UNL     1     -20.864 -13.875 -14.971  1.00  0.00    -0.504 OA
ATOM     24  H   UNL     1     -20.161 -14.072 -15.674  1.00  0.00     0.293 HD
ENDBRANCH  20  23
ENDBRANCH  14  15
ENDBRANCH  12  14
ENDBRANCH   9  10
ENDBRANCH   1   9
TORSDOF 10
ENDMDL
MODEL 2
REMARK VINA RESULT:    -4.317      2.285      5.663
REMARK INTER + INTRA:          -7.345
REMARK INTER:                  -8.527
REMARK INTRA:                   1.182
REMARK UNBOUND:                -0.630
REMARK SMILES COc1cc(CNC(=O)CCCCC=CC(C)C)ccc1O
REMARK SMILES IDX 11 1 12 2 13 3 14 4 15 5 16 6 17 7 18 8 10 9 8 10 9 11 7 12
REMARK SMILES IDX 6 14 5 15 4 16 19 17 3 18 20 19 21 20 2 21 1 22 22 23
REMARK H PARENT 7 13 22 24
REMARK Flexibility Score: inf
ROOT
ATOM      1  C   UNL     1     -18.673 -17.583 -13.563  1.00  0.00     0.010 C 
ENDROOT
BRANCH   1   2
ATOM      2  C   UNL     1     -20.051 -16.958 -13.300  1.00  0.00     0.005 C 
BRANCH   2   3
ATOM      3  C   UNL     1     -21.166 -17.994 -13.468  1.00  0.00     0.027 C 
BRANCH   3   4
ATOM      4  C   UNL     1     -22.509 -17.332 -13.615  1.00  0.00    -0.031 C 
ATOM      5  C   UNL     1     -23.624 -18.070 -13.734  1.00  0.00    -0.028 C 
BRANCH   5   6
ATOM      6  C   UNL     1     -24.999 -17.461 -13.889  1.00  0.00     0.005 C 
ATOM      7  C   UNL     1     -26.092 -18.420 -13.407  1.00  0.00     0.012 C 
ATOM      8  C   UNL     1     -25.252 -17.012 -15.333  1.00  0.00     0.012 C 
ENDBRANCH   5   6
ENDBRANCH   3   4
ENDBRANCH   2   3
ENDBRANCH   1   2
BRANCH   1   9
ATOM      9  C   UNL     1     -17.524 -16.624 -13.219  1.00  0.00     0.100 C 
BRANCH   9  10
ATOM     10  C   UNL     1     -18.031 -15.356 -12.591  1.00  0.00     0.220 C 
ATOM     11  O   UNL     1     -17.220 -14.422 -12.345  1.00  0.00    -0.275 OA
ATOM     12  N   UNL     1     -19.426 -15.201 -12.295  1.00  0.00    -0.352 N 
ATOM     13  H   UNL     1     -20.064 -16.019 -12.429  1.00  0.00     0.163 HD
BRANCH  12  14
ATOM     14  C   UNL     1     -20.039 -13.898 -12.053  1.00  0.00     0.151 C 
BRANCH  14  15
ATOM     15  C   UNL     1     -21.422 -13.876 -12.642  1.00  0.00    -0.025 A 
ATOM     16  C   UNL     1     -21.596 -13.875 -14.034  1.00  0.00     0.056 A 
ATOM     17  C   UNL     1     -22.547 -13.937 -11.807  1.00  0.00     0.009 A 
ATOM     18  C   UNL     1     -22.887 -13.935 -14.595  1.00  0.00     0.160 A 
ATOM     19  C   UNL     1     -23.830 -13.976 -12.356  1.00  0.00     0.050 A 
ATOM     20  C   UNL     1     -24.003 -13.975 -13.746  1.00  0.00     0.157 A 
BRANCH  18  21
ATOM     21  O   UNL     1     -23.100 -13.962 -15.982  1.00  0.00    -0.493 OA
ATOM     22  C   UNL     1     -23.170 -15.149 -16.764  1.00  0.00     0.278 C 
ENDBRANCH  18  21
BRANCH  20  23
ATOM     23  O   UNL     1     -25.284 -14.018 -14.293  1.00  0.00    -0.504 OA
ATOM     24  H   UNL     1     -26.046 -13.476 -13.903  1.00  0.00     0.293 HD
ENDBRANCH  20  23
ENDBRANCH  14  15
ENDBRANCH  12  14
ENDBRANCH   9  10
ENDBRANCH   1   9
TORSDOF 10
ENDMDL
MODEL 3
REMARK VINA RESULT:    -3.517      2.217      5.190
REMARK INTER + INTRA:          -6.101
REMARK INTER:                  -5.417
REMARK INTRA:                  -0.684
REMARK UNBOUND:                -0.630
REMARK SMILES COc1cc(CNC(=O)CCCCC=CC(C)C)ccc1O
REMARK SMILES IDX 11 1 12 2 13 3 14 4 15 5 16 6 17 7 18 8 10 9 8 10 9 11 7 12
REMARK SMILES IDX 6 14 5 15 4 16 19 17 3 18 20 19 21 20 2 21 1 22 22 23
REMARK H PARENT 7 13 22 24
REMARK Flexibility Score: inf
ROOT
ATOM      1  C   UNL     1     -24.845 -19.394 -14.377  1.00  0.00     0.010 C 
ENDROOT
BRANCH   1   2
ATOM      2  C   UNL     1     -25.740 -18.538 -13.467  1.00  0.00     0.005 C 
BRANCH   2   3
ATOM      3  C   UNL     1     -26.520 -17.502 -14.281  1.00  0.00     0.027 C 
BRANCH   3   4
ATOM      4  C   UNL     1     -25.643 -16.345 -14.676  1.00  0.00    -0.031 C 
ATOM      5  C   UNL     1     -25.788 -15.757 -15.875  1.00  0.00    -0.028 C 
BRANCH   5   6
ATOM      6  C   UNL     1     -24.934 -14.595 -16.328  1.00  0.00     0.005 C 
ATOM      7  C   UNL     1     -24.098 -14.964 -17.558  1.00  0.00     0.012 C 
ATOM      8  C   UNL     1     -24.047 -14.077 -15.190  1.00  0.00     0.012 C 
ENDBRANCH   5   6
ENDBRANCH   3   4
ENDBRANCH   2   3
ENDBRANCH   1   2
BRANCH   1   9
ATOM      9  C   UNL     1     -23.367 -19.324 -13.970  1.00  0.00     0.100 C 
BRANCH   9  10
ATOM     10  C   UNL     1     -22.817 -17.933 -14.117  1.00  0.00     0.220 C 
ATOM     11  O   UNL     1     -22.779 -17.401 -15.260  1.00  0.00    -0.275 OA
ATOM     12  N   UNL     1     -22.360 -17.209 -12.966  1.00  0.00    -0.352 N 
ATOM     13  H   UNL     1     -22.322 -17.701 -12.043  1.00  0.00     0.163 HD
BRANCH  12  14
ATOM     14  C   UNL     1     -22.180 -15.760 -12.968  1.00  0.00     0.151 C 
BRANCH  14  15
ATOM     15  C   UNL     1     -20.730 -15.434 -12.737  1.00  0.00    -0.025 A 
ATOM     16  C   UNL     1     -19.731 -16.326 -13.157  1.00  0.00     0.056 A 
ATOM     17  C   UNL     1     -20.363 -14.203 -12.176  1.00  0.00     0.009 A 
ATOM     18  C   UNL     1     -18.369 -15.993 -13.017  1.00  0.00     0.160 A 
ATOM     19  C   UNL     1     -19.015 -13.876 -12.017  1.00  0.00     0.050 A 
ATOM     20  C   UNL     1     -18.018 -14.766 -12.434  1.00  0.00     0.157 A 
BRANCH  18  21
ATOM     21  O   UNL     1     -17.342 -16.847 -13.448  1.00  0.00    -0.493 OA
ATOM     22  C   UNL     1     -17.200 -17.330 -14.780  1.00  0.00     0.278 C 
ENDBRANCH  18  21
BRANCH  20  23
ATOM     23  O   UNL     1     -16.673 -14.437 -12.279  1.00  0.00    -0.504 OA
ATOM     24  H   UNL     1     -16.329 -13.997 -11.433  1.00  0.00     0.293 HD
ENDBRANCH  20  23
ENDBRANCH  14  15
ENDBRANCH  12  14
ENDBRANCH   9  10
ENDBRANCH   1   9
TORSDOF 10
ENDMDL
MODEL 4
REMARK VINA RESULT:    -3.366      1.973      4.174
REMARK INTER + INTRA:          -5.865
REMARK INTER:                  -5.366
REMARK INTRA:                  -0.498
REMARK UNBOUND:                -0.630
REMARK SMILES COc1cc(CNC(=O)CCCCC=CC(C)C)ccc1O
REMARK SMILES IDX 11 1 12 2 13 3 14 4 15 5 16 6 17 7 18 8 10 9 8 10 9 11 7 12
REMARK SMILES IDX 6 14 5 15 4 16 19 17 3 18 20 19 21 20 2 21 1 22 22 23
REMARK H PARENT 7 13 22 24
REMARK Flexibility Score: inf
ROOT
ATOM      1  C   UNL     1     -24.828 -17.494 -14.810  1.00  0.00     0.010 C 
ENDROOT
BRANCH   1   2
ATOM      2  C   UNL     1     -24.038 -17.029 -13.577  1.00  0.00     0.005 C 
BRANCH   2   3
ATOM      3  C   UNL     1     -22.545 -17.330 -13.734  1.00  0.00     0.027 C 
BRANCH   3   4
ATOM      4  C   UNL     1     -22.306 -18.795 -13.979  1.00  0.00    -0.031 C 
ATOM      5  C   UNL     1     -22.105 -19.634 -12.950  1.00  0.00    -0.028 C 
BRANCH   5   6
ATOM      6  C   UNL     1     -21.856 -21.114 -13.134  1.00  0.00     0.005 C 
ATOM      7  C   UNL     1     -20.389 -21.393 -13.478  1.00  0.00     0.012 C 
ATOM      8  C   UNL     1     -22.796 -21.711 -14.188  1.00  0.00     0.012 C 
ENDBRANCH   5   6
ENDBRANCH   3   4
ENDBRANCH   2   3
ENDBRANCH   1   2
BRANCH   1   9
ATOM      9  C   UNL     1     -25.770 -16.406 -15.342  1.00  0.00     0.100 C 
BRANCH   9  10
ATOM     10  C   UNL     1     -25.061 -15.091 -15.508  1.00  0.00     0.220 C 
ATOM     11  O   UNL     1     -25.641 -14.027 -15.159  1.00  0.00    -0.275 OA
ATOM     12  N   UNL     1     -23.728 -15.049 -16.036  1.00  0.00    -0.352 N 
ATOM     13  H   UNL     1     -23.300 -15.933 -16.397  1.00  0.00     0.163 HD
BRANCH  12  14
ATOM     14  C   UNL     1     -22.853 -13.891 -15.872  1.00  0.00     0.151 C 
BRANCH  14  15
ATOM     15  C   UNL     1     -22.203 -13.941 -14.517  1.00  0.00    -0.025 A 
ATOM     16  C   UNL     1     -20.804 -13.949 -14.405  1.00  0.00     0.056 A 
ATOM     17  C   UNL     1     -22.987 -13.897 -13.356  1.00  0.00     0.009 A 
ATOM     18  C   UNL     1     -20.186 -13.916 -13.139  1.00  0.00     0.160 A 
ATOM     19  C   UNL     1     -22.381 -13.883 -12.098  1.00  0.00     0.050 A 
ATOM     20  C   UNL     1     -20.985 -13.893 -11.986  1.00  0.00     0.157 A 
BRANCH  18  21
ATOM     21  O   UNL     1     -18.791 -13.898 -12.987  1.00  0.00    -0.493 OA
ATOM     22  C   UNL     1     -18.009 -15.016 -12.580  1.00  0.00     0.278 C 
ENDBRANCH  18  21
BRANCH  20  23
ATOM     23  O   UNL     1     -20.381 -13.875 -10.730  1.00  0.00    -0.504 OA
ATOM     24  H   UNL     1     -20.808 -14.327  -9.930  1.00  0.00     0.293 HD
ENDBRANCH  20  23
ENDBRANCH  14  15
ENDBRANCH  12  14
ENDBRANCH   9  10
ENDBRANCH   1   9
TORSDOF 10
ENDMDL
MODEL 5
REMARK VINA RESULT:    -3.344      2.076      5.111
REMARK INTER + INTRA:          -5.830
REMARK INTER:                  -7.364
REMARK INTRA:                   1.534
REMARK UNBOUND:                -0.630
REMARK SMILES COc1cc(CNC(=O)CCCCC=CC(C)C)ccc1O
REMARK SMILES IDX 11 1 12 2 13 3 14 4 15 5 16 6 17 7 18 8 10 9 8 10 9 11 7 12
REMARK SMILES IDX 6 14 5 15 4 16 19 17 3 18 20 19 21 20 2 21 1 22 22 23
REMARK H PARENT 7 13 22 24
REMARK Flexibility Score: inf
ROOT
ATOM      1  C   UNL     1     -17.751 -15.717 -12.476  1.00  0.00     0.010 C 
ENDROOT
BRANCH   1   2
ATOM      2  C   UNL     1     -18.406 -16.765 -13.388  1.00  0.00     0.005 C 
BRANCH   2   3
ATOM      3  C   UNL     1     -19.932 -16.722 -13.267  1.00  0.00     0.027 C 
BRANCH   3   4
ATOM      4  C   UNL     1     -20.502 -18.097 -13.051  1.00  0.00    -0.031 C 
ATOM      5  C   UNL     1     -21.752 -18.388 -13.446  1.00  0.00    -0.028 C 
BRANCH   5   6
ATOM      6  C   UNL     1     -22.378 -19.750 -13.251  1.00  0.00     0.005 C 
ATOM      7  C   UNL     1     -21.323 -20.859 -13.289  1.00  0.00     0.012 C 
ATOM      8  C   UNL     1     -23.489 -20.006 -14.276  1.00  0.00     0.012 C 
ENDBRANCH   5   6
ENDBRANCH   3   4
ENDBRANCH   2   3
ENDBRANCH   1   2
BRANCH   1   9
ATOM      9  C   UNL     1     -18.276 -14.300 -12.747  1.00  0.00     0.100 C 
BRANCH   9  10
ATOM     10  C   UNL     1     -19.729 -14.169 -12.382  1.00  0.00     0.220 C 
ATOM     11  O   UNL     1     -20.045 -13.879 -11.196  1.00  0.00    -0.275 OA
ATOM     12  N   UNL     1     -20.745 -14.351 -13.378  1.00  0.00    -0.352 N 
ATOM     13  H   UNL     1     -20.464 -14.674 -14.333  1.00  0.00     0.163 HD
BRANCH  12  14
ATOM     14  C   UNL     1     -22.114 -13.875 -13.201  1.00  0.00     0.151 C 
BRANCH  14  15
ATOM     15  C   UNL     1     -22.991 -14.456 -14.277  1.00  0.00    -0.025 A 
ATOM     16  C   UNL     1     -23.846 -15.529 -13.986  1.00  0.00     0.056 A 
ATOM     17  C   UNL     1     -23.019 -13.878 -15.553  1.00  0.00     0.009 A 
ATOM     18  C   UNL     1     -24.728 -16.028 -14.966  1.00  0.00     0.160 A 
ATOM     19  C   UNL     1     -23.877 -14.380 -16.534  1.00  0.00     0.050 A 
ATOM     20  C   UNL     1     -24.729 -15.453 -16.245  1.00  0.00     0.157 A 
BRANCH  18  21
ATOM     21  O   UNL     1     -25.616 -17.084 -14.705  1.00  0.00    -0.493 OA
ATOM     22  C   UNL     1     -25.537 -17.943 -13.573  1.00  0.00     0.278 C 
ENDBRANCH  18  21
BRANCH  20  23
ATOM     23  O   UNL     1     -25.588 -15.950 -17.223  1.00  0.00    -0.504 OA
ATOM     24  H   UNL     1     -25.911 -15.371 -17.990  1.00  0.00     0.293 HD
ENDBRANCH  20  23
ENDBRANCH  14  15
ENDBRANCH  12  14
ENDBRANCH   9  10
ENDBRANCH   1   9
TORSDOF 10
ENDMDL
MODEL 6
REMARK VINA RESULT:    -3.140      2.163      5.933
REMARK INTER + INTRA:          -5.514
REMARK INTER:                  -5.867
REMARK INTRA:                   0.352
REMARK UNBOUND:                -0.630
REMARK SMILES COc1cc(CNC(=O)CCCCC=CC(C)C)ccc1O
REMARK SMILES IDX 11 1 12 2 13 3 14 4 15 5 16 6 17 7 18 8 10 9 8 10 9 11 7 12
REMARK SMILES IDX 6 14 5 15 4 16 19 17 3 18 20 19 21 20 2 21 1 22 22 23
REMARK H PARENT 7 13 22 24
REMARK Flexibility Score: inf
ROOT
ATOM      1  C   UNL     1     -20.970 -13.877 -12.754  1.00  0.00     0.010 C 
ENDROOT
BRANCH   1   2
ATOM      2  C   UNL     1     -21.980 -14.841 -12.113  1.00  0.00     0.005 C 
BRANCH   2   3
ATOM      3  C   UNL     1     -23.363 -14.194 -12.000  1.00  0.00     0.027 C 
BRANCH   3   4
ATOM      4  C   UNL     1     -23.928 -13.875 -13.357  1.00  0.00    -0.031 C 
ATOM      5  C   UNL     1     -23.344 -14.352 -14.468  1.00  0.00    -0.028 C 
BRANCH   5   6
ATOM      6  C   UNL     1     -23.864 -14.061 -15.858  1.00  0.00     0.005 C 
ATOM      7  C   UNL     1     -25.385 -13.875 -15.857  1.00  0.00     0.012 C 
ATOM      8  C   UNL     1     -23.438 -15.147 -16.853  1.00  0.00     0.012 C 
ENDBRANCH   5   6
ENDBRANCH   3   4
ENDBRANCH   2   3
ENDBRANCH   1   2
BRANCH   1   9
ATOM      9  C   UNL     1     -19.518 -14.304 -12.503  1.00  0.00     0.100 C 
BRANCH   9  10
ATOM     10  C   UNL     1     -19.304 -15.757 -12.822  1.00  0.00     0.220 C 
ATOM     11  O   UNL     1     -18.203 -16.298 -12.531  1.00  0.00    -0.275 OA
ATOM     12  N   UNL     1     -20.351 -16.527 -13.430  1.00  0.00    -0.352 N 
ATOM     13  H   UNL     1     -21.223 -16.037 -13.739  1.00  0.00     0.163 HD
BRANCH  12  14
ATOM     14  C   UNL     1     -20.364 -17.987 -13.417  1.00  0.00     0.151 C 
BRANCH  14  15
ATOM     15  C   UNL     1     -21.767 -18.479 -13.641  1.00  0.00    -0.025 A 
ATOM     16  C   UNL     1     -22.766 -17.591 -14.069  1.00  0.00     0.056 A 
ATOM     17  C   UNL     1     -22.068 -19.841 -13.502  1.00  0.00     0.009 A 
ATOM     18  C   UNL     1     -24.064 -18.059 -14.357  1.00  0.00     0.160 A 
ATOM     19  C   UNL     1     -23.358 -20.307 -13.767  1.00  0.00     0.050 A 
ATOM     20  C   UNL     1     -24.355 -19.421 -14.193  1.00  0.00     0.157 A 
BRANCH  18  21
ATOM     21  O   UNL     1     -25.082 -17.206 -14.811  1.00  0.00    -0.493 OA
ATOM     22  C   UNL     1     -26.370 -17.098 -14.213  1.00  0.00     0.278 C 
ENDBRANCH  18  21
BRANCH  20  23
ATOM     23  O   UNL     1     -25.640 -19.888 -14.461  1.00  0.00    -0.504 OA
ATOM     24  H   UNL     1     -26.057 -20.636 -13.919  1.00  0.00     0.293 HD
ENDBRANCH  20  23
ENDBRANCH  14  15
ENDBRANCH  12  14
ENDBRANCH   9  10
ENDBRANCH   1   9
TORSDOF 10
ENDMDL
MODEL 7
REMARK VINA RESULT:    -2.938      2.340      5.116
REMARK INTER + INTRA:          -5.199
REMARK INTER:                  -4.645
REMARK INTRA:                  -0.554
REMARK UNBOUND:                -0.630
REMARK SMILES COc1cc(CNC(=O)CCCCC=CC(C)C)ccc1O
REMARK SMILES IDX 11 1 12 2 13 3 14 4 15 5 16 6 17 7 18 8 10 9 8 10 9 11 7 12
REMARK SMILES IDX 6 14 5 15 4 16 19 17 3 18 20 19 21 20 2 21 1 22 22 23
REMARK H PARENT 7 13 22 24
REMARK Flexibility Score: inf
ROOT
ATOM      1  C   UNL     1     -25.704 -16.933 -14.585  1.00  0.00     0.010 C 
ENDROOT
BRANCH   1   2
ATOM      2  C   UNL     1     -25.299 -18.415 -14.581  1.00  0.00     0.005 C 
BRANCH   2   3
ATOM      3  C   UNL     1     -24.248 -18.696 -13.504  1.00  0.00     0.027 C 
BRANCH   3   4
ATOM      4  C   UNL     1     -23.196 -19.649 -14.003  1.00  0.00    -0.031 C 
ATOM      5  C   UNL     1     -22.753 -20.646 -13.220  1.00  0.00    -0.028 C 
BRANCH   5   6
ATOM      6  C   UNL     1     -21.695 -21.631 -13.666  1.00  0.00     0.005 C 
ATOM      7  C   UNL     1     -21.945 -23.022 -13.075  1.00  0.00     0.012 C 
ATOM      8  C   UNL     1     -20.287 -21.129 -13.327  1.00  0.00     0.012 C 
ENDBRANCH   5   6
ENDBRANCH   3   4
ENDBRANCH   2   3
ENDBRANCH   1   2
BRANCH   1   9
ATOM      9  C   UNL     1     -24.722 -16.064 -15.384  1.00  0.00     0.100 C 
BRANCH   9  10
ATOM     10  C   UNL     1     -23.989 -15.097 -14.496  1.00  0.00     0.220 C 
ATOM     11  O   UNL     1     -24.298 -13.875 -14.527  1.00  0.00    -0.275 OA
ATOM     12  N   UNL     1     -22.965 -15.563 -13.607  1.00  0.00    -0.352 N 
ATOM     13  H   UNL     1     -22.668 -16.565 -13.660  1.00  0.00     0.163 HD
BRANCH  12  14
ATOM     14  C   UNL     1     -22.491 -14.777 -12.471  1.00  0.00     0.151 C 
BRANCH  14  15
ATOM     15  C   UNL     1     -20.999 -14.919 -12.350  1.00  0.00    -0.025 A 
ATOM     16  C   UNL     1     -20.356 -16.061 -12.851  1.00  0.00     0.056 A 
ATOM     17  C   UNL     1     -20.232 -13.877 -11.811  1.00  0.00     0.009 A 
ATOM     18  C   UNL     1     -18.951 -16.166 -12.813  1.00  0.00     0.160 A 
ATOM     19  C   UNL     1     -18.841 -13.984 -11.753  1.00  0.00     0.050 A 
ATOM     20  C   UNL     1     -18.199 -15.124 -12.251  1.00  0.00     0.157 A 
BRANCH  18  21
ATOM     21  O   UNL     1     -18.270 -17.282 -13.326  1.00  0.00    -0.493 OA
ATOM     22  C   UNL     1     -17.371 -17.240 -14.429  1.00  0.00     0.278 C 
ENDBRANCH  18  21
BRANCH  20  23
ATOM     23  O   UNL     1     -16.810 -15.228 -12.196  1.00  0.00    -0.504 OA
ATOM     24  H   UNL     1     -16.222 -14.874 -12.942  1.00  0.00     0.293 HD
ENDBRANCH  20  23
ENDBRANCH  14  15
ENDBRANCH  12  14
ENDBRANCH   9  10
ENDBRANCH   1   9
TORSDOF 10
ENDMDL
MODEL 8
REMARK VINA RESULT:    -2.115      2.149      5.443
REMARK INTER + INTRA:          -3.919
REMARK INTER:                  -4.385
REMARK INTRA:                   0.466
REMARK UNBOUND:                -0.630
REMARK SMILES COc1cc(CNC(=O)CCCCC=CC(C)C)ccc1O
REMARK SMILES IDX 11 1 12 2 13 3 14 4 15 5 16 6 17 7 18 8 10 9 8 10 9 11 7 12
REMARK SMILES IDX 6 14 5 15 4 16 19 17 3 18 20 19 21 20 2 21 1 22 22 23
REMARK H PARENT 7 13 22 24
REMARK Flexibility Score: inf
ROOT
ATOM      1  C   UNL     1     -25.438 -15.089 -15.309  1.00  0.00     0.010 C 
ENDROOT
BRANCH   1   2
ATOM      2  C   UNL     1     -24.955 -15.150 -16.766  1.00  0.00     0.005 C 
BRANCH   2   3
ATOM      3  C   UNL     1     -23.611 -15.876 -16.871  1.00  0.00     0.027 C 
BRANCH   3   4
ATOM      4  C   UNL     1     -23.531 -17.020 -15.897  1.00  0.00    -0.031 C 
ATOM      5  C   UNL     1     -24.620 -17.413 -15.216  1.00  0.00    -0.028 C 
BRANCH   5   6
ATOM      6  C   UNL     1     -24.600 -18.552 -14.222  1.00  0.00     0.005 C 
ATOM      7  C   UNL     1     -25.394 -18.204 -12.960  1.00  0.00     0.012 C 
ATOM      8  C   UNL     1     -23.165 -18.968 -13.879  1.00  0.00     0.012 C 
ENDBRANCH   5   6
ENDBRANCH   3   4
ENDBRANCH   2   3
ENDBRANCH   1   2
BRANCH   1   9
ATOM      9  C   UNL     1     -24.869 -13.878 -14.558  1.00  0.00     0.100 C 
BRANCH   9  10
ATOM     10  C   UNL     1     -24.013 -14.298 -13.395  1.00  0.00     0.220 C 
ATOM     11  O   UNL     1     -24.356 -13.973 -12.226  1.00  0.00    -0.275 OA
ATOM     12  N   UNL     1     -22.830 -15.080 -13.612  1.00  0.00    -0.352 N 
ATOM     13  H   UNL     1     -22.521 -15.265 -14.594  1.00  0.00     0.163 HD
BRANCH  12  14
ATOM     14  C   UNL     1     -22.178 -15.833 -12.544  1.00  0.00     0.151 C 
BRANCH  14  15
ATOM     15  C   UNL     1     -20.713 -15.498 -12.515  1.00  0.00    -0.025 A 
ATOM     16  C   UNL     1     -19.764 -16.448 -12.922  1.00  0.00     0.056 A 
ATOM     17  C   UNL     1     -20.290 -14.210 -12.159  1.00  0.00     0.009 A 
ATOM     18  C   UNL     1     -18.395 -16.116 -12.973  1.00  0.00     0.160 A 
ATOM     19  C   UNL     1     -18.933 -13.881 -12.189  1.00  0.00     0.050 A 
ATOM     20  C   UNL     1     -17.986 -14.829 -12.594  1.00  0.00     0.157 A 
BRANCH  18  21
ATOM     21  O   UNL     1     -17.419 -17.031 -13.400  1.00  0.00    -0.493 OA
ATOM     22  C   UNL     1     -17.039 -17.230 -14.757  1.00  0.00     0.278 C 
ENDBRANCH  18  21
BRANCH  20  23
ATOM     23  O   UNL     1     -16.632 -14.498 -12.628  1.00  0.00    -0.504 OA
ATOM     24  H   UNL     1     -16.070 -14.480 -11.785  1.00  0.00     0.293 HD
ENDBRANCH  20  23
ENDBRANCH  14  15
ENDBRANCH  12  14
ENDBRANCH   9  10
ENDBRANCH   1   9
TORSDOF 10
ENDMDL
