MODEL 1
REMARK VINA RESULT:    -4.061      0.000      0.000
REMARK INTER + INTRA:          -9.638
REMARK INTER:                  -7.622
REMARK INTRA:                  -2.016
REMARK UNBOUND:                -2.016
REMARK SMILES O=C([O-])CCCCCCCCCCCCCCC(=O)[O-]
REMARK SMILES IDX 10 1 9 2 8 3 7 4 6 5 5 6 4 7 2 8 1 9 3 10 11 11 12 12 13 13
REMARK SMILES IDX 14 14 15 15 16 16 17 17 18 18 19 19 20 20
REMARK H PARENT
REMARK Flexibility Score: inf
ROOT
ATOM      1  C   UNL     1     172.868 177.161 151.278  1.00  0.00     0.000 C 
ENDROOT
BRANCH   1   2
ATOM      2  C   UNL     1     174.033 177.702 150.432  1.00  0.00     0.000 C 
BRANCH   2   3
ATOM      3  C   UNL     1     175.352 176.943 150.671  1.00  0.00     0.000 C 
BRANCH   3   4
ATOM      4  C   UNL     1     175.195 175.470 151.089  1.00  0.00     0.000 C 
BRANCH   4   5
ATOM      5  C   UNL     1     176.512 174.683 151.020  1.00  0.00     0.000 C 
BRANCH   5   6
ATOM      6  C   UNL     1     176.255 173.171 151.120  1.00  0.00     0.006 C 
BRANCH   6   7
ATOM      7  C   UNL     1     176.830 172.569 152.410  1.00  0.00     0.053 C 
BRANCH   7   8
ATOM      8  C   UNL     1     176.299 171.193 152.664  1.00  0.00     0.041 C 
ATOM      9  O   UNL     1     175.086 170.930 152.444  1.00  0.00    -0.550 OA
ATOM     10  O   UNL     1     177.149 170.190 153.110  1.00  0.00    -0.550 OA
ENDBRANCH   7   8
ENDBRANCH   6   7
ENDBRANCH   5   6
ENDBRANCH   4   5
ENDBRANCH   3   4
ENDBRANCH   2   3
ENDBRANCH   1   2
BRANCH   1  11
ATOM     11  C   UNL     1     172.590 178.016 152.528  1.00  0.00     0.000 C 
BRANCH  11  12
ATOM     12  C   UNL     1     172.431 177.227 153.842  1.00  0.00     0.000 C 
BRANCH  12  13
ATOM     13  C   UNL     1     173.588 177.391 154.850  1.00  0.00     0.000 C 
BRANCH  13  14
ATOM     14  C   UNL     1     174.906 177.907 154.246  1.00  0.00     0.000 C 
BRANCH  14  15
ATOM     15  C   UNL     1     176.039 176.872 154.314  1.00  0.00     0.000 C 
BRANCH  15  16
ATOM     16  C   UNL     1     175.516 175.519 154.810  1.00  0.00     0.006 C 
BRANCH  16  17
ATOM     17  C   UNL     1     176.277 175.060 156.057  1.00  0.00     0.053 C 
BRANCH  17  18
ATOM     18  C   UNL     1     176.788 173.665 155.875  1.00  0.00     0.041 C 
ATOM     19  O   UNL     1     178.026 173.446 155.825  1.00  0.00    -0.550 OA
ATOM     20  O   UNL     1     175.896 172.602 155.812  1.00  0.00    -0.550 OA
ENDBRANCH  17  18
ENDBRANCH  16  17
ENDBRANCH  15  16
ENDBRANCH  14  15
ENDBRANCH  13  14
ENDBRANCH  12  13
ENDBRANCH  11  12
ENDBRANCH   1  11
TORSDOF 15
ENDMDL
MODEL 2
REMARK VINA RESULT:    -4.013      9.816     12.032
REMARK INTER + INTRA:          -9.548
REMARK INTER:                  -7.459
REMARK INTRA:                  -2.089
REMARK UNBOUND:                -2.016
REMARK SMILES O=C([O-])CCCCCCCCCCCCCCC(=O)[O-]
REMARK SMILES IDX 10 1 9 2 8 3 7 4 6 5 5 6 4 7 2 8 1 9 3 10 11 11 12 12 13 13
REMARK SMILES IDX 14 14 15 15 16 16 17 17 18 18 19 19 20 20
REMARK H PARENT
REMARK Flexibility Score: inf
ROOT
ATOM      1  C   UNL     1     164.001 176.861 151.469  1.00  0.00     0.000 C 
ENDROOT
BRANCH   1   2
ATOM      2  C   UNL     1     163.563 175.401 151.672  1.00  0.00     0.000 C 
BRANCH   2   3
ATOM      3  C   UNL     1     164.612 174.385 151.184  1.00  0.00     0.000 C 
BRANCH   3   4
ATOM      4  C   UNL     1     165.215 174.678 149.798  1.00  0.00     0.000 C 
BRANCH   4   5
ATOM      5  C   UNL     1     166.750 174.645 149.792  1.00  0.00     0.000 C 
BRANCH   5   6
ATOM      6  C   UNL     1     167.323 175.886 149.089  1.00  0.00     0.006 C 
BRANCH   6   7
ATOM      7  C   UNL     1     167.261 177.137 149.977  1.00  0.00     0.053 C 
BRANCH   7   8
ATOM      8  C   UNL     1     168.038 176.955 151.244  1.00  0.00     0.041 C 
ATOM      9  O   UNL     1     167.436 176.784 152.338  1.00  0.00    -0.550 OA
ATOM     10  O   UNL     1     169.427 176.940 151.214  1.00  0.00    -0.550 OA
ENDBRANCH   7   8
ENDBRANCH   6   7
ENDBRANCH   5   6
ENDBRANCH   4   5
ENDBRANCH   3   4
ENDBRANCH   2   3
ENDBRANCH   1   2
BRANCH   1  11
ATOM     11  C   UNL     1     162.833 177.788 151.088  1.00  0.00     0.000 C 
BRANCH  11  12
ATOM     12  C   UNL     1     161.523 177.072 150.705  1.00  0.00     0.000 C 
BRANCH  12  13
ATOM     13  C   UNL     1     160.246 177.649 151.349  1.00  0.00     0.000 C 
BRANCH  13  14
ATOM     14  C   UNL     1     160.276 177.731 152.886  1.00  0.00     0.000 C 
BRANCH  14  15
ATOM     15  C   UNL     1     160.496 176.363 153.551  1.00  0.00     0.000 C 
BRANCH  15  16
ATOM     16  C   UNL     1     161.518 176.466 154.689  1.00  0.00     0.006 C 
BRANCH  16  17
ATOM     17  C   UNL     1     162.104 177.878 154.776  1.00  0.00     0.053 C 
BRANCH  17  18
ATOM     18  C   UNL     1     163.443 177.851 155.444  1.00  0.00     0.041 C 
ATOM     19  O   UNL     1     163.529 177.635 156.681  1.00  0.00    -0.550 OA
ATOM     20  O   UNL     1     164.598 178.013 154.691  1.00  0.00    -0.550 OA
ENDBRANCH  17  18
ENDBRANCH  16  17
ENDBRANCH  15  16
ENDBRANCH  14  15
ENDBRANCH  13  14
ENDBRANCH  12  13
ENDBRANCH  11  12
ENDBRANCH   1  11
TORSDOF 15
ENDMDL
MODEL 3
REMARK VINA RESULT:    -4.009      1.857      3.677
REMARK INTER + INTRA:          -9.541
REMARK INTER:                  -7.574
REMARK INTRA:                  -1.966
REMARK UNBOUND:                -2.016
REMARK SMILES O=C([O-])CCCCCCCCCCCCCCC(=O)[O-]
REMARK SMILES IDX 10 1 9 2 8 3 7 4 6 5 5 6 4 7 2 8 1 9 3 10 11 11 12 12 13 13
REMARK SMILES IDX 14 14 15 15 16 16 17 17 18 18 19 19 20 20
REMARK H PARENT
REMARK Flexibility Score: inf
ROOT
ATOM      1  C   UNL     1     174.797 173.791 151.007  1.00  0.00     0.000 C 
ENDROOT
BRANCH   1   2
ATOM      2  C   UNL     1     174.489 172.376 150.487  1.00  0.00     0.000 C 
BRANCH   2   3
ATOM      3  C   UNL     1     175.647 171.772 149.671  1.00  0.00     0.000 C 
BRANCH   3   4
ATOM      4  C   UNL     1     176.466 170.688 150.395  1.00  0.00     0.000 C 
BRANCH   4   5
ATOM      5  C   UNL     1     175.756 170.129 151.637  1.00  0.00     0.000 C 
BRANCH   5   6
ATOM      6  C   UNL     1     176.606 170.345 152.899  1.00  0.00     0.006 C 
BRANCH   6   7
ATOM      7  C   UNL     1     176.061 171.478 153.780  1.00  0.00     0.053 C 
BRANCH   7   8
ATOM      8  C   UNL     1     177.011 172.633 153.848  1.00  0.00     0.041 C 
ATOM      9  O   UNL     1     177.249 173.194 154.950  1.00  0.00    -0.550 OA
ATOM     10  O   UNL     1     177.660 173.069 152.699  1.00  0.00    -0.550 OA
ENDBRANCH   7   8
ENDBRANCH   6   7
ENDBRANCH   5   6
ENDBRANCH   4   5
ENDBRANCH   3   4
ENDBRANCH   2   3
ENDBRANCH   1   2
BRANCH   1  11
ATOM     11  C   UNL     1     173.539 174.541 151.480  1.00  0.00     0.000 C 
BRANCH  11  12
ATOM     12  C   UNL     1     173.515 176.050 151.165  1.00  0.00     0.000 C 
BRANCH  12  13
ATOM     13  C   UNL     1     174.829 176.622 150.595  1.00  0.00     0.000 C 
BRANCH  13  14
ATOM     14  C   UNL     1     175.456 177.755 151.427  1.00  0.00     0.000 C 
BRANCH  14  15
ATOM     15  C   UNL     1     174.620 178.122 152.662  1.00  0.00     0.000 C 
BRANCH  15  16
ATOM     16  C   UNL     1     175.439 177.956 153.948  1.00  0.00     0.006 C 
BRANCH  16  17
ATOM     17  C   UNL     1     175.803 176.487 154.182  1.00  0.00     0.053 C 
BRANCH  17  18
ATOM     18  C   UNL     1     174.897 175.879 155.206  1.00  0.00     0.041 C 
ATOM     19  O   UNL     1     174.671 176.481 156.288  1.00  0.00    -0.550 OA
ATOM     20  O   UNL     1     174.262 174.672 154.943  1.00  0.00    -0.550 OA
ENDBRANCH  17  18
ENDBRANCH  16  17
ENDBRANCH  15  16
ENDBRANCH  14  15
ENDBRANCH  13  14
ENDBRANCH  12  13
ENDBRANCH  11  12
ENDBRANCH   1  11
TORSDOF 15
ENDMDL
MODEL 4
REMARK VINA RESULT:    -3.964      9.760     12.227
REMARK INTER + INTRA:          -9.457
REMARK INTER:                  -7.537
REMARK INTRA:                  -1.920
REMARK UNBOUND:                -2.016
REMARK SMILES O=C([O-])CCCCCCCCCCCCCCC(=O)[O-]
REMARK SMILES IDX 10 1 9 2 8 3 7 4 6 5 5 6 4 7 2 8 1 9 3 10 11 11 12 12 13 13
REMARK SMILES IDX 14 14 15 15 16 16 17 17 18 18 19 19 20 20
REMARK H PARENT
REMARK Flexibility Score: inf
ROOT
ATOM      1  C   UNL     1     164.366 176.127 152.343  1.00  0.00     0.000 C 
ENDROOT
BRANCH   1   2
ATOM      2  C   UNL     1     163.745 177.534 152.280  1.00  0.00     0.000 C 
BRANCH   2   3
ATOM      3  C   UNL     1     162.980 177.794 150.969  1.00  0.00     0.000 C 
BRANCH   3   4
ATOM      4  C   UNL     1     161.457 177.957 151.119  1.00  0.00     0.000 C 
BRANCH   4   5
ATOM      5  C   UNL     1     160.663 176.836 150.433  1.00  0.00     0.000 C 
BRANCH   5   6
ATOM      6  C   UNL     1     159.886 176.003 151.465  1.00  0.00     0.006 C 
BRANCH   6   7
ATOM      7  C   UNL     1     160.248 176.382 152.908  1.00  0.00     0.053 C 
BRANCH   7   8
ATOM      8  C   UNL     1     160.803 175.216 153.665  1.00  0.00     0.041 C 
ATOM      9  O   UNL     1     160.502 174.040 153.328  1.00  0.00    -0.550 OA
ATOM     10  O   UNL     1     161.679 175.425 154.722  1.00  0.00    -0.550 OA
ENDBRANCH   7   8
ENDBRANCH   6   7
ENDBRANCH   5   6
ENDBRANCH   4   5
ENDBRANCH   3   4
ENDBRANCH   2   3
ENDBRANCH   1   2
BRANCH   1  11
ATOM     11  C   UNL     1     163.711 175.141 151.358  1.00  0.00     0.000 C 
BRANCH  11  12
ATOM     12  C   UNL     1     164.659 174.539 150.302  1.00  0.00     0.000 C 
BRANCH  12  13
ATOM     13  C   UNL     1     166.154 174.552 150.679  1.00  0.00     0.000 C 
BRANCH  13  14
ATOM     14  C   UNL     1     167.117 174.798 149.503  1.00  0.00     0.000 C 
BRANCH  14  15
ATOM     15  C   UNL     1     167.286 176.289 149.173  1.00  0.00     0.000 C 
BRANCH  15  16
ATOM     16  C   UNL     1     167.427 177.121 150.454  1.00  0.00     0.006 C 
BRANCH  16  17
ATOM     17  C   UNL     1     168.823 176.961 151.062  1.00  0.00     0.053 C 
BRANCH  17  18
ATOM     18  C   UNL     1     168.734 176.816 152.549  1.00  0.00     0.041 C 
ATOM     19  O   UNL     1     169.407 175.932 153.141  1.00  0.00    -0.550 OA
ATOM     20  O   UNL     1     167.947 177.692 153.286  1.00  0.00    -0.550 OA
ENDBRANCH  17  18
ENDBRANCH  16  17
ENDBRANCH  15  16
ENDBRANCH  14  15
ENDBRANCH  13  14
ENDBRANCH  12  13
ENDBRANCH  11  12
ENDBRANCH   1  11
TORSDOF 15
ENDMDL
MODEL 5
REMARK VINA RESULT:    -3.927      3.139      4.920
REMARK INTER + INTRA:          -9.386
REMARK INTER:                  -6.883
REMARK INTRA:                  -2.503
REMARK UNBOUND:                -2.016
REMARK SMILES O=C([O-])CCCCCCCCCCCCCCC(=O)[O-]
REMARK SMILES IDX 10 1 9 2 8 3 7 4 6 5 5 6 4 7 2 8 1 9 3 10 11 11 12 12 13 13
REMARK SMILES IDX 14 14 15 15 16 16 17 17 18 18 19 19 20 20
REMARK H PARENT
REMARK Flexibility Score: inf
ROOT
ATOM      1  C   UNL     1     175.710 175.541 151.118  1.00  0.00     0.000 C 
ENDROOT
BRANCH   1   2
ATOM      2  C   UNL     1     174.824 174.285 151.198  1.00  0.00     0.000 C 
BRANCH   2   3
ATOM      3  C   UNL     1     173.323 174.615 151.295  1.00  0.00     0.000 C 
BRANCH   3   4
ATOM      4  C   UNL     1     172.712 174.485 152.702  1.00  0.00     0.000 C 
BRANCH   4   5
ATOM      5  C   UNL     1     171.692 175.588 153.017  1.00  0.00     0.000 C 
BRANCH   5   6
ATOM      6  C   UNL     1     171.578 176.580 151.849  1.00  0.00     0.006 C 
BRANCH   6   7
ATOM      7  C   UNL     1     170.325 177.461 151.956  1.00  0.00     0.053 C 
BRANCH   7   8
ATOM      8  C   UNL     1     169.095 176.646 152.210  1.00  0.00     0.041 C 
ATOM      9  O   UNL     1     168.482 176.747 153.306  1.00  0.00    -0.550 OA
ATOM     10  O   UNL     1     168.605 175.800 151.223  1.00  0.00    -0.550 OA
ENDBRANCH   7   8
ENDBRANCH   6   7
ENDBRANCH   5   6
ENDBRANCH   4   5
ENDBRANCH   3   4
ENDBRANCH   2   3
ENDBRANCH   1   2
BRANCH   1  11
ATOM     11  C   UNL     1     174.932 176.793 150.672  1.00  0.00     0.000 C 
BRANCH  11  12
ATOM     12  C   UNL     1     175.434 178.125 151.264  1.00  0.00     0.000 C 
BRANCH  12  13
ATOM     13  C   UNL     1     175.687 178.113 152.786  1.00  0.00     0.000 C 
BRANCH  13  14
ATOM     14  C   UNL     1     174.416 178.101 153.654  1.00  0.00     0.000 C 
BRANCH  14  15
ATOM     15  C   UNL     1     174.536 177.175 154.874  1.00  0.00     0.000 C 
BRANCH  15  16
ATOM     16  C   UNL     1     175.618 176.111 154.650  1.00  0.00     0.006 C 
BRANCH  16  17
ATOM     17  C   UNL     1     175.264 174.808 155.371  1.00  0.00     0.053 C 
BRANCH  17  18
ATOM     18  C   UNL     1     176.500 174.144 155.891  1.00  0.00     0.041 C 
ATOM     19  O   UNL     1     177.561 174.806 156.037  1.00  0.00    -0.550 OA
ATOM     20  O   UNL     1     176.467 172.806 156.262  1.00  0.00    -0.550 OA
ENDBRANCH  17  18
ENDBRANCH  16  17
ENDBRANCH  15  16
ENDBRANCH  14  15
ENDBRANCH  13  14
ENDBRANCH  12  13
ENDBRANCH  11  12
ENDBRANCH   1  11
TORSDOF 15
ENDMDL
MODEL 6
REMARK VINA RESULT:    -3.912      2.434      3.385
REMARK INTER + INTRA:          -9.358
REMARK INTER:                  -7.453
REMARK INTRA:                  -1.905
REMARK UNBOUND:                -2.016
REMARK SMILES O=C([O-])CCCCCCCCCCCCCCC(=O)[O-]
REMARK SMILES IDX 10 1 9 2 8 3 7 4 6 5 5 6 4 7 2 8 1 9 3 10 11 11 12 12 13 13
REMARK SMILES IDX 14 14 15 15 16 16 17 17 18 18 19 19 20 20
REMARK H PARENT
REMARK Flexibility Score: inf
ROOT
ATOM      1  C   UNL     1     173.902 174.447 151.458  1.00  0.00     0.000 C 
ENDROOT
BRANCH   1   2
ATOM      2  C   UNL     1     175.221 173.881 152.012  1.00  0.00     0.000 C 
BRANCH   2   3
ATOM      3  C   UNL     1     176.446 174.282 151.169  1.00  0.00     0.000 C 
BRANCH   3   4
ATOM      4  C   UNL     1     176.944 173.211 150.182  1.00  0.00     0.000 C 
BRANCH   4   5
ATOM      5  C   UNL     1     176.422 171.804 150.508  1.00  0.00     0.000 C 
BRANCH   5   6
ATOM      6  C   UNL     1     175.673 171.204 149.308  1.00  0.00     0.006 C 
BRANCH   6   7
ATOM      7  C   UNL     1     174.197 171.625 149.275  1.00  0.00     0.053 C 
BRANCH   7   8
ATOM      8  C   UNL     1     173.286 170.476 149.577  1.00  0.00     0.041 C 
ATOM      9  O   UNL     1     172.155 170.402 149.028  1.00  0.00    -0.550 OA
ATOM     10  O   UNL     1     173.699 169.469 150.441  1.00  0.00    -0.550 OA
ENDBRANCH   7   8
ENDBRANCH   6   7
ENDBRANCH   5   6
ENDBRANCH   4   5
ENDBRANCH   3   4
ENDBRANCH   2   3
ENDBRANCH   1   2
BRANCH   1  11
ATOM     11  C   UNL     1     174.086 175.793 150.735  1.00  0.00     0.000 C 
BRANCH  11  12
ATOM     12  C   UNL     1     173.350 176.988 151.372  1.00  0.00     0.000 C 
BRANCH  12  13
ATOM     13  C   UNL     1     174.259 178.125 151.881  1.00  0.00     0.000 C 
BRANCH  13  14
ATOM     14  C   UNL     1     174.581 178.073 153.386  1.00  0.00     0.000 C 
BRANCH  14  15
ATOM     15  C   UNL     1     175.850 177.266 153.696  1.00  0.00     0.000 C 
BRANCH  15  16
ATOM     16  C   UNL     1     175.567 176.178 154.740  1.00  0.00     0.006 C 
BRANCH  16  17
ATOM     17  C   UNL     1     174.139 176.295 155.281  1.00  0.00     0.053 C 
BRANCH  17  18
ATOM     18  C   UNL     1     174.066 175.780 156.684  1.00  0.00     0.041 C 
ATOM     19  O   UNL     1     173.486 174.690 156.929  1.00  0.00    -0.550 OA
ATOM     20  O   UNL     1     174.683 176.478 157.713  1.00  0.00    -0.550 OA
ENDBRANCH  17  18
ENDBRANCH  16  17
ENDBRANCH  15  16
ENDBRANCH  14  15
ENDBRANCH  13  14
ENDBRANCH  12  13
ENDBRANCH  11  12
ENDBRANCH   1  11
TORSDOF 15
ENDMDL
MODEL 7
REMARK VINA RESULT:    -3.907      1.599      4.415
REMARK INTER + INTRA:          -9.350
REMARK INTER:                  -6.851
REMARK INTRA:                  -2.499
REMARK UNBOUND:                -2.016
REMARK SMILES O=C([O-])CCCCCCCCCCCCCCC(=O)[O-]
REMARK SMILES IDX 10 1 9 2 8 3 7 4 6 5 5 6 4 7 2 8 1 9 3 10 11 11 12 12 13 13
REMARK SMILES IDX 14 14 15 15 16 16 17 17 18 18 19 19 20 20
REMARK H PARENT
REMARK Flexibility Score: inf
ROOT
ATOM      1  C   UNL     1     171.727 176.280 151.821  1.00  0.00     0.000 C 
ENDROOT
BRANCH   1   2
ATOM      2  C   UNL     1     172.518 177.600 151.850  1.00  0.00     0.000 C 
BRANCH   2   3
ATOM      3  C   UNL     1     173.744 177.586 150.918  1.00  0.00     0.000 C 
BRANCH   3   4
ATOM      4  C   UNL     1     175.069 178.020 151.569  1.00  0.00     0.000 C 
BRANCH   4   5
ATOM      5  C   UNL     1     174.981 178.122 153.099  1.00  0.00     0.000 C 
BRANCH   5   6
ATOM      6  C   UNL     1     175.892 177.083 153.772  1.00  0.00     0.006 C 
BRANCH   6   7
ATOM      7  C   UNL     1     175.152 176.268 154.841  1.00  0.00     0.053 C 
BRANCH   7   8
ATOM      8  C   UNL     1     175.924 175.048 155.241  1.00  0.00     0.041 C 
ATOM      9  O   UNL     1     177.081 175.160 155.726  1.00  0.00    -0.550 OA
ATOM     10  O   UNL     1     175.352 173.789 155.109  1.00  0.00    -0.550 OA
ENDBRANCH   7   8
ENDBRANCH   6   7
ENDBRANCH   5   6
ENDBRANCH   4   5
ENDBRANCH   3   4
ENDBRANCH   2   3
ENDBRANCH   1   2
BRANCH   1  11
ATOM     11  C   UNL     1     172.057 175.360 153.010  1.00  0.00     0.000 C 
BRANCH  11  12
ATOM     12  C   UNL     1     172.929 174.134 152.671  1.00  0.00     0.000 C 
BRANCH  12  13
ATOM     13  C   UNL     1     172.900 173.697 151.192  1.00  0.00     0.000 C 
BRANCH  13  14
ATOM     14  C   UNL     1     174.223 173.895 150.431  1.00  0.00     0.000 C 
BRANCH  14  15
ATOM     15  C   UNL     1     175.378 174.328 151.348  1.00  0.00     0.000 C 
BRANCH  15  16
ATOM     16  C   UNL     1     176.583 173.393 151.191  1.00  0.00     0.006 C 
BRANCH  16  17
ATOM     17  C   UNL     1     176.220 172.167 150.348  1.00  0.00     0.053 C 
BRANCH  17  18
ATOM     18  C   UNL     1     176.202 170.934 151.196  1.00  0.00     0.041 C 
ATOM     19  O   UNL     1     176.893 169.933 150.873  1.00  0.00    -0.550 OA
ATOM     20  O   UNL     1     175.461 170.910 152.371  1.00  0.00    -0.550 OA
ENDBRANCH  17  18
ENDBRANCH  16  17
ENDBRANCH  15  16
ENDBRANCH  14  15
ENDBRANCH  13  14
ENDBRANCH  12  13
ENDBRANCH  11  12
ENDBRANCH   1  11
TORSDOF 15
ENDMDL
MODEL 8
REMARK VINA RESULT:    -3.865      2.074      2.954
REMARK INTER + INTRA:          -9.270
REMARK INTER:                  -7.614
REMARK INTRA:                  -1.656
REMARK UNBOUND:                -2.016
REMARK SMILES O=C([O-])CCCCCCCCCCCCCCC(=O)[O-]
REMARK SMILES IDX 10 1 9 2 8 3 7 4 6 5 5 6 4 7 2 8 1 9 3 10 11 11 12 12 13 13
REMARK SMILES IDX 14 14 15 15 16 16 17 17 18 18 19 19 20 20
REMARK H PARENT
REMARK Flexibility Score: inf
ROOT
ATOM      1  C   UNL     1     173.454 175.126 150.767  1.00  0.00     0.000 C 
ENDROOT
BRANCH   1   2
ATOM      2  C   UNL     1     172.910 174.095 151.771  1.00  0.00     0.000 C 
BRANCH   2   3
ATOM      3  C   UNL     1     173.117 172.641 151.310  1.00  0.00     0.000 C 
BRANCH   3   4
ATOM      4  C   UNL     1     173.632 172.475 149.869  1.00  0.00     0.000 C 
BRANCH   4   5
ATOM      5  C   UNL     1     174.560 171.263 149.699  1.00  0.00     0.000 C 
BRANCH   5   6
ATOM      6  C   UNL     1     176.030 171.705 149.620  1.00  0.00     0.006 C 
BRANCH   6   7
ATOM      7  C   UNL     1     176.670 171.844 151.008  1.00  0.00     0.053 C 
BRANCH   7   8
ATOM      8  C   UNL     1     177.003 173.269 151.324  1.00  0.00     0.041 C 
ATOM      9  O   UNL     1     176.734 173.747 152.458  1.00  0.00    -0.550 OA
ATOM     10  O   UNL     1     177.642 174.061 150.378  1.00  0.00    -0.550 OA
ENDBRANCH   7   8
ENDBRANCH   6   7
ENDBRANCH   5   6
ENDBRANCH   4   5
ENDBRANCH   3   4
ENDBRANCH   2   3
ENDBRANCH   1   2
BRANCH   1  11
ATOM     11  C   UNL     1     173.059 176.571 151.120  1.00  0.00     0.000 C 
BRANCH  11  12
ATOM     12  C   UNL     1     174.014 177.661 150.595  1.00  0.00     0.000 C 
BRANCH  12  13
ATOM     13  C   UNL     1     175.345 177.794 151.363  1.00  0.00     0.000 C 
BRANCH  13  14
ATOM     14  C   UNL     1     175.199 178.124 152.859  1.00  0.00     0.000 C 
BRANCH  14  15
ATOM     15  C   UNL     1     175.923 177.117 153.765  1.00  0.00     0.000 C 
BRANCH  15  16
ATOM     16  C   UNL     1     174.956 176.038 154.268  1.00  0.00     0.006 C 
BRANCH  16  17
ATOM     17  C   UNL     1     175.159 175.773 155.763  1.00  0.00     0.053 C 
BRANCH  17  18
ATOM     18  C   UNL     1     176.068 174.602 155.968  1.00  0.00     0.041 C 
ATOM     19  O   UNL     1     175.592 173.443 156.082  1.00  0.00    -0.550 OA
ATOM     20  O   UNL     1     177.445 174.787 155.984  1.00  0.00    -0.550 OA
ENDBRANCH  17  18
ENDBRANCH  16  17
ENDBRANCH  15  16
ENDBRANCH  14  15
ENDBRANCH  13  14
ENDBRANCH  12  13
ENDBRANCH  11  12
ENDBRANCH   1  11
TORSDOF 15
ENDMDL
MODEL 9
REMARK VINA RESULT:    -3.732      1.643      5.206
REMARK INTER + INTRA:          -9.021
REMARK INTER:                  -7.266
REMARK INTRA:                  -1.755
REMARK UNBOUND:                -2.016
REMARK SMILES O=C([O-])CCCCCCCCCCCCCCC(=O)[O-]
REMARK SMILES IDX 10 1 9 2 8 3 7 4 6 5 5 6 4 7 2 8 1 9 3 10 11 11 12 12 13 13
REMARK SMILES IDX 14 14 15 15 16 16 17 17 18 18 19 19 20 20
REMARK H PARENT
REMARK Flexibility Score: inf
ROOT
ATOM      1  C   UNL     1     174.787 174.621 151.073  1.00  0.00     0.000 C 
ENDROOT
BRANCH   1   2
ATOM      2  C   UNL     1     174.147 176.018 151.155  1.00  0.00     0.000 C 
BRANCH   2   3
ATOM      3  C   UNL     1     175.109 177.144 150.730  1.00  0.00     0.000 C 
BRANCH   3   4
ATOM      4  C   UNL     1     175.507 178.125 151.847  1.00  0.00     0.000 C 
BRANCH   4   5
ATOM      5  C   UNL     1     174.856 177.794 153.197  1.00  0.00     0.000 C 
BRANCH   5   6
ATOM      6  C   UNL     1     175.887 177.210 154.176  1.00  0.00     0.006 C 
BRANCH   6   7
ATOM      7  C   UNL     1     175.274 176.150 155.101  1.00  0.00     0.053 C 
BRANCH   7   8
ATOM      8  C   UNL     1     176.152 174.943 155.220  1.00  0.00     0.041 C 
ATOM      9  O   UNL     1     175.990 173.961 154.448  1.00  0.00    -0.550 OA
ATOM     10  O   UNL     1     177.173 174.916 156.162  1.00  0.00    -0.550 OA
ENDBRANCH   7   8
ENDBRANCH   6   7
ENDBRANCH   5   6
ENDBRANCH   4   5
ENDBRANCH   3   4
ENDBRANCH   2   3
ENDBRANCH   1   2
BRANCH   1  11
ATOM     11  C   UNL     1     176.323 174.661 151.163  1.00  0.00     0.000 C 
BRANCH  11  12
ATOM     12  C   UNL     1     177.055 173.525 150.422  1.00  0.00     0.000 C 
BRANCH  12  13
ATOM     13  C   UNL     1     176.143 172.423 149.845  1.00  0.00     0.000 C 
BRANCH  13  14
ATOM     14  C   UNL     1     176.563 170.984 150.198  1.00  0.00     0.000 C 
BRANCH  14  15
ATOM     15  C   UNL     1     175.481 170.222 150.978  1.00  0.00     0.000 C 
BRANCH  15  16
ATOM     16  C   UNL     1     175.327 170.786 152.396  1.00  0.00     0.006 C 
BRANCH  16  17
ATOM     17  C   UNL     1     176.628 170.636 153.190  1.00  0.00     0.053 C 
BRANCH  17  18
ATOM     18  C   UNL     1     177.027 169.196 153.275  1.00  0.00     0.041 C 
ATOM     19  O   UNL     1     178.089 168.799 152.729  1.00  0.00    -0.550 OA
ATOM     20  O   UNL     1     176.250 168.302 154.001  1.00  0.00    -0.550 OA
ENDBRANCH  17  18
ENDBRANCH  16  17
ENDBRANCH  15  16
ENDBRANCH  14  15
ENDBRANCH  13  14
ENDBRANCH  12  13
ENDBRANCH  11  12
ENDBRANCH   1  11
TORSDOF 15
ENDMDL
