MODEL 1
REMARK VINA RESULT:    -3.925      0.000      0.000
REMARK INTER + INTRA:         -10.323
REMARK INTER:                  -7.597
REMARK INTRA:                  -2.726
REMARK UNBOUND:                -2.726
REMARK SMILES CCCCCC=CCC=CCCCCCCCCOC(C)=O
REMARK SMILES IDX 12 1 11 2 10 3 9 4 8 5 7 6 6 7 5 8 4 9 3 10 2 11 1 12 13 13
REMARK SMILES IDX 14 14 15 15 16 16 17 17 18 18 19 19 20 20 22 21 21 22
REMARK H PARENT
REMARK Flexibility Score: inf
ROOT
ATOM      1  C   UNL     1     -12.059 -11.296  95.646  1.00  0.00     0.004 C 
ENDROOT
BRANCH   1   2
ATOM      2  C   UNL     1     -11.149 -11.910  94.574  1.00  0.00     0.027 C 
BRANCH   2   3
ATOM      3  C   UNL     1     -10.466 -10.846  93.756  1.00  0.00    -0.031 C 
ATOM      4  C   UNL     1     -10.526  -9.550  94.095  1.00  0.00    -0.027 C 
BRANCH   4   5
ATOM      5  C   UNL     1      -9.792  -8.499  93.310  1.00  0.00     0.054 C 
BRANCH   5   6
ATOM      6  C   UNL     1      -8.337  -8.862  93.145  1.00  0.00    -0.027 C 
ATOM      7  C   UNL     1      -7.576  -8.439  92.120  1.00  0.00    -0.031 C 
BRANCH   7   8
ATOM      8  C   UNL     1      -8.050  -7.521  91.019  1.00  0.00     0.027 C 
BRANCH   8   9
ATOM      9  C   UNL     1      -8.327  -8.295  89.724  1.00  0.00     0.004 C 
BRANCH   9  10
ATOM     10  C   UNL     1      -9.675  -9.029  89.764  1.00  0.00     0.000 C 
BRANCH  10  11
ATOM     11  C   UNL     1      -9.493 -10.528  89.502  1.00  0.00    -0.003 C 
ATOM     12  C   UNL     1      -8.098 -10.827  88.957  1.00  0.00     0.004 C 
ENDBRANCH  10  11
ENDBRANCH   9  10
ENDBRANCH   8   9
ENDBRANCH   7   8
ENDBRANCH   5   6
ENDBRANCH   4   5
ENDBRANCH   2   3
ENDBRANCH   1   2
BRANCH   1  13
ATOM     13  C   UNL     1     -13.524 -11.215  95.184  1.00  0.00     0.000 C 
BRANCH  13  14
ATOM     14  C   UNL     1     -13.788 -12.009  93.894  1.00  0.00     0.000 C 
BRANCH  14  15
ATOM     15  C   UNL     1     -14.612 -11.231  92.846  1.00  0.00     0.000 C 
BRANCH  15  16
ATOM     16  C   UNL     1     -13.878  -9.972  92.351  1.00  0.00     0.003 C 
BRANCH  16  17
ATOM     17  C   UNL     1     -12.894 -10.273  91.208  1.00  0.00     0.042 C 
BRANCH  17  18
ATOM     18  C   UNL     1     -13.601 -10.518  89.869  1.00  0.00     0.233 C 
BRANCH  18  19
ATOM     19  O   UNL     1     -13.789  -9.288  89.172  1.00  0.00    -0.466 OA
BRANCH  19  20
ATOM     20  C   UNL     1     -13.032  -8.912  88.057  1.00  0.00     0.302 C 
ATOM     21  O   UNL     1     -12.914  -7.698  87.734  1.00  0.00    -0.253 OA
ATOM     22  C   UNL     1     -12.380  -9.960  87.222  1.00  0.00     0.139 C 
ENDBRANCH  19  20
ENDBRANCH  18  19
ENDBRANCH  17  18
ENDBRANCH  16  17
ENDBRANCH  15  16
ENDBRANCH  14  15
ENDBRANCH  13  14
ENDBRANCH   1  13
TORSDOF 16
ENDMDL
MODEL 2
REMARK VINA RESULT:    -3.912      1.643      5.836
REMARK INTER + INTRA:         -10.297
REMARK INTER:                  -7.205
REMARK INTRA:                  -3.091
REMARK UNBOUND:                -2.726
REMARK SMILES CCCCCC=CCC=CCCCCCCCCOC(C)=O
REMARK SMILES IDX 12 1 11 2 10 3 9 4 8 5 7 6 6 7 5 8 4 9 3 10 2 11 1 12 13 13
REMARK SMILES IDX 14 14 15 15 16 16 17 17 18 18 19 19 20 20 22 21 21 22
REMARK H PARENT
REMARK Flexibility Score: inf
ROOT
ATOM      1  C   UNL     1      -7.746  -8.513  92.365  1.00  0.00     0.004 C 
ENDROOT
BRANCH   1   2
ATOM      2  C   UNL     1      -8.809  -8.023  93.357  1.00  0.00     0.027 C 
BRANCH   2   3
ATOM      3  C   UNL     1     -10.039  -8.891  93.320  1.00  0.00    -0.031 C 
ATOM      4  C   UNL     1      -9.956 -10.230  93.320  1.00  0.00    -0.027 C 
BRANCH   4   5
ATOM      5  C   UNL     1     -11.188 -11.091  93.345  1.00  0.00     0.054 C 
BRANCH   5   6
ATOM      6  C   UNL     1     -11.197 -11.990  94.556  1.00  0.00    -0.027 C 
ATOM      7  C   UNL     1     -12.108 -11.902  95.542  1.00  0.00    -0.031 C 
BRANCH   7   8
ATOM      8  C   UNL     1     -13.261 -10.927  95.561  1.00  0.00     0.027 C 
BRANCH   8   9
ATOM      9  C   UNL     1     -13.143  -9.942  96.730  1.00  0.00     0.004 C 
BRANCH   9  10
ATOM     10  C   UNL     1     -12.274  -8.725  96.377  1.00  0.00     0.000 C 
BRANCH  10  11
ATOM     11  C   UNL     1     -10.853  -8.887  96.927  1.00  0.00    -0.003 C 
ATOM     12  C   UNL     1     -10.858  -9.644  98.253  1.00  0.00     0.004 C 
ENDBRANCH  10  11
ENDBRANCH   9  10
ENDBRANCH   8   9
ENDBRANCH   7   8
ENDBRANCH   5   6
ENDBRANCH   4   5
ENDBRANCH   2   3
ENDBRANCH   1   2
BRANCH   1  13
ATOM     13  C   UNL     1      -7.879  -7.833  90.992  1.00  0.00     0.000 C 
BRANCH  13  14
ATOM     14  C   UNL     1      -7.798  -8.827  89.822  1.00  0.00     0.000 C 
BRANCH  14  15
ATOM     15  C   UNL     1      -8.910  -9.896  89.839  1.00  0.00     0.000 C 
BRANCH  15  16
ATOM     16  C   UNL     1     -10.310  -9.279  89.674  1.00  0.00     0.003 C 
BRANCH  16  17
ATOM     17  C   UNL     1     -11.430 -10.331  89.730  1.00  0.00     0.042 C 
BRANCH  17  18
ATOM     18  C   UNL     1     -12.810  -9.742  89.409  1.00  0.00     0.233 C 
BRANCH  18  19
ATOM     19  O   UNL     1     -13.833 -10.471  90.087  1.00  0.00    -0.466 OA
BRANCH  19  20
ATOM     20  C   UNL     1     -14.125 -10.305  91.444  1.00  0.00     0.302 C 
ATOM     21  O   UNL     1     -14.536 -11.272  92.142  1.00  0.00    -0.253 OA
ATOM     22  C   UNL     1     -13.977  -8.960  92.070  1.00  0.00     0.139 C 
ENDBRANCH  19  20
ENDBRANCH  18  19
ENDBRANCH  17  18
ENDBRANCH  16  17
ENDBRANCH  15  16
ENDBRANCH  14  15
ENDBRANCH  13  14
ENDBRANCH   1  13
TORSDOF 16
ENDMDL
MODEL 3
REMARK VINA RESULT:    -3.906      2.817      6.204
REMARK INTER + INTRA:         -10.286
REMARK INTER:                  -7.328
REMARK INTRA:                  -2.958
REMARK UNBOUND:                -2.726
REMARK SMILES CCCCCC=CCC=CCCCCCCCCOC(C)=O
REMARK SMILES IDX 12 1 11 2 10 3 9 4 8 5 7 6 6 7 5 8 4 9 3 10 2 11 1 12 13 13
REMARK SMILES IDX 14 14 15 15 16 16 17 17 18 18 19 19 20 20 22 21 21 22
REMARK H PARENT
REMARK Flexibility Score: inf
ROOT
ATOM      1  C   UNL     1      -7.498  -9.948  89.261  1.00  0.00     0.004 C 
ENDROOT
BRANCH   1   2
ATOM      2  C   UNL     1      -8.475 -11.060  88.857  1.00  0.00     0.027 C 
BRANCH   2   3
ATOM      3  C   UNL     1      -9.899 -10.683  89.172  1.00  0.00    -0.031 C 
ATOM      4  C   UNL     1     -10.885 -10.844  88.277  1.00  0.00    -0.027 C 
BRANCH   4   5
ATOM      5  C   UNL     1     -12.313 -10.523  88.618  1.00  0.00     0.054 C 
BRANCH   5   6
ATOM      6  C   UNL     1     -12.494 -10.370  90.108  1.00  0.00    -0.027 C 
ATOM      7  C   UNL     1     -12.846  -9.215  90.701  1.00  0.00    -0.031 C 
BRANCH   7   8
ATOM      8  C   UNL     1     -13.145  -7.929  89.967  1.00  0.00     0.027 C 
BRANCH   8   9
ATOM      9  C   UNL     1     -11.963  -6.955  90.041  1.00  0.00     0.004 C 
BRANCH   9  10
ATOM     10  C   UNL     1     -11.179  -6.893  88.722  1.00  0.00     0.000 C 
BRANCH  10  11
ATOM     11  C   UNL     1     -10.113  -5.793  88.767  1.00  0.00    -0.003 C 
ATOM     12  C   UNL     1      -9.852  -5.337  90.201  1.00  0.00     0.004 C 
ENDBRANCH  10  11
ENDBRANCH   9  10
ENDBRANCH   8   9
ENDBRANCH   7   8
ENDBRANCH   5   6
ENDBRANCH   4   5
ENDBRANCH   2   3
ENDBRANCH   1   2
BRANCH   1  13
ATOM     13  C   UNL     1      -8.223  -8.725  89.847  1.00  0.00     0.000 C 
BRANCH  13  14
ATOM     14  C   UNL     1      -8.066  -8.611  91.372  1.00  0.00     0.000 C 
BRANCH  14  15
ATOM     15  C   UNL     1      -9.408  -8.531  92.129  1.00  0.00     0.000 C 
BRANCH  15  16
ATOM     16  C   UNL     1      -9.801  -9.881  92.756  1.00  0.00     0.003 C 
BRANCH  16  17
ATOM     17  C   UNL     1     -10.536  -9.717  94.097  1.00  0.00     0.042 C 
BRANCH  17  18
ATOM     18  C   UNL     1     -11.955 -10.300  94.068  1.00  0.00     0.233 C 
BRANCH  18  19
ATOM     19  O   UNL     1     -12.260 -10.929  95.311  1.00  0.00    -0.466 OA
BRANCH  19  20
ATOM     20  C   UNL     1     -13.339 -10.553  96.119  1.00  0.00     0.302 C 
ATOM     21  O   UNL     1     -13.341 -10.807  97.356  1.00  0.00    -0.253 OA
ATOM     22  C   UNL     1     -14.514  -9.870  95.508  1.00  0.00     0.139 C 
ENDBRANCH  19  20
ENDBRANCH  18  19
ENDBRANCH  17  18
ENDBRANCH  16  17
ENDBRANCH  15  16
ENDBRANCH  14  15
ENDBRANCH  13  14
ENDBRANCH   1  13
TORSDOF 16
ENDMDL
MODEL 4
REMARK VINA RESULT:    -3.904      3.594      5.856
REMARK INTER + INTRA:         -10.282
REMARK INTER:                  -7.742
REMARK INTRA:                  -2.540
REMARK UNBOUND:                -2.726
REMARK SMILES CCCCCC=CCC=CCCCCCCCCOC(C)=O
REMARK SMILES IDX 12 1 11 2 10 3 9 4 8 5 7 6 6 7 5 8 4 9 3 10 2 11 1 12 13 13
REMARK SMILES IDX 14 14 15 15 16 16 17 17 18 18 19 19 20 20 22 21 21 22
REMARK H PARENT
REMARK Flexibility Score: inf
ROOT
ATOM      1  C   UNL     1     -13.901  -9.691  91.440  1.00  0.00     0.004 C 
ENDROOT
BRANCH   1   2
ATOM      2  C   UNL     1     -12.737  -9.942  90.472  1.00  0.00     0.027 C 
BRANCH   2   3
ATOM      3  C   UNL     1     -11.479 -10.318  91.209  1.00  0.00    -0.031 C 
ATOM      4  C   UNL     1     -10.978  -9.547  92.186  1.00  0.00    -0.027 C 
BRANCH   4   5
ATOM      5  C   UNL     1      -9.757  -9.958  92.960  1.00  0.00     0.054 C 
BRANCH   5   6
ATOM      6  C   UNL     1      -9.196  -8.798  93.745  1.00  0.00    -0.027 C 
ATOM      7  C   UNL     1      -8.118  -8.090  93.362  1.00  0.00    -0.031 C 
BRANCH   7   8
ATOM      8  C   UNL     1      -7.345  -8.327  92.087  1.00  0.00     0.027 C 
BRANCH   8   9
ATOM      9  C   UNL     1      -7.843  -7.421  90.954  1.00  0.00     0.004 C 
BRANCH   9  10
ATOM     10  C   UNL     1      -8.479  -8.222  89.808  1.00  0.00     0.000 C 
BRANCH  10  11
ATOM     11  C   UNL     1      -7.675  -9.494  89.514  1.00  0.00    -0.003 C 
ATOM     12  C   UNL     1      -8.589 -10.632  89.068  1.00  0.00     0.004 C 
ENDBRANCH  10  11
ENDBRANCH   9  10
ENDBRANCH   8   9
ENDBRANCH   7   8
ENDBRANCH   5   6
ENDBRANCH   4   5
ENDBRANCH   2   3
ENDBRANCH   1   2
BRANCH   1  13
ATOM     13  C   UNL     1     -14.385 -10.987  92.112  1.00  0.00     0.000 C 
BRANCH  13  14
ATOM     14  C   UNL     1     -14.103 -11.017  93.623  1.00  0.00     0.000 C 
BRANCH  14  15
ATOM     15  C   UNL     1     -13.107 -12.117  94.045  1.00  0.00     0.000 C 
BRANCH  15  16
ATOM     16  C   UNL     1     -12.297 -11.716  95.291  1.00  0.00     0.003 C 
BRANCH  16  17
ATOM     17  C   UNL     1     -12.848 -10.453  95.973  1.00  0.00     0.042 C 
BRANCH  17  18
ATOM     18  C   UNL     1     -13.348 -10.722  97.399  1.00  0.00     0.233 C 
BRANCH  18  19
ATOM     19  O   UNL     1     -12.370 -10.314  98.355  1.00  0.00    -0.466 OA
BRANCH  19  20
ATOM     20  C   UNL     1     -12.559 -10.411  99.737  1.00  0.00     0.302 C 
ATOM     21  O   UNL     1     -11.833  -9.760 100.538  1.00  0.00    -0.253 OA
ATOM     22  C   UNL     1     -13.612 -11.319 100.275  1.00  0.00     0.139 C 
ENDBRANCH  19  20
ENDBRANCH  18  19
ENDBRANCH  17  18
ENDBRANCH  16  17
ENDBRANCH  15  16
ENDBRANCH  14  15
ENDBRANCH  13  14
ENDBRANCH   1  13
TORSDOF 16
ENDMDL
MODEL 5
REMARK VINA RESULT:    -3.862      1.844      5.727
REMARK INTER + INTRA:         -10.200
REMARK INTER:                  -6.682
REMARK INTRA:                  -3.518
REMARK UNBOUND:                -2.726
REMARK SMILES CCCCCC=CCC=CCCCCCCCCOC(C)=O
REMARK SMILES IDX 12 1 11 2 10 3 9 4 8 5 7 6 6 7 5 8 4 9 3 10 2 11 1 12 13 13
REMARK SMILES IDX 14 14 15 15 16 16 17 17 18 18 19 19 20 20 22 21 21 22
REMARK H PARENT
REMARK Flexibility Score: inf
ROOT
ATOM      1  C   UNL     1     -12.730  -7.321  92.500  1.00  0.00     0.004 C 
ENDROOT
BRANCH   1   2
ATOM      2  C   UNL     1     -13.852  -8.350  92.306  1.00  0.00     0.027 C 
BRANCH   2   3
ATOM      3  C   UNL     1     -13.772  -9.451  93.329  1.00  0.00    -0.031 C 
ATOM      4  C   UNL     1     -13.813 -10.744  92.977  1.00  0.00    -0.027 C 
BRANCH   4   5
ATOM      5  C   UNL     1     -13.671 -11.839  93.997  1.00  0.00     0.054 C 
BRANCH   5   6
ATOM      6  C   UNL     1     -12.219 -12.102  94.314  1.00  0.00    -0.027 C 
ATOM      7  C   UNL     1     -11.635 -11.752  95.474  1.00  0.00    -0.031 C 
BRANCH   7   8
ATOM      8  C   UNL     1     -12.347 -11.089  96.629  1.00  0.00     0.027 C 
BRANCH   8   9
ATOM      9  C   UNL     1     -11.992  -9.600  96.725  1.00  0.00     0.004 C 
BRANCH   9  10
ATOM     10  C   UNL     1     -13.223  -8.727  97.008  1.00  0.00     0.000 C 
BRANCH  10  11
ATOM     11  C   UNL     1     -14.517  -9.528  96.830  1.00  0.00    -0.003 C 
ATOM     12  C   UNL     1     -15.367  -9.493  98.098  1.00  0.00     0.004 C 
ENDBRANCH  10  11
ENDBRANCH   9  10
ENDBRANCH   8   9
ENDBRANCH   7   8
ENDBRANCH   5   6
ENDBRANCH   4   5
ENDBRANCH   2   3
ENDBRANCH   1   2
BRANCH   1  13
ATOM     13  C   UNL     1     -11.857  -7.641  93.725  1.00  0.00     0.000 C 
BRANCH  13  14
ATOM     14  C   UNL     1     -10.357  -7.687  93.394  1.00  0.00     0.000 C 
BRANCH  14  15
ATOM     15  C   UNL     1      -9.706  -9.061  93.656  1.00  0.00     0.000 C 
BRANCH  15  16
ATOM     16  C   UNL     1      -9.994 -10.063  92.524  1.00  0.00     0.003 C 
BRANCH  16  17
ATOM     17  C   UNL     1      -9.621  -9.511  91.138  1.00  0.00     0.042 C 
BRANCH  17  18
ATOM     18  C   UNL     1     -10.325 -10.255  89.996  1.00  0.00     0.233 C 
BRANCH  18  19
ATOM     19  O   UNL     1     -11.726 -10.346  90.250  1.00  0.00    -0.466 OA
BRANCH  19  20
ATOM     20  C   UNL     1     -12.701 -10.154  89.265  1.00  0.00     0.302 C 
ATOM     21  O   UNL     1     -13.433 -11.109  88.883  1.00  0.00    -0.253 OA
ATOM     22  C   UNL     1     -12.858  -8.812  88.636  1.00  0.00     0.139 C 
ENDBRANCH  19  20
ENDBRANCH  18  19
ENDBRANCH  17  18
ENDBRANCH  16  17
ENDBRANCH  15  16
ENDBRANCH  14  15
ENDBRANCH  13  14
ENDBRANCH   1  13
TORSDOF 16
ENDMDL
MODEL 6
REMARK VINA RESULT:    -3.836      2.769      5.668
REMARK INTER + INTRA:         -10.151
REMARK INTER:                  -7.044
REMARK INTRA:                  -3.107
REMARK UNBOUND:                -2.726
REMARK SMILES CCCCCC=CCC=CCCCCCCCCOC(C)=O
REMARK SMILES IDX 12 1 11 2 10 3 9 4 8 5 7 6 6 7 5 8 4 9 3 10 2 11 1 12 13 13
REMARK SMILES IDX 14 14 15 15 16 16 17 17 18 18 19 19 20 20 22 21 21 22
REMARK H PARENT
REMARK Flexibility Score: inf
ROOT
ATOM      1  C   UNL     1      -7.863  -8.574  92.297  1.00  0.00     0.004 C 
ENDROOT
BRANCH   1   2
ATOM      2  C   UNL     1      -7.515  -7.417  91.351  1.00  0.00     0.027 C 
BRANCH   2   3
ATOM      3  C   UNL     1      -8.754  -6.788  90.772  1.00  0.00    -0.031 C 
ATOM      4  C   UNL     1      -9.263  -7.185  89.597  1.00  0.00    -0.027 C 
BRANCH   4   5
ATOM      5  C   UNL     1     -10.534  -6.596  89.053  1.00  0.00     0.054 C 
BRANCH   5   6
ATOM      6  C   UNL     1     -11.647  -6.675  90.069  1.00  0.00    -0.027 C 
ATOM      7  C   UNL     1     -12.554  -7.668  90.105  1.00  0.00    -0.031 C 
BRANCH   7   8
ATOM      8  C   UNL     1     -12.567  -8.854  89.171  1.00  0.00     0.027 C 
BRANCH   8   9
ATOM      9  C   UNL     1     -11.858 -10.064  89.792  1.00  0.00     0.004 C 
BRANCH   9  10
ATOM     10  C   UNL     1     -10.723 -10.591  88.902  1.00  0.00     0.000 C 
BRANCH  10  11
ATOM     11  C   UNL     1      -9.398 -10.639  89.671  1.00  0.00    -0.003 C 
ATOM     12  C   UNL     1      -8.242 -11.030  88.755  1.00  0.00     0.004 C 
ENDBRANCH  10  11
ENDBRANCH   9  10
ENDBRANCH   8   9
ENDBRANCH   7   8
ENDBRANCH   5   6
ENDBRANCH   4   5
ENDBRANCH   2   3
ENDBRANCH   1   2
BRANCH   1  13
ATOM     13  C   UNL     1      -8.916  -8.170  93.342  1.00  0.00     0.000 C 
BRANCH  13  14
ATOM     14  C   UNL     1     -10.272  -8.859  93.121  1.00  0.00     0.000 C 
BRANCH  14  15
ATOM     15  C   UNL     1     -10.236 -10.385  93.343  1.00  0.00     0.000 C 
BRANCH  15  16
ATOM     16  C   UNL     1     -11.636 -11.018  93.245  1.00  0.00     0.003 C 
BRANCH  16  17
ATOM     17  C   UNL     1     -12.760 -10.019  93.565  1.00  0.00     0.042 C 
BRANCH  17  18
ATOM     18  C   UNL     1     -13.755 -10.560  94.599  1.00  0.00     0.233 C 
BRANCH  18  19
ATOM     19  O   UNL     1     -13.087 -11.392  95.546  1.00  0.00    -0.466 OA
BRANCH  19  20
ATOM     20  C   UNL     1     -12.702 -10.955  96.818  1.00  0.00     0.302 C 
ATOM     21  O   UNL     1     -13.470 -11.093  97.810  1.00  0.00    -0.253 OA
ATOM     22  C   UNL     1     -11.380 -10.291  97.000  1.00  0.00     0.139 C 
ENDBRANCH  19  20
ENDBRANCH  18  19
ENDBRANCH  17  18
ENDBRANCH  16  17
ENDBRANCH  15  16
ENDBRANCH  14  15
ENDBRANCH  13  14
ENDBRANCH   1  13
TORSDOF 16
ENDMDL
MODEL 7
REMARK VINA RESULT:    -3.834      2.702      5.237
REMARK INTER + INTRA:         -10.145
REMARK INTER:                  -7.088
REMARK INTRA:                  -3.058
REMARK UNBOUND:                -2.726
REMARK SMILES CCCCCC=CCC=CCCCCCCCCOC(C)=O
REMARK SMILES IDX 12 1 11 2 10 3 9 4 8 5 7 6 6 7 5 8 4 9 3 10 2 11 1 12 13 13
REMARK SMILES IDX 14 14 15 15 16 16 17 17 18 18 19 19 20 20 22 21 21 22
REMARK H PARENT
REMARK Flexibility Score: inf
ROOT
ATOM      1  C   UNL     1     -13.393  -9.430  88.516  1.00  0.00     0.004 C 
ENDROOT
BRANCH   1   2
ATOM      2  C   UNL     1     -12.453 -10.642  88.468  1.00  0.00     0.027 C 
BRANCH   2   3
ATOM      3  C   UNL     1     -11.108 -10.319  89.063  1.00  0.00    -0.031 C 
ATOM      4  C   UNL     1     -10.936 -10.188  90.386  1.00  0.00    -0.027 C 
BRANCH   4   5
ATOM      5  C   UNL     1      -9.580  -9.926  90.978  1.00  0.00     0.054 C 
BRANCH   5   6
ATOM      6  C   UNL     1      -8.571  -9.600  89.905  1.00  0.00    -0.027 C 
ATOM      7  C   UNL     1      -7.879  -8.447  89.858  1.00  0.00    -0.031 C 
BRANCH   7   8
ATOM      8  C   UNL     1      -7.982  -7.342  90.881  1.00  0.00     0.027 C 
BRANCH   8   9
ATOM      9  C   UNL     1      -8.929  -6.231  90.413  1.00  0.00     0.004 C 
BRANCH   9  10
ATOM     10  C   UNL     1     -10.295  -6.300  91.113  1.00  0.00     0.000 C 
BRANCH  10  11
ATOM     11  C   UNL     1     -11.430  -6.425  90.090  1.00  0.00    -0.003 C 
ATOM     12  C   UNL     1     -10.881  -6.605  88.677  1.00  0.00     0.004 C 
ENDBRANCH  10  11
ENDBRANCH   9  10
ENDBRANCH   8   9
ENDBRANCH   7   8
ENDBRANCH   5   6
ENDBRANCH   4   5
ENDBRANCH   2   3
ENDBRANCH   1   2
BRANCH   1  13
ATOM     13  C   UNL     1     -14.443  -9.558  89.633  1.00  0.00     0.000 C 
BRANCH  13  14
ATOM     14  C   UNL     1     -14.387  -8.398  90.640  1.00  0.00     0.000 C 
BRANCH  14  15
ATOM     15  C   UNL     1     -14.023  -8.839  92.073  1.00  0.00     0.000 C 
BRANCH  15  16
ATOM     16  C   UNL     1     -14.091 -10.367  92.244  1.00  0.00     0.003 C 
BRANCH  16  17
ATOM     17  C   UNL     1     -14.236 -10.791  93.715  1.00  0.00     0.042 C 
BRANCH  17  18
ATOM     18  C   UNL     1     -13.553 -12.132  94.014  1.00  0.00     0.233 C 
BRANCH  18  19
ATOM     19  O   UNL     1     -12.379 -11.929  94.800  1.00  0.00    -0.466 OA
BRANCH  19  20
ATOM     20  C   UNL     1     -12.377 -11.228  96.011  1.00  0.00     0.302 C 
ATOM     21  O   UNL     1     -13.075 -11.618  96.987  1.00  0.00    -0.253 OA
ATOM     22  C   UNL     1     -11.561  -9.987  96.142  1.00  0.00     0.139 C 
ENDBRANCH  19  20
ENDBRANCH  18  19
ENDBRANCH  17  18
ENDBRANCH  16  17
ENDBRANCH  15  16
ENDBRANCH  14  15
ENDBRANCH  13  14
ENDBRANCH   1  13
TORSDOF 16
ENDMDL
MODEL 8
REMARK VINA RESULT:    -3.767      3.437      6.999
REMARK INTER + INTRA:         -10.016
REMARK INTER:                  -7.249
REMARK INTRA:                  -2.768
REMARK UNBOUND:                -2.726
REMARK SMILES CCCCCC=CCC=CCCCCCCCCOC(C)=O
REMARK SMILES IDX 12 1 11 2 10 3 9 4 8 5 7 6 6 7 5 8 4 9 3 10 2 11 1 12 13 13
REMARK SMILES IDX 14 14 15 15 16 16 17 17 18 18 19 19 20 20 22 21 21 22
REMARK H PARENT
REMARK Flexibility Score: inf
ROOT
ATOM      1  C   UNL     1     -11.374  -9.102  91.074  1.00  0.00     0.004 C 
ENDROOT
BRANCH   1   2
ATOM      2  C   UNL     1     -10.889 -10.301  91.902  1.00  0.00     0.027 C 
BRANCH   2   3
ATOM      3  C   UNL     1     -10.302  -9.861  93.217  1.00  0.00    -0.031 C 
ATOM      4  C   UNL     1     -10.723  -8.750  93.840  1.00  0.00    -0.027 C 
BRANCH   4   5
ATOM      5  C   UNL     1     -10.176  -8.349  95.181  1.00  0.00     0.054 C 
BRANCH   5   6
ATOM      6  C   UNL     1     -11.277  -7.869  96.095  1.00  0.00    -0.027 C 
ATOM      7  C   UNL     1     -11.881  -8.650  97.008  1.00  0.00    -0.031 C 
BRANCH   7   8
ATOM      8  C   UNL     1     -11.524 -10.092  97.276  1.00  0.00     0.027 C 
BRANCH   8   9
ATOM      9  C   UNL     1     -12.618 -11.042  96.775  1.00  0.00     0.004 C 
BRANCH   9  10
ATOM     10  C   UNL     1     -12.197 -11.792  95.502  1.00  0.00     0.000 C 
BRANCH  10  11
ATOM     11  C   UNL     1     -13.310 -11.755  94.449  1.00  0.00    -0.003 C 
ATOM     12  C   UNL     1     -14.017 -10.402  94.443  1.00  0.00     0.004 C 
ENDBRANCH  10  11
ENDBRANCH   9  10
ENDBRANCH   8   9
ENDBRANCH   7   8
ENDBRANCH   5   6
ENDBRANCH   4   5
ENDBRANCH   2   3
ENDBRANCH   1   2
BRANCH   1  13
ATOM     13  C   UNL     1     -10.442  -8.805  89.887  1.00  0.00     0.000 C 
BRANCH  13  14
ATOM     14  C   UNL     1      -9.271  -9.796  89.784  1.00  0.00     0.000 C 
BRANCH  14  15
ATOM     15  C   UNL     1      -7.884  -9.121  89.805  1.00  0.00     0.000 C 
BRANCH  15  16
ATOM     16  C   UNL     1      -7.877  -7.837  90.654  1.00  0.00     0.003 C 
BRANCH  16  17
ATOM     17  C   UNL     1      -7.473  -8.097  92.114  1.00  0.00     0.042 C 
BRANCH  17  18
ATOM     18  C   UNL     1      -7.069  -6.814  92.853  1.00  0.00     0.233 C 
BRANCH  18  19
ATOM     19  O   UNL     1      -6.167  -6.045  92.058  1.00  0.00    -0.466 OA
BRANCH  19  20
ATOM     20  C   UNL     1      -5.141  -5.262  92.598  1.00  0.00     0.302 C 
ATOM     21  O   UNL     1      -4.121  -5.797  93.114  1.00  0.00    -0.253 OA
ATOM     22  C   UNL     1      -5.267  -3.777  92.592  1.00  0.00     0.139 C 
ENDBRANCH  19  20
ENDBRANCH  18  19
ENDBRANCH  17  18
ENDBRANCH  16  17
ENDBRANCH  15  16
ENDBRANCH  14  15
ENDBRANCH  13  14
ENDBRANCH   1  13
TORSDOF 16
ENDMDL
MODEL 9
REMARK VINA RESULT:    -3.729      2.452      5.211
REMARK INTER + INTRA:          -9.944
REMARK INTER:                  -6.857
REMARK INTRA:                  -3.087
REMARK UNBOUND:                -2.726
REMARK SMILES CCCCCC=CCC=CCCCCCCCCOC(C)=O
REMARK SMILES IDX 12 1 11 2 10 3 9 4 8 5 7 6 6 7 5 8 4 9 3 10 2 11 1 12 13 13
REMARK SMILES IDX 14 14 15 15 16 16 17 17 18 18 19 19 20 20 22 21 21 22
REMARK H PARENT
REMARK Flexibility Score: inf
ROOT
ATOM      1  C   UNL     1     -12.200 -11.684  94.129  1.00  0.00     0.004 C 
ENDROOT
BRANCH   1   2
ATOM      2  C   UNL     1     -11.702 -11.757  95.579  1.00  0.00     0.027 C 
BRANCH   2   3
ATOM      3  C   UNL     1     -12.758 -11.294  96.547  1.00  0.00    -0.031 C 
ATOM      4  C   UNL     1     -12.464 -10.490  97.579  1.00  0.00    -0.027 C 
BRANCH   4   5
ATOM      5  C   UNL     1     -13.532  -9.981  98.506  1.00  0.00     0.054 C 
BRANCH   5   6
ATOM      6  C   UNL     1     -14.857  -9.860  97.795  1.00  0.00    -0.027 C 
ATOM      7  C   UNL     1     -15.151  -8.873  96.930  1.00  0.00    -0.031 C 
BRANCH   7   8
ATOM      8  C   UNL     1     -14.196  -7.777  96.521  1.00  0.00     0.027 C 
BRANCH   8   9
ATOM      9  C   UNL     1     -13.854  -7.860  95.028  1.00  0.00     0.004 C 
BRANCH   9  10
ATOM     10  C   UNL     1     -12.345  -8.011  94.787  1.00  0.00     0.000 C 
BRANCH  10  11
ATOM     11  C   UNL     1     -11.542  -7.478  95.979  1.00  0.00    -0.003 C 
ATOM     12  C   UNL     1     -10.111  -8.009  95.960  1.00  0.00     0.004 C 
ENDBRANCH  10  11
ENDBRANCH   9  10
ENDBRANCH   8   9
ENDBRANCH   7   8
ENDBRANCH   5   6
ENDBRANCH   4   5
ENDBRANCH   2   3
ENDBRANCH   1   2
BRANCH   1  13
ATOM     13  C   UNL     1     -13.677 -12.092  94.003  1.00  0.00     0.000 C 
BRANCH  13  14
ATOM     14  C   UNL     1     -14.444 -11.250  92.970  1.00  0.00     0.000 C 
BRANCH  14  15
ATOM     15  C   UNL     1     -13.555 -10.246  92.207  1.00  0.00     0.000 C 
BRANCH  15  16
ATOM     16  C   UNL     1     -13.851 -10.242  90.696  1.00  0.00     0.003 C 
BRANCH  16  17
ATOM     17  C   UNL     1     -12.855  -9.381  89.902  1.00  0.00     0.042 C 
BRANCH  17  18
ATOM     18  C   UNL     1     -11.801 -10.222  89.168  1.00  0.00     0.233 C 
BRANCH  18  19
ATOM     19  O   UNL     1     -10.782 -10.644  90.073  1.00  0.00    -0.466 OA
BRANCH  19  20
ATOM     20  C   UNL     1      -9.860  -9.769  90.657  1.00  0.00     0.302 C 
ATOM     21  O   UNL     1      -9.026  -9.140  89.949  1.00  0.00    -0.253 OA
ATOM     22  C   UNL     1      -9.843  -9.597  92.137  1.00  0.00     0.139 C 
ENDBRANCH  19  20
ENDBRANCH  18  19
ENDBRANCH  17  18
ENDBRANCH  16  17
ENDBRANCH  15  16
ENDBRANCH  14  15
ENDBRANCH  13  14
ENDBRANCH   1  13
TORSDOF 16
ENDMDL
