MODEL 1
REMARK VINA RESULT:    -4.487      0.000      0.000
REMARK INTER + INTRA:         -10.520
REMARK INTER:                  -8.422
REMARK INTRA:                  -2.098
REMARK UNBOUND:                -2.098
REMARK SMILES CCCCCCCCCCCCCC=CC=CC(=O)OC
REMARK SMILES IDX 9 1 8 2 7 3 6 4 5 5 4 6 3 7 2 8 1 9 10 10 11 11 12 12 13 13
REMARK SMILES IDX 14 14 15 15 16 16 17 17 18 18 19 19 20 20 21 21
REMARK H PARENT
REMARK Flexibility Score: inf
ROOT
ATOM      1  C   UNL     1      -2.209  -1.970 -34.872  1.00  0.00     0.000 C 
ENDROOT
BRANCH   1   2
ATOM      2  C   UNL     1      -1.573  -2.506 -36.176  1.00  0.00     0.000 C 
BRANCH   2   3
ATOM      3  C   UNL     1      -1.347  -1.392 -37.214  1.00  0.00     0.000 C 
BRANCH   3   4
ATOM      4  C   UNL     1      -1.241  -0.003 -36.566  1.00  0.00    -0.000 C 
BRANCH   4   5
ATOM      5  C   UNL     1      -0.004   0.751 -37.078  1.00  0.00    -0.000 C 
BRANCH   5   6
ATOM      6  C   UNL     1       1.264   0.417 -36.263  1.00  0.00    -0.000 C 
BRANCH   6   7
ATOM      7  C   UNL     1       1.018   0.305 -34.746  1.00  0.00    -0.000 C 
BRANCH   7   8
ATOM      8  C   UNL     1       1.499  -1.009 -34.108  1.00  0.00    -0.003 C 
ATOM      9  C   UNL     1       1.921  -2.053 -35.143  1.00  0.00     0.004 C 
ENDBRANCH   7   8
ENDBRANCH   6   7
ENDBRANCH   5   6
ENDBRANCH   4   5
ENDBRANCH   3   4
ENDBRANCH   2   3
ENDBRANCH   1   2
BRANCH   1  10
ATOM     10  C   UNL     1      -3.236  -2.949 -34.277  1.00  0.00     0.000 C 
BRANCH  10  11
ATOM     11  C   UNL     1      -3.982  -2.354 -33.066  1.00  0.00     0.000 C 
BRANCH  11  12
ATOM     12  C   UNL     1      -3.163  -2.425 -31.763  1.00  0.00     0.004 C 
BRANCH  12  13
ATOM     13  C   UNL     1      -3.870  -3.176 -30.622  1.00  0.00     0.027 C 
BRANCH  13  14
ATOM     14  C   UNL     1      -3.026  -4.295 -30.064  1.00  0.00    -0.027 C 
ATOM     15  C   UNL     1      -2.990  -5.559 -30.515  1.00  0.00    -0.004 C 
BRANCH  15  16
ATOM     16  C   UNL     1      -3.700  -6.052 -31.716  1.00  0.00     0.007 C 
ATOM     17  C   UNL     1      -3.015  -6.580 -32.736  1.00  0.00     0.093 C 
BRANCH  17  18
ATOM     18  C   UNL     1      -3.682  -7.077 -33.955  1.00  0.00     0.330 C 
ATOM     19  O   UNL     1      -4.303  -8.173 -33.910  1.00  0.00    -0.247 OA
BRANCH  18  20
ATOM     20  O   UNL     1      -3.637  -6.339 -35.146  1.00  0.00    -0.466 OA
ATOM     21  C   UNL     1      -2.443  -6.181 -35.909  1.00  0.00     0.282 C 
ENDBRANCH  18  20
ENDBRANCH  17  18
ENDBRANCH  15  16
ENDBRANCH  13  14
ENDBRANCH  12  13
ENDBRANCH  11  12
ENDBRANCH  10  11
ENDBRANCH   1  10
TORSDOF 15
ENDMDL
MODEL 2
REMARK VINA RESULT:    -4.318      3.278      4.423
REMARK INTER + INTRA:         -10.203
REMARK INTER:                  -8.670
REMARK INTRA:                  -1.533
REMARK UNBOUND:                -2.098
REMARK SMILES CCCCCCCCCCCCCC=CC=CC(=O)OC
REMARK SMILES IDX 9 1 8 2 7 3 6 4 5 5 4 6 3 7 2 8 1 9 10 10 11 11 12 12 13 13
REMARK SMILES IDX 14 14 15 15 16 16 17 17 18 18 19 19 20 20 21 21
REMARK H PARENT
REMARK Flexibility Score: inf
ROOT
ATOM      1  C   UNL     1      -2.406  -2.064 -34.974  1.00  0.00     0.000 C 
ENDROOT
BRANCH   1   2
ATOM      2  C   UNL     1      -1.608  -2.673 -36.150  1.00  0.00     0.000 C 
BRANCH   2   3
ATOM      3  C   UNL     1      -1.125  -1.600 -37.143  1.00  0.00     0.000 C 
BRANCH   3   4
ATOM      4  C   UNL     1      -1.176  -0.186 -36.546  1.00  0.00    -0.000 C 
BRANCH   4   5
ATOM      5  C   UNL     1       0.044   0.640 -36.979  1.00  0.00    -0.000 C 
BRANCH   5   6
ATOM      6  C   UNL     1       1.313   0.275 -36.180  1.00  0.00    -0.000 C 
BRANCH   6   7
ATOM      7  C   UNL     1       1.085   0.179 -34.658  1.00  0.00    -0.000 C 
BRANCH   7   8
ATOM      8  C   UNL     1       1.499  -1.160 -34.026  1.00  0.00    -0.003 C 
ATOM      9  C   UNL     1       1.985  -2.180 -35.056  1.00  0.00     0.004 C 
ENDBRANCH   7   8
ENDBRANCH   6   7
ENDBRANCH   5   6
ENDBRANCH   4   5
ENDBRANCH   3   4
ENDBRANCH   2   3
ENDBRANCH   1   2
BRANCH   1  10
ATOM     10  C   UNL     1      -3.240  -3.118 -34.225  1.00  0.00     0.000 C 
BRANCH  10  11
ATOM     11  C   UNL     1      -4.058  -2.508 -33.069  1.00  0.00     0.000 C 
BRANCH  11  12
ATOM     12  C   UNL     1      -3.236  -2.344 -31.776  1.00  0.00     0.004 C 
BRANCH  12  13
ATOM     13  C   UNL     1      -3.684  -3.270 -30.632  1.00  0.00     0.027 C 
BRANCH  13  14
ATOM     14  C   UNL     1      -3.232  -4.694 -30.839  1.00  0.00    -0.027 C 
ATOM     15  C   UNL     1      -2.726  -5.507 -29.898  1.00  0.00    -0.004 C 
BRANCH  15  16
ATOM     16  C   UNL     1      -2.621  -5.180 -28.459  1.00  0.00     0.007 C 
ATOM     17  C   UNL     1      -3.557  -5.600 -27.602  1.00  0.00     0.093 C 
BRANCH  17  18
ATOM     18  C   UNL     1      -3.497  -5.290 -26.161  1.00  0.00     0.330 C 
ATOM     19  O   UNL     1      -4.035  -4.230 -25.739  1.00  0.00    -0.247 OA
BRANCH  18  20
ATOM     20  O   UNL     1      -2.860  -6.162 -25.267  1.00  0.00    -0.466 OA
ATOM     21  C   UNL     1      -1.531  -5.947 -24.797  1.00  0.00     0.282 C 
ENDBRANCH  18  20
ENDBRANCH  17  18
ENDBRANCH  15  16
ENDBRANCH  13  14
ENDBRANCH  12  13
ENDBRANCH  11  12
ENDBRANCH  10  11
ENDBRANCH   1  10
TORSDOF 15
ENDMDL
MODEL 3
REMARK VINA RESULT:    -4.193      1.299      1.788
REMARK INTER + INTRA:          -9.968
REMARK INTER:                  -8.225
REMARK INTRA:                  -1.743
REMARK UNBOUND:                -2.098
REMARK SMILES CCCCCCCCCCCCCC=CC=CC(=O)OC
REMARK SMILES IDX 9 1 8 2 7 3 6 4 5 5 4 6 3 7 2 8 1 9 10 10 11 11 12 12 13 13
REMARK SMILES IDX 14 14 15 15 16 16 17 17 18 18 19 19 20 20 21 21
REMARK H PARENT
REMARK Flexibility Score: inf
ROOT
ATOM      1  C   UNL     1      -1.767  -1.963 -35.364  1.00  0.00     0.000 C 
ENDROOT
BRANCH   1   2
ATOM      2  C   UNL     1      -1.368  -2.376 -36.800  1.00  0.00     0.000 C 
BRANCH   2   3
ATOM      3  C   UNL     1      -0.849  -1.185 -37.626  1.00  0.00     0.000 C 
BRANCH   3   4
ATOM      4  C   UNL     1      -0.844   0.125 -36.823  1.00  0.00    -0.000 C 
BRANCH   4   5
ATOM      5  C   UNL     1       0.461   0.904 -37.047  1.00  0.00    -0.000 C 
BRANCH   5   6
ATOM      6  C   UNL     1       1.615   0.380 -36.167  1.00  0.00    -0.000 C 
BRANCH   6   7
ATOM      7  C   UNL     1       1.235   0.199 -34.684  1.00  0.00    -0.000 C 
BRANCH   7   8
ATOM      8  C   UNL     1       1.637  -1.154 -34.074  1.00  0.00    -0.003 C 
ATOM      9  C   UNL     1       1.981  -2.204 -35.131  1.00  0.00     0.004 C 
ENDBRANCH   7   8
ENDBRANCH   6   7
ENDBRANCH   5   6
ENDBRANCH   4   5
ENDBRANCH   3   4
ENDBRANCH   2   3
ENDBRANCH   1   2
BRANCH   1  10
ATOM     10  C   UNL     1      -2.831  -2.896 -34.761  1.00  0.00     0.000 C 
BRANCH  10  11
ATOM     11  C   UNL     1      -3.461  -2.317 -33.478  1.00  0.00     0.000 C 
BRANCH  11  12
ATOM     12  C   UNL     1      -4.835  -2.934 -33.155  1.00  0.00     0.004 C 
BRANCH  12  13
ATOM     13  C   UNL     1      -4.906  -3.611 -31.776  1.00  0.00     0.027 C 
BRANCH  13  14
ATOM     14  C   UNL     1      -3.704  -3.292 -30.921  1.00  0.00    -0.027 C 
ATOM     15  C   UNL     1      -3.008  -4.167 -30.178  1.00  0.00    -0.004 C 
BRANCH  15  16
ATOM     16  C   UNL     1      -3.236  -5.629 -30.151  1.00  0.00     0.007 C 
ATOM     17  C   UNL     1      -2.798  -6.399 -31.151  1.00  0.00     0.093 C 
BRANCH  17  18
ATOM     18  C   UNL     1      -3.010  -7.859 -31.169  1.00  0.00     0.330 C 
ATOM     19  O   UNL     1      -3.097  -8.479 -30.074  1.00  0.00    -0.247 OA
BRANCH  18  20
ATOM     20  O   UNL     1      -3.126  -8.551 -32.383  1.00  0.00    -0.466 OA
ATOM     21  C   UNL     1      -3.376  -7.894 -33.622  1.00  0.00     0.282 C 
ENDBRANCH  18  20
ENDBRANCH  17  18
ENDBRANCH  15  16
ENDBRANCH  13  14
ENDBRANCH  12  13
ENDBRANCH  11  12
ENDBRANCH  10  11
ENDBRANCH   1  10
TORSDOF 15
ENDMDL
MODEL 4
REMARK VINA RESULT:    -4.186      2.033      3.732
REMARK INTER + INTRA:          -9.954
REMARK INTER:                  -8.037
REMARK INTRA:                  -1.917
REMARK UNBOUND:                -2.098
REMARK SMILES CCCCCCCCCCCCCC=CC=CC(=O)OC
REMARK SMILES IDX 9 1 8 2 7 3 6 4 5 5 4 6 3 7 2 8 1 9 10 10 11 11 12 12 13 13
REMARK SMILES IDX 14 14 15 15 16 16 17 17 18 18 19 19 20 20 21 21
REMARK H PARENT
REMARK Flexibility Score: inf
ROOT
ATOM      1  C   UNL     1      -1.505  -1.625 -37.662  1.00  0.00     0.000 C 
ENDROOT
BRANCH   1   2
ATOM      2  C   UNL     1      -1.385  -0.243 -36.977  1.00  0.00     0.000 C 
BRANCH   2   3
ATOM      3  C   UNL     1      -0.947   0.857 -37.960  1.00  0.00     0.000 C 
BRANCH   3   4
ATOM      4  C   UNL     1       0.464   1.384 -37.658  1.00  0.00    -0.000 C 
BRANCH   4   5
ATOM      5  C   UNL     1       1.495   0.246 -37.684  1.00  0.00    -0.000 C 
BRANCH   5   6
ATOM      6  C   UNL     1       2.219   0.079 -36.331  1.00  0.00    -0.000 C 
BRANCH   6   7
ATOM      7  C   UNL     1       1.986  -1.290 -35.664  1.00  0.00    -0.000 C 
BRANCH   7   8
ATOM      8  C   UNL     1       1.192  -1.241 -34.348  1.00  0.00    -0.003 C 
ATOM      9  C   UNL     1       0.715   0.168 -33.993  1.00  0.00     0.004 C 
ENDBRANCH   7   8
ENDBRANCH   6   7
ENDBRANCH   5   6
ENDBRANCH   4   5
ENDBRANCH   3   4
ENDBRANCH   2   3
ENDBRANCH   1   2
BRANCH   1  10
ATOM     10  C   UNL     1      -1.366  -2.786 -36.663  1.00  0.00     0.000 C 
BRANCH  10  11
ATOM     11  C   UNL     1      -2.178  -2.553 -35.373  1.00  0.00     0.000 C 
BRANCH  11  12
ATOM     12  C   UNL     1      -2.905  -3.821 -34.885  1.00  0.00     0.004 C 
BRANCH  12  13
ATOM     13  C   UNL     1      -3.974  -3.552 -33.812  1.00  0.00     0.027 C 
BRANCH  13  14
ATOM     14  C   UNL     1      -3.596  -2.409 -32.902  1.00  0.00    -0.027 C 
ATOM     15  C   UNL     1      -3.589  -2.437 -31.560  1.00  0.00    -0.004 C 
BRANCH  15  16
ATOM     16  C   UNL     1      -3.851  -3.635 -30.734  1.00  0.00     0.007 C 
ATOM     17  C   UNL     1      -2.840  -4.408 -30.325  1.00  0.00     0.093 C 
BRANCH  17  18
ATOM     18  C   UNL     1      -3.056  -5.616 -29.507  1.00  0.00     0.330 C 
ATOM     19  O   UNL     1      -3.548  -6.643 -30.049  1.00  0.00    -0.247 OA
BRANCH  18  20
ATOM     20  O   UNL     1      -2.712  -5.632 -28.148  1.00  0.00    -0.466 OA
ATOM     21  C   UNL     1      -3.604  -5.198 -27.124  1.00  0.00     0.282 C 
ENDBRANCH  18  20
ENDBRANCH  17  18
ENDBRANCH  15  16
ENDBRANCH  13  14
ENDBRANCH  12  13
ENDBRANCH  11  12
ENDBRANCH  10  11
ENDBRANCH   1  10
TORSDOF 15
ENDMDL
MODEL 5
REMARK VINA RESULT:    -3.970      4.668      6.194
REMARK INTER + INTRA:          -9.550
REMARK INTER:                  -8.461
REMARK INTRA:                  -1.089
REMARK UNBOUND:                -2.098
REMARK SMILES CCCCCCCCCCCCCC=CC=CC(=O)OC
REMARK SMILES IDX 9 1 8 2 7 3 6 4 5 5 4 6 3 7 2 8 1 9 10 10 11 11 12 12 13 13
REMARK SMILES IDX 14 14 15 15 16 16 17 17 18 18 19 19 20 20 21 21
REMARK H PARENT
REMARK Flexibility Score: inf
ROOT
ATOM      1  C   UNL     1      -3.606  -2.660 -32.447  1.00  0.00     0.000 C 
ENDROOT
BRANCH   1   2
ATOM      2  C   UNL     1      -3.492  -2.773 -33.985  1.00  0.00     0.000 C 
BRANCH   2   3
ATOM      3  C   UNL     1      -2.268  -2.018 -34.535  1.00  0.00     0.000 C 
BRANCH   3   4
ATOM      4  C   UNL     1      -1.810  -2.560 -35.897  1.00  0.00    -0.000 C 
BRANCH   4   5
ATOM      5  C   UNL     1      -1.293  -1.427 -36.797  1.00  0.00    -0.000 C 
BRANCH   5   6
ATOM      6  C   UNL     1      -1.009  -0.133 -36.005  1.00  0.00    -0.000 C 
BRANCH   6   7
ATOM      7  C   UNL     1       0.445   0.364 -36.124  1.00  0.00    -0.000 C 
BRANCH   7   8
ATOM      8  C   UNL     1       1.204   0.466 -34.791  1.00  0.00    -0.003 C 
ATOM      9  C   UNL     1       1.322  -0.877 -34.069  1.00  0.00     0.004 C 
ENDBRANCH   7   8
ENDBRANCH   6   7
ENDBRANCH   5   6
ENDBRANCH   4   5
ENDBRANCH   3   4
ENDBRANCH   2   3
ENDBRANCH   1   2
BRANCH   1  10
ATOM     10  C   UNL     1      -4.745  -3.524 -31.880  1.00  0.00     0.000 C 
BRANCH  10  11
ATOM     11  C   UNL     1      -4.464  -3.995 -30.439  1.00  0.00     0.000 C 
BRANCH  11  12
ATOM     12  C   UNL     1      -2.960  -4.097 -30.124  1.00  0.00     0.004 C 
BRANCH  12  13
ATOM     13  C   UNL     1      -2.652  -4.696 -28.741  1.00  0.00     0.027 C 
BRANCH  13  14
ATOM     14  C   UNL     1      -3.718  -5.662 -28.287  1.00  0.00    -0.027 C 
ATOM     15  C   UNL     1      -4.318  -5.669 -27.086  1.00  0.00    -0.004 C 
BRANCH  15  16
ATOM     16  C   UNL     1      -4.113  -4.656 -26.028  1.00  0.00     0.007 C 
ATOM     17  C   UNL     1      -4.020  -5.027 -24.746  1.00  0.00     0.093 C 
BRANCH  17  18
ATOM     18  C   UNL     1      -3.824  -4.049 -23.659  1.00  0.00     0.330 C 
ATOM     19  O   UNL     1      -4.657  -3.113 -23.519  1.00  0.00    -0.247 OA
BRANCH  18  20
ATOM     20  O   UNL     1      -2.734  -4.160 -22.784  1.00  0.00    -0.466 OA
ATOM     21  C   UNL     1      -2.494  -5.324 -21.997  1.00  0.00     0.282 C 
ENDBRANCH  18  20
ENDBRANCH  17  18
ENDBRANCH  15  16
ENDBRANCH  13  14
ENDBRANCH  12  13
ENDBRANCH  11  12
ENDBRANCH  10  11
ENDBRANCH   1  10
TORSDOF 15
ENDMDL
MODEL 6
REMARK VINA RESULT:    -3.967      1.109      1.927
REMARK INTER + INTRA:          -9.544
REMARK INTER:                  -7.737
REMARK INTRA:                  -1.807
REMARK UNBOUND:                -2.098
REMARK SMILES CCCCCCCCCCCCCC=CC=CC(=O)OC
REMARK SMILES IDX 9 1 8 2 7 3 6 4 5 5 4 6 3 7 2 8 1 9 10 10 11 11 12 12 13 13
REMARK SMILES IDX 14 14 15 15 16 16 17 17 18 18 19 19 20 20 21 21
REMARK H PARENT
REMARK Flexibility Score: inf
ROOT
ATOM      1  C   UNL     1      -3.244  -3.011 -34.302  1.00  0.00     0.000 C 
ENDROOT
BRANCH   1   2
ATOM      2  C   UNL     1      -2.284  -2.003 -34.977  1.00  0.00     0.000 C 
BRANCH   2   3
ATOM      3  C   UNL     1      -1.554  -2.615 -36.187  1.00  0.00     0.000 C 
BRANCH   3   4
ATOM      4  C   UNL     1      -1.219  -1.567 -37.258  1.00  0.00    -0.000 C 
BRANCH   4   5
ATOM      5  C   UNL     1       0.159  -0.938 -37.003  1.00  0.00    -0.000 C 
BRANCH   5   6
ATOM      6  C   UNL     1       1.193  -1.972 -36.509  1.00  0.00    -0.000 C 
BRANCH   6   7
ATOM      7  C   UNL     1       1.841  -1.608 -35.159  1.00  0.00    -0.000 C 
BRANCH   7   8
ATOM      8  C   UNL     1       1.627  -0.152 -34.711  1.00  0.00    -0.003 C 
ATOM      9  C   UNL     1       0.514  -0.007 -33.673  1.00  0.00     0.004 C 
ENDBRANCH   7   8
ENDBRANCH   6   7
ENDBRANCH   5   6
ENDBRANCH   4   5
ENDBRANCH   3   4
ENDBRANCH   2   3
ENDBRANCH   1   2
BRANCH   1  10
ATOM     10  C   UNL     1      -4.001  -2.392 -33.115  1.00  0.00     0.000 C 
BRANCH  10  11
ATOM     11  C   UNL     1      -3.220  -2.514 -31.791  1.00  0.00     0.000 C 
BRANCH  11  12
ATOM     12  C   UNL     1      -3.847  -3.529 -30.816  1.00  0.00     0.004 C 
BRANCH  12  13
ATOM     13  C   UNL     1      -2.896  -4.665 -30.403  1.00  0.00     0.027 C 
BRANCH  13  14
ATOM     14  C   UNL     1      -3.528  -6.026 -30.565  1.00  0.00    -0.027 C 
ATOM     15  C   UNL     1      -3.592  -6.737 -31.702  1.00  0.00    -0.004 C 
BRANCH  15  16
ATOM     16  C   UNL     1      -2.955  -6.354 -32.981  1.00  0.00     0.007 C 
ATOM     17  C   UNL     1      -3.429  -6.825 -34.139  1.00  0.00     0.093 C 
BRANCH  17  18
ATOM     18  C   UNL     1      -2.819  -6.476 -35.436  1.00  0.00     0.330 C 
ATOM     19  O   UNL     1      -1.577  -6.263 -35.492  1.00  0.00    -0.247 OA
BRANCH  18  20
ATOM     20  O   UNL     1      -3.602  -6.389 -36.595  1.00  0.00    -0.466 OA
ATOM     21  C   UNL     1      -3.166  -6.887 -37.858  1.00  0.00     0.282 C 
ENDBRANCH  18  20
ENDBRANCH  17  18
ENDBRANCH  15  16
ENDBRANCH  13  14
ENDBRANCH  12  13
ENDBRANCH  11  12
ENDBRANCH  10  11
ENDBRANCH   1  10
TORSDOF 15
ENDMDL
MODEL 7
REMARK VINA RESULT:    -3.742      4.487      6.053
REMARK INTER + INTRA:          -9.121
REMARK INTER:                  -8.269
REMARK INTRA:                  -0.851
REMARK UNBOUND:                -2.098
REMARK SMILES CCCCCCCCCCCCCC=CC=CC(=O)OC
REMARK SMILES IDX 9 1 8 2 7 3 6 4 5 5 4 6 3 7 2 8 1 9 10 10 11 11 12 12 13 13
REMARK SMILES IDX 14 14 15 15 16 16 17 17 18 18 19 19 20 20 21 21
REMARK H PARENT
REMARK Flexibility Score: inf
ROOT
ATOM      1  C   UNL     1      -3.243  -2.468 -31.780  1.00  0.00     0.000 C 
ENDROOT
BRANCH   1   2
ATOM      2  C   UNL     1      -4.115  -2.473 -33.057  1.00  0.00     0.000 C 
BRANCH   2   3
ATOM      3  C   UNL     1      -3.316  -2.889 -34.306  1.00  0.00     0.000 C 
BRANCH   3   4
ATOM      4  C   UNL     1      -2.254  -1.850 -34.694  1.00  0.00    -0.000 C 
BRANCH   4   5
ATOM      5  C   UNL     1      -1.508  -2.273 -35.969  1.00  0.00    -0.000 C 
BRANCH   5   6
ATOM      6  C   UNL     1      -0.310  -1.351 -36.281  1.00  0.00    -0.000 C 
BRANCH   6   7
ATOM      7  C   UNL     1       1.045  -1.908 -35.802  1.00  0.00    -0.000 C 
BRANCH   7   8
ATOM      8  C   UNL     1       1.579  -1.281 -34.503  1.00  0.00    -0.003 C 
ATOM      9  C   UNL     1       1.161   0.179 -34.332  1.00  0.00     0.004 C 
ENDBRANCH   7   8
ENDBRANCH   6   7
ENDBRANCH   5   6
ENDBRANCH   4   5
ENDBRANCH   3   4
ENDBRANCH   2   3
ENDBRANCH   1   2
BRANCH   1  10
ATOM     10  C   UNL     1      -3.791  -3.409 -30.694  1.00  0.00     0.000 C 
BRANCH  10  11
ATOM     11  C   UNL     1      -3.700  -4.894 -31.101  1.00  0.00     0.000 C 
BRANCH  11  12
ATOM     12  C   UNL     1      -2.830  -5.726 -30.141  1.00  0.00     0.004 C 
BRANCH  12  13
ATOM     13  C   UNL     1      -2.349  -4.950 -28.903  1.00  0.00     0.027 C 
BRANCH  13  14
ATOM     14  C   UNL     1      -3.342  -5.013 -27.768  1.00  0.00    -0.027 C 
ATOM     15  C   UNL     1      -3.154  -5.626 -26.589  1.00  0.00    -0.004 C 
BRANCH  15  16
ATOM     16  C   UNL     1      -1.891  -6.260 -26.151  1.00  0.00     0.007 C 
ATOM     17  C   UNL     1      -1.622  -6.402 -24.849  1.00  0.00     0.093 C 
BRANCH  17  18
ATOM     18  C   UNL     1      -0.372  -7.020 -24.369  1.00  0.00     0.330 C 
ATOM     19  O   UNL     1      -0.014  -8.130 -24.848  1.00  0.00    -0.247 OA
BRANCH  18  20
ATOM     20  O   UNL     1       0.417  -6.382 -23.401  1.00  0.00    -0.466 OA
ATOM     21  C   UNL     1       0.792  -5.010 -23.497  1.00  0.00     0.282 C 
ENDBRANCH  18  20
ENDBRANCH  17  18
ENDBRANCH  15  16
ENDBRANCH  13  14
ENDBRANCH  12  13
ENDBRANCH  11  12
ENDBRANCH  10  11
ENDBRANCH   1  10
TORSDOF 15
ENDMDL
MODEL 8
REMARK VINA RESULT:    -3.729      5.467      8.285
REMARK INTER + INTRA:          -9.097
REMARK INTER:                  -7.003
REMARK INTRA:                  -2.094
REMARK UNBOUND:                -2.098
REMARK SMILES CCCCCCCCCCCCCC=CC=CC(=O)OC
REMARK SMILES IDX 9 1 8 2 7 3 6 4 5 5 4 6 3 7 2 8 1 9 10 10 11 11 12 12 13 13
REMARK SMILES IDX 14 14 15 15 16 16 17 17 18 18 19 19 20 20 21 21
REMARK H PARENT
REMARK Flexibility Score: inf
ROOT
ATOM      1  C   UNL     1      -3.190  -3.091 -30.946  1.00  0.00     0.000 C 
ENDROOT
BRANCH   1   2
ATOM      2  C   UNL     1      -3.630  -2.468 -32.291  1.00  0.00     0.000 C 
BRANCH   2   3
ATOM      3  C   UNL     1      -4.889  -3.144 -32.862  1.00  0.00     0.000 C 
BRANCH   3   4
ATOM      4  C   UNL     1      -4.562  -4.129 -33.994  1.00  0.00    -0.000 C 
BRANCH   4   5
ATOM      5  C   UNL     1      -4.627  -5.582 -33.498  1.00  0.00    -0.000 C 
BRANCH   5   6
ATOM      6  C   UNL     1      -3.237  -6.133 -33.115  1.00  0.00    -0.000 C 
BRANCH   6   7
ATOM      7  C   UNL     1      -3.276  -7.207 -32.010  1.00  0.00    -0.000 C 
BRANCH   7   8
ATOM      8  C   UNL     1      -4.618  -7.323 -31.268  1.00  0.00    -0.003 C 
ATOM      9  C   UNL     1      -4.509  -8.102 -29.958  1.00  0.00     0.004 C 
ENDBRANCH   7   8
ENDBRANCH   6   7
ENDBRANCH   5   6
ENDBRANCH   4   5
ENDBRANCH   3   4
ENDBRANCH   2   3
ENDBRANCH   1   2
BRANCH   1  10
ATOM     10  C   UNL     1      -4.377  -3.659 -30.148  1.00  0.00     0.000 C 
BRANCH  10  11
ATOM     11  C   UNL     1      -3.925  -4.577 -28.995  1.00  0.00     0.000 C 
BRANCH  11  12
ATOM     12  C   UNL     1      -2.451  -5.010 -29.116  1.00  0.00     0.004 C 
BRANCH  12  13
ATOM     13  C   UNL     1      -1.745  -5.204 -27.763  1.00  0.00     0.027 C 
BRANCH  13  14
ATOM     14  C   UNL     1      -2.661  -5.799 -26.722  1.00  0.00    -0.027 C 
ATOM     15  C   UNL     1      -2.317  -6.142 -25.471  1.00  0.00    -0.004 C 
BRANCH  15  16
ATOM     16  C   UNL     1      -0.994  -5.896 -24.856  1.00  0.00     0.007 C 
ATOM     17  C   UNL     1      -0.701  -6.407 -23.655  1.00  0.00     0.093 C 
BRANCH  17  18
ATOM     18  C   UNL     1       0.601  -6.179 -23.002  1.00  0.00     0.330 C 
ATOM     19  O   UNL     1       0.659  -5.412 -22.002  1.00  0.00    -0.247 OA
BRANCH  18  20
ATOM     20  O   UNL     1       1.760  -6.812 -23.474  1.00  0.00    -0.466 OA
ATOM     21  C   UNL     1       3.026  -6.161 -23.525  1.00  0.00     0.282 C 
ENDBRANCH  18  20
ENDBRANCH  17  18
ENDBRANCH  15  16
ENDBRANCH  13  14
ENDBRANCH  12  13
ENDBRANCH  11  12
ENDBRANCH  10  11
ENDBRANCH   1  10
TORSDOF 15
ENDMDL
MODEL 9
REMARK VINA RESULT:    -3.706      6.393      8.995
REMARK INTER + INTRA:          -9.054
REMARK INTER:                  -7.485
REMARK INTRA:                  -1.569
REMARK UNBOUND:                -2.098
REMARK SMILES CCCCCCCCCCCCCC=CC=CC(=O)OC
REMARK SMILES IDX 9 1 8 2 7 3 6 4 5 5 4 6 3 7 2 8 1 9 10 10 11 11 12 12 13 13
REMARK SMILES IDX 14 14 15 15 16 16 17 17 18 18 19 19 20 20 21 21
REMARK H PARENT
REMARK Flexibility Score: inf
ROOT
ATOM      1  C   UNL     1      -2.575  -5.221 -29.496  1.00  0.00     0.000 C 
ENDROOT
BRANCH   1   2
ATOM      2  C   UNL     1      -4.051  -4.807 -29.298  1.00  0.00     0.000 C 
BRANCH   2   3
ATOM      3  C   UNL     1      -4.409  -3.533 -30.085  1.00  0.00     0.000 C 
BRANCH   3   4
ATOM      4  C   UNL     1      -3.207  -2.963 -30.852  1.00  0.00    -0.000 C 
BRANCH   4   5
ATOM      5  C   UNL     1      -3.598  -2.585 -32.289  1.00  0.00    -0.000 C 
BRANCH   5   6
ATOM      6  C   UNL     1      -4.970  -3.165 -32.695  1.00  0.00    -0.000 C 
BRANCH   6   7
ATOM      7  C   UNL     1      -4.886  -4.278 -33.758  1.00  0.00    -0.000 C 
BRANCH   7   8
ATOM      8  C   UNL     1      -3.847  -5.373 -33.466  1.00  0.00    -0.003 C 
ATOM      9  C   UNL     1      -4.422  -6.539 -32.661  1.00  0.00     0.004 C 
ENDBRANCH   7   8
ENDBRANCH   6   7
ENDBRANCH   5   6
ENDBRANCH   4   5
ENDBRANCH   3   4
ENDBRANCH   2   3
ENDBRANCH   1   2
BRANCH   1  10
ATOM     10  C   UNL     1      -1.728  -4.996 -28.232  1.00  0.00     0.000 C 
BRANCH  10  11
ATOM     11  C   UNL     1      -2.371  -5.617 -26.975  1.00  0.00     0.000 C 
BRANCH  11  12
ATOM     12  C   UNL     1      -1.721  -6.953 -26.568  1.00  0.00     0.004 C 
BRANCH  12  13
ATOM     13  C   UNL     1      -1.574  -7.136 -25.048  1.00  0.00     0.027 C 
BRANCH  13  14
ATOM     14  C   UNL     1      -1.632  -5.824 -24.306  1.00  0.00    -0.027 C 
ATOM     15  C   UNL     1      -0.782  -5.418 -23.350  1.00  0.00    -0.004 C 
BRANCH  15  16
ATOM     16  C   UNL     1       0.434  -6.147 -22.929  1.00  0.00     0.007 C 
ATOM     17  C   UNL     1       1.633  -5.790 -23.400  1.00  0.00     0.093 C 
BRANCH  17  18
ATOM     18  C   UNL     1       2.870  -6.494 -23.013  1.00  0.00     0.330 C 
ATOM     19  O   UNL     1       2.886  -7.161 -21.943  1.00  0.00    -0.247 OA
BRANCH  18  20
ATOM     20  O   UNL     1       4.012  -6.436 -23.825  1.00  0.00    -0.466 OA
ATOM     21  C   UNL     1       4.306  -7.421 -24.812  1.00  0.00     0.282 C 
ENDBRANCH  18  20
ENDBRANCH  17  18
ENDBRANCH  15  16
ENDBRANCH  13  14
ENDBRANCH  12  13
ENDBRANCH  11  12
ENDBRANCH  10  11
ENDBRANCH   1  10
TORSDOF 15
ENDMDL
