MODEL 1
REMARK VINA RESULT:    -4.702      0.000      0.000
REMARK INTER + INTRA:          -5.320
REMARK INTER:                  -5.251
REMARK INTRA:                  -0.069
REMARK UNBOUND:                -0.069
REMARK SMILES COc1cc2ccc(=O)oc2c(O)c1O
REMARK SMILES IDX 3 1 14 2 12 3 11 4 5 5 4 6 6 7 7 8 8 9 9 10 10 11 2 12 1 13
REMARK SMILES IDX 15 14 13 16
REMARK H PARENT 15 15 13 17
REMARK Flexibility Score: inf
ROOT
ATOM      1  C   UNL     1     -49.620 -35.487 -19.255  1.00  0.00     0.165 A 
ATOM      2  C   UNL     1     -49.781 -35.188 -20.618  1.00  0.00     0.204 A 
ATOM      3  C   UNL     1     -49.800 -36.232 -21.576  1.00  0.00     0.205 A 
ATOM      4  C   UNL     1     -49.659 -37.561 -21.154  1.00  0.00     0.184 A 
ATOM      5  C   UNL     1     -49.497 -37.857 -19.785  1.00  0.00     0.025 A 
ATOM      6  C   UNL     1     -49.479 -36.825 -18.842  1.00  0.00     0.062 A 
ATOM      7  C   UNL     1     -49.359 -39.196 -19.403  1.00  0.00     0.020 A 
ATOM      8  C   UNL     1     -49.383 -40.193 -20.375  1.00  0.00     0.094 A 
ATOM      9  C   UNL     1     -49.546 -39.827 -21.714  1.00  0.00     0.336 A 
ATOM     10  O   UNL     1     -49.572 -40.712 -22.610  1.00  0.00    -0.246 OA
ATOM     11  O   UNL     1     -49.676 -38.546 -22.051  1.00  0.00    -0.419 OA
ENDROOT
BRANCH   1  12
ATOM     12  O   UNL     1     -49.606 -34.423 -18.338  1.00  0.00    -0.493 OA
ATOM     13  C   UNL     1     -48.478 -34.045 -17.554  1.00  0.00     0.278 C 
ENDBRANCH   1  12
BRANCH   2  14
ATOM     14  O   UNL     1     -49.917 -33.844 -20.976  1.00  0.00    -0.502 OA
ATOM     15  H   UNL     1     -50.732 -33.282 -20.776  1.00  0.00     0.293 HD
ENDBRANCH   2  14
BRANCH   3  16
ATOM     16  O   UNL     1     -49.957 -35.994 -22.944  1.00  0.00    -0.502 OA
ATOM     17  H   UNL     1     -49.193 -35.815 -23.581  1.00  0.00     0.293 HD
ENDBRANCH   3  16
TORSDOF 3
ENDMDL
MODEL 2
REMARK VINA RESULT:    -4.593      2.478      3.630
REMARK INTER + INTRA:          -5.198
REMARK INTER:                  -5.132
REMARK INTRA:                  -0.067
REMARK UNBOUND:                -0.069
REMARK SMILES COc1cc2ccc(=O)oc2c(O)c1O
REMARK SMILES IDX 3 1 14 2 12 3 11 4 5 5 4 6 6 7 7 8 8 9 9 10 10 11 2 12 1 13
REMARK SMILES IDX 15 14 13 16
REMARK H PARENT 15 15 13 17
REMARK Flexibility Score: inf
ROOT
ATOM      1  C   UNL     1     -47.024 -36.357 -18.399  1.00  0.00     0.165 A 
ATOM      2  C   UNL     1     -47.822 -35.285 -17.968  1.00  0.00     0.204 A 
ATOM      3  C   UNL     1     -49.185 -35.216 -18.353  1.00  0.00     0.205 A 
ATOM      4  C   UNL     1     -49.726 -36.221 -19.164  1.00  0.00     0.184 A 
ATOM      5  C   UNL     1     -48.921 -37.295 -19.595  1.00  0.00     0.025 A 
ATOM      6  C   UNL     1     -47.578 -37.361 -19.214  1.00  0.00     0.062 A 
ATOM      7  C   UNL     1     -49.499 -38.281 -20.405  1.00  0.00     0.020 A 
ATOM      8  C   UNL     1     -50.841 -38.176 -20.761  1.00  0.00     0.094 A 
ATOM      9  C   UNL     1     -51.580 -37.083 -20.298  1.00  0.00     0.336 A 
ATOM     10  O   UNL     1     -52.795 -36.969 -20.608  1.00  0.00    -0.246 OA
ATOM     11  O   UNL     1     -51.006 -36.161 -19.529  1.00  0.00    -0.419 OA
ENDROOT
BRANCH   1  12
ATOM     12  O   UNL     1     -45.679 -36.388 -17.995  1.00  0.00    -0.493 OA
ATOM     13  C   UNL     1     -44.566 -36.379 -18.884  1.00  0.00     0.278 C 
ENDBRANCH   1  12
BRANCH   2  14
ATOM     14  O   UNL     1     -47.225 -34.314 -17.161  1.00  0.00    -0.502 OA
ATOM     15  H   UNL     1     -46.441 -34.488 -16.547  1.00  0.00     0.293 HD
ENDBRANCH   2  14
BRANCH   3  16
ATOM     16  O   UNL     1     -50.026 -34.173 -17.954  1.00  0.00    -0.502 OA
ATOM     17  H   UNL     1     -50.949 -34.011 -18.332  1.00  0.00     0.293 HD
ENDBRANCH   3  16
TORSDOF 3
ENDMDL
MODEL 3
REMARK VINA RESULT:    -4.506      2.779      3.891
REMARK INTER + INTRA:          -5.101
REMARK INTER:                  -5.033
REMARK INTRA:                  -0.069
REMARK UNBOUND:                -0.069
REMARK SMILES COc1cc2ccc(=O)oc2c(O)c1O
REMARK SMILES IDX 3 1 14 2 12 3 11 4 5 5 4 6 6 7 7 8 8 9 9 10 10 11 2 12 1 13
REMARK SMILES IDX 15 14 13 16
REMARK H PARENT 15 15 13 17
REMARK Flexibility Score: inf
ROOT
ATOM      1  C   UNL     1     -49.448 -36.730 -20.153  1.00  0.00     0.165 A 
ATOM      2  C   UNL     1     -50.795 -36.741 -19.754  1.00  0.00     0.204 A 
ATOM      3  C   UNL     1     -51.824 -36.702 -20.727  1.00  0.00     0.205 A 
ATOM      4  C   UNL     1     -51.489 -36.653 -22.087  1.00  0.00     0.184 A 
ATOM      5  C   UNL     1     -50.136 -36.642 -22.484  1.00  0.00     0.025 A 
ATOM      6  C   UNL     1     -49.123 -36.680 -21.521  1.00  0.00     0.062 A 
ATOM      7  C   UNL     1     -49.841 -36.592 -23.851  1.00  0.00     0.020 A 
ATOM      8  C   UNL     1     -50.882 -36.555 -24.777  1.00  0.00     0.094 A 
ATOM      9  C   UNL     1     -52.200 -36.568 -24.312  1.00  0.00     0.336 A 
ATOM     10  O   UNL     1     -53.156 -36.536 -25.131  1.00  0.00    -0.246 OA
ATOM     11  O   UNL     1     -52.453 -36.616 -23.006  1.00  0.00    -0.419 OA
ENDROOT
BRANCH   1  12
ATOM     12  O   UNL     1     -48.459 -36.769 -19.157  1.00  0.00    -0.493 OA
ATOM     13  C   UNL     1     -47.710 -37.929 -18.806  1.00  0.00     0.278 C 
ENDBRANCH   1  12
BRANCH   2  14
ATOM     14  O   UNL     1     -51.065 -36.791 -18.384  1.00  0.00    -0.502 OA
ATOM     15  H   UNL     1     -51.531 -36.058 -17.869  1.00  0.00     0.293 HD
ENDBRANCH   2  14
BRANCH   3  16
ATOM     16  O   UNL     1     -53.180 -36.711 -20.388  1.00  0.00    -0.502 OA
ATOM     17  H   UNL     1     -53.531 -36.869 -19.454  1.00  0.00     0.293 HD
ENDBRANCH   3  16
TORSDOF 3
ENDMDL
MODEL 4
REMARK VINA RESULT:    -4.449     10.206     11.876
REMARK INTER + INTRA:          -5.038
REMARK INTER:                  -4.985
REMARK INTRA:                  -0.053
REMARK UNBOUND:                -0.069
REMARK SMILES COc1cc2ccc(=O)oc2c(O)c1O
REMARK SMILES IDX 3 1 14 2 12 3 11 4 5 5 4 6 6 7 7 8 8 9 9 10 10 11 2 12 1 13
REMARK SMILES IDX 15 14 13 16
REMARK H PARENT 15 15 13 17
REMARK Flexibility Score: inf
ROOT
ATOM      1  C   UNL     1     -57.723 -29.183 -19.488  1.00  0.00     0.165 A 
ATOM      2  C   UNL     1     -57.436 -30.426 -20.076  1.00  0.00     0.204 A 
ATOM      3  C   UNL     1     -57.308 -30.533 -21.483  1.00  0.00     0.205 A 
ATOM      4  C   UNL     1     -57.469 -29.393 -22.281  1.00  0.00     0.184 A 
ATOM      5  C   UNL     1     -57.757 -28.147 -21.688  1.00  0.00     0.025 A 
ATOM      6  C   UNL     1     -57.882 -28.044 -20.300  1.00  0.00     0.062 A 
ATOM      7  C   UNL     1     -57.910 -27.030 -22.518  1.00  0.00     0.020 A 
ATOM      8  C   UNL     1     -57.777 -27.178 -23.897  1.00  0.00     0.094 A 
ATOM      9  C   UNL     1     -57.491 -28.444 -24.417  1.00  0.00     0.336 A 
ATOM     10  O   UNL     1     -57.365 -28.599 -25.660  1.00  0.00    -0.246 OA
ATOM     11  O   UNL     1     -57.349 -29.488 -23.605  1.00  0.00    -0.419 OA
ENDROOT
BRANCH   1  12
ATOM     12  O   UNL     1     -57.842 -29.120 -18.090  1.00  0.00    -0.493 OA
ATOM     13  C   UNL     1     -57.781 -27.920 -17.326  1.00  0.00     0.278 C 
ENDBRANCH   1  12
BRANCH   2  14
ATOM     14  O   UNL     1     -57.287 -31.526 -19.227  1.00  0.00    -0.502 OA
ATOM     15  H   UNL     1     -57.898 -32.330 -19.226  1.00  0.00     0.293 HD
ENDBRANCH   2  14
BRANCH   3  16
ATOM     16  O   UNL     1     -57.024 -31.743 -22.122  1.00  0.00    -0.502 OA
ATOM     17  H   UNL     1     -57.631 -32.185 -22.798  1.00  0.00     0.293 HD
ENDBRANCH   3  16
TORSDOF 3
ENDMDL
MODEL 5
REMARK VINA RESULT:    -4.447      7.866      8.110
REMARK INTER + INTRA:          -5.035
REMARK INTER:                  -4.967
REMARK INTRA:                  -0.068
REMARK UNBOUND:                -0.069
REMARK SMILES COc1cc2ccc(=O)oc2c(O)c1O
REMARK SMILES IDX 3 1 14 2 12 3 11 4 5 5 4 6 6 7 7 8 8 9 9 10 10 11 2 12 1 13
REMARK SMILES IDX 15 14 13 16
REMARK H PARENT 15 15 13 17
REMARK Flexibility Score: inf
ROOT
ATOM      1  C   UNL     1     -43.842 -36.540 -19.523  1.00  0.00     0.165 A 
ATOM      2  C   UNL     1     -42.994 -35.429 -19.662  1.00  0.00     0.204 A 
ATOM      3  C   UNL     1     -41.647 -35.611 -20.063  1.00  0.00     0.205 A 
ATOM      4  C   UNL     1     -41.169 -36.903 -20.318  1.00  0.00     0.184 A 
ATOM      5  C   UNL     1     -42.023 -38.016 -20.177  1.00  0.00     0.025 A 
ATOM      6  C   UNL     1     -43.352 -37.833 -19.782  1.00  0.00     0.062 A 
ATOM      7  C   UNL     1     -41.509 -39.290 -20.442  1.00  0.00     0.020 A 
ATOM      8  C   UNL     1     -40.179 -39.427 -20.833  1.00  0.00     0.094 A 
ATOM      9  C   UNL     1     -39.389 -38.279 -20.951  1.00  0.00     0.336 A 
ATOM     10  O   UNL     1     -38.184 -38.379 -21.304  1.00  0.00    -0.246 OA
ATOM     11  O   UNL     1     -39.903 -37.079 -20.695  1.00  0.00    -0.419 OA
ENDROOT
BRANCH   1  12
ATOM     12  O   UNL     1     -45.170 -36.317 -19.124  1.00  0.00    -0.493 OA
ATOM     13  C   UNL     1     -45.733 -36.766 -17.896  1.00  0.00     0.278 C 
ENDBRANCH   1  12
BRANCH   2  14
ATOM     14  O   UNL     1     -43.529 -34.167 -19.393  1.00  0.00    -0.502 OA
ATOM     15  H   UNL     1     -43.751 -33.481 -20.101  1.00  0.00     0.293 HD
ENDBRANCH   2  14
BRANCH   3  16
ATOM     16  O   UNL     1     -40.758 -34.543 -20.217  1.00  0.00    -0.502 OA
ATOM     17  H   UNL     1     -40.847 -33.657 -19.741  1.00  0.00     0.293 HD
ENDBRANCH   3  16
TORSDOF 3
ENDMDL
MODEL 6
REMARK VINA RESULT:    -4.381      8.685      9.136
REMARK INTER + INTRA:          -4.961
REMARK INTER:                  -4.899
REMARK INTRA:                  -0.062
REMARK UNBOUND:                -0.069
REMARK SMILES COc1cc2ccc(=O)oc2c(O)c1O
REMARK SMILES IDX 3 1 14 2 12 3 11 4 5 5 4 6 6 7 7 8 8 9 9 10 10 11 2 12 1 13
REMARK SMILES IDX 15 14 13 16
REMARK H PARENT 15 15 13 17
REMARK Flexibility Score: inf
ROOT
ATOM      1  C   UNL     1     -39.698 -37.436 -20.581  1.00  0.00     0.165 A 
ATOM      2  C   UNL     1     -39.229 -38.608 -21.197  1.00  0.00     0.204 A 
ATOM      3  C   UNL     1     -40.122 -39.679 -21.455  1.00  0.00     0.205 A 
ATOM      4  C   UNL     1     -41.470 -39.559 -21.093  1.00  0.00     0.184 A 
ATOM      5  C   UNL     1     -41.936 -38.381 -20.475  1.00  0.00     0.025 A 
ATOM      6  C   UNL     1     -41.054 -37.326 -20.222  1.00  0.00     0.062 A 
ATOM      7  C   UNL     1     -43.289 -38.298 -20.128  1.00  0.00     0.020 A 
ATOM      8  C   UNL     1     -44.134 -39.373 -20.399  1.00  0.00     0.094 A 
ATOM      9  C   UNL     1     -43.603 -40.511 -21.013  1.00  0.00     0.336 A 
ATOM     10  O   UNL     1     -44.348 -41.493 -21.268  1.00  0.00    -0.246 OA
ATOM     11  O   UNL     1     -42.312 -40.563 -21.333  1.00  0.00    -0.419 OA
ENDROOT
BRANCH   1  12
ATOM     12  O   UNL     1     -38.781 -36.399 -20.343  1.00  0.00    -0.493 OA
ATOM     13  C   UNL     1     -38.617 -35.734 -19.095  1.00  0.00     0.278 C 
ENDBRANCH   1  12
BRANCH   2  14
ATOM     14  O   UNL     1     -37.875 -38.668 -21.535  1.00  0.00    -0.502 OA
ATOM     15  H   UNL     1     -37.241 -37.884 -21.481  1.00  0.00     0.293 HD
ENDBRANCH   2  14
BRANCH   3  16
ATOM     16  O   UNL     1     -39.712 -40.868 -22.065  1.00  0.00    -0.502 OA
ATOM     17  H   UNL     1     -38.935 -41.431 -21.748  1.00  0.00     0.293 HD
ENDBRANCH   3  16
TORSDOF 3
ENDMDL
MODEL 7
REMARK VINA RESULT:    -4.378      2.721      4.246
REMARK INTER + INTRA:          -4.958
REMARK INTER:                  -4.906
REMARK INTRA:                  -0.052
REMARK UNBOUND:                -0.069
REMARK SMILES COc1cc2ccc(=O)oc2c(O)c1O
REMARK SMILES IDX 3 1 14 2 12 3 11 4 5 5 4 6 6 7 7 8 8 9 9 10 10 11 2 12 1 13
REMARK SMILES IDX 15 14 13 16
REMARK H PARENT 15 15 13 17
REMARK Flexibility Score: inf
ROOT
ATOM      1  C   UNL     1     -48.238 -37.094 -20.841  1.00  0.00     0.165 A 
ATOM      2  C   UNL     1     -48.900 -36.923 -19.614  1.00  0.00     0.204 A 
ATOM      3  C   UNL     1     -50.302 -36.716 -19.587  1.00  0.00     0.205 A 
ATOM      4  C   UNL     1     -51.020 -36.684 -20.790  1.00  0.00     0.184 A 
ATOM      5  C   UNL     1     -50.352 -36.856 -22.019  1.00  0.00     0.025 A 
ATOM      6  C   UNL     1     -48.970 -37.060 -22.043  1.00  0.00     0.062 A 
ATOM      7  C   UNL     1     -51.104 -36.818 -23.200  1.00  0.00     0.020 A 
ATOM      8  C   UNL     1     -52.480 -36.612 -23.130  1.00  0.00     0.094 A 
ATOM      9  C   UNL     1     -53.076 -36.449 -21.877  1.00  0.00     0.336 A 
ATOM     10  O   UNL     1     -54.319 -36.262 -21.791  1.00  0.00    -0.246 OA
ATOM     11  O   UNL     1     -52.338 -36.490 -20.770  1.00  0.00    -0.419 OA
ENDROOT
BRANCH   1  12
ATOM     12  O   UNL     1     -46.849 -37.296 -20.824  1.00  0.00    -0.493 OA
ATOM     13  C   UNL     1     -46.053 -37.546 -21.978  1.00  0.00     0.278 C 
ENDBRANCH   1  12
BRANCH   2  14
ATOM     14  O   UNL     1     -48.130 -36.965 -18.450  1.00  0.00    -0.502 OA
ATOM     15  H   UNL     1     -48.061 -36.206 -17.786  1.00  0.00     0.293 HD
ENDBRANCH   2  14
BRANCH   3  16
ATOM     16  O   UNL     1     -51.013 -36.540 -18.397  1.00  0.00    -0.502 OA
ATOM     17  H   UNL     1     -51.124 -37.253 -17.690  1.00  0.00     0.293 HD
ENDBRANCH   3  16
TORSDOF 3
ENDMDL
MODEL 8
REMARK VINA RESULT:    -4.378      2.581      4.401
REMARK INTER + INTRA:          -4.958
REMARK INTER:                  -4.892
REMARK INTRA:                  -0.066
REMARK UNBOUND:                -0.069
REMARK SMILES COc1cc2ccc(=O)oc2c(O)c1O
REMARK SMILES IDX 3 1 14 2 12 3 11 4 5 5 4 6 6 7 7 8 8 9 9 10 10 11 2 12 1 13
REMARK SMILES IDX 15 14 13 16
REMARK H PARENT 15 15 13 17
REMARK Flexibility Score: inf
ROOT
ATOM      1  C   UNL     1     -51.296 -37.246 -21.961  1.00  0.00     0.165 A 
ATOM      2  C   UNL     1     -51.747 -36.919 -20.671  1.00  0.00     0.204 A 
ATOM      3  C   UNL     1     -50.818 -36.781 -19.610  1.00  0.00     0.205 A 
ATOM      4  C   UNL     1     -49.452 -36.971 -19.856  1.00  0.00     0.184 A 
ATOM      5  C   UNL     1     -49.004 -37.299 -21.152  1.00  0.00     0.025 A 
ATOM      6  C   UNL     1     -49.922 -37.434 -22.197  1.00  0.00     0.062 A 
ATOM      7  C   UNL     1     -47.632 -37.481 -21.359  1.00  0.00     0.020 A 
ATOM      8  C   UNL     1     -46.751 -37.336 -20.289  1.00  0.00     0.094 A 
ATOM      9  C   UNL     1     -47.266 -37.010 -19.030  1.00  0.00     0.336 A 
ATOM     10  O   UNL     1     -46.488 -36.874 -18.049  1.00  0.00    -0.246 OA
ATOM     11  O   UNL     1     -48.575 -36.842 -18.861  1.00  0.00    -0.419 OA
ENDROOT
BRANCH   1  12
ATOM     12  O   UNL     1     -52.249 -37.374 -22.985  1.00  0.00    -0.493 OA
ATOM     13  C   UNL     1     -52.246 -36.619 -24.193  1.00  0.00     0.278 C 
ENDBRANCH   1  12
BRANCH   2  14
ATOM     14  O   UNL     1     -53.121 -36.742 -20.489  1.00  0.00    -0.502 OA
ATOM     15  H   UNL     1     -53.655 -35.985 -20.891  1.00  0.00     0.293 HD
ENDBRANCH   2  14
BRANCH   3  16
ATOM     16  O   UNL     1     -51.209 -36.458 -18.307  1.00  0.00    -0.502 OA
ATOM     17  H   UNL     1     -50.849 -35.672 -17.785  1.00  0.00     0.293 HD
ENDBRANCH   3  16
TORSDOF 3
ENDMDL
MODEL 9
REMARK VINA RESULT:    -4.289      2.169      3.670
REMARK INTER + INTRA:          -4.859
REMARK INTER:                  -4.804
REMARK INTRA:                  -0.054
REMARK UNBOUND:                -0.069
REMARK SMILES COc1cc2ccc(=O)oc2c(O)c1O
REMARK SMILES IDX 3 1 14 2 12 3 11 4 5 5 4 6 6 7 7 8 8 9 9 10 10 11 2 12 1 13
REMARK SMILES IDX 15 14 13 16
REMARK H PARENT 15 15 13 17
REMARK Flexibility Score: inf
ROOT
ATOM      1  C   UNL     1     -49.724 -37.047 -21.897  1.00  0.00     0.165 A 
ATOM      2  C   UNL     1     -49.914 -36.168 -20.818  1.00  0.00     0.204 A 
ATOM      3  C   UNL     1     -49.778 -36.638 -19.488  1.00  0.00     0.205 A 
ATOM      4  C   UNL     1     -49.453 -37.981 -19.259  1.00  0.00     0.184 A 
ATOM      5  C   UNL     1     -49.264 -38.861 -20.344  1.00  0.00     0.025 A 
ATOM      6  C   UNL     1     -49.399 -38.394 -21.655  1.00  0.00     0.062 A 
ATOM      7  C   UNL     1     -48.941 -40.196 -20.075  1.00  0.00     0.020 A 
ATOM      8  C   UNL     1     -48.817 -40.618 -18.753  1.00  0.00     0.094 A 
ATOM      9  C   UNL     1     -49.019 -39.692 -17.726  1.00  0.00     0.336 A 
ATOM     10  O   UNL     1     -48.911 -40.052 -16.524  1.00  0.00    -0.246 OA
ATOM     11  O   UNL     1     -49.325 -38.428 -18.010  1.00  0.00    -0.419 OA
ENDROOT
BRANCH   1  12
ATOM     12  O   UNL     1     -49.868 -36.541 -23.200  1.00  0.00    -0.493 OA
ATOM     13  C   UNL     1     -48.792 -36.087 -24.015  1.00  0.00     0.278 C 
ENDBRANCH   1  12
BRANCH   2  14
ATOM     14  O   UNL     1     -50.235 -34.840 -21.111  1.00  0.00    -0.502 OA
ATOM     15  H   UNL     1     -50.942 -34.306 -20.626  1.00  0.00     0.293 HD
ENDBRANCH   2  14
BRANCH   3  16
ATOM     16  O   UNL     1     -49.955 -35.809 -18.376  1.00  0.00    -0.502 OA
ATOM     17  H   UNL     1     -50.224 -34.837 -18.430  1.00  0.00     0.293 HD
ENDBRANCH   3  16
TORSDOF 3
ENDMDL
