MODEL 1
REMARK VINA RESULT:    -5.360      0.000      0.000
REMARK INTER + INTRA:          -7.027
REMARK INTER:                  -7.553
REMARK INTRA:                   0.526
REMARK UNBOUND:                 0.526
REMARK SMILES CC1=CCC(=C(C)C)C(=O)CC(C)=CCC1
REMARK SMILES IDX 12 1 14 2 13 3 15 4 16 5 2 6 1 7 3 8 11 10 9 11 10 12 5 13
REMARK SMILES IDX 6 14 7 15 8 16 4 17
REMARK H PARENT
REMARK Flexibility Score: 60.00
ROOT
ATOM      1  C   UNL     1      -3.206  12.933 -31.191  1.00  0.00    -0.070 C 
ATOM      2  C   UNL     1      -1.918  13.265 -31.427  1.00  0.00    -0.027 C 
ATOM      3  C   UNL     1      -4.260  13.987 -31.418  1.00  0.00     0.039 C 
ENDROOT
BRANCH   2   4
ATOM      4  C   UNL     1      -0.734  12.325 -31.351  1.00  0.00     0.032 C 
BRANCH   4   5
ATOM      5  C   UNL     1      -0.315  11.926 -29.921  1.00  0.00     0.034 C 
BRANCH   5   6
ATOM      6  C   UNL     1      -0.411  13.072 -28.928  1.00  0.00    -0.077 C 
ATOM      7  C   UNL     1       0.577  14.204 -29.066  1.00  0.00     0.039 C 
ATOM      8  C   UNL     1      -1.368  13.177 -27.973  1.00  0.00    -0.023 CG0
ATOM      9  G   UNL     1      -2.443  12.162 -27.641  1.00  0.00     0.000 G0
ENDBRANCH   5   6
ENDBRANCH   4   5
ENDBRANCH   2   4
BRANCH   1  10
ATOM     10  C   UNL     1      -3.646  11.536 -30.803  1.00  0.00     0.111 C 
BRANCH  10  11
ATOM     11  C   UNL     1      -4.196  11.496 -29.401  1.00  0.00     0.163 C 
ATOM     12  O   UNL     1      -5.018  10.585 -29.111  1.00  0.00    -0.294 OA
BRANCH  11  13
ATOM     13  C   UNL     1      -3.758  12.451 -28.342  1.00  0.00    -0.002 C 
ATOM     14  C   UNL     1      -4.557  13.494 -27.964  1.00  0.00    -0.069 C 
ATOM     15  C   UNL     1      -5.836  13.811 -28.710  1.00  0.00     0.039 C 
ATOM     16  C   UNL     1      -4.215  14.383 -26.789  1.00  0.00     0.039 C 
BRANCH  13  17
ATOM     17  C   UNL     1      -2.439  12.157 -27.641  1.00  0.00     0.066 CG0
ATOM     18  G   UNL     1      -1.373  13.184 -27.968  1.00  0.00     0.000 G0
ENDBRANCH  13  17
ENDBRANCH  11  13
ENDBRANCH  10  11
ENDBRANCH   1  10
TORSDOF 0
ENDMDL
MODEL 2
REMARK VINA RESULT:    -5.298      1.773      4.710
REMARK INTER + INTRA:          -6.940
REMARK INTER:                  -7.208
REMARK INTRA:                   0.268
REMARK UNBOUND:                 0.526
REMARK SMILES CC1=CCC(=C(C)C)C(=O)CC(C)=CCC1
REMARK SMILES IDX 12 1 14 2 13 3 15 4 16 5 2 6 1 7 3 8 11 10 9 11 10 12 5 13
REMARK SMILES IDX 6 14 7 15 8 16 4 17
REMARK H PARENT
REMARK Flexibility Score: 60.00
ROOT
ATOM      1  C   UNL     1      -3.930  14.074 -27.209  1.00  0.00    -0.070 C 
ATOM      2  C   UNL     1      -5.146  14.221 -27.780  1.00  0.00    -0.027 C 
ATOM      3  C   UNL     1      -3.875  13.691 -25.752  1.00  0.00     0.039 C 
ENDROOT
BRANCH   2   4
ATOM      4  C   UNL     1      -5.407  14.506 -29.243  1.00  0.00     0.032 C 
BRANCH   4   5
ATOM      5  C   UNL     1      -5.108  13.330 -30.195  1.00  0.00     0.034 C 
BRANCH   5   6
ATOM      6  C   UNL     1      -4.260  13.730 -31.391  1.00  0.00    -0.077 C 
ATOM      7  C   UNL     1      -4.791  14.813 -32.295  1.00  0.00     0.039 C 
ATOM      8  C   UNL     1      -3.029  13.228 -31.657  1.00  0.00    -0.023 CG0
ATOM      9  G   UNL     1      -2.308  12.128 -30.903  1.00  0.00     0.000 G0
ENDBRANCH   5   6
ENDBRANCH   4   5
ENDBRANCH   2   4
BRANCH   1  10
ATOM     10  C   UNL     1      -2.631  14.186 -27.981  1.00  0.00     0.111 C 
BRANCH  10  11
ATOM     11  C   UNL     1      -2.142  12.838 -28.442  1.00  0.00     0.163 C 
ATOM     12  O   UNL     1      -2.370  11.840 -27.706  1.00  0.00    -0.294 OA
BRANCH  11  13
ATOM     13  C   UNL     1      -1.460  12.639 -29.755  1.00  0.00    -0.002 C 
ATOM     14  C   UNL     1      -0.113  12.838 -29.882  1.00  0.00    -0.069 C 
ATOM     15  C   UNL     1       0.704  13.415 -28.746  1.00  0.00     0.039 C 
ATOM     16  C   UNL     1       0.632  12.493 -31.152  1.00  0.00     0.039 C 
BRANCH  13  17
ATOM     17  C   UNL     1      -2.306  12.117 -30.907  1.00  0.00     0.066 CG0
ATOM     18  G   UNL     1      -3.023  13.229 -31.644  1.00  0.00     0.000 G0
ENDBRANCH  13  17
ENDBRANCH  11  13
ENDBRANCH  10  11
ENDBRANCH   1  10
TORSDOF 0
ENDMDL
MODEL 3
REMARK VINA RESULT:    -5.135      1.978      3.392
REMARK INTER + INTRA:          -6.711
REMARK INTER:                  -7.147
REMARK INTRA:                   0.436
REMARK UNBOUND:                 0.526
REMARK SMILES CC1=CCC(=C(C)C)C(=O)CC(C)=CCC1
REMARK SMILES IDX 12 1 14 2 13 3 15 4 16 5 2 6 1 7 3 8 11 10 9 11 10 12 5 13
REMARK SMILES IDX 6 14 7 15 8 16 4 17
REMARK H PARENT
REMARK Flexibility Score: 60.00
ROOT
ATOM      1  C   UNL     1      -3.155  11.119 -27.887  1.00  0.00    -0.070 C 
ATOM      2  C   UNL     1      -2.311  10.390 -28.650  1.00  0.00    -0.027 C 
ATOM      3  C   UNL     1      -2.775  11.363 -26.448  1.00  0.00     0.039 C 
ENDROOT
BRANCH   2   4
ATOM      4  C   UNL     1      -2.467  10.119 -30.130  1.00  0.00     0.032 C 
BRANCH   4   5
ATOM      5  C   UNL     1      -1.317  10.651 -31.011  1.00  0.00     0.034 C 
BRANCH   5   6
ATOM      6  C   UNL     1      -1.028  12.126 -30.789  1.00  0.00    -0.077 C 
ATOM      7  C   UNL     1       0.376  12.513 -30.396  1.00  0.00     0.039 C 
ATOM      8  C   UNL     1      -1.928  13.119 -30.989  1.00  0.00    -0.023 CG0
ATOM      9  G   UNL     1      -3.388  12.968 -31.365  1.00  0.00     0.000 G0
ENDBRANCH   5   6
ENDBRANCH   4   5
ENDBRANCH   2   4
BRANCH   1  10
ATOM     10  C   UNL     1      -4.409  11.775 -28.429  1.00  0.00     0.111 C 
BRANCH  10  11
ATOM     11  C   UNL     1      -4.138  13.176 -28.910  1.00  0.00     0.163 C 
ATOM     12  O   UNL     1      -3.680  14.010 -28.083  1.00  0.00    -0.294 OA
BRANCH  11  13
ATOM     13  C   UNL     1      -4.333  13.587 -30.332  1.00  0.00    -0.002 C 
ATOM     14  C   UNL     1      -5.262  14.534 -30.667  1.00  0.00    -0.069 C 
ATOM     15  C   UNL     1      -6.228  15.081 -29.638  1.00  0.00     0.039 C 
ATOM     16  C   UNL     1      -5.375  15.085 -32.070  1.00  0.00     0.039 C 
BRANCH  13  17
ATOM     17  C   UNL     1      -3.396  12.982 -31.367  1.00  0.00     0.066 CG0
ATOM     18  G   UNL     1      -1.939  13.131 -30.979  1.00  0.00     0.000 G0
ENDBRANCH  13  17
ENDBRANCH  11  13
ENDBRANCH  10  11
ENDBRANCH   1  10
TORSDOF 0
ENDMDL
MODEL 4
REMARK VINA RESULT:    -4.601      1.652      4.084
REMARK INTER + INTRA:          -5.958
REMARK INTER:                  -6.547
REMARK INTRA:                   0.589
REMARK UNBOUND:                 0.526
REMARK SMILES CC1=CCC(=C(C)C)C(=O)CC(C)=CCC1
REMARK SMILES IDX 12 1 14 2 13 3 15 4 16 5 2 6 1 7 3 8 11 10 9 11 10 12 5 13
REMARK SMILES IDX 6 14 7 15 8 16 4 17
REMARK H PARENT
REMARK Flexibility Score: 60.00
ROOT
ATOM      1  C   UNL     1      -4.823  13.982 -30.757  1.00  0.00    -0.070 C 
ATOM      2  C   UNL     1      -5.610  14.374 -29.731  1.00  0.00    -0.027 C 
ATOM      3  C   UNL     1      -4.881  14.780 -32.035  1.00  0.00     0.039 C 
ENDROOT
BRANCH   2   4
ATOM      4  C   UNL     1      -5.623  13.766 -28.345  1.00  0.00     0.032 C 
BRANCH   4   5
ATOM      5  C   UNL     1      -4.629  14.400 -27.350  1.00  0.00     0.034 C 
BRANCH   5   6
ATOM      6  C   UNL     1      -3.528  13.448 -26.916  1.00  0.00    -0.077 C 
ATOM      7  C   UNL     1      -3.838  12.478 -25.805  1.00  0.00     0.039 C 
ATOM      8  C   UNL     1      -2.311  13.367 -27.510  1.00  0.00    -0.023 CG0
ATOM      9  G   UNL     1      -1.776  14.245 -28.623  1.00  0.00     0.000 G0
ENDBRANCH   5   6
ENDBRANCH   4   5
ENDBRANCH   2   4
BRANCH   1  10
ATOM     10  C   UNL     1      -3.825  12.847 -30.653  1.00  0.00     0.111 C 
BRANCH  10  11
ATOM     11  C   UNL     1      -2.422  13.313 -30.938  1.00  0.00     0.163 C 
ATOM     12  O   UNL     1      -2.137  13.651 -32.118  1.00  0.00    -0.294 OA
BRANCH  11  13
ATOM     13  C   UNL     1      -1.389  13.446 -29.868  1.00  0.00    -0.002 C 
ATOM     14  C   UNL     1      -0.130  12.943 -30.044  1.00  0.00    -0.069 C 
ATOM     15  C   UNL     1       0.216  12.102 -31.254  1.00  0.00     0.039 C 
ATOM     16  C   UNL     1       0.982  13.199 -29.051  1.00  0.00     0.039 C 
BRANCH  13  17
ATOM     17  C   UNL     1      -1.769  14.242 -28.629  1.00  0.00     0.066 CG0
ATOM     18  G   UNL     1      -2.304  13.359 -27.520  1.00  0.00     0.000 G0
ENDBRANCH  13  17
ENDBRANCH  11  13
ENDBRANCH  10  11
ENDBRANCH   1  10
TORSDOF 0
ENDMDL
MODEL 5
REMARK VINA RESULT:    -4.424      1.911      3.791
REMARK INTER + INTRA:          -5.709
REMARK INTER:                  -6.194
REMARK INTRA:                   0.485
REMARK UNBOUND:                 0.526
REMARK SMILES CC1=CCC(=C(C)C)C(=O)CC(C)=CCC1
REMARK SMILES IDX 12 1 14 2 13 3 15 4 16 5 2 6 1 7 3 8 11 10 9 11 10 12 5 13
REMARK SMILES IDX 6 14 7 15 8 16 4 17
REMARK H PARENT
REMARK Flexibility Score: 60.00
ROOT
ATOM      1  C   UNL     1      -1.771  12.440 -30.975  1.00  0.00    -0.070 C 
ATOM      2  C   UNL     1      -2.873  13.085 -31.418  1.00  0.00    -0.027 C 
ATOM      3  C   UNL     1      -0.486  12.630 -31.740  1.00  0.00     0.039 C 
ENDROOT
BRANCH   2   4
ATOM      4  C   UNL     1      -4.224  13.098 -30.736  1.00  0.00     0.032 C 
BRANCH   4   5
ATOM      5  C   UNL     1      -4.617  14.449 -30.103  1.00  0.00     0.034 C 
BRANCH   5   6
ATOM      6  C   UNL     1      -5.311  14.301 -28.760  1.00  0.00    -0.077 C 
ATOM      7  C   UNL     1      -6.819  14.277 -28.749  1.00  0.00     0.039 C 
ATOM      8  C   UNL     1      -4.664  14.119 -27.583  1.00  0.00    -0.023 CG0
ATOM      9  G   UNL     1      -3.166  14.126 -27.351  1.00  0.00     0.000 G0
ENDBRANCH   5   6
ENDBRANCH   4   5
ENDBRANCH   2   4
BRANCH   1  10
ATOM     10  C   UNL     1      -1.745  11.617 -29.702  1.00  0.00     0.111 C 
BRANCH  10  11
ATOM     11  C   UNL     1      -1.507  12.477 -28.489  1.00  0.00     0.163 C 
ATOM     12  O   UNL     1      -0.394  13.060 -28.384  1.00  0.00    -0.294 OA
BRANCH  11  13
ATOM     13  C   UNL     1      -2.556  12.709 -27.453  1.00  0.00    -0.002 C 
ATOM     14  C   UNL     1      -2.898  11.722 -26.570  1.00  0.00    -0.069 C 
ATOM     15  C   UNL     1      -2.346  10.320 -26.710  1.00  0.00     0.039 C 
ATOM     16  C   UNL     1      -3.838  11.972 -25.412  1.00  0.00     0.039 C 
BRANCH  13  17
ATOM     17  C   UNL     1      -3.149  14.107 -27.363  1.00  0.00     0.066 CG0
ATOM     18  G   UNL     1      -4.651  14.108 -27.562  1.00  0.00     0.000 G0
ENDBRANCH  13  17
ENDBRANCH  11  13
ENDBRANCH  10  11
ENDBRANCH   1  10
TORSDOF 0
ENDMDL
MODEL 6
REMARK VINA RESULT:    -4.318      1.709      3.171
REMARK INTER + INTRA:          -5.560
REMARK INTER:                  -6.229
REMARK INTRA:                   0.669
REMARK UNBOUND:                 0.526
REMARK SMILES CC1=CCC(=C(C)C)C(=O)CC(C)=CCC1
REMARK SMILES IDX 12 1 14 2 13 3 15 4 16 5 2 6 1 7 3 8 11 10 9 11 10 12 5 13
REMARK SMILES IDX 6 14 7 15 8 16 4 17
REMARK H PARENT
REMARK Flexibility Score: 60.00
ROOT
ATOM      1  C   UNL     1      -1.022  13.314 -28.909  1.00  0.00    -0.070 C 
ATOM      2  C   UNL     1      -0.754  13.619 -30.198  1.00  0.00    -0.027 C 
ATOM      3  C   UNL     1      -0.827  14.391 -27.873  1.00  0.00     0.039 C 
ENDROOT
BRANCH   2   4
ATOM      4  C   UNL     1      -0.977  12.710 -31.387  1.00  0.00     0.032 C 
BRANCH   4   5
ATOM      5  C   UNL     1      -2.422  12.193 -31.545  1.00  0.00     0.034 C 
BRANCH   5   6
ATOM      6  C   UNL     1      -3.465  13.293 -31.438  1.00  0.00    -0.077 C 
ATOM      7  C   UNL     1      -3.445  14.381 -32.481  1.00  0.00     0.039 C 
ATOM      8  C   UNL     1      -4.453  13.321 -30.510  1.00  0.00    -0.023 CG0
ATOM      9  G   UNL     1      -4.658  12.352 -29.363  1.00  0.00     0.000 G0
ENDBRANCH   5   6
ENDBRANCH   4   5
ENDBRANCH   2   4
BRANCH   1  10
ATOM     10  C   UNL     1      -1.593  11.979 -28.473  1.00  0.00     0.111 C 
BRANCH  10  11
ATOM     11  C   UNL     1      -2.800  12.155 -27.589  1.00  0.00     0.163 C 
ATOM     12  O   UNL     1      -2.728  11.748 -26.398  1.00  0.00    -0.294 OA
BRANCH  11  13
ATOM     13  C   UNL     1      -4.040  12.843 -28.055  1.00  0.00    -0.002 C 
ATOM     14  C   UNL     1      -4.538  13.923 -27.379  1.00  0.00    -0.069 C 
ATOM     15  C   UNL     1      -3.946  14.360 -26.057  1.00  0.00     0.039 C 
ATOM     16  C   UNL     1      -5.696  14.737 -27.910  1.00  0.00     0.039 C 
BRANCH  13  17
ATOM     17  C   UNL     1      -4.663  12.353 -29.354  1.00  0.00     0.066 CG0
ATOM     18  G   UNL     1      -4.448  13.325 -30.496  1.00  0.00     0.000 G0
ENDBRANCH  13  17
ENDBRANCH  11  13
ENDBRANCH  10  11
ENDBRANCH   1  10
TORSDOF 0
ENDMDL
MODEL 7
REMARK VINA RESULT:    -4.196      1.525      3.682
REMARK INTER + INTRA:          -5.388
REMARK INTER:                  -6.411
REMARK INTRA:                   1.023
REMARK UNBOUND:                 0.526
REMARK SMILES CC1=CCC(=C(C)C)C(=O)CC(C)=CCC1
REMARK SMILES IDX 12 1 14 2 13 3 15 4 16 5 2 6 1 7 3 8 11 10 9 11 10 12 5 13
REMARK SMILES IDX 6 14 7 15 8 16 4 17
REMARK H PARENT
REMARK Flexibility Score: 60.00
ROOT
ATOM      1  C   UNL     1      -4.574  13.842 -28.980  1.00  0.00    -0.070 C 
ATOM      2  C   UNL     1      -3.778  13.975 -27.895  1.00  0.00    -0.027 C 
ATOM      3  C   UNL     1      -6.066  13.855 -28.767  1.00  0.00     0.039 C 
ENDROOT
BRANCH   2   4
ATOM      4  C   UNL     1      -2.269  14.082 -27.914  1.00  0.00     0.032 C 
BRANCH   4   5
ATOM      5  C   UNL     1      -1.522  12.743 -27.741  1.00  0.00     0.034 C 
BRANCH   5   6
ATOM      6  C   UNL     1      -2.452  11.569 -27.487  1.00  0.00    -0.077 C 
ATOM      7  C   UNL     1      -3.124  11.486 -26.139  1.00  0.00     0.039 C 
ATOM      8  C   UNL     1      -2.770  10.632 -28.414  1.00  0.00    -0.023 CG0
ATOM      9  G   UNL     1      -2.208  10.505 -29.816  1.00  0.00     0.000 G0
ENDBRANCH   5   6
ENDBRANCH   4   5
ENDBRANCH   2   4
BRANCH   1  10
ATOM     10  C   UNL     1      -4.042  13.776 -30.397  1.00  0.00     0.111 C 
BRANCH  10  11
ATOM     11  C   UNL     1      -3.691  12.366 -30.793  1.00  0.00     0.163 C 
ATOM     12  O   UNL     1      -4.582  11.666 -31.345  1.00  0.00    -0.294 OA
BRANCH  11  13
ATOM     13  C   UNL     1      -2.322  11.800 -30.612  1.00  0.00    -0.002 C 
ATOM     14  C   UNL     1      -1.220  12.474 -31.062  1.00  0.00    -0.069 C 
ATOM     15  C   UNL     1      -1.357  13.731 -31.894  1.00  0.00     0.039 C 
ATOM     16  C   UNL     1       0.185  12.008 -30.756  1.00  0.00     0.039 C 
BRANCH  13  17
ATOM     17  C   UNL     1      -2.203  10.502 -29.827  1.00  0.00     0.066 CG0
ATOM     18  G   UNL     1      -2.760  10.626 -28.423  1.00  0.00     0.000 G0
ENDBRANCH  13  17
ENDBRANCH  11  13
ENDBRANCH  10  11
ENDBRANCH   1  10
TORSDOF 0
ENDMDL
MODEL 8
REMARK VINA RESULT:    -4.156      1.753      3.986
REMARK INTER + INTRA:          -5.331
REMARK INTER:                  -6.305
REMARK INTRA:                   0.974
REMARK UNBOUND:                 0.526
REMARK SMILES CC1=CCC(=C(C)C)C(=O)CC(C)=CCC1
REMARK SMILES IDX 12 1 14 2 13 3 15 4 16 5 2 6 1 7 3 8 11 10 9 11 10 12 5 13
REMARK SMILES IDX 6 14 7 15 8 16 4 17
REMARK H PARENT
REMARK Flexibility Score: 60.00
ROOT
ATOM      1  C   UNL     1      -4.506  13.462 -28.517  1.00  0.00    -0.070 C 
ATOM      2  C   UNL     1      -4.679  14.011 -29.740  1.00  0.00    -0.027 C 
ATOM      3  C   UNL     1      -4.649  14.359 -27.313  1.00  0.00     0.039 C 
ENDROOT
BRANCH   2   4
ATOM      4  C   UNL     1      -4.671  13.262 -31.054  1.00  0.00     0.032 C 
BRANCH   4   5
ATOM      5  C   UNL     1      -3.357  12.518 -31.368  1.00  0.00     0.034 C 
BRANCH   5   6
ATOM      6  C   UNL     1      -3.509  11.006 -31.359  1.00  0.00    -0.077 C 
ATOM      7  C   UNL     1      -4.626  10.410 -32.179  1.00  0.00     0.039 C 
ATOM      8  C   UNL     1      -2.666  10.158 -30.721  1.00  0.00    -0.023 CG0
ATOM      9  G   UNL     1      -1.497  10.528 -29.831  1.00  0.00     0.000 G0
ENDBRANCH   5   6
ENDBRANCH   4   5
ENDBRANCH   2   4
BRANCH   1  10
ATOM     10  C   UNL     1      -4.270  11.982 -28.297  1.00  0.00     0.111 C 
BRANCH  10  11
ATOM     11  C   UNL     1      -2.829  11.693 -27.966  1.00  0.00     0.163 C 
ATOM     12  O   UNL     1      -2.550  11.335 -26.790  1.00  0.00    -0.294 OA
BRANCH  11  13
ATOM     13  C   UNL     1      -1.744  11.756 -28.989  1.00  0.00    -0.002 C 
ATOM     14  C   UNL     1      -0.959  12.869 -29.110  1.00  0.00    -0.069 C 
ATOM     15  C   UNL     1      -1.260  14.128 -28.327  1.00  0.00     0.039 C 
ATOM     16  C   UNL     1       0.246  12.905 -30.023  1.00  0.00     0.039 C 
BRANCH  13  17
ATOM     17  C   UNL     1      -1.492  10.503 -29.814  1.00  0.00     0.066 CG0
ATOM     18  G   UNL     1      -2.665  10.158 -30.709  1.00  0.00     0.000 G0
ENDBRANCH  13  17
ENDBRANCH  11  13
ENDBRANCH  10  11
ENDBRANCH   1  10
TORSDOF 0
ENDMDL
MODEL 9
REMARK VINA RESULT:    -4.042      1.558      3.330
REMARK INTER + INTRA:          -5.170
REMARK INTER:                  -5.881
REMARK INTRA:                   0.711
REMARK UNBOUND:                 0.526
REMARK SMILES CC1=CCC(=C(C)C)C(=O)CC(C)=CCC1
REMARK SMILES IDX 12 1 14 2 13 3 15 4 16 5 2 6 1 7 3 8 11 10 9 11 10 12 5 13
REMARK SMILES IDX 6 14 7 15 8 16 4 17
REMARK H PARENT
REMARK Flexibility Score: 60.00
ROOT
ATOM      1  C   UNL     1      -0.862  12.703 -30.778  1.00  0.00    -0.070 C 
ATOM      2  C   UNL     1      -0.552  12.582 -29.468  1.00  0.00    -0.027 C 
ATOM      3  C   UNL     1      -0.157  11.799 -31.757  1.00  0.00     0.039 C 
ENDROOT
BRANCH   2   4
ATOM      4  C   UNL     1      -1.216  13.327 -28.331  1.00  0.00     0.032 C 
BRANCH   4   5
ATOM      5  C   UNL     1      -1.980  12.434 -27.331  1.00  0.00     0.034 C 
BRANCH   5   6
ATOM      6  C   UNL     1      -2.948  11.476 -28.004  1.00  0.00    -0.077 C 
ATOM      7  C   UNL     1      -2.659   9.999 -27.899  1.00  0.00     0.039 C 
ATOM      8  C   UNL     1      -4.088  11.858 -28.631  1.00  0.00    -0.023 CG0
ATOM      9  G   UNL     1      -4.569  13.274 -28.872  1.00  0.00     0.000 G0
ENDBRANCH   5   6
ENDBRANCH   4   5
ENDBRANCH   2   4
BRANCH   1  10
ATOM     10  C   UNL     1      -1.943  13.631 -31.294  1.00  0.00     0.111 C 
BRANCH  10  11
ATOM     11  C   UNL     1      -3.315  13.034 -31.120  1.00  0.00     0.163 C 
ATOM     12  O   UNL     1      -3.537  11.899 -31.621  1.00  0.00    -0.294 OA
BRANCH  11  13
ATOM     13  C   UNL     1      -4.388  13.708 -30.331  1.00  0.00    -0.002 C 
ATOM     14  C   UNL     1      -5.230  14.609 -30.921  1.00  0.00    -0.069 C 
ATOM     15  C   UNL     1      -5.009  15.073 -32.345  1.00  0.00     0.039 C 
ATOM     16  C   UNL     1      -6.423  15.189 -30.193  1.00  0.00     0.039 C 
BRANCH  13  17
ATOM     17  C   UNL     1      -4.560  13.279 -28.882  1.00  0.00     0.066 CG0
ATOM     18  G   UNL     1      -4.088  11.859 -28.642  1.00  0.00     0.000 G0
ENDBRANCH  13  17
ENDBRANCH  11  13
ENDBRANCH  10  11
ENDBRANCH   1  10
TORSDOF 0
ENDMDL
