MODEL 1
REMARK VINA RESULT:    -5.829      0.000      0.000
REMARK INTER + INTRA:          -6.433
REMARK INTER:                  -6.341
REMARK INTRA:                  -0.092
REMARK UNBOUND:                -0.092
REMARK SMILES C=C(C)[C@H]1CC=C(C)[C@@H](O)C1
REMARK SMILES IDX 8 1 7 2 6 3 5 4 4 5 11 6 9 7 10 8 2 10 1 11 3 12
REMARK H PARENT 10 9
REMARK Flexibility Score: inf
ROOT
ATOM      1  C   UNL     1     135.966 124.463 144.410  1.00  0.00     0.042 C 
ATOM      2  C   UNL     1     136.077 124.169 142.937  1.00  0.00    -0.049 C 
ATOM      3  C   UNL     1     137.083 123.374 142.513  1.00  0.00    -0.025 C 
ATOM      4  C   UNL     1     137.294 123.016 141.063  1.00  0.00     0.035 C 
ATOM      5  C   UNL     1     135.991 123.121 140.251  1.00  0.00     0.021 C 
ATOM      6  C   UNL     1     135.335 124.487 140.506  1.00  0.00     0.044 C 
ATOM      7  C   UNL     1     134.973 124.641 141.995  1.00  0.00     0.140 C 
ENDROOT
BRANCH   7   8
ATOM      8  O   UNL     1     134.618 125.975 142.265  1.00  0.00    -0.389 OA
ATOM      9  H   UNL     1     134.292 126.012 143.203  1.00  0.00     0.211 HD
ENDBRANCH   7   8
BRANCH   5  10
ATOM     10  C   UNL     1     136.234 122.877 138.768  1.00  0.00    -0.077 C 
ATOM     11  C   UNL     1     135.332 122.233 138.007  1.00  0.00     0.008 C 
ATOM     12  C   UNL     1     137.510 123.356 138.123  1.00  0.00     0.039 C 
ENDBRANCH   5  10
TORSDOF 2
ENDMDL
MODEL 2
REMARK VINA RESULT:    -5.752      2.042      4.380
REMARK INTER + INTRA:          -6.348
REMARK INTER:                  -6.254
REMARK INTRA:                  -0.094
REMARK UNBOUND:                -0.092
REMARK SMILES C=C(C)[C@H]1CC=C(C)[C@@H](O)C1
REMARK SMILES IDX 8 1 7 2 6 3 5 4 4 5 11 6 9 7 10 8 2 10 1 11 3 12
REMARK H PARENT 10 9
REMARK Flexibility Score: inf
ROOT
ATOM      1  C   UNL     1     137.387 122.916 137.355  1.00  0.00     0.042 C 
ATOM      2  C   UNL     1     136.665 123.032 138.672  1.00  0.00    -0.049 C 
ATOM      3  C   UNL     1     137.392 123.005 139.810  1.00  0.00    -0.025 C 
ATOM      4  C   UNL     1     136.776 123.110 141.183  1.00  0.00     0.035 C 
ATOM      5  C   UNL     1     135.414 123.825 141.148  1.00  0.00     0.021 C 
ATOM      6  C   UNL     1     134.525 123.184 140.072  1.00  0.00     0.044 C 
ATOM      7  C   UNL     1     135.169 123.333 138.681  1.00  0.00     0.140 C 
ENDROOT
BRANCH   7   8
ATOM      8  O   UNL     1     134.489 122.529 137.749  1.00  0.00    -0.389 OA
ATOM      9  H   UNL     1     133.664 123.012 137.484  1.00  0.00     0.211 HD
ENDBRANCH   7   8
BRANCH   5  10
ATOM     10  C   UNL     1     134.743 123.819 142.514  1.00  0.00    -0.077 C 
ATOM     11  C   UNL     1     133.539 123.251 142.701  1.00  0.00     0.008 C 
ATOM     12  C   UNL     1     135.425 124.465 143.694  1.00  0.00     0.039 C 
ENDBRANCH   5  10
TORSDOF 2
ENDMDL
MODEL 3
REMARK VINA RESULT:    -5.648      2.079      4.492
REMARK INTER + INTRA:          -6.235
REMARK INTER:                  -6.148
REMARK INTRA:                  -0.087
REMARK UNBOUND:                -0.092
REMARK SMILES C=C(C)[C@H]1CC=C(C)[C@@H](O)C1
REMARK SMILES IDX 8 1 7 2 6 3 5 4 4 5 11 6 9 7 10 8 2 10 1 11 3 12
REMARK H PARENT 10 9
REMARK Flexibility Score: inf
ROOT
ATOM      1  C   UNL     1     138.378 123.363 137.759  1.00  0.00     0.042 C 
ATOM      2  C   UNL     1     137.551 123.522 139.008  1.00  0.00    -0.049 C 
ATOM      3  C   UNL     1     136.346 124.122 138.912  1.00  0.00    -0.025 C 
ATOM      4  C   UNL     1     135.437 124.338 140.096  1.00  0.00     0.035 C 
ATOM      5  C   UNL     1     135.715 123.328 141.224  1.00  0.00     0.021 C 
ATOM      6  C   UNL     1     137.218 123.311 141.540  1.00  0.00     0.044 C 
ATOM      7  C   UNL     1     138.023 122.867 140.304  1.00  0.00     0.140 C 
ENDROOT
BRANCH   7   8
ATOM      8  O   UNL     1     139.393 123.101 140.515  1.00  0.00    -0.389 OA
ATOM      9  H   UNL     1     139.504 124.069 140.708  1.00  0.00     0.211 HD
ENDBRANCH   7   8
BRANCH   5  10
ATOM     10  C   UNL     1     134.879 123.627 142.461  1.00  0.00    -0.077 C 
ATOM     11  C   UNL     1     133.618 123.179 142.579  1.00  0.00     0.008 C 
ATOM     12  C   UNL     1     135.461 124.446 143.586  1.00  0.00     0.039 C 
ENDBRANCH   5  10
TORSDOF 2
ENDMDL
MODEL 4
REMARK VINA RESULT:    -5.627      1.605      2.600
REMARK INTER + INTRA:          -6.212
REMARK INTER:                  -6.119
REMARK INTRA:                  -0.093
REMARK UNBOUND:                -0.092
REMARK SMILES C=C(C)[C@H]1CC=C(C)[C@@H](O)C1
REMARK SMILES IDX 8 1 7 2 6 3 5 4 4 5 11 6 9 7 10 8 2 10 1 11 3 12
REMARK H PARENT 10 9
REMARK Flexibility Score: inf
ROOT
ATOM      1  C   UNL     1     132.478 123.395 142.613  1.00  0.00     0.042 C 
ATOM      2  C   UNL     1     133.866 123.288 142.036  1.00  0.00    -0.049 C 
ATOM      3  C   UNL     1     134.070 122.447 140.999  1.00  0.00    -0.025 C 
ATOM      4  C   UNL     1     135.415 122.257 140.345  1.00  0.00     0.035 C 
ATOM      5  C   UNL     1     136.328 123.481 140.545  1.00  0.00     0.021 C 
ATOM      6  C   UNL     1     136.364 123.858 142.034  1.00  0.00     0.044 C 
ATOM      7  C   UNL     1     134.955 124.238 142.527  1.00  0.00     0.140 C 
ENDROOT
BRANCH   7   8
ATOM      8  O   UNL     1     134.948 124.328 143.930  1.00  0.00    -0.389 OA
ATOM      9  H   UNL     1     134.752 123.422 144.286  1.00  0.00     0.211 HD
ENDBRANCH   7   8
BRANCH   5  10
ATOM     10  C   UNL     1     137.724 123.235 139.989  1.00  0.00    -0.077 C 
ATOM     11  C   UNL     1     138.766 122.985 140.800  1.00  0.00     0.008 C 
ATOM     12  C   UNL     1     137.962 123.274 138.501  1.00  0.00     0.039 C 
ENDBRANCH   5  10
TORSDOF 2
ENDMDL
MODEL 5
REMARK VINA RESULT:    -5.345      0.803      1.353
REMARK INTER + INTRA:          -5.906
REMARK INTER:                  -5.811
REMARK INTRA:                  -0.095
REMARK UNBOUND:                -0.092
REMARK SMILES C=C(C)[C@H]1CC=C(C)[C@@H](O)C1
REMARK SMILES IDX 8 1 7 2 6 3 5 4 4 5 11 6 9 7 10 8 2 10 1 11 3 12
REMARK H PARENT 10 9
REMARK Flexibility Score: inf
ROOT
ATOM      1  C   UNL     1     135.799 125.053 145.107  1.00  0.00     0.042 C 
ATOM      2  C   UNL     1     135.991 124.630 143.675  1.00  0.00    -0.049 C 
ATOM      3  C   UNL     1     137.026 123.814 143.377  1.00  0.00    -0.025 C 
ATOM      4  C   UNL     1     137.317 123.330 141.978  1.00  0.00     0.035 C 
ATOM      5  C   UNL     1     136.058 123.343 141.094  1.00  0.00     0.021 C 
ATOM      6  C   UNL     1     135.376 124.716 141.189  1.00  0.00     0.044 C 
ATOM      7  C   UNL     1     134.935 124.999 142.638  1.00  0.00     0.140 C 
ENDROOT
BRANCH   7   8
ATOM      8  O   UNL     1     134.552 126.346 142.767  1.00  0.00    -0.389 OA
ATOM      9  H   UNL     1     134.283 126.490 143.712  1.00  0.00     0.211 HD
ENDBRANCH   7   8
BRANCH   5  10
ATOM     10  C   UNL     1     136.382 122.970 139.653  1.00  0.00    -0.077 C 
ATOM     11  C   UNL     1     137.577 123.254 139.109  1.00  0.00     0.008 C 
ATOM     12  C   UNL     1     135.350 122.273 138.803  1.00  0.00     0.039 C 
ENDBRANCH   5  10
TORSDOF 2
ENDMDL
MODEL 6
REMARK VINA RESULT:    -5.315      1.795      4.595
REMARK INTER + INTRA:          -5.873
REMARK INTER:                  -5.777
REMARK INTRA:                  -0.095
REMARK UNBOUND:                -0.092
REMARK SMILES C=C(C)[C@H]1CC=C(C)[C@@H](O)C1
REMARK SMILES IDX 8 1 7 2 6 3 5 4 4 5 11 6 9 7 10 8 2 10 1 11 3 12
REMARK H PARENT 10 9
REMARK Flexibility Score: inf
ROOT
ATOM      1  C   UNL     1     135.304 122.019 139.391  1.00  0.00     0.042 C 
ATOM      2  C   UNL     1     135.488 122.693 140.726  1.00  0.00    -0.049 C 
ATOM      3  C   UNL     1     136.743 122.966 141.143  1.00  0.00    -0.025 C 
ATOM      4  C   UNL     1     137.046 123.633 142.461  1.00  0.00     0.035 C 
ATOM      5  C   UNL     1     135.860 124.475 142.963  1.00  0.00     0.021 C 
ATOM      6  C   UNL     1     134.579 123.628 142.930  1.00  0.00     0.044 C 
ATOM      7  C   UNL     1     134.262 123.186 141.489  1.00  0.00     0.140 C 
ENDROOT
BRANCH   7   8
ATOM      8  O   UNL     1     133.251 122.210 141.500  1.00  0.00    -0.389 OA
ATOM      9  H   UNL     1     133.156 121.889 142.435  1.00  0.00     0.211 HD
ENDBRANCH   7   8
BRANCH   5  10
ATOM     10  C   UNL     1     136.126 125.046 144.349  1.00  0.00    -0.077 C 
ATOM     11  C   UNL     1     136.977 124.448 145.201  1.00  0.00     0.008 C 
ATOM     12  C   UNL     1     135.426 126.304 144.796  1.00  0.00     0.039 C 
ENDBRANCH   5  10
TORSDOF 2
ENDMDL
MODEL 7
REMARK VINA RESULT:    -5.164      1.977      5.077
REMARK INTER + INTRA:          -5.709
REMARK INTER:                  -5.613
REMARK INTRA:                  -0.096
REMARK UNBOUND:                -0.092
REMARK SMILES C=C(C)[C@H]1CC=C(C)[C@@H](O)C1
REMARK SMILES IDX 8 1 7 2 6 3 5 4 4 5 11 6 9 7 10 8 2 10 1 11 3 12
REMARK H PARENT 10 9
REMARK Flexibility Score: inf
ROOT
ATOM      1  C   UNL     1     135.498 122.473 139.971  1.00  0.00     0.042 C 
ATOM      2  C   UNL     1     135.708 123.340 141.185  1.00  0.00    -0.049 C 
ATOM      3  C   UNL     1     134.827 124.334 141.429  1.00  0.00    -0.025 C 
ATOM      4  C   UNL     1     134.940 125.264 142.611  1.00  0.00     0.035 C 
ATOM      5  C   UNL     1     135.735 124.629 143.765  1.00  0.00     0.021 C 
ATOM      6  C   UNL     1     137.064 124.074 143.231  1.00  0.00     0.044 C 
ATOM      7  C   UNL     1     136.806 122.977 142.181  1.00  0.00     0.140 C 
ENDROOT
BRANCH   7   8
ATOM      8  O   UNL     1     138.004 122.661 141.516  1.00  0.00    -0.389 OA
ATOM      9  H   UNL     1     138.556 123.486 141.488  1.00  0.00     0.211 HD
ENDBRANCH   7   8
BRANCH   5  10
ATOM     10  C   UNL     1     135.950 125.615 144.905  1.00  0.00    -0.077 C 
ATOM     11  C   UNL     1     135.381 126.833 144.895  1.00  0.00     0.008 C 
ATOM     12  C   UNL     1     136.822 125.238 146.076  1.00  0.00     0.039 C 
ENDBRANCH   5  10
TORSDOF 2
ENDMDL
MODEL 8
REMARK VINA RESULT:    -5.056      1.550      2.125
REMARK INTER + INTRA:          -5.592
REMARK INTER:                  -5.495
REMARK INTRA:                  -0.096
REMARK UNBOUND:                -0.092
REMARK SMILES C=C(C)[C@H]1CC=C(C)[C@@H](O)C1
REMARK SMILES IDX 8 1 7 2 6 3 5 4 4 5 11 6 9 7 10 8 2 10 1 11 3 12
REMARK H PARENT 10 9
REMARK Flexibility Score: inf
ROOT
ATOM      1  C   UNL     1     135.260 124.527 143.748  1.00  0.00     0.042 C 
ATOM      2  C   UNL     1     135.453 124.029 142.340  1.00  0.00    -0.049 C 
ATOM      3  C   UNL     1     134.392 124.027 141.505  1.00  0.00    -0.025 C 
ATOM      4  C   UNL     1     134.468 123.548 140.077  1.00  0.00     0.035 C 
ATOM      5  C   UNL     1     135.898 123.643 139.516  1.00  0.00     0.021 C 
ATOM      6  C   UNL     1     136.878 122.973 140.491  1.00  0.00     0.044 C 
ATOM      7  C   UNL     1     136.860 123.693 141.852  1.00  0.00     0.140 C 
ENDROOT
BRANCH   7   8
ATOM      8  O   UNL     1     137.553 122.929 142.807  1.00  0.00    -0.389 OA
ATOM      9  H   UNL     1     138.516 122.951 142.565  1.00  0.00     0.211 HD
ENDBRANCH   7   8
BRANCH   5  10
ATOM     10  C   UNL     1     135.992 123.045 138.119  1.00  0.00    -0.077 C 
ATOM     11  C   UNL     1     134.894 122.652 137.450  1.00  0.00     0.008 C 
ATOM     12  C   UNL     1     137.336 122.878 137.457  1.00  0.00     0.039 C 
ENDBRANCH   5  10
TORSDOF 2
ENDMDL
MODEL 9
REMARK VINA RESULT:    -4.847      1.744      2.581
REMARK INTER + INTRA:          -5.364
REMARK INTER:                  -5.270
REMARK INTRA:                  -0.094
REMARK UNBOUND:                -0.092
REMARK SMILES C=C(C)[C@H]1CC=C(C)[C@@H](O)C1
REMARK SMILES IDX 8 1 7 2 6 3 5 4 4 5 11 6 9 7 10 8 2 10 1 11 3 12
REMARK H PARENT 10 9
REMARK Flexibility Score: inf
ROOT
ATOM      1  C   UNL     1     135.758 126.163 145.248  1.00  0.00     0.042 C 
ATOM      2  C   UNL     1     135.787 125.235 144.061  1.00  0.00    -0.049 C 
ATOM      3  C   UNL     1     134.720 125.214 143.233  1.00  0.00    -0.025 C 
ATOM      4  C   UNL     1     134.638 124.323 142.019  1.00  0.00     0.035 C 
ATOM      5  C   UNL     1     136.033 123.931 141.500  1.00  0.00     0.021 C 
ATOM      6  C   UNL     1     136.880 123.389 142.661  1.00  0.00     0.044 C 
ATOM      7  C   UNL     1     137.068 124.470 143.741  1.00  0.00     0.140 C 
ENDROOT
BRANCH   7   8
ATOM      8  O   UNL     1     137.614 123.896 144.903  1.00  0.00    -0.389 OA
ATOM      9  H   UNL     1     137.910 124.639 145.492  1.00  0.00     0.211 HD
ENDBRANCH   7   8
BRANCH   5  10
ATOM     10  C   UNL     1     135.944 122.936 140.351  1.00  0.00    -0.077 C 
ATOM     11  C   UNL     1     135.035 121.946 140.351  1.00  0.00     0.008 C 
ATOM     12  C   UNL     1     136.890 123.045 139.182  1.00  0.00     0.039 C 
ENDBRANCH   5  10
TORSDOF 2
ENDMDL
