MODEL 1
REMARK VINA RESULT:    -3.700      0.000      0.000
REMARK INTER + INTRA:          -7.925
REMARK INTER:                  -6.296
REMARK INTRA:                  -1.629
REMARK UNBOUND:                -1.629
REMARK SMILES CCCCCCCCCCCCCC(=O)[O-]
REMARK SMILES IDX 8 1 9 2 10 3 11 4 12 5 13 6 14 7 15 8 16 9 7 10 6 11 5 12
REMARK SMILES IDX 4 13 3 14 2 15 1 16
REMARK H PARENT
REMARK Flexibility Score: inf
ROOT
ATOM      1  C   UNL     1      -0.548   8.645  36.539  1.00  0.00     0.000 C 
ENDROOT
BRANCH   1   2
ATOM      2  C   UNL     1      -1.546   9.635  37.169  1.00  0.00     0.000 C 
BRANCH   2   3
ATOM      3  C   UNL     1      -1.853   9.388  38.659  1.00  0.00     0.000 C 
BRANCH   3   4
ATOM      4  C   UNL     1      -1.526   7.970  39.170  1.00  0.00     0.000 C 
BRANCH   4   5
ATOM      5  C   UNL     1      -2.643   7.303  39.991  1.00  0.00     0.006 C 
BRANCH   5   6
ATOM      6  C   UNL     1      -3.112   5.973  39.388  1.00  0.00     0.053 C 
BRANCH   6   7
ATOM      7  C   UNL     1      -2.026   4.949  39.474  1.00  0.00     0.041 C 
ATOM      8  O   UNL     1      -1.750   4.409  40.578  1.00  0.00    -0.550 OA
ATOM      9  O   UNL     1      -1.349   4.553  38.327  1.00  0.00    -0.550 OA
ENDBRANCH   6   7
ENDBRANCH   5   6
ENDBRANCH   4   5
ENDBRANCH   3   4
ENDBRANCH   2   3
ENDBRANCH   1   2
BRANCH   1  10
ATOM     10  C   UNL     1       0.860   9.236  36.382  1.00  0.00     0.000 C 
BRANCH  10  11
ATOM     11  C   UNL     1       1.930   8.227  36.824  1.00  0.00    -0.000 C 
BRANCH  11  12
ATOM     12  C   UNL     1       2.267   8.341  38.319  1.00  0.00    -0.000 C 
BRANCH  12  13
ATOM     13  C   UNL     1       2.242   9.794  38.823  1.00  0.00    -0.000 C 
BRANCH  13  14
ATOM     14  C   UNL     1       1.463   9.957  40.140  1.00  0.00    -0.000 C 
BRANCH  14  15
ATOM     15  C   UNL     1       1.366   8.678  40.993  1.00  0.00    -0.003 C 
ATOM     16  C   UNL     1       0.724   8.918  42.359  1.00  0.00     0.004 C 
ENDBRANCH  14  15
ENDBRANCH  13  14
ENDBRANCH  12  13
ENDBRANCH  11  12
ENDBRANCH  10  11
ENDBRANCH   1  10
TORSDOF 12
ENDMDL
MODEL 2
REMARK VINA RESULT:    -3.690      1.981      2.741
REMARK INTER + INTRA:          -7.909
REMARK INTER:                  -6.002
REMARK INTRA:                  -1.907
REMARK UNBOUND:                -1.629
REMARK SMILES CCCCCCCCCCCCCC(=O)[O-]
REMARK SMILES IDX 8 1 9 2 10 3 11 4 12 5 13 6 14 7 15 8 16 9 7 10 6 11 5 12
REMARK SMILES IDX 4 13 3 14 2 15 1 16
REMARK H PARENT
REMARK Flexibility Score: inf
ROOT
ATOM      1  C   UNL     1      -0.054   9.190  36.176  1.00  0.00     0.000 C 
ENDROOT
BRANCH   1   2
ATOM      2  C   UNL     1      -1.376   9.933  36.440  1.00  0.00     0.000 C 
BRANCH   2   3
ATOM      3  C   UNL     1      -1.861   9.899  37.902  1.00  0.00     0.000 C 
BRANCH   3   4
ATOM      4  C   UNL     1      -1.514   8.613  38.679  1.00  0.00     0.000 C 
BRANCH   4   5
ATOM      5  C   UNL     1      -2.530   8.217  39.765  1.00  0.00     0.006 C 
BRANCH   5   6
ATOM      6  C   UNL     1      -2.128   6.946  40.523  1.00  0.00     0.053 C 
BRANCH   6   7
ATOM      7  C   UNL     1      -1.563   7.294  41.863  1.00  0.00     0.041 C 
ATOM      8  O   UNL     1      -0.324   7.206  42.071  1.00  0.00    -0.550 OA
ATOM      9  O   UNL     1      -2.397   7.763  42.870  1.00  0.00    -0.550 OA
ENDBRANCH   6   7
ENDBRANCH   5   6
ENDBRANCH   4   5
ENDBRANCH   3   4
ENDBRANCH   2   3
ENDBRANCH   1   2
BRANCH   1  10
ATOM     10  C   UNL     1       1.164  10.124  36.169  1.00  0.00     0.000 C 
BRANCH  10  11
ATOM     11  C   UNL     1       2.244   9.625  37.141  1.00  0.00    -0.000 C 
BRANCH  11  12
ATOM     12  C   UNL     1       1.929   9.974  38.604  1.00  0.00    -0.000 C 
BRANCH  12  13
ATOM     13  C   UNL     1       1.907   8.735  39.517  1.00  0.00    -0.000 C 
BRANCH  13  14
ATOM     14  C   UNL     1       2.254   7.436  38.768  1.00  0.00    -0.000 C 
BRANCH  14  15
ATOM     15  C   UNL     1       1.265   6.278  38.996  1.00  0.00    -0.003 C 
ATOM     16  C   UNL     1       0.606   5.793  37.705  1.00  0.00     0.004 C 
ENDBRANCH  14  15
ENDBRANCH  13  14
ENDBRANCH  12  13
ENDBRANCH  11  12
ENDBRANCH  10  11
ENDBRANCH   1  10
TORSDOF 12
ENDMDL
MODEL 3
REMARK VINA RESULT:    -3.561      2.570      4.695
REMARK INTER + INTRA:          -7.688
REMARK INTER:                  -5.833
REMARK INTRA:                  -1.856
REMARK UNBOUND:                -1.629
REMARK SMILES CCCCCCCCCCCCCC(=O)[O-]
REMARK SMILES IDX 8 1 9 2 10 3 11 4 12 5 13 6 14 7 15 8 16 9 7 10 6 11 5 12
REMARK SMILES IDX 4 13 3 14 2 15 1 16
REMARK H PARENT
REMARK Flexibility Score: inf
ROOT
ATOM      1  C   UNL     1      -1.337   9.381  36.492  1.00  0.00     0.000 C 
ENDROOT
BRANCH   1   2
ATOM      2  C   UNL     1       0.010   9.984  36.050  1.00  0.00     0.000 C 
BRANCH   2   3
ATOM      3  C   UNL     1       1.049   8.959  35.556  1.00  0.00     0.000 C 
BRANCH   3   4
ATOM      4  C   UNL     1       1.105   7.642  36.356  1.00  0.00     0.000 C 
BRANCH   4   5
ATOM      5  C   UNL     1       2.173   7.601  37.463  1.00  0.00     0.006 C 
BRANCH   5   6
ATOM      6  C   UNL     1       2.176   6.278  38.239  1.00  0.00     0.053 C 
BRANCH   6   7
ATOM      7  C   UNL     1       3.340   5.434  37.828  1.00  0.00     0.041 C 
ATOM      8  O   UNL     1       3.986   4.781  38.690  1.00  0.00    -0.550 OA
ATOM      9  O   UNL     1       3.685   5.328  36.486  1.00  0.00    -0.550 OA
ENDBRANCH   6   7
ENDBRANCH   5   6
ENDBRANCH   4   5
ENDBRANCH   3   4
ENDBRANCH   2   3
ENDBRANCH   1   2
BRANCH   1  10
ATOM     10  C   UNL     1      -1.834   9.948  37.829  1.00  0.00     0.000 C 
BRANCH  10  11
ATOM     11  C   UNL     1      -0.816   9.686  38.948  1.00  0.00    -0.000 C 
BRANCH  11  12
ATOM     12  C   UNL     1      -0.904   8.256  39.504  1.00  0.00    -0.000 C 
BRANCH  12  13
ATOM     13  C   UNL     1      -2.346   7.841  39.845  1.00  0.00    -0.000 C 
BRANCH  13  14
ATOM     14  C   UNL     1      -2.664   6.394  39.430  1.00  0.00    -0.000 C 
BRANCH  14  15
ATOM     15  C   UNL     1      -1.488   5.633  38.791  1.00  0.00    -0.003 C 
ATOM     16  C   UNL     1      -1.686   5.375  37.297  1.00  0.00     0.004 C 
ENDBRANCH  14  15
ENDBRANCH  13  14
ENDBRANCH  12  13
ENDBRANCH  11  12
ENDBRANCH  10  11
ENDBRANCH   1  10
TORSDOF 12
ENDMDL
MODEL 4
REMARK VINA RESULT:    -3.553      2.021      3.484
REMARK INTER + INTRA:          -7.675
REMARK INTER:                  -5.788
REMARK INTRA:                  -1.887
REMARK UNBOUND:                -1.629
REMARK SMILES CCCCCCCCCCCCCC(=O)[O-]
REMARK SMILES IDX 8 1 9 2 10 3 11 4 12 5 13 6 14 7 15 8 16 9 7 10 6 11 5 12
REMARK SMILES IDX 4 13 3 14 2 15 1 16
REMARK H PARENT
REMARK Flexibility Score: inf
ROOT
ATOM      1  C   UNL     1       0.556   5.881  37.709  1.00  0.00     0.000 C 
ENDROOT
BRANCH   1   2
ATOM      2  C   UNL     1      -0.859   6.411  38.005  1.00  0.00     0.000 C 
BRANCH   2   3
ATOM      3  C   UNL     1      -1.732   5.484  38.872  1.00  0.00     0.000 C 
BRANCH   3   4
ATOM      4  C   UNL     1      -2.936   6.166  39.553  1.00  0.00     0.000 C 
BRANCH   4   5
ATOM      5  C   UNL     1      -2.622   7.512  40.230  1.00  0.00     0.006 C 
BRANCH   5   6
ATOM      6  C   UNL     1      -2.286   7.365  41.720  1.00  0.00     0.053 C 
BRANCH   6   7
ATOM      7  C   UNL     1      -0.806   7.414  41.928  1.00  0.00     0.041 C 
ATOM      8  O   UNL     1      -0.125   6.355  41.890  1.00  0.00    -0.550 OA
ATOM      9  O   UNL     1      -0.169   8.634  42.115  1.00  0.00    -0.550 OA
ENDBRANCH   6   7
ENDBRANCH   5   6
ENDBRANCH   4   5
ENDBRANCH   3   4
ENDBRANCH   2   3
ENDBRANCH   1   2
BRANCH   1  10
ATOM     10  C   UNL     1       1.603   6.378  38.717  1.00  0.00     0.000 C 
BRANCH  10  11
ATOM     11  C   UNL     1       1.397   7.868  39.031  1.00  0.00    -0.000 C 
BRANCH  11  12
ATOM     12  C   UNL     1       1.862   8.782  37.887  1.00  0.00    -0.000 C 
BRANCH  12  13
ATOM     13  C   UNL     1       0.984  10.036  37.736  1.00  0.00    -0.000 C 
BRANCH  13  14
ATOM     14  C   UNL     1      -0.259  10.007  38.644  1.00  0.00    -0.000 C 
BRANCH  14  15
ATOM     15  C   UNL     1      -1.602  10.125  37.901  1.00  0.00    -0.003 C 
ATOM     16  C   UNL     1      -1.498   9.766  36.418  1.00  0.00     0.004 C 
ENDBRANCH  14  15
ENDBRANCH  13  14
ENDBRANCH  12  13
ENDBRANCH  11  12
ENDBRANCH  10  11
ENDBRANCH   1  10
TORSDOF 12
ENDMDL
MODEL 5
REMARK VINA RESULT:    -3.506      2.214      4.131
REMARK INTER + INTRA:          -7.595
REMARK INTER:                  -5.916
REMARK INTRA:                  -1.679
REMARK UNBOUND:                -1.629
REMARK SMILES CCCCCCCCCCCCCC(=O)[O-]
REMARK SMILES IDX 8 1 9 2 10 3 11 4 12 5 13 6 14 7 15 8 16 9 7 10 6 11 5 12
REMARK SMILES IDX 4 13 3 14 2 15 1 16
REMARK H PARENT
REMARK Flexibility Score: inf
ROOT
ATOM      1  C   UNL     1      -0.379   9.081  36.343  1.00  0.00     0.000 C 
ENDROOT
BRANCH   1   2
ATOM      2  C   UNL     1       0.913   9.782  35.885  1.00  0.00     0.000 C 
BRANCH   2   3
ATOM      3  C   UNL     1       2.181   9.383  36.665  1.00  0.00     0.000 C 
BRANCH   3   4
ATOM      4  C   UNL     1       2.025   9.355  38.199  1.00  0.00     0.000 C 
BRANCH   4   5
ATOM      5  C   UNL     1       2.379   8.012  38.862  1.00  0.00     0.006 C 
BRANCH   5   6
ATOM      6  C   UNL     1       1.809   6.806  38.106  1.00  0.00     0.053 C 
BRANCH   6   7
ATOM      7  C   UNL     1       2.906   5.867  37.717  1.00  0.00     0.041 C 
ATOM      8  O   UNL     1       3.460   5.145  38.588  1.00  0.00    -0.550 OA
ATOM      9  O   UNL     1       3.285   5.751  36.386  1.00  0.00    -0.550 OA
ENDBRANCH   6   7
ENDBRANCH   5   6
ENDBRANCH   4   5
ENDBRANCH   3   4
ENDBRANCH   2   3
ENDBRANCH   1   2
BRANCH   1  10
ATOM     10  C   UNL     1      -1.454  10.066  36.826  1.00  0.00     0.000 C 
BRANCH  10  11
ATOM     11  C   UNL     1      -1.872   9.757  38.271  1.00  0.00    -0.000 C 
BRANCH  11  12
ATOM     12  C   UNL     1      -1.526   8.320  38.691  1.00  0.00    -0.000 C 
BRANCH  12  13
ATOM     13  C   UNL     1      -2.500   7.759  39.741  1.00  0.00    -0.000 C 
BRANCH  13  14
ATOM     14  C   UNL     1      -1.899   7.731  41.158  1.00  0.00    -0.000 C 
BRANCH  14  15
ATOM     15  C   UNL     1      -0.376   7.510  41.207  1.00  0.00    -0.003 C 
ATOM     16  C   UNL     1       0.361   8.601  41.985  1.00  0.00     0.004 C 
ENDBRANCH  14  15
ENDBRANCH  13  14
ENDBRANCH  12  13
ENDBRANCH  11  12
ENDBRANCH  10  11
ENDBRANCH   1  10
TORSDOF 12
ENDMDL
MODEL 6
REMARK VINA RESULT:    -3.479      2.348      4.432
REMARK INTER + INTRA:          -7.549
REMARK INTER:                  -5.423
REMARK INTRA:                  -2.127
REMARK UNBOUND:                -1.629
REMARK SMILES CCCCCCCCCCCCCC(=O)[O-]
REMARK SMILES IDX 8 1 9 2 10 3 11 4 12 5 13 6 14 7 15 8 16 9 7 10 6 11 5 12
REMARK SMILES IDX 4 13 3 14 2 15 1 16
REMARK H PARENT
REMARK Flexibility Score: inf
ROOT
ATOM      1  C   UNL     1      -2.070   7.599  40.681  1.00  0.00     0.000 C 
ENDROOT
BRANCH   1   2
ATOM      2  C   UNL     1      -2.796   6.619  39.742  1.00  0.00     0.000 C 
BRANCH   2   3
ATOM      3  C   UNL     1      -1.954   5.411  39.285  1.00  0.00     0.000 C 
BRANCH   3   4
ATOM      4  C   UNL     1      -1.484   5.457  37.817  1.00  0.00     0.000 C 
BRANCH   4   5
ATOM      5  C   UNL     1       0.042   5.422  37.623  1.00  0.00     0.006 C 
BRANCH   5   6
ATOM      6  C   UNL     1       0.456   5.463  36.147  1.00  0.00     0.053 C 
BRANCH   6   7
ATOM      7  C   UNL     1       1.594   6.413  35.950  1.00  0.00     0.041 C 
ATOM      8  O   UNL     1       1.521   7.316  35.074  1.00  0.00    -0.550 OA
ATOM      9  O   UNL     1       2.716   6.335  36.764  1.00  0.00    -0.550 OA
ENDBRANCH   6   7
ENDBRANCH   5   6
ENDBRANCH   4   5
ENDBRANCH   3   4
ENDBRANCH   2   3
ENDBRANCH   1   2
BRANCH   1  10
ATOM     10  C   UNL     1      -0.576   7.281  40.837  1.00  0.00     0.000 C 
BRANCH  10  11
ATOM     11  C   UNL     1       0.176   8.467  41.459  1.00  0.00    -0.000 C 
BRANCH  11  12
ATOM     12  C   UNL     1       0.871   9.343  40.405  1.00  0.00    -0.000 C 
BRANCH  12  13
ATOM     13  C   UNL     1       1.094   8.603  39.074  1.00  0.00    -0.000 C 
BRANCH  13  14
ATOM     14  C   UNL     1       0.586   9.397  37.857  1.00  0.00    -0.000 C 
BRANCH  14  15
ATOM     15  C   UNL     1      -0.843   9.040  37.406  1.00  0.00    -0.003 C 
ATOM     16  C   UNL     1      -1.887  10.056  37.868  1.00  0.00     0.004 C 
ENDBRANCH  14  15
ENDBRANCH  13  14
ENDBRANCH  12  13
ENDBRANCH  11  12
ENDBRANCH  10  11
ENDBRANCH   1  10
TORSDOF 12
ENDMDL
MODEL 7
REMARK VINA RESULT:    -3.426      2.276      4.781
REMARK INTER + INTRA:          -7.459
REMARK INTER:                  -5.548
REMARK INTRA:                  -1.911
REMARK UNBOUND:                -1.629
REMARK SMILES CCCCCCCCCCCCCC(=O)[O-]
REMARK SMILES IDX 8 1 9 2 10 3 11 4 12 5 13 6 14 7 15 8 16 9 7 10 6 11 5 12
REMARK SMILES IDX 4 13 3 14 2 15 1 16
REMARK H PARENT
REMARK Flexibility Score: inf
ROOT
ATOM      1  C   UNL     1      -1.618   7.886  38.809  1.00  0.00     0.000 C 
ENDROOT
BRANCH   1   2
ATOM      2  C   UNL     1      -1.623   9.420  38.677  1.00  0.00     0.000 C 
BRANCH   2   3
ATOM      3  C   UNL     1      -0.236  10.085  38.772  1.00  0.00     0.000 C 
BRANCH   3   4
ATOM      4  C   UNL     1       0.700   9.501  39.850  1.00  0.00     0.000 C 
BRANCH   4   5
ATOM      5  C   UNL     1       1.920   8.738  39.305  1.00  0.00     0.006 C 
BRANCH   5   6
ATOM      6  C   UNL     1       2.122   8.936  37.797  1.00  0.00     0.053 C 
BRANCH   6   7
ATOM      7  C   UNL     1       1.879   7.655  37.065  1.00  0.00     0.041 C 
ATOM      8  O   UNL     1       2.651   6.674  37.232  1.00  0.00    -0.550 OA
ATOM      9  O   UNL     1       0.773   7.526  36.235  1.00  0.00    -0.550 OA
ENDBRANCH   6   7
ENDBRANCH   5   6
ENDBRANCH   4   5
ENDBRANCH   3   4
ENDBRANCH   2   3
ENDBRANCH   1   2
BRANCH   1  10
ATOM     10  C   UNL     1      -2.612   7.374  39.860  1.00  0.00     0.000 C 
BRANCH  10  11
ATOM     11  C   UNL     1      -2.043   7.535  41.278  1.00  0.00    -0.000 C 
BRANCH  11  12
ATOM     12  C   UNL     1      -1.408   6.240  41.809  1.00  0.00    -0.000 C 
BRANCH  12  13
ATOM     13  C   UNL     1       0.123   6.228  41.665  1.00  0.00    -0.000 C 
BRANCH  13  14
ATOM     14  C   UNL     1       0.604   5.394  40.464  1.00  0.00    -0.000 C 
BRANCH  14  15
ATOM     15  C   UNL     1      -0.339   4.246  40.060  1.00  0.00    -0.003 C 
ATOM     16  C   UNL     1      -0.756   4.305  38.590  1.00  0.00     0.004 C 
ENDBRANCH  14  15
ENDBRANCH  13  14
ENDBRANCH  12  13
ENDBRANCH  11  12
ENDBRANCH  10  11
ENDBRANCH   1  10
TORSDOF 12
ENDMDL
MODEL 8
REMARK VINA RESULT:    -2.574      2.160      4.892
REMARK INTER + INTRA:          -6.008
REMARK INTER:                  -4.125
REMARK INTRA:                  -1.883
REMARK UNBOUND:                -1.629
REMARK SMILES CCCCCCCCCCCCCC(=O)[O-]
REMARK SMILES IDX 8 1 9 2 10 3 11 4 12 5 13 6 14 7 15 8 16 9 7 10 6 11 5 12
REMARK SMILES IDX 4 13 3 14 2 15 1 16
REMARK H PARENT
REMARK Flexibility Score: inf
ROOT
ATOM      1  C   UNL     1      -1.669   5.480  39.952  1.00  0.00     0.000 C 
ENDROOT
BRANCH   1   2
ATOM      2  C   UNL     1      -1.304   4.611  38.734  1.00  0.00     0.000 C 
BRANCH   2   3
ATOM      3  C   UNL     1      -1.649   5.231  37.366  1.00  0.00     0.000 C 
BRANCH   3   4
ATOM      4  C   UNL     1      -0.736   6.392  36.923  1.00  0.00     0.000 C 
BRANCH   4   5
ATOM      5  C   UNL     1       0.710   5.987  36.586  1.00  0.00     0.006 C 
BRANCH   5   6
ATOM      6  C   UNL     1       1.713   7.127  36.802  1.00  0.00     0.053 C 
BRANCH   6   7
ATOM      7  C   UNL     1       2.080   7.234  38.247  1.00  0.00     0.041 C 
ATOM      8  O   UNL     1       1.994   6.227  38.999  1.00  0.00    -0.550 OA
ATOM      9  O   UNL     1       2.563   8.433  38.757  1.00  0.00    -0.550 OA
ENDBRANCH   6   7
ENDBRANCH   5   6
ENDBRANCH   4   5
ENDBRANCH   3   4
ENDBRANCH   2   3
ENDBRANCH   1   2
BRANCH   1  10
ATOM     10  C   UNL     1      -2.930   6.327  39.725  1.00  0.00     0.000 C 
BRANCH  10  11
ATOM     11  C   UNL     1      -2.642   7.816  39.965  1.00  0.00    -0.000 C 
BRANCH  11  12
ATOM     12  C   UNL     1      -1.150   8.097  40.207  1.00  0.00    -0.000 C 
BRANCH  12  13
ATOM     13  C   UNL     1      -0.652   9.340  39.450  1.00  0.00    -0.000 C 
BRANCH  13  14
ATOM     14  C   UNL     1      -1.544   9.706  38.250  1.00  0.00    -0.000 C 
BRANCH  14  15
ATOM     15  C   UNL     1      -0.777  10.125  36.982  1.00  0.00    -0.003 C 
ATOM     16  C   UNL     1      -1.564   9.870  35.697  1.00  0.00     0.004 C 
ENDBRANCH  14  15
ENDBRANCH  13  14
ENDBRANCH  12  13
ENDBRANCH  11  12
ENDBRANCH  10  11
ENDBRANCH   1  10
TORSDOF 12
ENDMDL
