MODEL 1
REMARK VINA RESULT:    -3.173      0.000      0.000
REMARK INTER + INTRA:          -3.599
REMARK INTER:                  -3.544
REMARK INTRA:                  -0.055
REMARK UNBOUND:                -0.055
REMARK SMILES CCCC(=O)[O-]
REMARK SMILES IDX 3 1 4 2 5 3 6 4 2 5 1 6
REMARK H PARENT
REMARK Flexibility Score: inf
ROOT
ATOM      1  C   UNL     1     106.438 -81.832  24.394  1.00  0.00     0.052 C 
ENDROOT
BRANCH   1   2
ATOM      2  C   UNL     1     106.615 -83.289  24.097  1.00  0.00     0.041 C 
ATOM      3  O   UNL     1     105.757 -84.125  24.487  1.00  0.00    -0.550 OA
ATOM      4  O   UNL     1     107.711 -83.721  23.360  1.00  0.00    -0.550 OA
ENDBRANCH   1   2
BRANCH   1   5
ATOM      5  C   UNL     1     106.724 -81.514  25.867  1.00  0.00     0.003 C 
ATOM      6  C   UNL     1     108.151 -81.882  26.274  1.00  0.00     0.004 C 
ENDBRANCH   1   5
TORSDOF 2
ENDMDL
MODEL 2
REMARK VINA RESULT:    -3.129      1.106      1.745
REMARK INTER + INTRA:          -3.549
REMARK INTER:                  -3.491
REMARK INTRA:                  -0.057
REMARK UNBOUND:                -0.055
REMARK SMILES CCCC(=O)[O-]
REMARK SMILES IDX 3 1 4 2 5 3 6 4 2 5 1 6
REMARK H PARENT
REMARK Flexibility Score: inf
ROOT
ATOM      1  C   UNL     1     107.359 -81.652  23.897  1.00  0.00     0.052 C 
ENDROOT
BRANCH   1   2
ATOM      2  C   UNL     1     107.897 -83.022  23.620  1.00  0.00     0.041 C 
ATOM      3  O   UNL     1     109.138 -83.205  23.504  1.00  0.00    -0.550 OA
ATOM      4  O   UNL     1     107.030 -84.103  23.521  1.00  0.00    -0.550 OA
ENDBRANCH   1   2
BRANCH   1   5
ATOM      5  C   UNL     1     106.530 -81.619  25.188  1.00  0.00     0.003 C 
ATOM      6  C   UNL     1     107.305 -82.156  26.391  1.00  0.00     0.004 C 
ENDBRANCH   1   5
TORSDOF 2
ENDMDL
MODEL 3
REMARK VINA RESULT:    -3.090      2.353      2.728
REMARK INTER + INTRA:          -3.505
REMARK INTER:                  -3.497
REMARK INTRA:                  -0.008
REMARK UNBOUND:                -0.055
REMARK SMILES CCCC(=O)[O-]
REMARK SMILES IDX 3 1 4 2 5 3 6 4 2 5 1 6
REMARK H PARENT
REMARK Flexibility Score: inf
ROOT
ATOM      1  C   UNL     1     108.072 -81.952  24.534  1.00  0.00     0.052 C 
ENDROOT
BRANCH   1   2
ATOM      2  C   UNL     1     107.094 -82.611  25.456  1.00  0.00     0.041 C 
ATOM      3  O   UNL     1     106.890 -82.141  26.607  1.00  0.00    -0.550 OA
ATOM      4  O   UNL     1     106.383 -83.727  25.034  1.00  0.00    -0.550 OA
ENDBRANCH   1   2
BRANCH   1   5
ATOM      5  C   UNL     1     108.697 -82.957  23.557  1.00  0.00     0.003 C 
ATOM      6  C   UNL     1     110.150 -82.617  23.225  1.00  0.00     0.004 C 
ENDBRANCH   1   5
TORSDOF 2
ENDMDL
MODEL 4
REMARK VINA RESULT:    -3.009      7.622      8.187
REMARK INTER + INTRA:          -3.416
REMARK INTER:                  -3.384
REMARK INTRA:                  -0.032
REMARK UNBOUND:                -0.055
REMARK SMILES CCCC(=O)[O-]
REMARK SMILES IDX 3 1 4 2 5 3 6 4 2 5 1 6
REMARK H PARENT
REMARK Flexibility Score: inf
ROOT
ATOM      1  C   UNL     1     113.912 -83.917  20.396  1.00  0.00     0.052 C 
ENDROOT
BRANCH   1   2
ATOM      2  C   UNL     1     112.846 -83.258  21.215  1.00  0.00     0.041 C 
ATOM      3  O   UNL     1     112.529 -83.727  22.341  1.00  0.00    -0.550 OA
ATOM      4  O   UNL     1     112.224 -82.106  20.751  1.00  0.00    -0.550 OA
ENDBRANCH   1   2
BRANCH   1   5
ATOM      5  C   UNL     1     115.169 -83.042  20.289  1.00  0.00     0.003 C 
ATOM      6  C   UNL     1     116.268 -83.486  21.255  1.00  0.00     0.004 C 
ENDBRANCH   1   5
TORSDOF 2
ENDMDL
MODEL 5
REMARK VINA RESULT:    -2.999      2.073      2.461
REMARK INTER + INTRA:          -3.404
REMARK INTER:                  -3.389
REMARK INTRA:                  -0.015
REMARK UNBOUND:                -0.055
REMARK SMILES CCCC(=O)[O-]
REMARK SMILES IDX 3 1 4 2 5 3 6 4 2 5 1 6
REMARK H PARENT
REMARK Flexibility Score: inf
ROOT
ATOM      1  C   UNL     1     107.669 -83.701  23.396  1.00  0.00     0.052 C 
ENDROOT
BRANCH   1   2
ATOM      2  C   UNL     1     106.440 -83.733  24.252  1.00  0.00     0.041 C 
ATOM      3  O   UNL     1     106.498 -83.379  25.459  1.00  0.00    -0.550 OA
ATOM      4  O   UNL     1     105.224 -84.124  23.707  1.00  0.00    -0.550 OA
ENDBRANCH   1   2
BRANCH   1   5
ATOM      5  C   UNL     1     108.493 -82.429  23.633  1.00  0.00     0.003 C 
ATOM      6  C   UNL     1     109.977 -82.632  23.325  1.00  0.00     0.004 C 
ENDBRANCH   1   5
TORSDOF 2
ENDMDL
MODEL 6
REMARK VINA RESULT:    -2.941      1.444      2.151
REMARK INTER + INTRA:          -3.339
REMARK INTER:                  -3.333
REMARK INTRA:                  -0.006
REMARK UNBOUND:                -0.055
REMARK SMILES CCCC(=O)[O-]
REMARK SMILES IDX 3 1 4 2 5 3 6 4 2 5 1 6
REMARK H PARENT
REMARK Flexibility Score: inf
ROOT
ATOM      1  C   UNL     1     106.342 -83.772  24.525  1.00  0.00     0.052 C 
ENDROOT
BRANCH   1   2
ATOM      2  C   UNL     1     105.466 -83.762  23.311  1.00  0.00     0.041 C 
ATOM      3  O   UNL     1     105.944 -83.462  22.185  1.00  0.00    -0.550 OA
ATOM      4  O   UNL     1     104.127 -84.116  23.417  1.00  0.00    -0.550 OA
ENDBRANCH   1   2
BRANCH   1   5
ATOM      5  C   UNL     1     106.976 -82.397  24.778  1.00  0.00     0.003 C 
ATOM      6  C   UNL     1     107.174 -82.115  26.267  1.00  0.00     0.004 C 
ENDBRANCH   1   5
TORSDOF 2
ENDMDL
MODEL 7
REMARK VINA RESULT:    -2.936      8.144      8.865
REMARK INTER + INTRA:          -3.334
REMARK INTER:                  -3.278
REMARK INTRA:                  -0.056
REMARK UNBOUND:                -0.055
REMARK SMILES CCCC(=O)[O-]
REMARK SMILES IDX 3 1 4 2 5 3 6 4 2 5 1 6
REMARK H PARENT
REMARK Flexibility Score: inf
ROOT
ATOM      1  C   UNL     1     114.311 -83.675  20.306  1.00  0.00     0.052 C 
ENDROOT
BRANCH   1   2
ATOM      2  C   UNL     1     115.468 -82.988  20.961  1.00  0.00     0.041 C 
ATOM      3  O   UNL     1     116.445 -83.658  21.389  1.00  0.00    -0.550 OA
ATOM      4  O   UNL     1     115.483 -81.603  21.071  1.00  0.00    -0.550 OA
ENDBRANCH   1   2
BRANCH   1   5
ATOM      5  C   UNL     1     112.972 -83.043  20.709  1.00  0.00     0.003 C 
ATOM      6  C   UNL     1     112.528 -83.467  22.109  1.00  0.00     0.004 C 
ENDBRANCH   1   5
TORSDOF 2
ENDMDL
MODEL 8
REMARK VINA RESULT:    -2.932      4.868      5.820
REMARK INTER + INTRA:          -3.330
REMARK INTER:                  -3.263
REMARK INTRA:                  -0.067
REMARK UNBOUND:                -0.055
REMARK SMILES CCCC(=O)[O-]
REMARK SMILES IDX 3 1 4 2 5 3 6 4 2 5 1 6
REMARK H PARENT
REMARK Flexibility Score: inf
ROOT
ATOM      1  C   UNL     1     105.263 -81.545  19.995  1.00  0.00     0.052 C 
ENDROOT
BRANCH   1   2
ATOM      2  C   UNL     1     104.659 -82.760  20.630  1.00  0.00     0.041 C 
ATOM      3  O   UNL     1     105.315 -83.426  21.475  1.00  0.00    -0.550 OA
ATOM      4  O   UNL     1     103.361 -83.138  20.313  1.00  0.00    -0.550 OA
ENDBRANCH   1   2
BRANCH   1   5
ATOM      5  C   UNL     1     105.406 -81.710  18.477  1.00  0.00     0.003 C 
ATOM      6  C   UNL     1     106.226 -82.944  18.101  1.00  0.00     0.004 C 
ENDBRANCH   1   5
TORSDOF 2
ENDMDL
MODEL 9
REMARK VINA RESULT:    -2.912     11.699     12.697
REMARK INTER + INTRA:          -3.307
REMARK INTER:                  -3.270
REMARK INTRA:                  -0.037
REMARK UNBOUND:                -0.055
REMARK SMILES CCCC(=O)[O-]
REMARK SMILES IDX 3 1 4 2 5 3 6 4 2 5 1 6
REMARK H PARENT
REMARK Flexibility Score: inf
ROOT
ATOM      1  C   UNL     1     118.861 -81.896  22.424  1.00  0.00     0.052 C 
ENDROOT
BRANCH   1   2
ATOM      2  C   UNL     1     119.758 -82.416  23.504  1.00  0.00     0.041 C 
ATOM      3  O   UNL     1     120.881 -81.883  23.707  1.00  0.00    -0.550 OA
ATOM      4  O   UNL     1     119.341 -83.468  24.309  1.00  0.00    -0.550 OA
ENDBRANCH   1   2
BRANCH   1   5
ATOM      5  C   UNL     1     118.496 -82.992  21.412  1.00  0.00     0.003 C 
ATOM      6  C   UNL     1     117.005 -83.327  21.431  1.00  0.00     0.004 C 
ENDBRANCH   1   5
TORSDOF 2
ENDMDL
