MODEL 1
REMARK VINA RESULT:    -7.375      0.000      0.000
REMARK INTER + INTRA:         -11.502
REMARK INTER:                 -10.177
REMARK INTRA:                  -1.325
REMARK UNBOUND:                -1.325
REMARK SMILES C[C@@H]1OC(=O)[C@H](C)[C@H]1C[C@H](O)[C@](C)(O)[C@H]1CC[C@]2(O)C3=CC(=O)[C@@H]4C[C@@H](O)[C@@H](O)C[C@@]4(C)[C@@H]3CC[C@]12C
REMARK SMILES IDX 12 1 13 2 10 3 9 4 8 5 7 6 6 7 4 8 2 9 3 10 5 11 1 12 11 13
REMARK SMILES IDX 15 15 16 16 36 17 17 18 18 19 35 20 37 21 20 22 34 23 33 24
REMARK SMILES IDX 21 25 31 26 22 27 24 28 30 29 32 30 23 31 25 32 28 33 26 34
REMARK SMILES IDX 19 35 29 37 27 39 14 41
REMARK H PARENT 11 14 19 36 29 38 27 40 14 42
REMARK Flexibility Score: inf
ROOT
ATOM      1  C   UNL     1     -61.051 -80.764 222.266  1.00  0.00     0.091 C 
ATOM      2  C   UNL     1     -61.820 -81.743 221.345  1.00  0.00     0.045 C 
ENDROOT
BRANCH   1   3
ATOM      3  C   UNL     1     -62.015 -79.801 223.073  1.00  0.00     0.146 C 
BRANCH   3   4
ATOM      4  C   UNL     1     -61.895 -78.286 222.737  1.00  0.00     0.043 C 
BRANCH   4   5
ATOM      5  C   UNL     1     -63.110 -77.671 221.998  1.00  0.00     0.046 C 
ATOM      6  C   UNL     1     -63.027 -76.251 219.854  1.00  0.00     0.020 C 
ATOM      7  C   UNL     1     -62.737 -76.295 221.365  1.00  0.00     0.103 C 
ATOM      8  C   UNL     1     -63.607 -75.349 222.097  1.00  0.00     0.309 C 
ATOM      9  C   UNL     1     -64.298 -77.379 222.972  1.00  0.00     0.177 C 
ATOM     10  O   UNL     1     -64.463 -75.969 222.980  1.00  0.00    -0.462 OA
ATOM     11  O   UNL     1     -63.567 -74.098 221.948  1.00  0.00    -0.252 OA
ATOM     12  C   UNL     1     -65.597 -78.038 222.511  1.00  0.00     0.053 C 
ENDBRANCH   4   5
ENDBRANCH   3   4
BRANCH   3  13
ATOM     13  O   UNL     1     -61.808 -79.953 224.448  1.00  0.00    -0.390 OA
ATOM     14  H   UNL     1     -61.565 -79.066 224.824  1.00  0.00     0.211 HD
ENDBRANCH   3  13
ENDBRANCH   1   3
BRANCH   1  15
ATOM     15  C   UNL     1     -59.921 -79.963 221.473  1.00  0.00     0.032 C 
ATOM     16  C   UNL     1     -58.580 -80.732 221.521  1.00  0.00     0.010 C 
ATOM     17  C   UNL     1     -60.048 -79.448 219.959  1.00  0.00     0.006 C 
ATOM     18  C   UNL     1     -57.814 -80.381 220.261  1.00  0.00     0.041 C 
ATOM     19  C   UNL     1     -58.884 -80.165 219.192  1.00  0.00     0.092 C 
ATOM     20  C   UNL     1     -59.758 -77.917 219.966  1.00  0.00     0.011 C 
ATOM     21  C   UNL     1     -61.400 -79.684 219.211  1.00  0.00     0.015 C 
ATOM     22  C   UNL     1     -58.293 -79.375 218.011  1.00  0.00    -0.031 C 
ATOM     23  C   UNL     1     -59.717 -77.271 218.579  1.00  0.00     0.009 C 
ATOM     24  C   UNL     1     -58.954 -78.086 217.492  1.00  0.00     0.025 C 
ATOM     25  C   UNL     1     -57.278 -79.941 217.318  1.00  0.00     0.050 C 
ATOM     26  C   UNL     1     -57.962 -77.212 216.629  1.00  0.00    -0.013 C 
ATOM     27  C   UNL     1     -56.735 -79.338 216.090  1.00  0.00     0.159 C 
ATOM     28  C   UNL     1     -57.425 -78.140 215.492  1.00  0.00     0.070 C 
ATOM     29  C   UNL     1     -58.723 -76.022 215.960  1.00  0.00     0.042 C 
ATOM     30  C   UNL     1     -56.804 -76.663 217.524  1.00  0.00     0.013 C 
ATOM     31  O   UNL     1     -55.762 -79.890 215.507  1.00  0.00    -0.295 OA
ATOM     32  C   UNL     1     -56.561 -77.394 214.450  1.00  0.00     0.047 C 
ATOM     33  C   UNL     1     -57.871 -75.273 214.911  1.00  0.00     0.143 C 
ATOM     34  C   UNL     1     -57.344 -76.227 213.821  1.00  0.00     0.143 C 
BRANCH  19  35
ATOM     35  O   UNL     1     -59.298 -81.448 218.760  1.00  0.00    -0.385 OA
ATOM     36  H   UNL     1     -58.594 -81.827 218.170  1.00  0.00     0.211 HD
ENDBRANCH  19  35
BRANCH  33  37
ATOM     37  O   UNL     1     -58.647 -74.267 214.306  1.00  0.00    -0.390 OA
ATOM     38  H   UNL     1     -59.555 -74.331 214.705  1.00  0.00     0.211 HD
ENDBRANCH  33  37
BRANCH  34  39
ATOM     39  O   UNL     1     -58.418 -76.716 213.055  1.00  0.00    -0.390 OA
ATOM     40  H   UNL     1     -58.583 -76.060 212.331  1.00  0.00     0.211 HD
ENDBRANCH  34  39
ENDBRANCH   1  15
BRANCH   1  41
ATOM     41  O   UNL     1     -60.400 -81.584 223.217  1.00  0.00    -0.387 OA
ATOM     42  H   UNL     1     -59.830 -81.012 223.798  1.00  0.00     0.211 HD
ENDBRANCH   1  41
TORSDOF 9
ENDMDL
MODEL 2
REMARK VINA RESULT:    -7.323      1.738      2.627
REMARK INTER + INTRA:         -11.431
REMARK INTER:                 -10.762
REMARK INTRA:                  -0.668
REMARK UNBOUND:                -1.325
REMARK SMILES C[C@@H]1OC(=O)[C@H](C)[C@H]1C[C@H](O)[C@](C)(O)[C@H]1CC[C@]2(O)C3=CC(=O)[C@@H]4C[C@@H](O)[C@@H](O)C[C@@]4(C)[C@@H]3CC[C@]12C
REMARK SMILES IDX 12 1 13 2 10 3 9 4 8 5 7 6 6 7 4 8 2 9 3 10 5 11 1 12 11 13
REMARK SMILES IDX 15 15 16 16 36 17 17 18 18 19 35 20 37 21 20 22 34 23 33 24
REMARK SMILES IDX 21 25 31 26 22 27 24 28 30 29 32 30 23 31 25 32 28 33 26 34
REMARK SMILES IDX 19 35 29 37 27 39 14 41
REMARK H PARENT 11 14 19 36 29 38 27 40 14 42
REMARK Flexibility Score: inf
ROOT
ATOM      1  C   UNL     1     -62.205 -79.271 222.646  1.00  0.00     0.091 C 
ATOM      2  C   UNL     1     -62.919 -80.379 221.834  1.00  0.00     0.045 C 
ENDROOT
BRANCH   1   3
ATOM      3  C   UNL     1     -63.199 -78.142 223.142  1.00  0.00     0.146 C 
BRANCH   3   4
ATOM      4  C   UNL     1     -64.687 -78.318 222.720  1.00  0.00     0.043 C 
BRANCH   4   5
ATOM      5  C   UNL     1     -65.622 -78.903 223.807  1.00  0.00     0.046 C 
ATOM      6  C   UNL     1     -68.182 -79.117 223.658  1.00  0.00     0.020 C 
ATOM      7  C   UNL     1     -66.991 -78.156 223.824  1.00  0.00     0.103 C 
ATOM      8  C   UNL     1     -67.005 -77.525 225.162  1.00  0.00     0.309 C 
ATOM      9  C   UNL     1     -65.028 -78.729 225.243  1.00  0.00     0.177 C 
ATOM     10  O   UNL     1     -65.911 -77.855 225.931  1.00  0.00    -0.462 OA
ATOM     11  O   UNL     1     -67.913 -76.748 225.564  1.00  0.00    -0.252 OA
ATOM     12  C   UNL     1     -64.940 -80.055 225.996  1.00  0.00     0.053 C 
ENDBRANCH   4   5
ENDBRANCH   3   4
BRANCH   3  13
ATOM     13  O   UNL     1     -62.770 -76.890 222.692  1.00  0.00    -0.390 OA
ATOM     14  H   UNL     1     -63.108 -76.761 221.766  1.00  0.00     0.211 HD
ENDBRANCH   3  13
ENDBRANCH   1   3
BRANCH   1  15
ATOM     15  C   UNL     1     -60.951 -78.671 221.861  1.00  0.00     0.032 C 
ATOM     16  C   UNL     1     -59.693 -79.535 222.115  1.00  0.00     0.010 C 
ATOM     17  C   UNL     1     -60.918 -78.343 220.291  1.00  0.00     0.006 C 
ATOM     18  C   UNL     1     -58.807 -79.409 220.891  1.00  0.00     0.041 C 
ATOM     19  C   UNL     1     -59.771 -79.244 219.717  1.00  0.00     0.092 C 
ATOM     20  C   UNL     1     -60.491 -76.852 220.140  1.00  0.00     0.011 C 
ATOM     21  C   UNL     1     -62.226 -78.562 219.465  1.00  0.00     0.015 C 
ATOM     22  C   UNL     1     -59.024 -78.661 218.505  1.00  0.00    -0.031 C 
ATOM     23  C   UNL     1     -60.289 -76.393 218.695  1.00  0.00     0.009 C 
ATOM     24  C   UNL     1     -59.524 -77.398 217.781  1.00  0.00     0.025 C 
ATOM     25  C   UNL     1     -58.016 -79.391 217.973  1.00  0.00     0.050 C 
ATOM     26  C   UNL     1     -58.396 -76.724 216.907  1.00  0.00    -0.013 C 
ATOM     27  C   UNL     1     -57.331 -78.994 216.732  1.00  0.00     0.159 C 
ATOM     28  C   UNL     1     -57.863 -77.829 215.939  1.00  0.00     0.070 C 
ATOM     29  C   UNL     1     -58.993 -75.571 216.038  1.00  0.00     0.042 C 
ATOM     30  C   UNL     1     -57.262 -76.162 217.825  1.00  0.00     0.013 C 
ATOM     31  O   UNL     1     -56.372 -79.692 216.304  1.00  0.00    -0.295 OA
ATOM     32  C   UNL     1     -56.859 -77.293 214.892  1.00  0.00     0.047 C 
ATOM     33  C   UNL     1     -58.001 -75.032 214.983  1.00  0.00     0.143 C 
ATOM     34  C   UNL     1     -57.485 -76.156 214.064  1.00  0.00     0.143 C 
BRANCH  19  35
ATOM     35  O   UNL     1     -60.267 -80.533 219.409  1.00  0.00    -0.385 OA
ATOM     36  H   UNL     1     -61.236 -80.561 219.626  1.00  0.00     0.211 HD
ENDBRANCH  19  35
BRANCH  33  37
ATOM     37  O   UNL     1     -58.636 -74.050 214.199  1.00  0.00    -0.390 OA
ATOM     38  H   UNL     1     -58.322 -74.187 213.266  1.00  0.00     0.211 HD
ENDBRANCH  33  37
BRANCH  34  39
ATOM     39  O   UNL     1     -58.538 -76.649 213.274  1.00  0.00    -0.390 OA
ATOM     40  H   UNL     1     -58.139 -77.255 212.599  1.00  0.00     0.211 HD
ENDBRANCH  34  39
ENDBRANCH   1  15
BRANCH   1  41
ATOM     41  O   UNL     1     -61.710 -79.919 223.803  1.00  0.00    -0.387 OA
ATOM     42  H   UNL     1     -60.721 -79.990 223.732  1.00  0.00     0.211 HD
ENDBRANCH   1  41
TORSDOF 9
ENDMDL
MODEL 3
REMARK VINA RESULT:    -7.276      1.538      2.397
REMARK INTER + INTRA:         -11.366
REMARK INTER:                 -10.344
REMARK INTRA:                  -1.022
REMARK UNBOUND:                -1.325
REMARK SMILES C[C@@H]1OC(=O)[C@H](C)[C@H]1C[C@H](O)[C@](C)(O)[C@H]1CC[C@]2(O)C3=CC(=O)[C@@H]4C[C@@H](O)[C@@H](O)C[C@@]4(C)[C@@H]3CC[C@]12C
REMARK SMILES IDX 12 1 13 2 10 3 9 4 8 5 7 6 6 7 4 8 2 9 3 10 5 11 1 12 11 13
REMARK SMILES IDX 15 15 16 16 36 17 17 18 18 19 35 20 37 21 20 22 34 23 33 24
REMARK SMILES IDX 21 25 31 26 22 27 24 28 30 29 32 30 23 31 25 32 28 33 26 34
REMARK SMILES IDX 19 35 29 37 27 39 14 41
REMARK H PARENT 11 14 19 36 29 38 27 40 14 42
REMARK Flexibility Score: inf
ROOT
ATOM      1  C   UNL     1     -60.697 -82.066 221.069  1.00  0.00     0.091 C 
ATOM      2  C   UNL     1     -61.848 -82.379 220.081  1.00  0.00     0.045 C 
ENDROOT
BRANCH   1   3
ATOM      3  C   UNL     1     -61.220 -81.541 222.468  1.00  0.00     0.146 C 
BRANCH   3   4
ATOM      4  C   UNL     1     -62.357 -80.478 222.410  1.00  0.00     0.043 C 
BRANCH   4   5
ATOM      5  C   UNL     1     -62.074 -79.160 223.173  1.00  0.00     0.046 C 
ATOM      6  C   UNL     1     -61.618 -78.930 225.695  1.00  0.00     0.020 C 
ATOM      7  C   UNL     1     -62.674 -79.211 224.611  1.00  0.00     0.103 C 
ATOM      8  C   UNL     1     -63.695 -78.141 224.580  1.00  0.00     0.309 C 
ATOM      9  C   UNL     1     -62.743 -77.929 222.479  1.00  0.00     0.177 C 
ATOM     10  O   UNL     1     -63.716 -77.443 223.392  1.00  0.00    -0.462 OA
ATOM     11  O   UNL     1     -64.484 -77.892 225.532  1.00  0.00    -0.252 OA
ATOM     12  C   UNL     1     -61.737 -76.820 222.175  1.00  0.00     0.053 C 
ENDBRANCH   4   5
ENDBRANCH   3   4
BRANCH   3  13
ATOM     13  O   UNL     1     -60.163 -80.999 223.206  1.00  0.00    -0.390 OA
ATOM     14  H   UNL     1     -59.436 -80.758 222.573  1.00  0.00     0.211 HD
ENDBRANCH   3  13
ENDBRANCH   1   3
BRANCH   1  15
ATOM     15  C   UNL     1     -59.607 -81.094 220.426  1.00  0.00     0.032 C 
ATOM     16  C   UNL     1     -58.476 -81.915 219.762  1.00  0.00     0.010 C 
ATOM     17  C   UNL     1     -59.924 -79.913 219.387  1.00  0.00     0.006 C 
ATOM     18  C   UNL     1     -57.923 -81.081 218.624  1.00  0.00     0.041 C 
ATOM     19  C   UNL     1     -59.116 -80.285 218.097  1.00  0.00     0.092 C 
ATOM     20  C   UNL     1     -59.323 -78.603 219.980  1.00  0.00     0.011 C 
ATOM     21  C   UNL     1     -61.418 -79.639 219.017  1.00  0.00     0.015 C 
ATOM     22  C   UNL     1     -58.622 -79.088 217.266  1.00  0.00    -0.031 C 
ATOM     23  C   UNL     1     -59.428 -77.384 219.062  1.00  0.00     0.009 C 
ATOM     24  C   UNL     1     -59.088 -77.652 217.564  1.00  0.00     0.025 C 
ATOM     25  C   UNL     1     -57.910 -79.349 216.145  1.00  0.00     0.050 C 
ATOM     26  C   UNL     1     -58.129 -76.569 216.931  1.00  0.00    -0.013 C 
ATOM     27  C   UNL     1     -57.511 -78.289 215.205  1.00  0.00     0.159 C 
ATOM     28  C   UNL     1     -58.038 -76.892 215.405  1.00  0.00     0.070 C 
ATOM     29  C   UNL     1     -58.740 -75.140 217.085  1.00  0.00     0.042 C 
ATOM     30  C   UNL     1     -56.725 -76.621 217.618  1.00  0.00     0.013 C 
ATOM     31  O   UNL     1     -56.813 -78.585 214.197  1.00  0.00    -0.295 OA
ATOM     32  C   UNL     1     -57.264 -75.825 214.598  1.00  0.00     0.047 C 
ATOM     33  C   UNL     1     -57.979 -74.066 216.278  1.00  0.00     0.143 C 
ATOM     34  C   UNL     1     -57.895 -74.433 214.783  1.00  0.00     0.143 C 
BRANCH  19  35
ATOM     35  O   UNL     1     -59.869 -81.164 217.283  1.00  0.00    -0.385 OA
ATOM     36  H   UNL     1     -60.710 -80.708 217.016  1.00  0.00     0.211 HD
ENDBRANCH  19  35
BRANCH  33  37
ATOM     37  O   UNL     1     -58.631 -72.826 216.412  1.00  0.00    -0.390 OA
ATOM     38  H   UNL     1     -58.776 -72.481 215.491  1.00  0.00     0.211 HD
ENDBRANCH  33  37
BRANCH  34  39
ATOM     39  O   UNL     1     -59.179 -74.398 214.210  1.00  0.00    -0.390 OA
ATOM     40  H   UNL     1     -59.453 -73.446 214.166  1.00  0.00     0.211 HD
ENDBRANCH  34  39
ENDBRANCH   1  15
BRANCH   1  41
ATOM     41  O   UNL     1     -60.066 -83.310 221.308  1.00  0.00    -0.387 OA
ATOM     42  H   UNL     1     -59.202 -83.147 221.773  1.00  0.00     0.211 HD
ENDBRANCH   1  41
TORSDOF 9
ENDMDL
MODEL 4
REMARK VINA RESULT:    -7.180      1.719      2.470
REMARK INTER + INTRA:         -11.233
REMARK INTER:                  -9.917
REMARK INTRA:                  -1.316
REMARK UNBOUND:                -1.325
REMARK SMILES C[C@@H]1OC(=O)[C@H](C)[C@H]1C[C@H](O)[C@](C)(O)[C@H]1CC[C@]2(O)C3=CC(=O)[C@@H]4C[C@@H](O)[C@@H](O)C[C@@]4(C)[C@@H]3CC[C@]12C
REMARK SMILES IDX 12 1 13 2 10 3 9 4 8 5 7 6 6 7 4 8 2 9 3 10 5 11 1 12 11 13
REMARK SMILES IDX 15 15 16 16 36 17 17 18 18 19 35 20 37 21 20 22 34 23 33 24
REMARK SMILES IDX 21 25 31 26 22 27 24 28 30 29 32 30 23 31 25 32 28 33 26 34
REMARK SMILES IDX 19 35 29 37 27 39 14 41
REMARK H PARENT 11 14 19 36 29 38 27 40 14 42
REMARK Flexibility Score: inf
ROOT
ATOM      1  C   UNL     1     -60.612 -82.254 220.763  1.00  0.00     0.091 C 
ATOM      2  C   UNL     1     -61.054 -83.302 219.712  1.00  0.00     0.045 C 
ENDROOT
BRANCH   1   3
ATOM      3  C   UNL     1     -61.837 -81.502 221.427  1.00  0.00     0.146 C 
BRANCH   3   4
ATOM      4  C   UNL     1     -61.806 -81.398 222.981  1.00  0.00     0.043 C 
BRANCH   4   5
ATOM      5  C   UNL     1     -62.277 -80.044 223.566  1.00  0.00     0.046 C 
ATOM      6  C   UNL     1     -63.823 -78.342 222.410  1.00  0.00     0.020 C 
ATOM      7  C   UNL     1     -62.419 -78.972 222.442  1.00  0.00     0.103 C 
ATOM      8  C   UNL     1     -61.398 -77.967 222.814  1.00  0.00     0.309 C 
ATOM      9  C   UNL     1     -61.244 -79.456 224.581  1.00  0.00     0.177 C 
ATOM     10  O   UNL     1     -60.761 -78.253 224.001  1.00  0.00    -0.462 OA
ATOM     11  O   UNL     1     -61.120 -76.955 222.116  1.00  0.00    -0.252 OA
ATOM     12  C   UNL     1     -61.879 -79.145 225.936  1.00  0.00     0.053 C 
ENDBRANCH   4   5
ENDBRANCH   3   4
BRANCH   3  13
ATOM     13  O   UNL     1     -63.038 -82.119 221.063  1.00  0.00    -0.390 OA
ATOM     14  H   UNL     1     -63.759 -81.762 221.647  1.00  0.00     0.211 HD
ENDBRANCH   3  13
ENDBRANCH   1   3
BRANCH   1  15
ATOM     15  C   UNL     1     -59.526 -81.242 220.175  1.00  0.00     0.032 C 
ATOM     16  C   UNL     1     -58.363 -82.021 219.518  1.00  0.00     0.010 C 
ATOM     17  C   UNL     1     -59.843 -80.038 219.163  1.00  0.00     0.006 C 
ATOM     18  C   UNL     1     -57.799 -81.143 218.418  1.00  0.00     0.041 C 
ATOM     19  C   UNL     1     -58.995 -80.357 217.884  1.00  0.00     0.092 C 
ATOM     20  C   UNL     1     -59.284 -78.734 219.807  1.00  0.00     0.011 C 
ATOM     21  C   UNL     1     -61.332 -79.785 218.762  1.00  0.00     0.015 C 
ATOM     22  C   UNL     1     -58.505 -79.127 217.099  1.00  0.00    -0.031 C 
ATOM     23  C   UNL     1     -59.391 -77.492 218.921  1.00  0.00     0.009 C 
ATOM     24  C   UNL     1     -59.007 -77.710 217.426  1.00  0.00     0.025 C 
ATOM     25  C   UNL     1     -57.759 -79.342 215.991  1.00  0.00     0.050 C 
ATOM     26  C   UNL     1     -58.056 -76.590 216.848  1.00  0.00    -0.013 C 
ATOM     27  C   UNL     1     -57.359 -78.248 215.091  1.00  0.00     0.159 C 
ATOM     28  C   UNL     1     -57.921 -76.868 215.316  1.00  0.00     0.070 C 
ATOM     29  C   UNL     1     -58.701 -75.179 217.027  1.00  0.00     0.042 C 
ATOM     30  C   UNL     1     -56.669 -76.634 217.569  1.00  0.00     0.013 C 
ATOM     31  O   UNL     1     -56.631 -78.501 214.093  1.00  0.00    -0.295 OA
ATOM     32  C   UNL     1     -57.149 -75.763 214.560  1.00  0.00     0.047 C 
ATOM     33  C   UNL     1     -57.942 -74.067 216.269  1.00  0.00     0.143 C 
ATOM     34  C   UNL     1     -57.813 -74.390 214.768  1.00  0.00     0.143 C 
BRANCH  19  35
ATOM     35  O   UNL     1     -59.709 -81.228 217.026  1.00  0.00    -0.385 OA
ATOM     36  H   UNL     1     -59.534 -82.164 217.308  1.00  0.00     0.211 HD
ENDBRANCH  19  35
BRANCH  33  37
ATOM     37  O   UNL     1     -58.623 -72.845 216.421  1.00  0.00    -0.390 OA
ATOM     38  H   UNL     1     -59.111 -72.685 215.571  1.00  0.00     0.211 HD
ENDBRANCH  33  37
BRANCH  34  39
ATOM     39  O   UNL     1     -59.082 -74.364 214.163  1.00  0.00    -0.390 OA
ATOM     40  H   UNL     1     -59.170 -75.195 213.631  1.00  0.00     0.211 HD
ENDBRANCH  34  39
ENDBRANCH   1  15
BRANCH   1  41
ATOM     41  O   UNL     1     -59.984 -83.000 221.788  1.00  0.00    -0.387 OA
ATOM     42  H   UNL     1     -60.662 -83.228 222.480  1.00  0.00     0.211 HD
ENDBRANCH   1  41
TORSDOF 9
ENDMDL
MODEL 5
REMARK VINA RESULT:    -6.600      5.470      9.027
REMARK INTER + INTRA:         -10.433
REMARK INTER:                  -9.465
REMARK INTRA:                  -0.969
REMARK UNBOUND:                -1.325
REMARK SMILES C[C@@H]1OC(=O)[C@H](C)[C@H]1C[C@H](O)[C@](C)(O)[C@H]1CC[C@]2(O)C3=CC(=O)[C@@H]4C[C@@H](O)[C@@H](O)C[C@@]4(C)[C@@H]3CC[C@]12C
REMARK SMILES IDX 12 1 13 2 10 3 9 4 8 5 7 6 6 7 4 8 2 9 3 10 5 11 1 12 11 13
REMARK SMILES IDX 15 15 16 16 36 17 17 18 18 19 35 20 37 21 20 22 34 23 33 24
REMARK SMILES IDX 21 25 31 26 22 27 24 28 30 29 32 30 23 31 25 32 28 33 26 34
REMARK SMILES IDX 19 35 29 37 27 39 14 41
REMARK H PARENT 11 14 19 36 29 38 27 40 14 42
REMARK Flexibility Score: inf
ROOT
ATOM      1  C   UNL     1     -68.273 -81.283 226.193  1.00  0.00     0.091 C 
ATOM      2  C   UNL     1     -69.371 -81.564 225.139  1.00  0.00     0.045 C 
ENDROOT
BRANCH   1   3
ATOM      3  C   UNL     1     -68.860 -81.102 227.653  1.00  0.00     0.146 C 
BRANCH   3   4
ATOM      4  C   UNL     1     -69.529 -82.363 228.275  1.00  0.00     0.043 C 
BRANCH   4   5
ATOM      5  C   UNL     1     -68.791 -82.975 229.491  1.00  0.00     0.046 C 
ATOM      6  C   UNL     1     -67.249 -81.720 231.125  1.00  0.00     0.020 C 
ATOM      7  C   UNL     1     -67.406 -82.290 229.704  1.00  0.00     0.103 C 
ATOM      8  C   UNL     1     -66.452 -83.397 229.471  1.00  0.00     0.309 C 
ATOM      9  C   UNL     1     -68.483 -84.494 229.283  1.00  0.00     0.177 C 
ATOM     10  O   UNL     1     -67.068 -84.607 229.242  1.00  0.00    -0.462 OA
ATOM     11  O   UNL     1     -65.200 -83.256 229.465  1.00  0.00    -0.252 OA
ATOM     12  C   UNL     1     -69.026 -85.354 230.423  1.00  0.00     0.053 C 
ENDBRANCH   4   5
ENDBRANCH   3   4
BRANCH   3  13
ATOM     13  O   UNL     1     -69.799 -80.066 227.671  1.00  0.00    -0.390 OA
ATOM     14  H   UNL     1     -70.593 -80.359 227.150  1.00  0.00     0.211 HD
ENDBRANCH   3  13
ENDBRANCH   1   3
BRANCH   1  15
ATOM     15  C   UNL     1     -67.331 -80.066 225.765  1.00  0.00     0.032 C 
ATOM     16  C   UNL     1     -66.359 -79.707 226.913  1.00  0.00     0.010 C 
ATOM     17  C   UNL     1     -66.436 -80.019 224.434  1.00  0.00     0.006 C 
ATOM     18  C   UNL     1     -65.107 -79.135 226.279  1.00  0.00     0.041 C 
ATOM     19  C   UNL     1     -64.963 -79.870 224.947  1.00  0.00     0.092 C 
ATOM     20  C   UNL     1     -66.820 -78.720 223.665  1.00  0.00     0.011 C 
ATOM     21  C   UNL     1     -66.531 -81.221 223.439  1.00  0.00     0.015 C 
ATOM     22  C   UNL     1     -64.021 -79.088 224.016  1.00  0.00    -0.031 C 
ATOM     23  C   UNL     1     -65.975 -78.446 222.420  1.00  0.00     0.009 C 
ATOM     24  C   UNL     1     -64.445 -78.688 222.592  1.00  0.00     0.025 C 
ATOM     25  C   UNL     1     -62.738 -78.918 224.412  1.00  0.00     0.050 C 
ATOM     26  C   UNL     1     -63.553 -77.524 222.007  1.00  0.00    -0.013 C 
ATOM     27  C   UNL     1     -61.721 -78.310 223.539  1.00  0.00     0.159 C 
ATOM     28  C   UNL     1     -62.070 -78.007 222.105  1.00  0.00     0.070 C 
ATOM     29  C   UNL     1     -63.883 -77.286 220.499  1.00  0.00     0.042 C 
ATOM     30  C   UNL     1     -63.786 -76.205 222.814  1.00  0.00     0.013 C 
ATOM     31  O   UNL     1     -60.550 -78.141 223.976  1.00  0.00    -0.295 OA
ATOM     32  C   UNL     1     -61.067 -77.050 221.421  1.00  0.00     0.047 C 
ATOM     33  C   UNL     1     -62.883 -76.336 219.803  1.00  0.00     0.143 C 
ATOM     34  C   UNL     1     -61.433 -76.839 219.941  1.00  0.00     0.143 C 
BRANCH  19  35
ATOM     35  O   UNL     1     -64.413 -81.141 225.238  1.00  0.00    -0.385 OA
ATOM     36  H   UNL     1     -64.973 -81.837 224.803  1.00  0.00     0.211 HD
ENDBRANCH  19  35
BRANCH  33  37
ATOM     37  O   UNL     1     -63.207 -76.231 218.437  1.00  0.00    -0.390 OA
ATOM     38  H   UNL     1     -64.093 -76.665 218.322  1.00  0.00     0.211 HD
ENDBRANCH  33  37
BRANCH  34  39
ATOM     39  O   UNL     1     -61.272 -78.036 219.221  1.00  0.00    -0.390 OA
ATOM     40  H   UNL     1     -61.219 -78.771 219.884  1.00  0.00     0.211 HD
ENDBRANCH  34  39
ENDBRANCH   1  15
BRANCH   1  41
ATOM     41  O   UNL     1     -67.473 -82.449 226.216  1.00  0.00    -0.387 OA
ATOM     42  H   UNL     1     -66.754 -82.359 225.535  1.00  0.00     0.211 HD
ENDBRANCH   1  41
TORSDOF 9
ENDMDL
MODEL 6
REMARK VINA RESULT:    -6.553      2.200      9.022
REMARK INTER + INTRA:         -10.368
REMARK INTER:                  -9.727
REMARK INTRA:                  -0.642
REMARK UNBOUND:                -1.325
REMARK SMILES C[C@@H]1OC(=O)[C@H](C)[C@H]1C[C@H](O)[C@](C)(O)[C@H]1CC[C@]2(O)C3=CC(=O)[C@@H]4C[C@@H](O)[C@@H](O)C[C@@]4(C)[C@@H]3CC[C@]12C
REMARK SMILES IDX 12 1 13 2 10 3 9 4 8 5 7 6 6 7 4 8 2 9 3 10 5 11 1 12 11 13
REMARK SMILES IDX 15 15 16 16 36 17 17 18 18 19 35 20 37 21 20 22 34 23 33 24
REMARK SMILES IDX 21 25 31 26 22 27 24 28 30 29 32 30 23 31 25 32 28 33 26 34
REMARK SMILES IDX 19 35 29 37 27 39 14 41
REMARK H PARENT 11 14 19 36 29 38 27 40 14 42
REMARK Flexibility Score: inf
ROOT
ATOM      1  C   UNL     1     -59.210 -79.469 219.787  1.00  0.00     0.091 C 
ATOM      2  C   UNL     1     -58.289 -78.519 220.590  1.00  0.00     0.045 C 
ENDROOT
BRANCH   1   3
ATOM      3  C   UNL     1     -59.695 -78.838 218.418  1.00  0.00     0.146 C 
BRANCH   3   4
ATOM      4  C   UNL     1     -59.783 -77.283 218.383  1.00  0.00     0.043 C 
BRANCH   4   5
ATOM      5  C   UNL     1     -58.622 -76.567 217.650  1.00  0.00     0.046 C 
ATOM      6  C   UNL     1     -58.578 -74.102 216.914  1.00  0.00     0.020 C 
ATOM      7  C   UNL     1     -59.169 -75.499 216.654  1.00  0.00     0.103 C 
ATOM      8  C   UNL     1     -58.732 -76.020 215.340  1.00  0.00     0.309 C 
ATOM      9  C   UNL     1     -57.779 -77.559 216.784  1.00  0.00     0.177 C 
ATOM     10  O   UNL     1     -57.963 -77.159 215.435  1.00  0.00    -0.462 OA
ATOM     11  O   UNL     1     -59.038 -75.493 214.237  1.00  0.00    -0.252 OA
ATOM     12  C   UNL     1     -56.292 -77.505 217.129  1.00  0.00     0.053 C 
ENDBRANCH   4   5
ENDBRANCH   3   4
BRANCH   3  13
ATOM     13  O   UNL     1     -60.949 -79.347 218.068  1.00  0.00    -0.390 OA
ATOM     14  H   UNL     1     -60.845 -80.314 217.866  1.00  0.00     0.211 HD
ENDBRANCH   3  13
ENDBRANCH   1   3
BRANCH   1  15
ATOM     15  C   UNL     1     -60.428 -80.006 220.670  1.00  0.00     0.032 C 
ATOM     16  C   UNL     1     -59.905 -80.883 221.832  1.00  0.00     0.010 C 
ATOM     17  C   UNL     1     -61.566 -79.085 221.326  1.00  0.00     0.006 C 
ATOM     18  C   UNL     1     -60.898 -80.758 222.971  1.00  0.00     0.041 C 
ATOM     19  C   UNL     1     -61.444 -79.335 222.869  1.00  0.00     0.092 C 
ATOM     20  C   UNL     1     -62.941 -79.638 220.848  1.00  0.00     0.011 C 
ATOM     21  C   UNL     1     -61.530 -77.550 221.034  1.00  0.00     0.015 C 
ATOM     22  C   UNL     1     -62.762 -79.222 223.656  1.00  0.00    -0.031 C 
ATOM     23  C   UNL     1     -64.155 -78.951 221.474  1.00  0.00     0.009 C 
ATOM     24  C   UNL     1     -64.046 -78.680 223.005  1.00  0.00     0.025 C 
ATOM     25  C   UNL     1     -62.719 -79.439 224.991  1.00  0.00     0.050 C 
ATOM     26  C   UNL     1     -65.342 -79.084 223.812  1.00  0.00    -0.013 C 
ATOM     27  C   UNL     1     -63.888 -79.219 225.858  1.00  0.00     0.159 C 
ATOM     28  C   UNL     1     -65.126 -78.587 225.278  1.00  0.00     0.070 C 
ATOM     29  C   UNL     1     -66.596 -78.352 223.235  1.00  0.00     0.042 C 
ATOM     30  C   UNL     1     -65.557 -80.631 223.750  1.00  0.00     0.013 C 
ATOM     31  O   UNL     1     -63.803 -79.475 227.090  1.00  0.00    -0.295 OA
ATOM     32  C   UNL     1     -66.376 -78.757 226.171  1.00  0.00     0.047 C 
ATOM     33  C   UNL     1     -67.850 -78.509 224.123  1.00  0.00     0.143 C 
ATOM     34  C   UNL     1     -67.588 -78.027 225.564  1.00  0.00     0.143 C 
BRANCH  19  35
ATOM     35  O   UNL     1     -60.467 -78.479 223.430  1.00  0.00    -0.385 OA
ATOM     36  H   UNL     1     -60.893 -77.606 223.640  1.00  0.00     0.211 HD
ENDBRANCH  19  35
BRANCH  33  37
ATOM     37  O   UNL     1     -68.911 -77.765 223.574  1.00  0.00    -0.390 OA
ATOM     38  H   UNL     1     -69.165 -78.218 222.727  1.00  0.00     0.211 HD
ENDBRANCH  33  37
BRANCH  34  39
ATOM     39  O   UNL     1     -67.376 -76.637 225.571  1.00  0.00    -0.390 OA
ATOM     40  H   UNL     1     -67.376 -76.336 224.627  1.00  0.00     0.211 HD
ENDBRANCH  34  39
ENDBRANCH   1  15
BRANCH   1  41
ATOM     41  O   UNL     1     -58.401 -80.583 219.461  1.00  0.00    -0.387 OA
ATOM     42  H   UNL     1     -58.645 -80.902 218.551  1.00  0.00     0.211 HD
ENDBRANCH   1  41
TORSDOF 9
ENDMDL
MODEL 7
REMARK VINA RESULT:    -6.546      2.413      9.443
REMARK INTER + INTRA:         -10.358
REMARK INTER:                  -9.799
REMARK INTRA:                  -0.559
REMARK UNBOUND:                -1.325
REMARK SMILES C[C@@H]1OC(=O)[C@H](C)[C@H]1C[C@H](O)[C@](C)(O)[C@H]1CC[C@]2(O)C3=CC(=O)[C@@H]4C[C@@H](O)[C@@H](O)C[C@@]4(C)[C@@H]3CC[C@]12C
REMARK SMILES IDX 12 1 13 2 10 3 9 4 8 5 7 6 6 7 4 8 2 9 3 10 5 11 1 12 11 13
REMARK SMILES IDX 15 15 16 16 36 17 17 18 18 19 35 20 37 21 20 22 34 23 33 24
REMARK SMILES IDX 21 25 31 26 22 27 24 28 30 29 32 30 23 31 25 32 28 33 26 34
REMARK SMILES IDX 19 35 29 37 27 39 14 41
REMARK H PARENT 11 14 19 36 29 38 27 40 14 42
REMARK Flexibility Score: inf
ROOT
ATOM      1  C   UNL     1     -59.403 -79.397 219.374  1.00  0.00     0.091 C 
ATOM      2  C   UNL     1     -58.753 -80.778 219.632  1.00  0.00     0.045 C 
ENDROOT
BRANCH   1   3
ATOM      3  C   UNL     1     -58.380 -78.342 218.785  1.00  0.00     0.146 C 
BRANCH   3   4
ATOM      4  C   UNL     1     -58.183 -78.380 217.240  1.00  0.00     0.043 C 
BRANCH   4   5
ATOM      5  C   UNL     1     -57.535 -77.117 216.622  1.00  0.00     0.046 C 
ATOM      6  C   UNL     1     -58.241 -74.679 217.048  1.00  0.00     0.020 C 
ATOM      7  C   UNL     1     -58.604 -76.011 216.367  1.00  0.00     0.103 C 
ATOM      8  C   UNL     1     -58.589 -75.871 214.894  1.00  0.00     0.309 C 
ATOM      9  C   UNL     1     -56.894 -77.414 215.227  1.00  0.00     0.177 C 
ATOM     10  O   UNL     1     -57.635 -76.654 214.283  1.00  0.00    -0.462 OA
ATOM     11  O   UNL     1     -59.375 -75.125 214.250  1.00  0.00    -0.252 OA
ATOM     12  C   UNL     1     -55.425 -77.000 215.167  1.00  0.00     0.053 C 
ENDBRANCH   4   5
ENDBRANCH   3   4
BRANCH   3  13
ATOM     13  O   UNL     1     -57.125 -78.500 219.381  1.00  0.00    -0.390 OA
ATOM     14  H   UNL     1     -56.628 -77.645 219.287  1.00  0.00     0.211 HD
ENDBRANCH   3  13
ENDBRANCH   1   3
BRANCH   1  15
ATOM     15  C   UNL     1     -60.165 -78.846 220.665  1.00  0.00     0.032 C 
ATOM     16  C   UNL     1     -60.501 -77.346 220.493  1.00  0.00     0.010 C 
ATOM     17  C   UNL     1     -61.486 -79.496 221.301  1.00  0.00     0.006 C 
ATOM     18  C   UNL     1     -61.755 -77.071 221.298  1.00  0.00     0.041 C 
ATOM     19  C   UNL     1     -62.567 -78.363 221.225  1.00  0.00     0.092 C 
ATOM     20  C   UNL     1     -61.183 -79.782 222.803  1.00  0.00     0.011 C 
ATOM     21  C   UNL     1     -62.046 -80.806 220.659  1.00  0.00     0.015 C 
ATOM     22  C   UNL     1     -63.620 -78.385 222.347  1.00  0.00    -0.031 C 
ATOM     23  C   UNL     1     -62.379 -80.297 223.605  1.00  0.00     0.009 C 
ATOM     24  C   UNL     1     -63.727 -79.565 223.328  1.00  0.00     0.025 C 
ATOM     25  C   UNL     1     -64.572 -77.424 222.338  1.00  0.00     0.050 C 
ATOM     26  C   UNL     1     -64.518 -79.182 224.640  1.00  0.00    -0.013 C 
ATOM     27  C   UNL     1     -65.704 -77.433 223.278  1.00  0.00     0.159 C 
ATOM     28  C   UNL     1     -65.903 -78.625 224.178  1.00  0.00     0.070 C 
ATOM     29  C   UNL     1     -64.777 -80.451 225.513  1.00  0.00     0.042 C 
ATOM     30  C   UNL     1     -63.716 -78.125 225.467  1.00  0.00     0.013 C 
ATOM     31  O   UNL     1     -66.541 -76.490 223.250  1.00  0.00    -0.295 OA
ATOM     32  C   UNL     1     -66.875 -78.353 225.349  1.00  0.00     0.047 C 
ATOM     33  C   UNL     1     -65.752 -80.193 226.683  1.00  0.00     0.143 C 
ATOM     34  C   UNL     1     -67.096 -79.625 226.186  1.00  0.00     0.143 C 
BRANCH  19  35
ATOM     35  O   UNL     1     -63.204 -78.377 219.961  1.00  0.00    -0.385 OA
ATOM     36  H   UNL     1     -64.183 -78.283 220.098  1.00  0.00     0.211 HD
ENDBRANCH  19  35
BRANCH  33  37
ATOM     37  O   UNL     1     -65.987 -81.395 227.375  1.00  0.00    -0.390 OA
ATOM     38  H   UNL     1     -65.221 -81.994 227.170  1.00  0.00     0.211 HD
ENDBRANCH  33  37
BRANCH  34  39
ATOM     39  O   UNL     1     -67.774 -80.598 225.429  1.00  0.00    -0.390 OA
ATOM     40  H   UNL     1     -68.744 -80.450 225.563  1.00  0.00     0.211 HD
ENDBRANCH  34  39
ENDBRANCH   1  15
BRANCH   1  41
ATOM     41  O   UNL     1     -60.377 -79.627 218.374  1.00  0.00    -0.387 OA
ATOM     42  H   UNL     1     -60.184 -80.497 217.932  1.00  0.00     0.211 HD
ENDBRANCH   1  41
TORSDOF 9
ENDMDL
MODEL 8
REMARK VINA RESULT:    -6.538      4.920      8.471
REMARK INTER + INTRA:         -10.347
REMARK INTER:                  -9.426
REMARK INTRA:                  -0.921
REMARK UNBOUND:                -1.325
REMARK SMILES C[C@@H]1OC(=O)[C@H](C)[C@H]1C[C@H](O)[C@](C)(O)[C@H]1CC[C@]2(O)C3=CC(=O)[C@@H]4C[C@@H](O)[C@@H](O)C[C@@]4(C)[C@@H]3CC[C@]12C
REMARK SMILES IDX 12 1 13 2 10 3 9 4 8 5 7 6 6 7 4 8 2 9 3 10 5 11 1 12 11 13
REMARK SMILES IDX 15 15 16 16 36 17 17 18 18 19 35 20 37 21 20 22 34 23 33 24
REMARK SMILES IDX 21 25 31 26 22 27 24 28 30 29 32 30 23 31 25 32 28 33 26 34
REMARK SMILES IDX 19 35 29 37 27 39 14 41
REMARK H PARENT 11 14 19 36 29 38 27 40 14 42
REMARK Flexibility Score: inf
ROOT
ATOM      1  C   UNL     1     -68.095 -81.157 226.540  1.00  0.00     0.091 C 
ATOM      2  C   UNL     1     -67.308 -82.482 226.690  1.00  0.00     0.045 C 
ENDROOT
BRANCH   1   3
ATOM      3  C   UNL     1     -69.401 -81.321 225.659  1.00  0.00     0.146 C 
BRANCH   3   4
ATOM      4  C   UNL     1     -70.687 -80.648 226.225  1.00  0.00     0.043 C 
BRANCH   4   5
ATOM      5  C   UNL     1     -71.825 -80.421 225.199  1.00  0.00     0.046 C 
ATOM      6  C   UNL     1     -71.700 -80.863 222.666  1.00  0.00     0.020 C 
ATOM      7  C   UNL     1     -71.250 -79.956 223.825  1.00  0.00     0.103 C 
ATOM      8  C   UNL     1     -71.810 -78.595 223.678  1.00  0.00     0.309 C 
ATOM      9  C   UNL     1     -72.802 -79.288 225.652  1.00  0.00     0.177 C 
ATOM     10  O   UNL     1     -72.667 -78.246 224.698  1.00  0.00    -0.462 OA
ATOM     11  O   UNL     1     -71.527 -77.817 222.727  1.00  0.00    -0.252 OA
ATOM     12  C   UNL     1     -74.255 -79.759 225.685  1.00  0.00     0.053 C 
ENDBRANCH   4   5
ENDBRANCH   3   4
BRANCH   3  13
ATOM     13  O   UNL     1     -69.680 -82.676 225.456  1.00  0.00    -0.390 OA
ATOM     14  H   UNL     1     -70.621 -82.755 225.147  1.00  0.00     0.211 HD
ENDBRANCH   3  13
ENDBRANCH   1   3
BRANCH   1  15
ATOM     15  C   UNL     1     -67.165 -79.965 226.027  1.00  0.00     0.032 C 
ATOM     16  C   UNL     1     -66.111 -79.604 227.100  1.00  0.00     0.010 C 
ATOM     17  C   UNL     1     -66.362 -79.956 224.638  1.00  0.00     0.006 C 
ATOM     18  C   UNL     1     -64.895 -79.065 226.372  1.00  0.00     0.041 C 
ATOM     19  C   UNL     1     -64.855 -79.825 225.047  1.00  0.00     0.092 C 
ATOM     20  C   UNL     1     -66.775 -78.663 223.874  1.00  0.00     0.011 C 
ATOM     21  C   UNL     1     -66.545 -81.172 223.673  1.00  0.00     0.015 C 
ATOM     22  C   UNL     1     -63.965 -79.075 224.040  1.00  0.00    -0.031 C 
ATOM     23  C   UNL     1     -66.013 -78.425 222.569  1.00  0.00     0.009 C 
ATOM     24  C   UNL     1     -64.479 -78.691 222.641  1.00  0.00     0.025 C 
ATOM     25  C   UNL     1     -62.656 -78.922 224.346  1.00  0.00     0.050 C 
ATOM     26  C   UNL     1     -63.609 -77.553 221.977  1.00  0.00    -0.013 C 
ATOM     27  C   UNL     1     -61.691 -78.347 223.394  1.00  0.00     0.159 C 
ATOM     28  C   UNL     1     -62.131 -78.061 221.982  1.00  0.00     0.070 C 
ATOM     29  C   UNL     1     -64.037 -77.335 220.490  1.00  0.00     0.042 C 
ATOM     30  C   UNL     1     -63.765 -76.217 222.774  1.00  0.00     0.013 C 
ATOM     31  O   UNL     1     -60.491 -78.192 223.748  1.00  0.00    -0.295 OA
ATOM     32  C   UNL     1     -61.162 -77.133 221.215  1.00  0.00     0.047 C 
ATOM     33  C   UNL     1     -63.072 -76.414 219.711  1.00  0.00     0.143 C 
ATOM     34  C   UNL     1     -61.624 -76.940 219.760  1.00  0.00     0.143 C 
BRANCH  19  35
ATOM     35  O   UNL     1     -64.308 -81.101 225.322  1.00  0.00    -0.385 OA
ATOM     36  H   UNL     1     -63.943 -81.098 226.247  1.00  0.00     0.211 HD
ENDBRANCH  19  35
BRANCH  33  37
ATOM     37  O   UNL     1     -63.486 -76.326 218.369  1.00  0.00    -0.390 OA
ATOM     38  H   UNL     1     -64.284 -76.911 218.280  1.00  0.00     0.211 HD
ENDBRANCH  33  37
BRANCH  34  39
ATOM     39  O   UNL     1     -61.533 -78.152 219.052  1.00  0.00    -0.390 OA
ATOM     40  H   UNL     1     -62.144 -78.796 219.493  1.00  0.00     0.211 HD
ENDBRANCH  34  39
ENDBRANCH   1  15
BRANCH   1  41
ATOM     41  O   UNL     1     -68.521 -80.829 227.848  1.00  0.00    -0.387 OA
ATOM     42  H   UNL     1     -67.728 -80.808 228.448  1.00  0.00     0.211 HD
ENDBRANCH   1  41
TORSDOF 9
ENDMDL
MODEL 9
REMARK VINA RESULT:    -6.454      5.478      8.893
REMARK INTER + INTRA:         -10.231
REMARK INTER:                  -9.403
REMARK INTRA:                  -0.828
REMARK UNBOUND:                -1.325
REMARK SMILES C[C@@H]1OC(=O)[C@H](C)[C@H]1C[C@H](O)[C@](C)(O)[C@H]1CC[C@]2(O)C3=CC(=O)[C@@H]4C[C@@H](O)[C@@H](O)C[C@@]4(C)[C@@H]3CC[C@]12C
REMARK SMILES IDX 12 1 13 2 10 3 9 4 8 5 7 6 6 7 4 8 2 9 3 10 5 11 1 12 11 13
REMARK SMILES IDX 15 15 16 16 36 17 17 18 18 19 35 20 37 21 20 22 34 23 33 24
REMARK SMILES IDX 21 25 31 26 22 27 24 28 30 29 32 30 23 31 25 32 28 33 26 34
REMARK SMILES IDX 19 35 29 37 27 39 14 41
REMARK H PARENT 11 14 19 36 29 38 27 40 14 42
REMARK Flexibility Score: inf
ROOT
ATOM      1  C   UNL     1     -68.088 -81.158 226.537  1.00  0.00     0.091 C 
ATOM      2  C   UNL     1     -67.344 -82.515 226.524  1.00  0.00     0.045 C 
ENDROOT
BRANCH   1   3
ATOM      3  C   UNL     1     -69.473 -81.214 225.770  1.00  0.00     0.146 C 
BRANCH   3   4
ATOM      4  C   UNL     1     -70.388 -79.965 225.934  1.00  0.00     0.043 C 
BRANCH   4   5
ATOM      5  C   UNL     1     -71.633 -80.166 226.833  1.00  0.00     0.046 C 
ATOM      6  C   UNL     1     -74.022 -80.686 226.030  1.00  0.00     0.020 C 
ATOM      7  C   UNL     1     -72.917 -79.620 226.136  1.00  0.00     0.103 C 
ATOM      8  C   UNL     1     -73.332 -78.516 227.029  1.00  0.00     0.309 C 
ATOM      9  C   UNL     1     -71.515 -79.378 228.178  1.00  0.00     0.177 C 
ATOM     10  O   UNL     1     -72.544 -78.400 228.153  1.00  0.00    -0.462 OA
ATOM     11  O   UNL     1     -74.298 -77.743 226.790  1.00  0.00    -0.252 OA
ATOM     12  C   UNL     1     -71.704 -80.281 229.395  1.00  0.00     0.053 C 
ENDBRANCH   4   5
ENDBRANCH   3   4
BRANCH   3  13
ATOM     13  O   UNL     1     -70.203 -82.337 226.173  1.00  0.00    -0.390 OA
ATOM     14  H   UNL     1     -69.721 -82.763 226.931  1.00  0.00     0.211 HD
ENDBRANCH   3  13
ENDBRANCH   1   3
BRANCH   1  15
ATOM     15  C   UNL     1     -67.160 -79.964 226.025  1.00  0.00     0.032 C 
ATOM     16  C   UNL     1     -66.105 -79.603 227.097  1.00  0.00     0.010 C 
ATOM     17  C   UNL     1     -66.359 -79.952 224.635  1.00  0.00     0.006 C 
ATOM     18  C   UNL     1     -64.891 -79.061 226.368  1.00  0.00     0.041 C 
ATOM     19  C   UNL     1     -64.852 -79.819 225.042  1.00  0.00     0.092 C 
ATOM     20  C   UNL     1     -66.776 -78.658 223.873  1.00  0.00     0.011 C 
ATOM     21  C   UNL     1     -66.542 -81.166 223.668  1.00  0.00     0.015 C 
ATOM     22  C   UNL     1     -63.965 -79.066 224.034  1.00  0.00    -0.031 C 
ATOM     23  C   UNL     1     -66.016 -78.417 222.568  1.00  0.00     0.009 C 
ATOM     24  C   UNL     1     -64.481 -78.681 222.637  1.00  0.00     0.025 C 
ATOM     25  C   UNL     1     -62.655 -78.912 224.338  1.00  0.00     0.050 C 
ATOM     26  C   UNL     1     -63.614 -77.541 221.973  1.00  0.00    -0.013 C 
ATOM     27  C   UNL     1     -61.692 -78.334 223.386  1.00  0.00     0.159 C 
ATOM     28  C   UNL     1     -62.135 -78.047 221.975  1.00  0.00     0.070 C 
ATOM     29  C   UNL     1     -64.045 -77.321 220.487  1.00  0.00     0.042 C 
ATOM     30  C   UNL     1     -63.770 -76.206 222.772  1.00  0.00     0.013 C 
ATOM     31  O   UNL     1     -60.492 -78.178 223.738  1.00  0.00    -0.295 OA
ATOM     32  C   UNL     1     -61.168 -77.117 221.208  1.00  0.00     0.047 C 
ATOM     33  C   UNL     1     -63.081 -76.398 219.708  1.00  0.00     0.143 C 
ATOM     34  C   UNL     1     -61.633 -76.922 219.754  1.00  0.00     0.143 C 
BRANCH  19  35
ATOM     35  O   UNL     1     -64.303 -81.095 225.314  1.00  0.00    -0.385 OA
ATOM     36  H   UNL     1     -65.040 -81.760 225.337  1.00  0.00     0.211 HD
ENDBRANCH  19  35
BRANCH  33  37
ATOM     37  O   UNL     1     -63.497 -76.308 218.367  1.00  0.00    -0.390 OA
ATOM     38  H   UNL     1     -62.752 -75.881 217.867  1.00  0.00     0.211 HD
ENDBRANCH  33  37
BRANCH  34  39
ATOM     39  O   UNL     1     -61.541 -78.133 219.044  1.00  0.00    -0.390 OA
ATOM     40  H   UNL     1     -62.040 -78.014 218.196  1.00  0.00     0.211 HD
ENDBRANCH  34  39
ENDBRANCH   1  15
BRANCH   1  41
ATOM     41  O   UNL     1     -68.384 -80.910 227.898  1.00  0.00    -0.387 OA
ATOM     42  H   UNL     1     -67.614 -80.436 228.313  1.00  0.00     0.211 HD
ENDBRANCH   1  41
TORSDOF 9
ENDMDL
