MODEL 1
REMARK VINA RESULT:    -5.848      0.000      0.000
REMARK INTER + INTRA:          -7.003
REMARK INTER:                  -6.874
REMARK INTRA:                  -0.129
REMARK UNBOUND:                -0.129
REMARK SMILES O=c1c(O)c(-c2ccc(O)cc2)oc2cc(O)cc(O)c12
REMARK SMILES IDX 5 1 3 2 2 3 1 4 21 5 19 6 18 7 16 8 15 9 14 10 13 11 6 12
REMARK SMILES IDX 7 13 8 14 9 15 12 16 11 17 10 18 4 20 20 22 17 24
REMARK H PARENT 10 19 4 21 20 23 17 25
REMARK Flexibility Score: inf
ROOT
ATOM      1  C   UNL     1       5.892 -17.115  14.240  1.00  0.00     0.180 A 
ATOM      2  C   UNL     1       6.740 -15.997  14.377  1.00  0.00     0.208 A 
ATOM      3  C   UNL     1       6.170 -14.743  14.646  1.00  0.00     0.238 A 
ATOM      4  O   UNL     1       6.918 -13.734  14.760  1.00  0.00    -0.285 OA
ATOM      5  C   UNL     1       4.773 -14.629  14.796  1.00  0.00     0.111 A 
ATOM      6  C   UNL     1       4.120 -13.404  15.072  1.00  0.00     0.134 A 
ATOM      7  C   UNL     1       2.726 -13.375  15.216  1.00  0.00     0.093 A 
ATOM      8  C   UNL     1       1.971 -14.544  15.089  1.00  0.00     0.123 A 
ATOM      9  C   UNL     1       2.610 -15.758  14.815  1.00  0.00     0.094 A 
ATOM     10  C   UNL     1       4.000 -15.807  14.667  1.00  0.00     0.146 A 
ATOM     11  O   UNL     1       4.580 -16.972  14.402  1.00  0.00    -0.452 OA
ENDROOT
BRANCH   1  12
ATOM     12  C   UNL     1       6.415 -18.465  13.936  1.00  0.00     0.021 A 
ATOM     13  C   UNL     1       7.114 -18.731  12.744  1.00  0.00     0.016 A 
ATOM     14  C   UNL     1       7.577 -20.021  12.469  1.00  0.00     0.047 A 
ATOM     15  C   UNL     1       7.336 -21.064  13.372  1.00  0.00     0.115 A 
ATOM     16  C   UNL     1       6.160 -19.522  14.827  1.00  0.00     0.016 A 
ATOM     17  C   UNL     1       6.624 -20.811  14.549  1.00  0.00     0.047 A 
BRANCH  15  18
ATOM     18  O   UNL     1       7.793 -22.353  13.108  1.00  0.00    -0.508 OA
ATOM     19  H   UNL     1       7.973 -23.015  13.854  1.00  0.00     0.293 HD
ENDBRANCH  15  18
ENDBRANCH   1  12
BRANCH   2  20
ATOM     20  O   UNL     1       8.125 -16.145  14.274  1.00  0.00    -0.502 OA
ATOM     21  H   UNL     1       8.770 -15.645  14.873  1.00  0.00     0.293 HD
ENDBRANCH   2  20
BRANCH   6  22
ATOM     22  O   UNL     1       4.845 -12.219  15.206  1.00  0.00    -0.507 OA
ATOM     23  H   UNL     1       4.917 -11.549  14.448  1.00  0.00     0.293 HD
ENDBRANCH   6  22
BRANCH   8  24
ATOM     24  O   UNL     1       0.588 -14.488  15.236  1.00  0.00    -0.508 OA
ATOM     25  H   UNL     1       0.016 -13.886  14.654  1.00  0.00     0.293 HD
ENDBRANCH   8  24
TORSDOF 5
ENDMDL
MODEL 2
REMARK VINA RESULT:    -5.802      0.121      1.064
REMARK INTER + INTRA:          -6.948
REMARK INTER:                  -6.873
REMARK INTRA:                  -0.075
REMARK UNBOUND:                -0.129
REMARK SMILES O=c1c(O)c(-c2ccc(O)cc2)oc2cc(O)cc(O)c12
REMARK SMILES IDX 5 1 3 2 2 3 1 4 21 5 19 6 18 7 16 8 15 9 14 10 13 11 6 12
REMARK SMILES IDX 7 13 8 14 9 15 12 16 11 17 10 18 4 20 20 22 17 24
REMARK H PARENT 10 19 4 21 20 23 17 25
REMARK Flexibility Score: inf
ROOT
ATOM      1  C   UNL     1       5.871 -17.238  14.236  1.00  0.00     0.180 A 
ATOM      2  C   UNL     1       6.743 -16.140  14.373  1.00  0.00     0.208 A 
ATOM      3  C   UNL     1       6.200 -14.871  14.625  1.00  0.00     0.238 A 
ATOM      4  O   UNL     1       6.970 -13.878  14.738  1.00  0.00    -0.285 OA
ATOM      5  C   UNL     1       4.804 -14.722  14.758  1.00  0.00     0.111 A 
ATOM      6  C   UNL     1       4.178 -13.480  15.016  1.00  0.00     0.134 A 
ATOM      7  C   UNL     1       2.783 -13.416  15.144  1.00  0.00     0.093 A 
ATOM      8  C   UNL     1       2.003 -14.568  15.019  1.00  0.00     0.123 A 
ATOM      9  C   UNL     1       2.615 -15.799  14.763  1.00  0.00     0.094 A 
ATOM     10  C   UNL     1       4.005 -15.882  14.631  1.00  0.00     0.146 A 
ATOM     11  O   UNL     1       4.560 -17.063  14.382  1.00  0.00    -0.452 OA
ENDROOT
BRANCH   1  12
ATOM     12  C   UNL     1       6.365 -18.604  13.950  1.00  0.00     0.021 A 
ATOM     13  C   UNL     1       6.157 -19.664  14.852  1.00  0.00     0.016 A 
ATOM     14  C   UNL     1       6.655 -20.939  14.571  1.00  0.00     0.047 A 
ATOM     15  C   UNL     1       7.377 -21.170  13.392  1.00  0.00     0.115 A 
ATOM     16  C   UNL     1       7.108 -18.839  12.781  1.00  0.00     0.016 A 
ATOM     17  C   UNL     1       7.604 -20.116  12.501  1.00  0.00     0.047 A 
BRANCH  15  18
ATOM     18  O   UNL     1       7.876 -22.437  13.102  1.00  0.00    -0.508 OA
ATOM     19  H   UNL     1       8.561 -22.887  13.698  1.00  0.00     0.293 HD
ENDBRANCH  15  18
ENDBRANCH   1  12
BRANCH   2  20
ATOM     20  O   UNL     1       8.125 -16.321  14.286  1.00  0.00    -0.502 OA
ATOM     21  H   UNL     1       8.568 -17.213  14.473  1.00  0.00     0.293 HD
ENDBRANCH   2  20
BRANCH   6  22
ATOM     22  O   UNL     1       4.930 -12.310  15.148  1.00  0.00    -0.507 OA
ATOM     23  H   UNL     1       4.647 -11.443  14.706  1.00  0.00     0.293 HD
ENDBRANCH   6  22
BRANCH   8  24
ATOM     24  O   UNL     1       0.619 -14.478  15.150  1.00  0.00    -0.508 OA
ATOM     25  H   UNL     1       0.125 -14.957  15.895  1.00  0.00     0.293 HD
ENDBRANCH   8  24
TORSDOF 5
ENDMDL
MODEL 3
REMARK VINA RESULT:    -5.053      2.478      6.963
REMARK INTER + INTRA:          -6.068
REMARK INTER:                  -5.823
REMARK INTRA:                  -0.245
REMARK UNBOUND:                -0.129
REMARK SMILES O=c1c(O)c(-c2ccc(O)cc2)oc2cc(O)cc(O)c12
REMARK SMILES IDX 5 1 3 2 2 3 1 4 21 5 19 6 18 7 16 8 15 9 14 10 13 11 6 12
REMARK SMILES IDX 7 13 8 14 9 15 12 16 11 17 10 18 4 20 20 22 17 24
REMARK H PARENT 10 19 4 21 20 23 17 25
REMARK Flexibility Score: inf
ROOT
ATOM      1  C   UNL     1       5.022 -17.283  15.565  1.00  0.00     0.180 A 
ATOM      2  C   UNL     1       5.150 -18.163  14.473  1.00  0.00     0.208 A 
ATOM      3  C   UNL     1       5.884 -19.348  14.639  1.00  0.00     0.238 A 
ATOM      4  O   UNL     1       6.015 -20.138  13.664  1.00  0.00    -0.285 OA
ATOM      5  C   UNL     1       6.457 -19.644  15.893  1.00  0.00     0.111 A 
ATOM      6  C   UNL     1       7.207 -20.818  16.144  1.00  0.00     0.134 A 
ATOM      7  C   UNL     1       7.737 -21.045  17.422  1.00  0.00     0.093 A 
ATOM      8  C   UNL     1       7.533 -20.123  18.452  1.00  0.00     0.123 A 
ATOM      9  C   UNL     1       6.793 -18.961  18.210  1.00  0.00     0.094 A 
ATOM     10  C   UNL     1       6.258 -18.717  16.942  1.00  0.00     0.146 A 
ATOM     11  O   UNL     1       5.564 -17.603  16.738  1.00  0.00    -0.452 OA
ENDROOT
BRANCH   1  12
ATOM     12  C   UNL     1       4.281 -16.006  15.464  1.00  0.00     0.021 A 
ATOM     13  C   UNL     1       4.953 -14.773  15.373  1.00  0.00     0.016 A 
ATOM     14  C   UNL     1       4.231 -13.578  15.303  1.00  0.00     0.047 A 
ATOM     15  C   UNL     1       2.831 -13.598  15.336  1.00  0.00     0.115 A 
ATOM     16  C   UNL     1       2.877 -16.015  15.518  1.00  0.00     0.016 A 
ATOM     17  C   UNL     1       2.158 -14.819  15.447  1.00  0.00     0.047 A 
BRANCH  15  18
ATOM     18  O   UNL     1       2.102 -12.413  15.266  1.00  0.00    -0.508 OA
ATOM     19  H   UNL     1       1.148 -12.397  14.922  1.00  0.00     0.293 HD
ENDBRANCH  15  18
ENDBRANCH   1  12
BRANCH   2  20
ATOM     20  O   UNL     1       4.531 -17.872  13.255  1.00  0.00    -0.502 OA
ATOM     21  H   UNL     1       5.045 -17.820  12.384  1.00  0.00     0.293 HD
ENDBRANCH   2  20
BRANCH   6  22
ATOM     22  O   UNL     1       7.428 -21.759  15.136  1.00  0.00    -0.507 OA
ATOM     23  H   UNL     1       8.352 -21.923  14.754  1.00  0.00     0.293 HD
ENDBRANCH   6  22
BRANCH   8  24
ATOM     24  O   UNL     1       8.070 -20.372  19.713  1.00  0.00    -0.508 OA
ATOM     25  H   UNL     1       8.083 -19.659  20.434  1.00  0.00     0.293 HD
ENDBRANCH   8  24
TORSDOF 5
ENDMDL
MODEL 4
REMARK VINA RESULT:    -5.039      3.628      7.123
REMARK INTER + INTRA:          -6.051
REMARK INTER:                  -5.764
REMARK INTRA:                  -0.287
REMARK UNBOUND:                -0.129
REMARK SMILES O=c1c(O)c(-c2ccc(O)cc2)oc2cc(O)cc(O)c12
REMARK SMILES IDX 5 1 3 2 2 3 1 4 21 5 19 6 18 7 16 8 15 9 14 10 13 11 6 12
REMARK SMILES IDX 7 13 8 14 9 15 12 16 11 17 10 18 4 20 20 22 17 24
REMARK H PARENT 10 19 4 21 20 23 17 25
REMARK Flexibility Score: inf
ROOT
ATOM      1  C   UNL     1       5.851 -11.801  14.454  1.00  0.00     0.180 A 
ATOM      2  C   UNL     1       6.784 -12.642  15.090  1.00  0.00     0.208 A 
ATOM      3  C   UNL     1       6.350 -13.878  15.593  1.00  0.00     0.238 A 
ATOM      4  O   UNL     1       7.176 -14.635  16.174  1.00  0.00    -0.285 OA
ATOM      5  C   UNL     1       5.003 -14.261  15.436  1.00  0.00     0.111 A 
ATOM      6  C   UNL     1       4.486 -15.491  15.911  1.00  0.00     0.134 A 
ATOM      7  C   UNL     1       3.134 -15.803  15.708  1.00  0.00     0.093 A 
ATOM      8  C   UNL     1       2.290 -14.912  15.040  1.00  0.00     0.123 A 
ATOM      9  C   UNL     1       2.794 -13.695  14.569  1.00  0.00     0.094 A 
ATOM     10  C   UNL     1       4.139 -13.366  14.764  1.00  0.00     0.146 A 
ATOM     11  O   UNL     1       4.590 -12.202  14.311  1.00  0.00    -0.452 OA
ENDROOT
BRANCH   1  12
ATOM     12  C   UNL     1       6.226 -10.475  13.915  1.00  0.00     0.021 A 
ATOM     13  C   UNL     1       6.635 -10.315  12.577  1.00  0.00     0.016 A 
ATOM     14  C   UNL     1       7.009  -9.056  12.098  1.00  0.00     0.047 A 
ATOM     15  C   UNL     1       6.992  -7.944  12.950  1.00  0.00     0.115 A 
ATOM     16  C   UNL     1       6.233  -9.358  14.768  1.00  0.00     0.016 A 
ATOM     17  C   UNL     1       6.607  -8.100  14.285  1.00  0.00     0.047 A 
BRANCH  15  18
ATOM     18  O   UNL     1       7.362  -6.685  12.482  1.00  0.00    -0.508 OA
ATOM     19  H   UNL     1       8.247  -6.264  12.738  1.00  0.00     0.293 HD
ENDBRANCH  15  18
ENDBRANCH   1  12
BRANCH   2  20
ATOM     20  O   UNL     1       8.125 -12.262  15.188  1.00  0.00    -0.502 OA
ATOM     21  H   UNL     1       8.534 -11.557  14.588  1.00  0.00     0.293 HD
ENDBRANCH   2  20
BRANCH   6  22
ATOM     22  O   UNL     1       5.304 -16.402  16.581  1.00  0.00    -0.507 OA
ATOM     23  H   UNL     1       5.437 -16.361  17.585  1.00  0.00     0.293 HD
ENDBRANCH   6  22
BRANCH   8  24
ATOM     24  O   UNL     1       0.951 -15.246  14.851  1.00  0.00    -0.508 OA
ATOM     25  H   UNL     1       0.665 -16.197  14.648  1.00  0.00     0.293 HD
ENDBRANCH   8  24
TORSDOF 5
ENDMDL
MODEL 5
REMARK VINA RESULT:    -5.026      1.853      6.991
REMARK INTER + INTRA:          -6.036
REMARK INTER:                  -5.740
REMARK INTRA:                  -0.296
REMARK UNBOUND:                -0.129
REMARK SMILES O=c1c(O)c(-c2ccc(O)cc2)oc2cc(O)cc(O)c12
REMARK SMILES IDX 5 1 3 2 2 3 1 4 21 5 19 6 18 7 16 8 15 9 14 10 13 11 6 12
REMARK SMILES IDX 7 13 8 14 9 15 12 16 11 17 10 18 4 20 20 22 17 24
REMARK H PARENT 10 19 4 21 20 23 17 25
REMARK Flexibility Score: inf
ROOT
ATOM      1  C   UNL     1       4.989 -17.285  15.419  1.00  0.00     0.180 A 
ATOM      2  C   UNL     1       5.133 -18.087  16.568  1.00  0.00     0.208 A 
ATOM      3  C   UNL     1       5.854 -19.287  16.472  1.00  0.00     0.238 A 
ATOM      4  O   UNL     1       5.979 -20.019  17.492  1.00  0.00    -0.285 OA
ATOM      5  C   UNL     1       6.436 -19.655  15.242  1.00  0.00     0.111 A 
ATOM      6  C   UNL     1       7.182 -20.844  15.062  1.00  0.00     0.134 A 
ATOM      7  C   UNL     1       7.737 -21.135  13.807  1.00  0.00     0.093 A 
ATOM      8  C   UNL     1       7.563 -20.262  12.731  1.00  0.00     0.123 A 
ATOM      9  C   UNL     1       6.826 -19.085  12.902  1.00  0.00     0.094 A 
ATOM     10  C   UNL     1       6.264 -18.778  14.145  1.00  0.00     0.146 A 
ATOM     11  O   UNL     1       5.565 -17.657  14.278  1.00  0.00    -0.452 OA
ENDROOT
BRANCH   1  12
ATOM     12  C   UNL     1       4.227 -16.017  15.435  1.00  0.00     0.021 A 
ATOM     13  C   UNL     1       2.857 -15.979  15.114  1.00  0.00     0.016 A 
ATOM     14  C   UNL     1       2.165 -14.765  15.112  1.00  0.00     0.047 A 
ATOM     15  C   UNL     1       2.833 -13.572  15.417  1.00  0.00     0.115 A 
ATOM     16  C   UNL     1       4.894 -14.813  15.719  1.00  0.00     0.016 A 
ATOM     17  C   UNL     1       4.199 -13.600  15.717  1.00  0.00     0.047 A 
BRANCH  15  18
ATOM     18  O   UNL     1       2.153 -12.357  15.420  1.00  0.00    -0.508 OA
ATOM     19  H   UNL     1       1.561 -12.079  14.645  1.00  0.00     0.293 HD
ENDBRANCH  15  18
ENDBRANCH   1  12
BRANCH   2  20
ATOM     20  O   UNL     1       4.589 -17.676  17.787  1.00  0.00    -0.502 OA
ATOM     21  H   UNL     1       3.707 -18.032  18.136  1.00  0.00     0.293 HD
ENDBRANCH   2  20
BRANCH   6  22
ATOM     22  O   UNL     1       7.375 -21.737  16.118  1.00  0.00    -0.507 OA
ATOM     23  H   UNL     1       7.280 -22.739  15.993  1.00  0.00     0.293 HD
ENDBRANCH   6  22
BRANCH   8  24
ATOM     24  O   UNL     1       8.125 -20.573  11.496  1.00  0.00    -0.508 OA
ATOM     25  H   UNL     1       9.095 -20.367  11.287  1.00  0.00     0.293 HD
ENDBRANCH   8  24
TORSDOF 5
ENDMDL
MODEL 6
REMARK VINA RESULT:    -4.993      2.637      7.295
REMARK INTER + INTRA:          -5.997
REMARK INTER:                  -5.708
REMARK INTRA:                  -0.289
REMARK UNBOUND:                -0.129
REMARK SMILES O=c1c(O)c(-c2ccc(O)cc2)oc2cc(O)cc(O)c12
REMARK SMILES IDX 5 1 3 2 2 3 1 4 21 5 19 6 18 7 16 8 15 9 14 10 13 11 6 12
REMARK SMILES IDX 7 13 8 14 9 15 12 16 11 17 10 18 4 20 20 22 17 24
REMARK H PARENT 10 19 4 21 20 23 17 25
REMARK Flexibility Score: inf
ROOT
ATOM      1  C   UNL     1       5.513 -13.207  14.613  1.00  0.00     0.180 A 
ATOM      2  C   UNL     1       4.261 -13.635  15.095  1.00  0.00     0.208 A 
ATOM      3  C   UNL     1       4.005 -15.012  15.190  1.00  0.00     0.238 A 
ATOM      4  O   UNL     1       2.883 -15.407  15.610  1.00  0.00    -0.285 OA
ATOM      5  C   UNL     1       5.007 -15.934  14.824  1.00  0.00     0.111 A 
ATOM      6  C   UNL     1       4.831 -17.337  14.893  1.00  0.00     0.134 A 
ATOM      7  C   UNL     1       5.880 -18.189  14.519  1.00  0.00     0.093 A 
ATOM      8  C   UNL     1       7.099 -17.668  14.077  1.00  0.00     0.123 A 
ATOM      9  C   UNL     1       7.279 -16.282  14.005  1.00  0.00     0.094 A 
ATOM     10  C   UNL     1       6.244 -15.417  14.373  1.00  0.00     0.146 A 
ATOM     11  O   UNL     1       6.439 -14.106  14.290  1.00  0.00    -0.452 OA
ENDROOT
BRANCH   1  12
ATOM     12  C   UNL     1       5.851 -11.773  14.465  1.00  0.00     0.021 A 
ATOM     13  C   UNL     1       6.384 -11.031  15.535  1.00  0.00     0.016 A 
ATOM     14  C   UNL     1       6.672  -9.672  15.378  1.00  0.00     0.047 A 
ATOM     15  C   UNL     1       6.419  -9.034  14.157  1.00  0.00     0.115 A 
ATOM     16  C   UNL     1       5.580 -11.121  13.250  1.00  0.00     0.016 A 
ATOM     17  C   UNL     1       5.870  -9.762  13.096  1.00  0.00     0.047 A 
BRANCH  15  18
ATOM     18  O   UNL     1       6.703  -7.681  13.990  1.00  0.00    -0.508 OA
ATOM     19  H   UNL     1       6.343  -7.158  13.199  1.00  0.00     0.293 HD
ENDBRANCH  15  18
ENDBRANCH   1  12
BRANCH   2  20
ATOM     20  O   UNL     1       3.303 -12.702  15.499  1.00  0.00    -0.502 OA
ATOM     21  H   UNL     1       2.733 -12.833  16.326  1.00  0.00     0.293 HD
ENDBRANCH   2  20
BRANCH   6  22
ATOM     22  O   UNL     1       3.626 -17.889  15.331  1.00  0.00    -0.507 OA
ATOM     23  H   UNL     1       2.762 -17.360  15.317  1.00  0.00     0.293 HD
ENDBRANCH   6  22
BRANCH   8  24
ATOM     24  O   UNL     1       8.125 -18.536  13.712  1.00  0.00    -0.508 OA
ATOM     25  H   UNL     1       9.043 -18.192  13.450  1.00  0.00     0.293 HD
ENDBRANCH   8  24
TORSDOF 5
ENDMDL
MODEL 7
REMARK VINA RESULT:    -4.922      1.968      3.507
REMARK INTER + INTRA:          -5.914
REMARK INTER:                  -5.666
REMARK INTRA:                  -0.248
REMARK UNBOUND:                -0.129
REMARK SMILES O=c1c(O)c(-c2ccc(O)cc2)oc2cc(O)cc(O)c12
REMARK SMILES IDX 5 1 3 2 2 3 1 4 21 5 19 6 18 7 16 8 15 9 14 10 13 11 6 12
REMARK SMILES IDX 7 13 8 14 9 15 12 16 11 17 10 18 4 20 20 22 17 24
REMARK H PARENT 10 19 4 21 20 23 17 25
REMARK Flexibility Score: inf
ROOT
ATOM      1  C   UNL     1       5.069 -15.373  15.112  1.00  0.00     0.180 A 
ATOM      2  C   UNL     1       4.048 -15.341  16.082  1.00  0.00     0.208 A 
ATOM      3  C   UNL     1       3.430 -14.116  16.376  1.00  0.00     0.238 A 
ATOM      4  O   UNL     1       2.523 -14.073  17.252  1.00  0.00    -0.285 OA
ATOM      5  C   UNL     1       3.824 -12.952  15.685  1.00  0.00     0.111 A 
ATOM      6  C   UNL     1       3.250 -11.680  15.920  1.00  0.00     0.134 A 
ATOM      7  C   UNL     1       3.691 -10.570  15.184  1.00  0.00     0.093 A 
ATOM      8  C   UNL     1       4.693 -10.707  14.220  1.00  0.00     0.123 A 
ATOM      9  C   UNL     1       5.266 -11.962  13.984  1.00  0.00     0.094 A 
ATOM     10  C   UNL     1       4.840 -13.079  14.709  1.00  0.00     0.146 A 
ATOM     11  O   UNL     1       5.404 -14.257  14.469  1.00  0.00    -0.452 OA
ENDROOT
BRANCH   1  12
ATOM     12  C   UNL     1       5.782 -16.621  14.760  1.00  0.00     0.021 A 
ATOM     13  C   UNL     1       5.195 -17.591  13.926  1.00  0.00     0.016 A 
ATOM     14  C   UNL     1       5.878 -18.774  13.628  1.00  0.00     0.047 A 
ATOM     15  C   UNL     1       7.149 -19.009  14.170  1.00  0.00     0.115 A 
ATOM     16  C   UNL     1       7.047 -16.875  15.316  1.00  0.00     0.016 A 
ATOM     17  C   UNL     1       7.728 -18.058  15.016  1.00  0.00     0.047 A 
BRANCH  15  18
ATOM     18  O   UNL     1       7.839 -20.184  13.879  1.00  0.00    -0.508 OA
ATOM     19  H   UNL     1       7.400 -21.093  13.970  1.00  0.00     0.293 HD
ENDBRANCH  15  18
ENDBRANCH   1  12
BRANCH   2  20
ATOM     20  O   UNL     1       3.641 -16.517  16.717  1.00  0.00    -0.502 OA
ATOM     21  H   UNL     1       3.592 -16.600  17.725  1.00  0.00     0.293 HD
ENDBRANCH   2  20
BRANCH   6  22
ATOM     22  O   UNL     1       2.246 -11.510  16.875  1.00  0.00    -0.507 OA
ATOM     23  H   UNL     1       1.994 -10.593  17.226  1.00  0.00     0.293 HD
ENDBRANCH   6  22
BRANCH   8  24
ATOM     24  O   UNL     1       5.113  -9.590  13.502  1.00  0.00    -0.508 OA
ATOM     25  H   UNL     1       5.759  -9.671  12.725  1.00  0.00     0.293 HD
ENDBRANCH   8  24
TORSDOF 5
ENDMDL
MODEL 8
REMARK VINA RESULT:    -4.902      3.283      4.631
REMARK INTER + INTRA:          -5.890
REMARK INTER:                  -5.687
REMARK INTRA:                  -0.203
REMARK UNBOUND:                -0.129
REMARK SMILES O=c1c(O)c(-c2ccc(O)cc2)oc2cc(O)cc(O)c12
REMARK SMILES IDX 5 1 3 2 2 3 1 4 21 5 19 6 18 7 16 8 15 9 14 10 13 11 6 12
REMARK SMILES IDX 7 13 8 14 9 15 12 16 11 17 10 18 4 20 20 22 17 24
REMARK H PARENT 10 19 4 21 20 23 17 25
REMARK Flexibility Score: inf
ROOT
ATOM      1  C   UNL     1       4.554 -13.674  15.490  1.00  0.00     0.180 A 
ATOM      2  C   UNL     1       5.627 -13.268  14.673  1.00  0.00     0.208 A 
ATOM      3  C   UNL     1       5.681 -11.935  14.237  1.00  0.00     0.238 A 
ATOM      4  O   UNL     1       6.632 -11.563  13.496  1.00  0.00    -0.285 OA
ATOM      5  C   UNL     1       4.680 -11.028  14.639  1.00  0.00     0.111 A 
ATOM      6  C   UNL     1       4.663  -9.668  14.248  1.00  0.00     0.134 A 
ATOM      7  C   UNL     1       3.636  -8.827  14.698  1.00  0.00     0.093 A 
ATOM      8  C   UNL     1       2.626  -9.316  15.531  1.00  0.00     0.123 A 
ATOM      9  C   UNL     1       2.637 -10.660  15.920  1.00  0.00     0.094 A 
ATOM     10  C   UNL     1       3.652 -11.515  15.480  1.00  0.00     0.146 A 
ATOM     11  O   UNL     1       3.634 -12.787  15.861  1.00  0.00    -0.452 OA
ENDROOT
BRANCH   1  12
ATOM     12  C   UNL     1       4.416 -15.066  15.973  1.00  0.00     0.021 A 
ATOM     13  C   UNL     1       4.106 -16.121  15.095  1.00  0.00     0.016 A 
ATOM     14  C   UNL     1       3.957 -17.424  15.579  1.00  0.00     0.047 A 
ATOM     15  C   UNL     1       4.101 -17.687  16.948  1.00  0.00     0.115 A 
ATOM     16  C   UNL     1       4.538 -15.336  17.347  1.00  0.00     0.016 A 
ATOM     17  C   UNL     1       4.389 -16.640  17.828  1.00  0.00     0.047 A 
BRANCH  15  18
ATOM     18  O   UNL     1       3.956 -18.982  17.441  1.00  0.00    -0.508 OA
ATOM     19  H   UNL     1       4.328 -19.249  18.345  1.00  0.00     0.293 HD
ENDBRANCH  15  18
ENDBRANCH   1  12
BRANCH   2  20
ATOM     20  O   UNL     1       6.634 -14.173  14.329  1.00  0.00    -0.502 OA
ATOM     21  H   UNL     1       6.886 -14.365  13.367  1.00  0.00     0.293 HD
ENDBRANCH   2  20
BRANCH   6  22
ATOM     22  O   UNL     1       5.658  -9.148  13.418  1.00  0.00    -0.507 OA
ATOM     23  H   UNL     1       6.395  -9.731  13.039  1.00  0.00     0.293 HD
ENDBRANCH   6  22
BRANCH   8  24
ATOM     24  O   UNL     1       1.618  -8.460  15.964  1.00  0.00    -0.508 OA
ATOM     25  H   UNL     1       0.660  -8.566  15.648  1.00  0.00     0.293 HD
ENDBRANCH   8  24
TORSDOF 5
ENDMDL
