MODEL 1
REMARK VINA RESULT:    -5.310      0.000      0.000
REMARK INTER + INTRA:         -10.548
REMARK INTER:                  -8.104
REMARK INTRA:                  -2.444
REMARK UNBOUND:                -2.444
REMARK SMILES CC(=O)CCC=C(C)CCC=C(C)CCC=C(C)C
REMARK SMILES IDX 10 1 11 2 12 3 13 4 14 5 15 6 16 7 18 8 17 9 19 10 9 11 7 12
REMARK SMILES IDX 6 13 8 14 5 15 4 16 2 17 3 18 1 19
REMARK H PARENT
REMARK Flexibility Score: inf
ROOT
ATOM      1  C   UNL     1       7.878  25.160  56.436  1.00  0.00     0.032 C 
ENDROOT
BRANCH   1   2
ATOM      2  C   UNL     1       6.487  25.746  56.384  1.00  0.00    -0.028 C 
ATOM      3  C   UNL     1       5.572  25.485  55.423  1.00  0.00    -0.077 C 
ATOM      4  C   UNL     1       4.212  26.125  55.539  1.00  0.00     0.039 C 
BRANCH   3   5
ATOM      5  C   UNL     1       5.873  24.634  54.204  1.00  0.00     0.034 C 
BRANCH   5   6
ATOM      6  C   UNL     1       4.960  23.404  54.166  1.00  0.00     0.032 C 
BRANCH   6   7
ATOM      7  C   UNL     1       5.712  22.152  54.551  1.00  0.00    -0.028 C 
ATOM      8  C   UNL     1       4.720  22.155  56.843  1.00  0.00     0.039 C 
ATOM      9  C   UNL     1       5.608  21.577  55.768  1.00  0.00    -0.080 C 
ATOM     10  C   UNL     1       6.403  20.327  56.047  1.00  0.00     0.039 C 
ENDBRANCH   6   7
ENDBRANCH   5   6
ENDBRANCH   3   5
ENDBRANCH   1   2
BRANCH   1  11
ATOM     11  C   UNL     1       7.959  23.980  57.416  1.00  0.00     0.034 C 
BRANCH  11  12
ATOM     12  C   UNL     1       8.905  22.903  56.924  1.00  0.00    -0.077 C 
ATOM     13  C   UNL     1       9.343  21.962  57.789  1.00  0.00    -0.028 C 
ATOM     14  C   UNL     1       9.339  22.905  55.477  1.00  0.00     0.039 C 
BRANCH  13  15
ATOM     15  C   UNL     1      10.280  20.848  57.388  1.00  0.00     0.035 C 
BRANCH  15  16
ATOM     16  C   UNL     1      11.313  20.569  58.491  1.00  0.00     0.079 C 
BRANCH  16  17
ATOM     17  C   UNL     1      10.902  19.497  59.475  1.00  0.00     0.130 C 
ATOM     18  O   UNL     1      10.257  19.828  60.458  1.00  0.00    -0.300 OA
ATOM     19  C   UNL     1      11.250  18.044  59.296  1.00  0.00     0.087 C 
ENDBRANCH  16  17
ENDBRANCH  15  16
ENDBRANCH  13  15
ENDBRANCH  11  12
ENDBRANCH   1  11
TORSDOF 9
ENDMDL
MODEL 2
REMARK VINA RESULT:    -5.267      5.578      7.794
REMARK INTER + INTRA:         -10.482
REMARK INTER:                  -8.117
REMARK INTRA:                  -2.366
REMARK UNBOUND:                -2.444
REMARK SMILES CC(=O)CCC=C(C)CCC=C(C)CCC=C(C)C
REMARK SMILES IDX 10 1 11 2 12 3 13 4 14 5 15 6 16 7 18 8 17 9 19 10 9 11 7 12
REMARK SMILES IDX 6 13 8 14 5 15 4 16 2 17 3 18 1 19
REMARK H PARENT
REMARK Flexibility Score: inf
ROOT
ATOM      1  C   UNL     1      14.981  17.911  57.870  1.00  0.00     0.032 C 
ENDROOT
BRANCH   1   2
ATOM      2  C   UNL     1      14.905  18.311  56.416  1.00  0.00    -0.028 C 
ATOM      3  C   UNL     1      14.300  17.591  55.444  1.00  0.00    -0.077 C 
ATOM      4  C   UNL     1      14.281  18.152  54.046  1.00  0.00     0.039 C 
BRANCH   3   5
ATOM      5  C   UNL     1      13.701  16.219  55.685  1.00  0.00     0.034 C 
BRANCH   5   6
ATOM      6  C   UNL     1      12.363  16.078  54.950  1.00  0.00     0.032 C 
BRANCH   6   7
ATOM      7  C   UNL     1      11.226  16.632  55.773  1.00  0.00    -0.028 C 
ATOM      8  C   UNL     1      10.520  18.161  53.929  1.00  0.00     0.039 C 
ATOM      9  C   UNL     1      10.381  17.581  55.316  1.00  0.00    -0.080 C 
ATOM     10  C   UNL     1       9.277  18.064  56.221  1.00  0.00     0.039 C 
ENDBRANCH   6   7
ENDBRANCH   5   6
ENDBRANCH   3   5
ENDBRANCH   1   2
BRANCH   1  11
ATOM     11  C   UNL     1      14.321  18.956  58.781  1.00  0.00     0.034 C 
BRANCH  11  12
ATOM     12  C   UNL     1      12.808  18.878  58.724  1.00  0.00    -0.077 C 
ATOM     13  C   UNL     1      12.171  17.899  59.402  1.00  0.00    -0.028 C 
ATOM     14  C   UNL     1      12.046  19.898  57.911  1.00  0.00     0.039 C 
BRANCH  13  15
ATOM     15  C   UNL     1      10.668  17.748  59.410  1.00  0.00     0.035 C 
BRANCH  15  16
ATOM     16  C   UNL     1      10.116  17.784  60.843  1.00  0.00     0.079 C 
BRANCH  16  17
ATOM     17  C   UNL     1      10.218  19.134  61.518  1.00  0.00     0.130 C 
ATOM     18  O   UNL     1      10.117  20.136  60.826  1.00  0.00    -0.300 OA
ATOM     19  C   UNL     1      10.437  19.297  62.997  1.00  0.00     0.087 C 
ENDBRANCH  16  17
ENDBRANCH  15  16
ENDBRANCH  13  15
ENDBRANCH  11  12
ENDBRANCH   1  11
TORSDOF 9
ENDMDL
MODEL 3
REMARK VINA RESULT:    -5.203      2.492      7.739
REMARK INTER + INTRA:         -10.384
REMARK INTER:                  -8.919
REMARK INTRA:                  -1.465
REMARK UNBOUND:                -2.444
REMARK SMILES CC(=O)CCC=C(C)CCC=C(C)CCC=C(C)C
REMARK SMILES IDX 10 1 11 2 12 3 13 4 14 5 15 6 16 7 18 8 17 9 19 10 9 11 7 12
REMARK SMILES IDX 6 13 8 14 5 15 4 16 2 17 3 18 1 19
REMARK H PARENT
REMARK Flexibility Score: inf
ROOT
ATOM      1  C   UNL     1      10.139  21.450  58.131  1.00  0.00     0.032 C 
ENDROOT
BRANCH   1   2
ATOM      2  C   UNL     1      10.175  20.721  59.453  1.00  0.00    -0.028 C 
ATOM      3  C   UNL     1      10.289  19.381  59.597  1.00  0.00    -0.077 C 
ATOM      4  C   UNL     1      10.348  18.815  60.992  1.00  0.00     0.039 C 
BRANCH   3   5
ATOM      5  C   UNL     1      10.294  18.422  58.422  1.00  0.00     0.034 C 
BRANCH   5   6
ATOM      6  C   UNL     1      11.537  17.526  58.462  1.00  0.00     0.032 C 
BRANCH   6   7
ATOM      7  C   UNL     1      12.782  18.302  58.107  1.00  0.00    -0.028 C 
ATOM      8  C   UNL     1      13.867  17.731  60.282  1.00  0.00     0.039 C 
ATOM      9  C   UNL     1      13.848  18.401  58.929  1.00  0.00    -0.080 C 
ATOM     10  C   UNL     1      15.042  19.201  58.474  1.00  0.00     0.039 C 
ENDBRANCH   6   7
ENDBRANCH   5   6
ENDBRANCH   3   5
ENDBRANCH   1   2
BRANCH   1  11
ATOM     11  C   UNL     1       8.699  21.741  57.684  1.00  0.00     0.034 C 
BRANCH  11  12
ATOM     12  C   UNL     1       8.607  23.019  56.875  1.00  0.00    -0.077 C 
ATOM     13  C   UNL     1       7.930  24.074  57.380  1.00  0.00    -0.028 C 
ATOM     14  C   UNL     1       9.275  23.087  55.522  1.00  0.00     0.039 C 
BRANCH  13  15
ATOM     15  C   UNL     1       7.793  25.389  56.650  1.00  0.00     0.035 C 
BRANCH  15  16
ATOM     16  C   UNL     1       6.315  25.762  56.455  1.00  0.00     0.079 C 
BRANCH  16  17
ATOM     17  C   UNL     1       5.539  24.799  55.584  1.00  0.00     0.130 C 
ATOM     18  O   UNL     1       4.570  24.232  56.066  1.00  0.00    -0.300 OA
ATOM     19  C   UNL     1       5.905  24.511  54.153  1.00  0.00     0.087 C 
ENDBRANCH  16  17
ENDBRANCH  15  16
ENDBRANCH  13  15
ENDBRANCH  11  12
ENDBRANCH   1  11
TORSDOF 9
ENDMDL
MODEL 4
REMARK VINA RESULT:    -5.156      2.487      7.296
REMARK INTER + INTRA:         -10.313
REMARK INTER:                  -8.793
REMARK INTRA:                  -1.519
REMARK UNBOUND:                -2.444
REMARK SMILES CC(=O)CCC=C(C)CCC=C(C)CCC=C(C)C
REMARK SMILES IDX 10 1 11 2 12 3 13 4 14 5 15 6 16 7 18 8 17 9 19 10 9 11 7 12
REMARK SMILES IDX 6 13 8 14 5 15 4 16 2 17 3 18 1 19
REMARK H PARENT
REMARK Flexibility Score: inf
ROOT
ATOM      1  C   UNL     1      10.015  21.068  57.377  1.00  0.00     0.032 C 
ENDROOT
BRANCH   1   2
ATOM      2  C   UNL     1       9.461  19.707  57.028  1.00  0.00    -0.028 C 
ATOM      3  C   UNL     1      10.075  18.530  57.284  1.00  0.00    -0.077 C 
ATOM      4  C   UNL     1       9.366  17.257  56.903  1.00  0.00     0.039 C 
BRANCH   3   5
ATOM      5  C   UNL     1      11.469  18.438  57.875  1.00  0.00     0.034 C 
BRANCH   5   6
ATOM      6  C   UNL     1      11.459  17.588  59.150  1.00  0.00     0.032 C 
BRANCH   6   7
ATOM      7  C   UNL     1      11.248  18.443  60.376  1.00  0.00    -0.028 C 
ATOM      8  C   UNL     1       8.889  17.663  60.623  1.00  0.00     0.039 C 
ATOM      9  C   UNL     1      10.081  18.483  61.053  1.00  0.00    -0.080 C 
ATOM     10  C   UNL     1       9.978  19.371  62.266  1.00  0.00     0.039 C 
ENDBRANCH   6   7
ENDBRANCH   5   6
ENDBRANCH   3   5
ENDBRANCH   1   2
BRANCH   1  11
ATOM     11  C   UNL     1       8.916  22.017  57.875  1.00  0.00     0.034 C 
BRANCH  11  12
ATOM     12  C   UNL     1       8.689  23.169  56.916  1.00  0.00    -0.077 C 
ATOM     13  C   UNL     1       7.967  24.236  57.323  1.00  0.00    -0.028 C 
ATOM     14  C   UNL     1       9.277  23.100  55.527  1.00  0.00     0.039 C 
BRANCH  13  15
ATOM     15  C   UNL     1       7.696  25.431  56.442  1.00  0.00     0.035 C 
BRANCH  15  16
ATOM     16  C   UNL     1       6.189  25.701  56.322  1.00  0.00     0.079 C 
BRANCH  16  17
ATOM     17  C   UNL     1       5.438  24.690  55.484  1.00  0.00     0.130 C 
ATOM     18  O   UNL     1       4.530  24.062  56.008  1.00  0.00    -0.300 OA
ATOM     19  C   UNL     1       5.759  24.424  54.038  1.00  0.00     0.087 C 
ENDBRANCH  16  17
ENDBRANCH  15  16
ENDBRANCH  13  15
ENDBRANCH  11  12
ENDBRANCH   1  11
TORSDOF 9
ENDMDL
MODEL 5
REMARK VINA RESULT:    -5.135      3.165      8.331
REMARK INTER + INTRA:         -10.281
REMARK INTER:                  -9.300
REMARK INTRA:                  -0.981
REMARK UNBOUND:                -2.444
REMARK SMILES CC(=O)CCC=C(C)CCC=C(C)CCC=C(C)C
REMARK SMILES IDX 10 1 11 2 12 3 13 4 14 5 15 6 16 7 18 8 17 9 19 10 9 11 7 12
REMARK SMILES IDX 6 13 8 14 5 15 4 16 2 17 3 18 1 19
REMARK H PARENT
REMARK Flexibility Score: inf
ROOT
ATOM      1  C   UNL     1      10.341  21.187  57.414  1.00  0.00     0.032 C 
ENDROOT
BRANCH   1   2
ATOM      2  C   UNL     1      10.376  19.821  58.057  1.00  0.00    -0.028 C 
ATOM      3  C   UNL     1      11.478  19.239  58.581  1.00  0.00    -0.077 C 
ATOM      4  C   UNL     1      11.333  17.883  59.222  1.00  0.00     0.039 C 
BRANCH   3   5
ATOM      5  C   UNL     1      12.859  19.858  58.496  1.00  0.00     0.034 C 
BRANCH   5   6
ATOM      6  C   UNL     1      13.932  18.845  58.910  1.00  0.00     0.032 C 
BRANCH   6   7
ATOM      7  C   UNL     1      15.285  19.223  58.358  1.00  0.00    -0.028 C 
ATOM      8  C   UNL     1      15.152  17.466  56.589  1.00  0.00     0.039 C 
ATOM      9  C   UNL     1      15.849  18.601  57.301  1.00  0.00    -0.080 C 
ATOM     10  C   UNL     1      17.205  19.060  56.829  1.00  0.00     0.039 C 
ENDBRANCH   6   7
ENDBRANCH   5   6
ENDBRANCH   3   5
ENDBRANCH   1   2
BRANCH   1  11
ATOM     11  C   UNL     1       9.106  21.988  57.852  1.00  0.00     0.034 C 
BRANCH  11  12
ATOM     12  C   UNL     1       8.792  23.113  56.886  1.00  0.00    -0.077 C 
ATOM     13  C   UNL     1       8.080  24.176  57.317  1.00  0.00    -0.028 C 
ATOM     14  C   UNL     1       9.283  23.019  55.460  1.00  0.00     0.039 C 
BRANCH  13  15
ATOM     15  C   UNL     1       7.727  25.345  56.430  1.00  0.00     0.035 C 
BRANCH  15  16
ATOM     16  C   UNL     1       6.205  25.552  56.365  1.00  0.00     0.079 C 
BRANCH  16  17
ATOM     17  C   UNL     1       5.478  24.565  55.480  1.00  0.00     0.130 C 
ATOM     18  O   UNL     1       4.554  23.927  55.959  1.00  0.00    -0.300 OA
ATOM     19  C   UNL     1       5.842  24.335  54.038  1.00  0.00     0.087 C 
ENDBRANCH  16  17
ENDBRANCH  15  16
ENDBRANCH  13  15
ENDBRANCH  11  12
ENDBRANCH   1  11
TORSDOF 9
ENDMDL
MODEL 6
REMARK VINA RESULT:    -5.106      5.876      7.913
REMARK INTER + INTRA:         -10.237
REMARK INTER:                  -8.221
REMARK INTRA:                  -2.016
REMARK UNBOUND:                -2.444
REMARK SMILES CC(=O)CCC=C(C)CCC=C(C)CCC=C(C)C
REMARK SMILES IDX 10 1 11 2 12 3 13 4 14 5 15 6 16 7 18 8 17 9 19 10 9 11 7 12
REMARK SMILES IDX 6 13 8 14 5 15 4 16 2 17 3 18 1 19
REMARK H PARENT
REMARK Flexibility Score: inf
ROOT
ATOM      1  C   UNL     1      14.142  17.940  58.145  1.00  0.00     0.032 C 
ENDROOT
BRANCH   1   2
ATOM      2  C   UNL     1      13.399  19.192  58.548  1.00  0.00    -0.028 C 
ATOM      3  C   UNL     1      12.165  19.533  58.115  1.00  0.00    -0.077 C 
ATOM      4  C   UNL     1      11.548  20.802  58.645  1.00  0.00     0.039 C 
BRANCH   3   5
ATOM      5  C   UNL     1      11.403  18.734  57.075  1.00  0.00     0.034 C 
BRANCH   5   6
ATOM      6  C   UNL     1      10.789  17.478  57.704  1.00  0.00     0.032 C 
BRANCH   6   7
ATOM      7  C   UNL     1       9.428  17.767  58.289  1.00  0.00    -0.028 C 
ATOM      8  C   UNL     1      10.303  17.623  60.623  1.00  0.00     0.039 C 
ATOM      9  C   UNL     1       9.198  17.836  59.617  1.00  0.00    -0.080 C 
ATOM     10  C   UNL     1       7.799  18.133  60.095  1.00  0.00     0.039 C 
ENDBRANCH   6   7
ENDBRANCH   5   6
ENDBRANCH   3   5
ENDBRANCH   1   2
BRANCH   1  11
ATOM     11  C   UNL     1      15.132  18.211  57.003  1.00  0.00     0.034 C 
BRANCH  11  12
ATOM     12  C   UNL     1      14.583  17.766  55.663  1.00  0.00    -0.077 C 
ATOM     13  C   UNL     1      14.034  16.537  55.549  1.00  0.00    -0.028 C 
ATOM     14  C   UNL     1      14.660  18.707  54.484  1.00  0.00     0.039 C 
BRANCH  13  15
ATOM     15  C   UNL     1      13.455  16.011  54.257  1.00  0.00     0.035 C 
BRANCH  15  16
ATOM     16  C   UNL     1      11.921  15.955  54.320  1.00  0.00     0.079 C 
BRANCH  16  17
ATOM     17  C   UNL     1      11.354  14.566  54.512  1.00  0.00     0.130 C 
ATOM     18  O   UNL     1      10.591  14.375  55.446  1.00  0.00    -0.300 OA
ATOM     19  C   UNL     1      11.687  13.413  53.604  1.00  0.00     0.087 C 
ENDBRANCH  16  17
ENDBRANCH  15  16
ENDBRANCH  13  15
ENDBRANCH  11  12
ENDBRANCH   1  11
TORSDOF 9
ENDMDL
MODEL 7
REMARK VINA RESULT:    -5.046      1.424      2.001
REMARK INTER + INTRA:         -10.146
REMARK INTER:                  -8.003
REMARK INTRA:                  -2.142
REMARK UNBOUND:                -2.444
REMARK SMILES CC(=O)CCC=C(C)CCC=C(C)CCC=C(C)C
REMARK SMILES IDX 10 1 11 2 12 3 13 4 14 5 15 6 16 7 18 8 17 9 19 10 9 11 7 12
REMARK SMILES IDX 6 13 8 14 5 15 4 16 2 17 3 18 1 19
REMARK H PARENT
REMARK Flexibility Score: inf
ROOT
ATOM      1  C   UNL     1       8.412  24.197  56.092  1.00  0.00     0.032 C 
ENDROOT
BRANCH   1   2
ATOM      2  C   UNL     1       7.467  24.715  57.150  1.00  0.00    -0.028 C 
ATOM      3  C   UNL     1       6.343  25.426  56.905  1.00  0.00    -0.077 C 
ATOM      4  C   UNL     1       5.488  25.836  58.076  1.00  0.00     0.039 C 
BRANCH   3   5
ATOM      5  C   UNL     1       5.942  25.884  55.516  1.00  0.00     0.034 C 
BRANCH   5   6
ATOM      6  C   UNL     1       4.596  25.270  55.113  1.00  0.00     0.032 C 
BRANCH   6   7
ATOM      7  C   UNL     1       4.776  23.884  54.542  1.00  0.00    -0.028 C 
ATOM      8  C   UNL     1       3.760  22.824  56.561  1.00  0.00     0.039 C 
ATOM      9  C   UNL     1       4.398  22.765  55.194  1.00  0.00    -0.080 C 
ATOM     10  C   UNL     1       4.623  21.430  54.531  1.00  0.00     0.039 C 
ENDBRANCH   6   7
ENDBRANCH   5   6
ENDBRANCH   3   5
ENDBRANCH   1   2
BRANCH   1  11
ATOM     11  C   UNL     1       8.117  22.733  55.736  1.00  0.00     0.034 C 
BRANCH  11  12
ATOM     12  C   UNL     1       8.366  21.806  56.910  1.00  0.00    -0.077 C 
ATOM     13  C   UNL     1       9.606  21.729  57.440  1.00  0.00    -0.028 C 
ATOM     14  C   UNL     1       7.221  20.990  57.462  1.00  0.00     0.039 C 
BRANCH  13  15
ATOM     15  C   UNL     1       9.946  20.842  58.613  1.00  0.00     0.035 C 
BRANCH  15  16
ATOM     16  C   UNL     1      11.439  20.933  58.962  1.00  0.00     0.079 C 
BRANCH  16  17
ATOM     17  C   UNL     1      12.246  19.713  58.580  1.00  0.00     0.130 C 
ATOM     18  O   UNL     1      13.460  19.820  58.504  1.00  0.00    -0.300 OA
ATOM     19  C   UNL     1      11.621  18.375  58.289  1.00  0.00     0.087 C 
ENDBRANCH  16  17
ENDBRANCH  15  16
ENDBRANCH  13  15
ENDBRANCH  11  12
ENDBRANCH   1  11
TORSDOF 9
ENDMDL
MODEL 8
REMARK VINA RESULT:    -5.036      4.406      8.575
REMARK INTER + INTRA:         -10.130
REMARK INTER:                  -8.370
REMARK INTRA:                  -1.760
REMARK UNBOUND:                -2.444
REMARK SMILES CC(=O)CCC=C(C)CCC=C(C)CCC=C(C)C
REMARK SMILES IDX 10 1 11 2 12 3 13 4 14 5 15 6 16 7 18 8 17 9 19 10 9 11 7 12
REMARK SMILES IDX 6 13 8 14 5 15 4 16 2 17 3 18 1 19
REMARK H PARENT
REMARK Flexibility Score: inf
ROOT
ATOM      1  C   UNL     1      13.296  19.085  58.556  1.00  0.00     0.032 C 
ENDROOT
BRANCH   1   2
ATOM      2  C   UNL     1      14.790  18.957  58.377  1.00  0.00    -0.028 C 
ATOM      3  C   UNL     1      15.410  18.677  57.209  1.00  0.00    -0.077 C 
ATOM      4  C   UNL     1      16.916  18.622  57.194  1.00  0.00     0.039 C 
BRANCH   3   5
ATOM      5  C   UNL     1      14.659  18.352  55.932  1.00  0.00     0.034 C 
BRANCH   5   6
ATOM      6  C   UNL     1      14.519  16.835  55.759  1.00  0.00     0.032 C 
BRANCH   6   7
ATOM      7  C   UNL     1      13.102  16.384  56.018  1.00  0.00    -0.028 C 
ATOM      8  C   UNL     1      13.007  15.145  53.852  1.00  0.00     0.039 C 
ATOM      9  C   UNL     1      12.405  15.614  55.155  1.00  0.00    -0.080 C 
ATOM     10  C   UNL     1      10.996  15.219  55.513  1.00  0.00     0.039 C 
ENDBRANCH   6   7
ENDBRANCH   5   6
ENDBRANCH   3   5
ENDBRANCH   1   2
BRANCH   1  11
ATOM     11  C   UNL     1      12.760  18.076  59.582  1.00  0.00     0.034 C 
BRANCH  11  12
ATOM     12  C   UNL     1      11.266  17.865  59.438  1.00  0.00    -0.077 C 
ATOM     13  C   UNL     1      10.702  17.942  58.213  1.00  0.00    -0.028 C 
ATOM     14  C   UNL     1      10.440  17.574  60.669  1.00  0.00     0.039 C 
BRANCH  13  15
ATOM     15  C   UNL     1       9.226  17.738  57.972  1.00  0.00     0.035 C 
BRANCH  15  16
ATOM     16  C   UNL     1       8.458  19.064  58.089  1.00  0.00     0.079 C 
BRANCH  16  17
ATOM     17  C   UNL     1       9.146  20.243  57.438  1.00  0.00     0.130 C 
ATOM     18  O   UNL     1       9.117  20.331  56.220  1.00  0.00    -0.300 OA
ATOM     19  C   UNL     1       9.861  21.309  58.222  1.00  0.00     0.087 C 
ENDBRANCH  16  17
ENDBRANCH  15  16
ENDBRANCH  13  15
ENDBRANCH  11  12
ENDBRANCH   1  11
TORSDOF 9
ENDMDL
MODEL 9
REMARK VINA RESULT:    -5.035      5.663      8.478
REMARK INTER + INTRA:         -10.129
REMARK INTER:                  -7.770
REMARK INTRA:                  -2.359
REMARK UNBOUND:                -2.444
REMARK SMILES CC(=O)CCC=C(C)CCC=C(C)CCC=C(C)C
REMARK SMILES IDX 10 1 11 2 12 3 13 4 14 5 15 6 16 7 18 8 17 9 19 10 9 11 7 12
REMARK SMILES IDX 6 13 8 14 5 15 4 16 2 17 3 18 1 19
REMARK H PARENT
REMARK Flexibility Score: inf
ROOT
ATOM      1  C   UNL     1      14.429  17.222  55.580  1.00  0.00     0.032 C 
ENDROOT
BRANCH   1   2
ATOM      2  C   UNL     1      15.508  18.135  56.111  1.00  0.00    -0.028 C 
ATOM      3  C   UNL     1      15.627  18.527  57.399  1.00  0.00    -0.077 C 
ATOM      4  C   UNL     1      16.787  19.413  57.772  1.00  0.00     0.039 C 
BRANCH   3   5
ATOM      5  C   UNL     1      14.612  18.170  58.468  1.00  0.00     0.034 C 
BRANCH   5   6
ATOM      6  C   UNL     1      13.508  19.231  58.540  1.00  0.00     0.032 C 
BRANCH   6   7
ATOM      7  C   UNL     1      12.210  18.637  59.031  1.00  0.00    -0.028 C 
ATOM      8  C   UNL     1      11.032  20.830  58.842  1.00  0.00     0.039 C 
ATOM      9  C   UNL     1      11.077  19.357  59.172  1.00  0.00    -0.080 C 
ATOM     10  C   UNL     1       9.835  18.664  59.670  1.00  0.00     0.039 C 
ENDBRANCH   6   7
ENDBRANCH   5   6
ENDBRANCH   3   5
ENDBRANCH   1   2
BRANCH   1  11
ATOM     11  C   UNL     1      13.562  17.924  54.524  1.00  0.00     0.034 C 
BRANCH  11  12
ATOM     12  C   UNL     1      12.214  18.335  55.084  1.00  0.00    -0.077 C 
ATOM     13  C   UNL     1      11.335  17.380  55.459  1.00  0.00    -0.028 C 
ATOM     14  C   UNL     1      11.884  19.803  55.210  1.00  0.00     0.039 C 
BRANCH  13  15
ATOM     15  C   UNL     1       9.975  17.694  56.034  1.00  0.00     0.035 C 
BRANCH  15  16
ATOM     16  C   UNL     1       9.322  16.438  56.630  1.00  0.00     0.079 C 
BRANCH  16  17
ATOM     17  C   UNL     1       8.911  15.403  55.607  1.00  0.00     0.130 C 
ATOM     18  O   UNL     1       8.111  15.728  54.743  1.00  0.00    -0.300 OA
ATOM     19  C   UNL     1       9.442  13.996  55.605  1.00  0.00     0.087 C 
ENDBRANCH  16  17
ENDBRANCH  15  16
ENDBRANCH  13  15
ENDBRANCH  11  12
ENDBRANCH   1  11
TORSDOF 9
ENDMDL
