MODEL 1
REMARK VINA RESULT:    -3.857      0.000      0.000
REMARK INTER + INTRA:          -4.588
REMARK INTER:                  -4.534
REMARK INTRA:                  -0.054
REMARK UNBOUND:                -0.054
REMARK SMILES O=C([O-])CCC(=O)[O-]
REMARK SMILES IDX 4 1 2 2 1 3 3 4 5 5 6 6 7 7 8 8
REMARK H PARENT
REMARK Flexibility Score: inf
ROOT
ATOM      1  C   UNL     1      -3.630 -27.644  26.379  1.00  0.00     0.059 C 
ENDROOT
BRANCH   1   2
ATOM      2  C   UNL     1      -4.011 -28.056  24.990  1.00  0.00     0.042 C 
ATOM      3  O   UNL     1      -3.546 -29.115  24.494  1.00  0.00    -0.550 OA
ATOM      4  O   UNL     1      -4.847 -27.248  24.229  1.00  0.00    -0.550 OA
ENDBRANCH   1   2
BRANCH   1   5
ATOM      5  C   UNL     1      -4.778 -27.863  27.369  1.00  0.00     0.059 C 
BRANCH   5   6
ATOM      6  C   UNL     1      -4.329 -28.629  28.576  1.00  0.00     0.042 C 
ATOM      7  O   UNL     1      -3.117 -28.940  28.713  1.00  0.00    -0.550 OA
ATOM      8  O   UNL     1      -5.256 -29.036  29.528  1.00  0.00    -0.550 OA
ENDBRANCH   5   6
ENDBRANCH   1   5
TORSDOF 3
ENDMDL
MODEL 2
REMARK VINA RESULT:    -3.830      0.494      4.186
REMARK INTER + INTRA:          -4.556
REMARK INTER:                  -4.525
REMARK INTRA:                  -0.031
REMARK UNBOUND:                -0.054
REMARK SMILES O=C([O-])CCC(=O)[O-]
REMARK SMILES IDX 4 1 2 2 1 3 3 4 5 5 6 6 7 7 8 8
REMARK H PARENT
REMARK Flexibility Score: inf
ROOT
ATOM      1  C   UNL     1      -4.774 -27.824  27.241  1.00  0.00     0.059 C 
ENDROOT
BRANCH   1   2
ATOM      2  C   UNL     1      -4.220 -28.414  28.503  1.00  0.00     0.042 C 
ATOM      3  O   UNL     1      -2.987 -28.349  28.743  1.00  0.00    -0.550 OA
ATOM      4  O   UNL     1      -5.062 -29.071  29.391  1.00  0.00    -0.550 OA
ENDBRANCH   1   2
BRANCH   1   5
ATOM      5  C   UNL     1      -3.755 -27.877  26.098  1.00  0.00     0.059 C 
BRANCH   5   6
ATOM      6  C   UNL     1      -4.429 -27.924  24.760  1.00  0.00     0.042 C 
ATOM      7  O   UNL     1      -5.154 -26.966  24.383  1.00  0.00    -0.550 OA
ATOM      8  O   UNL     1      -4.288 -29.042  23.948  1.00  0.00    -0.550 OA
ENDBRANCH   5   6
ENDBRANCH   1   5
TORSDOF 3
ENDMDL
MODEL 3
REMARK VINA RESULT:    -3.826      0.364      4.113
REMARK INTER + INTRA:          -4.551
REMARK INTER:                  -4.513
REMARK INTRA:                  -0.038
REMARK UNBOUND:                -0.054
REMARK SMILES O=C([O-])CCC(=O)[O-]
REMARK SMILES IDX 4 1 2 2 1 3 3 4 5 5 6 6 7 7 8 8
REMARK H PARENT
REMARK Flexibility Score: inf
ROOT
ATOM      1  C   UNL     1      -4.901 -27.905  27.218  1.00  0.00     0.059 C 
ENDROOT
BRANCH   1   2
ATOM      2  C   UNL     1      -4.325 -28.443  28.492  1.00  0.00     0.042 C 
ATOM      3  O   UNL     1      -3.087 -28.371  28.707  1.00  0.00    -0.550 OA
ATOM      4  O   UNL     1      -5.151 -29.060  29.423  1.00  0.00    -0.550 OA
ENDBRANCH   1   2
BRANCH   1   5
ATOM      5  C   UNL     1      -3.819 -27.695  26.153  1.00  0.00     0.059 C 
BRANCH   5   6
ATOM      6  C   UNL     1      -4.324 -28.023  24.780  1.00  0.00     0.042 C 
ATOM      7  O   UNL     1      -4.033 -29.125  24.246  1.00  0.00    -0.550 OA
ATOM      8  O   UNL     1      -5.080 -27.094  24.076  1.00  0.00    -0.550 OA
ENDBRANCH   5   6
ENDBRANCH   1   5
TORSDOF 3
ENDMDL
MODEL 4
REMARK VINA RESULT:    -3.762      0.878      4.184
REMARK INTER + INTRA:          -4.476
REMARK INTER:                  -4.447
REMARK INTRA:                  -0.029
REMARK UNBOUND:                -0.054
REMARK SMILES O=C([O-])CCC(=O)[O-]
REMARK SMILES IDX 4 1 2 2 1 3 3 4 5 5 6 6 7 7 8 8
REMARK H PARENT
REMARK Flexibility Score: inf
ROOT
ATOM      1  C   UNL     1      -4.975 -27.848  27.194  1.00  0.00     0.059 C 
ENDROOT
BRANCH   1   2
ATOM      2  C   UNL     1      -4.211 -28.369  28.373  1.00  0.00     0.042 C 
ATOM      3  O   UNL     1      -4.815 -28.948  29.313  1.00  0.00    -0.550 OA
ATOM      4  O   UNL     1      -2.837 -28.178  28.452  1.00  0.00    -0.550 OA
ENDBRANCH   1   2
BRANCH   1   5
ATOM      5  C   UNL     1      -4.084 -27.720  25.954  1.00  0.00     0.059 C 
BRANCH   5   6
ATOM      6  C   UNL     1      -4.894 -27.656  24.695  1.00  0.00     0.042 C 
ATOM      7  O   UNL     1      -4.905 -28.632  23.900  1.00  0.00    -0.550 OA
ATOM      8  O   UNL     1      -5.604 -26.504  24.381  1.00  0.00    -0.550 OA
ENDBRANCH   5   6
ENDBRANCH   1   5
TORSDOF 3
ENDMDL
MODEL 5
REMARK VINA RESULT:    -3.680      1.034      1.258
REMARK INTER + INTRA:          -4.379
REMARK INTER:                  -4.345
REMARK INTRA:                  -0.035
REMARK UNBOUND:                -0.054
REMARK SMILES O=C([O-])CCC(=O)[O-]
REMARK SMILES IDX 4 1 2 2 1 3 3 4 5 5 6 6 7 7 8 8
REMARK H PARENT
REMARK Flexibility Score: inf
ROOT
ATOM      1  C   UNL     1      -4.338 -27.747  25.917  1.00  0.00     0.059 C 
ENDROOT
BRANCH   1   2
ATOM      2  C   UNL     1      -5.233 -27.353  24.782  1.00  0.00     0.042 C 
ATOM      3  O   UNL     1      -4.820 -27.426  23.596  1.00  0.00    -0.550 OA
ATOM      4  O   UNL     1      -6.509 -26.866  25.038  1.00  0.00    -0.550 OA
ENDBRANCH   1   2
BRANCH   1   5
ATOM      5  C   UNL     1      -5.100 -27.803  27.245  1.00  0.00     0.059 C 
BRANCH   5   6
ATOM      6  C   UNL     1      -4.253 -28.369  28.345  1.00  0.00     0.042 C 
ATOM      7  O   UNL     1      -2.998 -28.284  28.284  1.00  0.00    -0.550 OA
ATOM      8  O   UNL     1      -4.847 -29.025  29.415  1.00  0.00    -0.550 OA
ENDBRANCH   5   6
ENDBRANCH   1   5
TORSDOF 3
ENDMDL
MODEL 6
REMARK VINA RESULT:    -2.932      1.960      4.261
REMARK INTER + INTRA:          -3.500
REMARK INTER:                  -3.451
REMARK INTRA:                  -0.050
REMARK UNBOUND:                -0.054
REMARK SMILES O=C([O-])CCC(=O)[O-]
REMARK SMILES IDX 4 1 2 2 1 3 3 4 5 5 6 6 7 7 8 8
REMARK H PARENT
REMARK Flexibility Score: inf
ROOT
ATOM      1  C   UNL     1      -4.936 -27.620  25.998  1.00  0.00     0.059 C 
ENDROOT
BRANCH   1   2
ATOM      2  C   UNL     1      -3.498 -27.560  26.415  1.00  0.00     0.042 C 
ATOM      3  O   UNL     1      -2.619 -27.174  25.602  1.00  0.00    -0.550 OA
ATOM      4  O   UNL     1      -3.126 -27.971  27.689  1.00  0.00    -0.550 OA
ENDBRANCH   1   2
BRANCH   1   5
ATOM      5  C   UNL     1      -5.078 -27.798  24.482  1.00  0.00     0.059 C 
BRANCH   5   6
ATOM      6  C   UNL     1      -6.160 -26.924  23.923  1.00  0.00     0.042 C 
ATOM      7  O   UNL     1      -5.888 -26.066  23.043  1.00  0.00    -0.550 OA
ATOM      8  O   UNL     1      -7.459 -27.031  24.403  1.00  0.00    -0.550 OA
ENDBRANCH   5   6
ENDBRANCH   1   5
TORSDOF 3
ENDMDL
MODEL 7
REMARK VINA RESULT:    -2.920      2.450      4.030
REMARK INTER + INTRA:          -3.487
REMARK INTER:                  -3.367
REMARK INTRA:                  -0.120
REMARK UNBOUND:                -0.054
REMARK SMILES O=C([O-])CCC(=O)[O-]
REMARK SMILES IDX 4 1 2 2 1 3 3 4 5 5 6 6 7 7 8 8
REMARK H PARENT
REMARK Flexibility Score: inf
ROOT
ATOM      1  C   UNL     1      -5.569 -27.436  26.514  1.00  0.00     0.059 C 
ENDROOT
BRANCH   1   2
ATOM      2  C   UNL     1      -4.146 -27.590  26.073  1.00  0.00     0.042 C 
ATOM      3  O   UNL     1      -3.234 -27.754  26.924  1.00  0.00    -0.550 OA
ATOM      4  O   UNL     1      -3.823 -27.510  24.724  1.00  0.00    -0.550 OA
ENDBRANCH   1   2
BRANCH   1   5
ATOM      5  C   UNL     1      -6.374 -26.572  25.537  1.00  0.00     0.059 C 
BRANCH   5   6
ATOM      6  C   UNL     1      -7.390 -27.382  24.791  1.00  0.00     0.042 C 
ATOM      7  O   UNL     1      -8.591 -27.395  25.169  1.00  0.00    -0.550 OA
ATOM      8  O   UNL     1      -7.003 -28.153  23.702  1.00  0.00    -0.550 OA
ENDBRANCH   5   6
ENDBRANCH   1   5
TORSDOF 3
ENDMDL
MODEL 8
REMARK VINA RESULT:    -2.918     19.526     20.541
REMARK INTER + INTRA:          -3.484
REMARK INTER:                  -3.366
REMARK INTRA:                  -0.118
REMARK UNBOUND:                -0.054
REMARK SMILES O=C([O-])CCC(=O)[O-]
REMARK SMILES IDX 4 1 2 2 1 3 3 4 5 5 6 6 7 7 8 8
REMARK H PARENT
REMARK Flexibility Score: inf
ROOT
ATOM      1  C   UNL     1     -17.907 -13.171  23.124  1.00  0.00     0.059 C 
ENDROOT
BRANCH   1   2
ATOM      2  C   UNL     1     -18.919 -12.166  23.580  1.00  0.00     0.042 C 
ATOM      3  O   UNL     1     -18.698 -11.463  24.601  1.00  0.00    -0.550 OA
ATOM      4  O   UNL     1     -20.124 -12.034  22.902  1.00  0.00    -0.550 OA
ENDBRANCH   1   2
BRANCH   1   5
ATOM      5  C   UNL     1     -18.116 -14.531  23.798  1.00  0.00     0.059 C 
BRANCH   5   6
ATOM      6  C   UNL     1     -17.047 -14.818  24.808  1.00  0.00     0.042 C 
ATOM      7  O   UNL     1     -16.270 -13.901  25.184  1.00  0.00    -0.550 OA
ATOM      8  O   UNL     1     -16.883 -16.105  25.303  1.00  0.00    -0.550 OA
ENDBRANCH   5   6
ENDBRANCH   1   5
TORSDOF 3
ENDMDL
MODEL 9
REMARK VINA RESULT:    -2.902      2.482      3.500
REMARK INTER + INTRA:          -3.465
REMARK INTER:                  -3.348
REMARK INTRA:                  -0.117
REMARK UNBOUND:                -0.054
REMARK SMILES O=C([O-])CCC(=O)[O-]
REMARK SMILES IDX 4 1 2 2 1 3 3 4 5 5 6 6 7 7 8 8
REMARK H PARENT
REMARK Flexibility Score: inf
ROOT
ATOM      1  C   UNL     1      -6.376 -26.586  25.445  1.00  0.00     0.059 C 
ENDROOT
BRANCH   1   2
ATOM      2  C   UNL     1      -7.421 -27.407  24.753  1.00  0.00     0.042 C 
ATOM      3  O   UNL     1      -8.608 -27.405  25.173  1.00  0.00    -0.550 OA
ATOM      4  O   UNL     1      -7.075 -28.206  23.671  1.00  0.00    -0.550 OA
ENDBRANCH   1   2
BRANCH   1   5
ATOM      5  C   UNL     1      -5.594 -27.413  26.471  1.00  0.00     0.059 C 
BRANCH   5   6
ATOM      6  C   UNL     1      -4.165 -27.598  26.058  1.00  0.00     0.042 C 
ATOM      7  O   UNL     1      -3.270 -27.760  26.929  1.00  0.00    -0.550 OA
ATOM      8  O   UNL     1      -3.816 -27.549  24.714  1.00  0.00    -0.550 OA
ENDBRANCH   5   6
ENDBRANCH   1   5
TORSDOF 3
ENDMDL
