MODEL 1
REMARK VINA RESULT:    -5.793      0.000      0.000
REMARK INTER + INTRA:          -6.302
REMARK INTER:                  -6.302
REMARK INTRA:                   0.000
REMARK UNBOUND:                 0.000
REMARK SMILES Cc1cc(O)c2c(c1)C(=O)c1cc(O)cc(O)c1C2=O
REMARK SMILES IDX 1 1 2 2 8 3 7 4 6 5 4 6 3 7 19 8 20 9 18 10 11 11 9 12 10 13
REMARK SMILES IDX 12 14 13 15 15 16 16 17 5 18 17 20 14 22
REMARK H PARENT 5 19 17 21 14 23
REMARK Flexibility Score: inf
ROOT
ATOM      1  C   UNL     1       1.803  24.722  27.434  1.00  0.00     0.044 C 
ATOM      2  C   UNL     1       1.594  25.673  28.575  1.00  0.00    -0.047 A 
ATOM      3  C   UNL     1       0.840  25.282  29.688  1.00  0.00     0.016 A 
ATOM      4  C   UNL     1       0.675  26.150  30.781  1.00  0.00     0.038 A 
ATOM      5  C   UNL     1       1.294  27.420  30.772  1.00  0.00     0.076 A 
ATOM      6  C   UNL     1       2.018  27.828  29.622  1.00  0.00     0.127 A 
ATOM      7  C   UNL     1       2.186  26.940  28.555  1.00  0.00     0.050 A 
ATOM      8  C   UNL     1       1.218  28.247  32.004  1.00  0.00     0.201 C 
ATOM      9  O   UNL     1       2.152  29.046  32.282  1.00  0.00    -0.288 OA
ATOM     10  C   UNL     1       0.143  27.993  32.998  1.00  0.00     0.076 A 
ATOM     11  C   UNL     1      -0.474  26.722  33.003  1.00  0.00     0.041 A 
ATOM     12  C   UNL     1      -0.150  25.739  31.942  1.00  0.00     0.194 C 
ATOM     13  O   UNL     1      -0.598  24.562  32.014  1.00  0.00    -0.289 OA
ATOM     14  C   UNL     1      -1.396  26.397  34.013  1.00  0.00     0.059 A 
ATOM     15  C   UNL     1      -1.719  27.327  35.004  1.00  0.00     0.120 A 
ATOM     16  C   UNL     1      -1.143  28.596  34.978  1.00  0.00     0.093 A 
ATOM     17  C   UNL     1      -0.238  28.951  33.973  1.00  0.00     0.131 A 
ENDROOT
BRANCH   6  18
ATOM     18  O   UNL     1       2.556  29.109  29.483  1.00  0.00    -0.507 OA
ATOM     19  H   UNL     1       3.410  29.409  29.934  1.00  0.00     0.293 HD
ENDBRANCH   6  18
BRANCH  17  20
ATOM     20  O   UNL     1       0.227  30.268  33.961  1.00  0.00    -0.507 OA
ATOM     21  H   UNL     1       0.351  30.824  34.795  1.00  0.00     0.293 HD
ENDBRANCH  17  20
BRANCH  15  22
ATOM     22  O   UNL     1      -2.624  27.004  36.013  1.00  0.00    -0.508 OA
ATOM     23  H   UNL     1      -3.427  27.588  36.213  1.00  0.00     0.293 HD
ENDBRANCH  15  22
TORSDOF 3
ENDMDL
MODEL 2
REMARK VINA RESULT:    -5.403      2.423      6.293
REMARK INTER + INTRA:          -5.877
REMARK INTER:                  -5.877
REMARK INTRA:                   0.000
REMARK UNBOUND:                 0.000
REMARK SMILES Cc1cc(O)c2c(c1)C(=O)c1cc(O)cc(O)c1C2=O
REMARK SMILES IDX 1 1 2 2 8 3 7 4 6 5 4 6 3 7 19 8 20 9 18 10 11 11 9 12 10 13
REMARK SMILES IDX 12 14 13 15 15 16 16 17 5 18 17 20 14 22
REMARK H PARENT 5 19 17 21 14 23
REMARK Flexibility Score: inf
ROOT
ATOM      1  C   UNL     1      -1.187  24.550  39.318  1.00  0.00     0.044 C 
ATOM      2  C   UNL     1      -1.006  25.514  38.183  1.00  0.00    -0.047 A 
ATOM      3  C   UNL     1      -0.338  25.116  37.020  1.00  0.00     0.016 A 
ATOM      4  C   UNL     1      -0.202  25.997  35.934  1.00  0.00     0.038 A 
ATOM      5  C   UNL     1      -0.766  27.291  36.002  1.00  0.00     0.076 A 
ATOM      6  C   UNL     1      -1.402  27.706  37.201  1.00  0.00     0.127 A 
ATOM      7  C   UNL     1      -1.543  26.804  38.261  1.00  0.00     0.050 A 
ATOM      8  C   UNL     1      -0.730  28.138  34.782  1.00  0.00     0.201 C 
ATOM      9  O   UNL     1      -1.644  28.980  34.575  1.00  0.00    -0.288 OA
ATOM     10  C   UNL     1       0.273  27.860  33.721  1.00  0.00     0.076 A 
ATOM     11  C   UNL     1       0.835  26.565  33.657  1.00  0.00     0.041 A 
ATOM     12  C   UNL     1       0.534  25.576  34.719  1.00  0.00     0.194 C 
ATOM     13  O   UNL     1       0.927  24.383  34.599  1.00  0.00    -0.289 OA
ATOM     14  C   UNL     1       1.680  26.223  32.588  1.00  0.00     0.059 A 
ATOM     15  C   UNL     1       1.982  27.159  31.595  1.00  0.00     0.120 A 
ATOM     16  C   UNL     1       1.461  28.450  31.677  1.00  0.00     0.093 A 
ATOM     17  C   UNL     1       0.634  28.822  32.741  1.00  0.00     0.131 A 
ENDROOT
BRANCH   6  18
ATOM     18  O   UNL     1      -1.877  29.005  37.394  1.00  0.00    -0.507 OA
ATOM     19  H   UNL     1      -2.575  29.438  36.805  1.00  0.00     0.293 HD
ENDBRANCH   6  18
BRANCH  17  20
ATOM     20  O   UNL     1       0.226  30.156  32.804  1.00  0.00    -0.507 OA
ATOM     21  H   UNL     1       0.851  30.921  33.014  1.00  0.00     0.293 HD
ENDBRANCH  17  20
BRANCH  15  22
ATOM     22  O   UNL     1       2.810  26.819  30.527  1.00  0.00    -0.508 OA
ATOM     23  H   UNL     1       3.597  27.398  30.261  1.00  0.00     0.293 HD
ENDBRANCH  15  22
TORSDOF 3
ENDMDL
MODEL 3
REMARK VINA RESULT:    -5.364      3.716      5.809
REMARK INTER + INTRA:          -5.834
REMARK INTER:                  -5.834
REMARK INTRA:                   0.000
REMARK UNBOUND:                 0.000
REMARK SMILES Cc1cc(O)c2c(c1)C(=O)c1cc(O)cc(O)c1C2=O
REMARK SMILES IDX 1 1 2 2 8 3 7 4 6 5 4 6 3 7 19 8 20 9 18 10 11 11 9 12 10 13
REMARK SMILES IDX 12 14 13 15 15 16 16 17 5 18 17 20 14 22
REMARK H PARENT 5 19 17 21 14 23
REMARK Flexibility Score: inf
ROOT
ATOM      1  C   UNL     1       1.048  26.774  31.950  1.00  0.00     0.044 C 
ATOM      2  C   UNL     1       0.429  26.899  33.311  1.00  0.00    -0.047 A 
ATOM      3  C   UNL     1       0.745  25.977  34.316  1.00  0.00     0.016 A 
ATOM      4  C   UNL     1       0.205  26.112  35.606  1.00  0.00     0.038 A 
ATOM      5  C   UNL     1      -0.645  27.201  35.904  1.00  0.00     0.076 A 
ATOM      6  C   UNL     1      -0.999  28.105  34.870  1.00  0.00     0.127 A 
ATOM      7  C   UNL     1      -0.433  27.963  33.599  1.00  0.00     0.050 A 
ATOM      8  C   UNL     1      -1.076  27.389  37.313  1.00  0.00     0.201 C 
ATOM      9  O   UNL     1      -1.311  28.549  37.748  1.00  0.00    -0.288 OA
ATOM     10  C   UNL     1      -1.045  26.240  38.255  1.00  0.00     0.076 A 
ATOM     11  C   UNL     1      -0.194  25.154  37.953  1.00  0.00     0.041 A 
ATOM     12  C   UNL     1       0.520  25.113  36.655  1.00  0.00     0.194 C 
ATOM     13  O   UNL     1       1.377  24.214  36.435  1.00  0.00    -0.289 OA
ATOM     14  C   UNL     1      -0.032  24.114  38.884  1.00  0.00     0.059 A 
ATOM     15  C   UNL     1      -0.720  24.137  40.100  1.00  0.00     0.120 A 
ATOM     16  C   UNL     1      -1.591  25.188  40.384  1.00  0.00     0.093 A 
ATOM     17  C   UNL     1      -1.785  26.225  39.466  1.00  0.00     0.131 A 
ENDROOT
BRANCH   6  18
ATOM     18  O   UNL     1      -1.926  29.134  35.050  1.00  0.00    -0.507 OA
ATOM     19  H   UNL     1      -1.824  30.055  34.647  1.00  0.00     0.293 HD
ENDBRANCH   6  18
BRANCH  17  20
ATOM     20  O   UNL     1      -2.741  27.194  39.781  1.00  0.00    -0.507 OA
ATOM     21  H   UNL     1      -2.826  27.618  40.694  1.00  0.00     0.293 HD
ENDBRANCH  17  20
BRANCH  15  22
ATOM     22  O   UNL     1      -0.552  23.114  41.031  1.00  0.00    -0.508 OA
ATOM     23  H   UNL     1      -1.249  22.389  41.153  1.00  0.00     0.293 HD
ENDBRANCH  15  22
TORSDOF 3
ENDMDL
MODEL 4
REMARK VINA RESULT:    -5.269      3.914      7.560
REMARK INTER + INTRA:          -5.731
REMARK INTER:                  -5.731
REMARK INTRA:                   0.000
REMARK UNBOUND:                 0.000
REMARK SMILES Cc1cc(O)c2c(c1)C(=O)c1cc(O)cc(O)c1C2=O
REMARK SMILES IDX 1 1 2 2 8 3 7 4 6 5 4 6 3 7 19 8 20 9 18 10 11 11 9 12 10 13
REMARK SMILES IDX 12 14 13 15 15 16 16 17 5 18 17 20 14 22
REMARK H PARENT 5 19 17 21 14 23
REMARK Flexibility Score: inf
ROOT
ATOM      1  C   UNL     1       0.763  23.907  41.518  1.00  0.00     0.044 C 
ATOM      2  C   UNL     1       0.289  24.652  40.305  1.00  0.00    -0.047 A 
ATOM      3  C   UNL     1       0.897  24.435  39.063  1.00  0.00     0.016 A 
ATOM      4  C   UNL     1       0.432  25.095  37.914  1.00  0.00     0.038 A 
ATOM      5  C   UNL     1      -0.677  25.966  38.001  1.00  0.00     0.076 A 
ATOM      6  C   UNL     1      -1.260  26.217  39.270  1.00  0.00     0.127 A 
ATOM      7  C   UNL     1      -0.793  25.534  40.397  1.00  0.00     0.050 A 
ATOM      8  C   UNL     1      -1.229  26.528  36.742  1.00  0.00     0.201 C 
ATOM      9  O   UNL     1      -2.457  26.800  36.662  1.00  0.00    -0.288 OA
ATOM     10  C   UNL     1      -0.378  26.589  35.525  1.00  0.00     0.076 A 
ATOM     11  C   UNL     1       0.730  25.717  35.442  1.00  0.00     0.041 A 
ATOM     12  C   UNL     1       1.103  24.882  36.609  1.00  0.00     0.194 C 
ATOM     13  O   UNL     1       2.008  24.011  36.498  1.00  0.00    -0.289 OA
ATOM     14  C   UNL     1       1.476  25.647  34.253  1.00  0.00     0.059 A 
ATOM     15  C   UNL     1       1.140  26.446  33.157  1.00  0.00     0.120 A 
ATOM     16  C   UNL     1       0.072  27.337  33.250  1.00  0.00     0.093 A 
ATOM     17  C   UNL     1      -0.674  27.441  34.428  1.00  0.00     0.131 A 
ENDROOT
BRANCH   6  18
ATOM     18  O   UNL     1      -2.277  27.155  39.462  1.00  0.00    -0.507 OA
ATOM     19  H   UNL     1      -2.354  27.735  40.286  1.00  0.00     0.293 HD
ENDBRANCH   6  18
BRANCH  17  20
ATOM     20  O   UNL     1      -1.669  28.419  34.477  1.00  0.00    -0.507 OA
ATOM     21  H   UNL     1      -2.581  28.268  34.886  1.00  0.00     0.293 HD
ENDBRANCH  17  20
BRANCH  15  22
ATOM     22  O   UNL     1       1.870  26.370  31.973  1.00  0.00    -0.508 OA
ATOM     23  H   UNL     1       1.429  26.137  31.092  1.00  0.00     0.293 HD
ENDBRANCH  15  22
TORSDOF 3
ENDMDL
MODEL 5
REMARK VINA RESULT:    -5.237      1.776      5.798
REMARK INTER + INTRA:          -5.697
REMARK INTER:                  -5.697
REMARK INTRA:                   0.000
REMARK UNBOUND:                 0.000
REMARK SMILES Cc1cc(O)c2c(c1)C(=O)c1cc(O)cc(O)c1C2=O
REMARK SMILES IDX 1 1 2 2 8 3 7 4 6 5 4 6 3 7 19 8 20 9 18 10 11 11 9 12 10 13
REMARK SMILES IDX 12 14 13 15 15 16 16 17 5 18 17 20 14 22
REMARK H PARENT 5 19 17 21 14 23
REMARK Flexibility Score: inf
ROOT
ATOM      1  C   UNL     1      -0.900  27.440  34.948  1.00  0.00     0.044 C 
ATOM      2  C   UNL     1      -0.176  27.365  33.637  1.00  0.00    -0.047 A 
ATOM      3  C   UNL     1      -0.376  26.273  32.784  1.00  0.00     0.016 A 
ATOM      4  C   UNL     1       0.264  26.215  31.534  1.00  0.00     0.038 A 
ATOM      5  C   UNL     1       1.098  27.278  31.119  1.00  0.00     0.076 A 
ATOM      6  C   UNL     1       1.332  28.359  32.007  1.00  0.00     0.127 A 
ATOM      7  C   UNL     1       0.669  28.405  33.237  1.00  0.00     0.050 A 
ATOM      8  C   UNL     1       1.637  27.247  29.735  1.00  0.00     0.201 C 
ATOM      9  O   UNL     1       1.866  28.327  29.127  1.00  0.00    -0.288 OA
ATOM     10  C   UNL     1       1.723  25.956  29.005  1.00  0.00     0.076 A 
ATOM     11  C   UNL     1       0.889  24.896  29.423  1.00  0.00     0.041 A 
ATOM     12  C   UNL     1       0.071  25.040  30.651  1.00  0.00     0.194 C 
ATOM     13  O   UNL     1      -0.770  24.150  30.957  1.00  0.00    -0.289 OA
ATOM     14  C   UNL     1       0.841  23.708  28.675  1.00  0.00     0.059 A 
ATOM     15  C   UNL     1       1.625  23.560  27.528  1.00  0.00     0.120 A 
ATOM     16  C   UNL     1       2.479  24.589  27.135  1.00  0.00     0.093 A 
ATOM     17  C   UNL     1       2.561  25.774  27.873  1.00  0.00     0.131 A 
ENDROOT
BRANCH   6  18
ATOM     18  O   UNL     1       2.235  29.386  31.724  1.00  0.00    -0.507 OA
ATOM     19  H   UNL     1       3.237  29.290  31.815  1.00  0.00     0.293 HD
ENDBRANCH   6  18
BRANCH  17  20
ATOM     20  O   UNL     1       3.505  26.720  27.470  1.00  0.00    -0.507 OA
ATOM     21  H   UNL     1       4.502  26.591  27.570  1.00  0.00     0.293 HD
ENDBRANCH  17  20
BRANCH  15  22
ATOM     22  O   UNL     1       1.571  22.387  26.777  1.00  0.00    -0.508 OA
ATOM     23  H   UNL     1       2.387  21.803  26.646  1.00  0.00     0.293 HD
ENDBRANCH  15  22
TORSDOF 3
ENDMDL
MODEL 6
REMARK VINA RESULT:    -5.111      2.112      3.399
REMARK INTER + INTRA:          -5.559
REMARK INTER:                  -5.559
REMARK INTRA:                   0.000
REMARK UNBOUND:                 0.000
REMARK SMILES Cc1cc(O)c2c(c1)C(=O)c1cc(O)cc(O)c1C2=O
REMARK SMILES IDX 1 1 2 2 8 3 7 4 6 5 4 6 3 7 19 8 20 9 18 10 11 11 9 12 10 13
REMARK SMILES IDX 12 14 13 15 15 16 16 17 5 18 17 20 14 22
REMARK H PARENT 5 19 17 21 14 23
REMARK Flexibility Score: inf
ROOT
ATOM      1  C   UNL     1       3.373  27.033  30.871  1.00  0.00     0.044 C 
ATOM      2  C   UNL     1       2.154  27.332  31.693  1.00  0.00    -0.047 A 
ATOM      3  C   UNL     1       1.311  26.293  32.106  1.00  0.00     0.016 A 
ATOM      4  C   UNL     1       0.191  26.558  32.913  1.00  0.00     0.038 A 
ATOM      5  C   UNL     1      -0.076  27.880  33.336  1.00  0.00     0.076 A 
ATOM      6  C   UNL     1       0.755  28.934  32.877  1.00  0.00     0.127 A 
ATOM      7  C   UNL     1       1.875  28.644  32.090  1.00  0.00     0.050 A 
ATOM      8  C   UNL     1      -1.180  28.097  34.306  1.00  0.00     0.201 C 
ATOM      9  O   UNL     1      -1.116  29.051  35.126  1.00  0.00    -0.288 OA
ATOM     10  C   UNL     1      -2.259  27.083  34.435  1.00  0.00     0.076 A 
ATOM     11  C   UNL     1      -1.988  25.763  34.011  1.00  0.00     0.041 A 
ATOM     12  C   UNL     1      -0.713  25.456  33.319  1.00  0.00     0.194 C 
ATOM     13  O   UNL     1      -0.411  24.260  33.055  1.00  0.00    -0.289 OA
ATOM     14  C   UNL     1      -2.931  24.747  34.242  1.00  0.00     0.059 A 
ATOM     15  C   UNL     1      -4.142  25.036  34.875  1.00  0.00     0.120 A 
ATOM     16  C   UNL     1      -4.430  26.345  35.259  1.00  0.00     0.093 A 
ATOM     17  C   UNL     1      -3.517  27.377  35.022  1.00  0.00     0.131 A 
ENDROOT
BRANCH   6  18
ATOM     18  O   UNL     1       0.490  30.278  33.147  1.00  0.00    -0.507 OA
ATOM     19  H   UNL     1       1.144  31.025  32.960  1.00  0.00     0.293 HD
ENDBRANCH   6  18
BRANCH  17  20
ATOM     20  O   UNL     1      -3.913  28.675  35.351  1.00  0.00    -0.507 OA
ATOM     21  H   UNL     1      -3.767  29.473  34.748  1.00  0.00     0.293 HD
ENDBRANCH  17  20
BRANCH  15  22
ATOM     22  O   UNL     1      -5.074  24.028  35.118  1.00  0.00    -0.508 OA
ATOM     23  H   UNL     1      -5.209  23.263  34.468  1.00  0.00     0.293 HD
ENDBRANCH  15  22
TORSDOF 3
ENDMDL
MODEL 7
REMARK VINA RESULT:    -5.033      1.431      6.341
REMARK INTER + INTRA:          -5.474
REMARK INTER:                  -5.474
REMARK INTRA:                   0.000
REMARK UNBOUND:                 0.000
REMARK SMILES Cc1cc(O)c2c(c1)C(=O)c1cc(O)cc(O)c1C2=O
REMARK SMILES IDX 1 1 2 2 8 3 7 4 6 5 4 6 3 7 19 8 20 9 18 10 11 11 9 12 10 13
REMARK SMILES IDX 12 14 13 15 15 16 16 17 5 18 17 20 14 22
REMARK H PARENT 5 19 17 21 14 23
REMARK Flexibility Score: inf
ROOT
ATOM      1  C   UNL     1      -1.359  28.283  36.125  1.00  0.00     0.044 C 
ATOM      2  C   UNL     1      -1.137  27.521  34.852  1.00  0.00    -0.047 A 
ATOM      3  C   UNL     1      -0.132  27.915  33.960  1.00  0.00     0.016 A 
ATOM      4  C   UNL     1       0.112  27.182  32.787  1.00  0.00     0.038 A 
ATOM      5  C   UNL     1      -0.643  26.020  32.512  1.00  0.00     0.076 A 
ATOM      6  C   UNL     1      -1.690  25.651  33.396  1.00  0.00     0.127 A 
ATOM      7  C   UNL     1      -1.902  26.385  34.568  1.00  0.00     0.050 A 
ATOM      8  C   UNL     1      -0.256  25.192  31.341  1.00  0.00     0.201 C 
ATOM      9  O   UNL     1      -0.454  23.948  31.359  1.00  0.00    -0.288 OA
ATOM     10  C   UNL     1       0.533  25.799  30.237  1.00  0.00     0.076 A 
ATOM     11  C   UNL     1       1.286  26.961  30.516  1.00  0.00     0.041 A 
ATOM     12  C   UNL     1       1.158  27.626  31.834  1.00  0.00     0.194 C 
ATOM     13  O   UNL     1       1.921  28.585  32.134  1.00  0.00    -0.289 OA
ATOM     14  C   UNL     1       2.151  27.484  29.539  1.00  0.00     0.059 A 
ATOM     15  C   UNL     1       2.259  26.873  28.288  1.00  0.00     0.120 A 
ATOM     16  C   UNL     1       1.487  25.749  27.996  1.00  0.00     0.093 A 
ATOM     17  C   UNL     1       0.605  25.221  28.943  1.00  0.00     0.131 A 
ENDROOT
BRANCH   6  18
ATOM     18  O   UNL     1      -2.560  24.590  33.135  1.00  0.00    -0.507 OA
ATOM     19  H   UNL     1      -2.575  23.735  33.674  1.00  0.00     0.293 HD
ENDBRANCH   6  18
BRANCH  17  20
ATOM     20  O   UNL     1      -0.201  24.151  28.546  1.00  0.00    -0.507 OA
ATOM     21  H   UNL     1      -1.191  24.236  28.363  1.00  0.00     0.293 HD
ENDBRANCH  17  20
BRANCH  15  22
ATOM     22  O   UNL     1       3.125  27.381  27.322  1.00  0.00    -0.508 OA
ATOM     23  H   UNL     1       3.049  28.336  26.991  1.00  0.00     0.293 HD
ENDBRANCH  15  22
TORSDOF 3
ENDMDL
MODEL 8
REMARK VINA RESULT:    -4.996      5.659      7.532
REMARK INTER + INTRA:          -5.434
REMARK INTER:                  -5.434
REMARK INTRA:                   0.000
REMARK UNBOUND:                 0.000
REMARK SMILES Cc1cc(O)c2c(c1)C(=O)c1cc(O)cc(O)c1C2=O
REMARK SMILES IDX 1 1 2 2 8 3 7 4 6 5 4 6 3 7 19 8 20 9 18 10 11 11 9 12 10 13
REMARK SMILES IDX 12 14 13 15 15 16 16 17 5 18 17 20 14 22
REMARK H PARENT 5 19 17 21 14 23
REMARK Flexibility Score: inf
ROOT
ATOM      1  C   UNL     1      -6.742  25.609  32.912  1.00  0.00     0.044 C 
ATOM      2  C   UNL     1      -5.714  25.785  33.991  1.00  0.00    -0.047 A 
ATOM      3  C   UNL     1      -5.873  25.148  35.227  1.00  0.00     0.016 A 
ATOM      4  C   UNL     1      -4.894  25.271  36.227  1.00  0.00     0.038 A 
ATOM      5  C   UNL     1      -3.724  26.023  35.979  1.00  0.00     0.076 A 
ATOM      6  C   UNL     1      -3.589  26.704  34.742  1.00  0.00     0.127 A 
ATOM      7  C   UNL     1      -4.567  26.550  33.753  1.00  0.00     0.050 A 
ATOM      8  C   UNL     1      -2.649  26.008  37.004  1.00  0.00     0.201 C 
ATOM      9  O   UNL     1      -1.445  26.135  36.654  1.00  0.00    -0.288 OA
ATOM     10  C   UNL     1      -2.975  25.653  38.410  1.00  0.00     0.076 A 
ATOM     11  C   UNL     1      -4.146  24.902  38.654  1.00  0.00     0.041 A 
ATOM     12  C   UNL     1      -5.086  24.618  37.544  1.00  0.00     0.194 C 
ATOM     13  O   UNL     1      -6.063  23.841  37.727  1.00  0.00    -0.289 OA
ATOM     14  C   UNL     1      -4.416  24.430  39.950  1.00  0.00     0.059 A 
ATOM     15  C   UNL     1      -3.543  24.712  41.003  1.00  0.00     0.120 A 
ATOM     16  C   UNL     1      -2.408  25.488  40.774  1.00  0.00     0.093 A 
ATOM     17  C   UNL     1      -2.126  25.986  39.498  1.00  0.00     0.131 A 
ENDROOT
BRANCH   6  18
ATOM     18  O   UNL     1      -2.524  27.564  34.465  1.00  0.00    -0.507 OA
ATOM     19  H   UNL     1      -2.518  28.544  34.715  1.00  0.00     0.293 HD
ENDBRANCH   6  18
BRANCH  17  20
ATOM     20  O   UNL     1      -1.022  26.830  39.365  1.00  0.00    -0.507 OA
ATOM     21  H   UNL     1      -0.077  26.496  39.233  1.00  0.00     0.293 HD
ENDBRANCH  17  20
BRANCH  15  22
ATOM     22  O   UNL     1      -3.802  24.236  42.287  1.00  0.00    -0.508 OA
ATOM     23  H   UNL     1      -3.693  24.825  43.104  1.00  0.00     0.293 HD
ENDBRANCH  15  22
TORSDOF 3
ENDMDL
MODEL 9
REMARK VINA RESULT:    -4.954      1.427      3.677
REMARK INTER + INTRA:          -5.388
REMARK INTER:                  -5.388
REMARK INTRA:                   0.000
REMARK UNBOUND:                 0.000
REMARK SMILES Cc1cc(O)c2c(c1)C(=O)c1cc(O)cc(O)c1C2=O
REMARK SMILES IDX 1 1 2 2 8 3 7 4 6 5 4 6 3 7 19 8 20 9 18 10 11 11 9 12 10 13
REMARK SMILES IDX 12 14 13 15 15 16 16 17 5 18 17 20 14 22
REMARK H PARENT 5 19 17 21 14 23
REMARK Flexibility Score: inf
ROOT
ATOM      1  C   UNL     1       4.141  25.139  26.341  1.00  0.00     0.044 C 
ATOM      2  C   UNL     1       3.286  25.180  27.573  1.00  0.00    -0.047 A 
ATOM      3  C   UNL     1       3.012  26.401  28.201  1.00  0.00     0.016 A 
ATOM      4  C   UNL     1       2.177  26.454  29.329  1.00  0.00     0.038 A 
ATOM      5  C   UNL     1       1.585  25.270  29.824  1.00  0.00     0.076 A 
ATOM      6  C   UNL     1       1.902  24.030  29.213  1.00  0.00     0.127 A 
ATOM      7  C   UNL     1       2.720  24.004  28.078  1.00  0.00     0.050 A 
ATOM      8  C   UNL     1       0.594  25.389  30.925  1.00  0.00     0.201 C 
ATOM      9  O   UNL     1      -0.344  24.552  31.017  1.00  0.00    -0.288 OA
ATOM     10  C   UNL     1       0.598  26.593  31.795  1.00  0.00     0.076 A 
ATOM     11  C   UNL     1       1.192  27.774  31.297  1.00  0.00     0.041 A 
ATOM     12  C   UNL     1       1.918  27.748  30.005  1.00  0.00     0.194 C 
ATOM     13  O   UNL     1       2.337  28.823  29.495  1.00  0.00    -0.289 OA
ATOM     14  C   UNL     1       1.094  28.968  32.031  1.00  0.00     0.059 A 
ATOM     15  C   UNL     1       0.428  28.994  33.259  1.00  0.00     0.120 A 
ATOM     16  C   UNL     1      -0.123  27.821  33.772  1.00  0.00     0.093 A 
ATOM     17  C   UNL     1      -0.023  26.615  33.071  1.00  0.00     0.131 A 
ENDROOT
BRANCH   6  18
ATOM     18  O   UNL     1       1.458  22.805  29.714  1.00  0.00    -0.507 OA
ATOM     19  H   UNL     1       0.498  22.493  29.656  1.00  0.00     0.293 HD
ENDBRANCH   6  18
BRANCH  17  20
ATOM     20  O   UNL     1      -0.520  25.466  33.691  1.00  0.00    -0.507 OA
ATOM     21  H   UNL     1      -1.458  25.119  33.553  1.00  0.00     0.293 HD
ENDBRANCH  17  20
BRANCH  15  22
ATOM     22  O   UNL     1       0.319  30.179  33.984  1.00  0.00    -0.508 OA
ATOM     23  H   UNL     1       0.162  31.068  33.525  1.00  0.00     0.293 HD
ENDBRANCH  15  22
TORSDOF 3
ENDMDL
