MODEL 1
REMARK VINA RESULT:    -6.968      0.000      0.000
REMARK INTER + INTRA:         -12.886
REMARK INTER:                 -10.634
REMARK INTRA:                  -2.251
REMARK UNBOUND:                -2.251
REMARK SMILES CC(=O)CCC=C(C)CCC=C(C)CCC=C(C)C
REMARK SMILES IDX 10 1 11 2 12 3 13 4 14 5 15 6 16 7 18 8 17 9 19 10 9 11 7 12
REMARK SMILES IDX 6 13 8 14 5 15 4 16 2 17 3 18 1 19
REMARK H PARENT
REMARK Flexibility Score: inf
ROOT
ATOM      1  C   UNL     1      24.955  56.630 140.518  1.00  0.00     0.032 C 
ENDROOT
BRANCH   1   2
ATOM      2  C   UNL     1      25.998  57.534 141.132  1.00  0.00    -0.028 C 
ATOM      3  C   UNL     1      26.446  57.435 142.405  1.00  0.00    -0.077 C 
ATOM      4  C   UNL     1      25.987  56.331 143.329  1.00  0.00     0.039 C 
BRANCH   3   5
ATOM      5  C   UNL     1      27.455  58.445 142.907  1.00  0.00     0.034 C 
BRANCH   5   6
ATOM      6  C   UNL     1      28.855  57.825 142.985  1.00  0.00     0.032 C 
BRANCH   6   7
ATOM      7  C   UNL     1      29.374  57.502 141.607  1.00  0.00    -0.028 C 
ATOM      8  C   UNL     1      31.268  59.133 141.764  1.00  0.00     0.039 C 
ATOM      9  C   UNL     1      30.472  58.063 141.054  1.00  0.00    -0.080 C 
ATOM     10  C   UNL     1      30.895  57.613 139.679  1.00  0.00     0.039 C 
ENDBRANCH   6   7
ENDBRANCH   5   6
ENDBRANCH   3   5
ENDBRANCH   1   2
BRANCH   1  11
ATOM     11  C   UNL     1      25.317  56.234 139.079  1.00  0.00     0.034 C 
BRANCH  11  12
ATOM     12  C   UNL     1      26.812  56.036 138.904  1.00  0.00    -0.077 C 
ATOM     13  C   UNL     1      27.598  56.912 138.236  1.00  0.00    -0.028 C 
ATOM     14  C   UNL     1      27.452  54.793 139.467  1.00  0.00     0.039 C 
BRANCH  13  15
ATOM     15  C   UNL     1      27.139  58.240 137.683  1.00  0.00     0.035 C 
BRANCH  15  16
ATOM     16  C   UNL     1      28.192  59.335 137.898  1.00  0.00     0.079 C 
BRANCH  16  17
ATOM     17  C   UNL     1      27.888  60.169 139.115  1.00  0.00     0.130 C 
ATOM     18  O   UNL     1      28.804  60.657 139.761  1.00  0.00    -0.300 OA
ATOM     19  C   UNL     1      26.470  60.416 139.531  1.00  0.00     0.087 C 
ENDBRANCH  16  17
ENDBRANCH  15  16
ENDBRANCH  13  15
ENDBRANCH  11  12
ENDBRANCH   1  11
TORSDOF 9
ENDMDL
MODEL 2
REMARK VINA RESULT:    -6.919      1.815      4.532
REMARK INTER + INTRA:         -12.811
REMARK INTER:                 -10.398
REMARK INTRA:                  -2.414
REMARK UNBOUND:                -2.251
REMARK SMILES CC(=O)CCC=C(C)CCC=C(C)CCC=C(C)C
REMARK SMILES IDX 10 1 11 2 12 3 13 4 14 5 15 6 16 7 18 8 17 9 19 10 9 11 7 12
REMARK SMILES IDX 6 13 8 14 5 15 4 16 2 17 3 18 1 19
REMARK H PARENT
REMARK Flexibility Score: inf
ROOT
ATOM      1  C   UNL     1      30.240  59.544 142.049  1.00  0.00     0.032 C 
ENDROOT
BRANCH   1   2
ATOM      2  C   UNL     1      29.074  60.211 141.359  1.00  0.00    -0.028 C 
ATOM      3  C   UNL     1      27.782  60.083 141.738  1.00  0.00    -0.077 C 
ATOM      4  C   UNL     1      27.385  59.301 142.968  1.00  0.00     0.039 C 
BRANCH   3   5
ATOM      5  C   UNL     1      26.707  60.765 140.920  1.00  0.00     0.034 C 
BRANCH   5   6
ATOM      6  C   UNL     1      27.095  60.809 139.437  1.00  0.00     0.032 C 
BRANCH   6   7
ATOM      7  C   UNL     1      26.861  59.471 138.783  1.00  0.00    -0.028 C 
ATOM      8  C   UNL     1      28.211  60.049 136.754  1.00  0.00     0.039 C 
ATOM      9  C   UNL     1      27.376  59.105 137.588  1.00  0.00    -0.080 C 
ATOM     10  C   UNL     1      27.088  57.718 137.076  1.00  0.00     0.039 C 
ENDBRANCH   6   7
ENDBRANCH   5   6
ENDBRANCH   3   5
ENDBRANCH   1   2
BRANCH   1  11
ATOM     11  C   UNL     1      30.178  58.014 141.928  1.00  0.00     0.034 C 
BRANCH  11  12
ATOM     12  C   UNL     1      30.034  57.564 140.484  1.00  0.00    -0.077 C 
ATOM     13  C   UNL     1      29.022  56.776 140.056  1.00  0.00    -0.028 C 
ATOM     14  C   UNL     1      31.080  57.985 139.485  1.00  0.00     0.039 C 
BRANCH  13  15
ATOM     15  C   UNL     1      27.851  56.334 140.901  1.00  0.00     0.035 C 
BRANCH  15  16
ATOM     16  C   UNL     1      26.699  55.805 140.036  1.00  0.00     0.079 C 
BRANCH  16  17
ATOM     17  C   UNL     1      25.396  56.485 140.366  1.00  0.00     0.130 C 
ATOM     18  O   UNL     1      25.215  56.942 141.484  1.00  0.00    -0.300 OA
ATOM     19  C   UNL     1      24.324  56.615 139.326  1.00  0.00     0.087 C 
ENDBRANCH  16  17
ENDBRANCH  15  16
ENDBRANCH  13  15
ENDBRANCH  11  12
ENDBRANCH   1  11
TORSDOF 9
ENDMDL
MODEL 3
REMARK VINA RESULT:    -6.839      1.810      3.876
REMARK INTER + INTRA:         -12.689
REMARK INTER:                 -10.240
REMARK INTRA:                  -2.449
REMARK UNBOUND:                -2.251
REMARK SMILES CC(=O)CCC=C(C)CCC=C(C)CCC=C(C)C
REMARK SMILES IDX 10 1 11 2 12 3 13 4 14 5 15 6 16 7 18 8 17 9 19 10 9 11 7 12
REMARK SMILES IDX 6 13 8 14 5 15 4 16 2 17 3 18 1 19
REMARK H PARENT
REMARK Flexibility Score: inf
ROOT
ATOM      1  C   UNL     1      24.756  56.984 138.800  1.00  0.00     0.032 C 
ENDROOT
BRANCH   1   2
ATOM      2  C   UNL     1      25.599  58.215 139.038  1.00  0.00    -0.028 C 
ATOM      3  C   UNL     1      26.675  58.563 138.295  1.00  0.00    -0.077 C 
ATOM      4  C   UNL     1      27.096  57.771 137.079  1.00  0.00     0.039 C 
BRANCH   3   5
ATOM      5  C   UNL     1      27.463  59.796 138.681  1.00  0.00     0.034 C 
BRANCH   5   6
ATOM      6  C   UNL     1      28.961  59.479 138.773  1.00  0.00     0.032 C 
BRANCH   6   7
ATOM      7  C   UNL     1      29.422  59.489 140.209  1.00  0.00    -0.028 C 
ATOM      8  C   UNL     1      30.095  57.077 140.175  1.00  0.00     0.039 C 
ATOM      9  C   UNL     1      29.957  58.424 140.846  1.00  0.00    -0.080 C 
ATOM     10  C   UNL     1      30.410  58.592 142.273  1.00  0.00     0.039 C 
ENDBRANCH   6   7
ENDBRANCH   5   6
ENDBRANCH   3   5
ENDBRANCH   1   2
BRANCH   1  11
ATOM     11  C   UNL     1      24.836  56.000 139.976  1.00  0.00     0.034 C 
BRANCH  11  12
ATOM     12  C   UNL     1      26.272  55.703 140.372  1.00  0.00    -0.077 C 
ATOM     13  C   UNL     1      26.817  56.127 141.535  1.00  0.00    -0.028 C 
ATOM     14  C   UNL     1      27.144  54.931 139.416  1.00  0.00     0.039 C 
BRANCH  13  15
ATOM     15  C   UNL     1      26.066  56.837 142.637  1.00  0.00     0.035 C 
BRANCH  15  16
ATOM     16  C   UNL     1      27.023  57.434 143.677  1.00  0.00     0.079 C 
BRANCH  16  17
ATOM     17  C   UNL     1      26.765  58.902 143.895  1.00  0.00     0.130 C 
ATOM     18  O   UNL     1      26.319  59.289 144.965  1.00  0.00    -0.300 OA
ATOM     19  C   UNL     1      27.065  59.893 142.811  1.00  0.00     0.087 C 
ENDBRANCH  16  17
ENDBRANCH  15  16
ENDBRANCH  13  15
ENDBRANCH  11  12
ENDBRANCH   1  11
TORSDOF 9
ENDMDL
MODEL 4
REMARK VINA RESULT:    -6.801      2.127      4.640
REMARK INTER + INTRA:         -12.631
REMARK INTER:                 -10.355
REMARK INTRA:                  -2.277
REMARK UNBOUND:                -2.251
REMARK SMILES CC(=O)CCC=C(C)CCC=C(C)CCC=C(C)C
REMARK SMILES IDX 10 1 11 2 12 3 13 4 14 5 15 6 16 7 18 8 17 9 19 10 9 11 7 12
REMARK SMILES IDX 6 13 8 14 5 15 4 16 2 17 3 18 1 19
REMARK H PARENT
REMARK Flexibility Score: inf
ROOT
ATOM      1  C   UNL     1      28.791  59.242 138.250  1.00  0.00     0.032 C 
ENDROOT
BRANCH   1   2
ATOM      2  C   UNL     1      29.496  59.181 139.584  1.00  0.00    -0.028 C 
ATOM      3  C   UNL     1      29.800  58.037 140.240  1.00  0.00    -0.077 C 
ATOM      4  C   UNL     1      29.524  56.677 139.642  1.00  0.00     0.039 C 
BRANCH   3   5
ATOM      5  C   UNL     1      30.460  58.125 141.599  1.00  0.00     0.034 C 
BRANCH   5   6
ATOM      6  C   UNL     1      29.418  58.371 142.696  1.00  0.00     0.032 C 
BRANCH   6   7
ATOM      7  C   UNL     1      28.292  57.372 142.599  1.00  0.00    -0.028 C 
ATOM      8  C   UNL     1      26.710  58.787 143.930  1.00  0.00     0.039 C 
ATOM      9  C   UNL     1      27.061  57.556 143.127  1.00  0.00    -0.080 C 
ATOM     10  C   UNL     1      26.022  56.486 142.917  1.00  0.00     0.039 C 
ENDBRANCH   6   7
ENDBRANCH   5   6
ENDBRANCH   3   5
ENDBRANCH   1   2
BRANCH   1  11
ATOM     11  C   UNL     1      27.497  60.066 138.323  1.00  0.00     0.034 C 
BRANCH  11  12
ATOM     12  C   UNL     1      26.759  59.849 139.633  1.00  0.00    -0.077 C 
ATOM     13  C   UNL     1      25.982  58.767 139.869  1.00  0.00    -0.028 C 
ATOM     14  C   UNL     1      26.865  60.897 140.709  1.00  0.00     0.039 C 
BRANCH  13  15
ATOM     15  C   UNL     1      25.832  57.587 138.937  1.00  0.00     0.035 C 
BRANCH  15  16
ATOM     16  C   UNL     1      24.611  56.732 139.302  1.00  0.00     0.079 C 
BRANCH  16  17
ATOM     17  C   UNL     1      24.990  55.294 139.544  1.00  0.00     0.130 C 
ATOM     18  O   UNL     1      24.127  54.480 139.836  1.00  0.00    -0.300 OA
ATOM     19  C   UNL     1      26.416  54.853 139.414  1.00  0.00     0.087 C 
ENDBRANCH  16  17
ENDBRANCH  15  16
ENDBRANCH  13  15
ENDBRANCH  11  12
ENDBRANCH   1  11
TORSDOF 9
ENDMDL
MODEL 5
REMARK VINA RESULT:    -6.728      1.584      4.726
REMARK INTER + INTRA:         -12.519
REMARK INTER:                  -9.751
REMARK INTRA:                  -2.767
REMARK UNBOUND:                -2.251
REMARK SMILES CC(=O)CCC=C(C)CCC=C(C)CCC=C(C)C
REMARK SMILES IDX 10 1 11 2 12 3 13 4 14 5 15 6 16 7 18 8 17 9 19 10 9 11 7 12
REMARK SMILES IDX 6 13 8 14 5 15 4 16 2 17 3 18 1 19
REMARK H PARENT
REMARK Flexibility Score: inf
ROOT
ATOM      1  C   UNL     1      29.744  58.418 142.356  1.00  0.00     0.032 C 
ENDROOT
BRANCH   1   2
ATOM      2  C   UNL     1      29.176  57.359 141.441  1.00  0.00    -0.028 C 
ATOM      3  C   UNL     1      29.584  57.143 140.170  1.00  0.00    -0.077 C 
ATOM      4  C   UNL     1      30.732  57.913 139.558  1.00  0.00     0.039 C 
BRANCH   3   5
ATOM      5  C   UNL     1      28.888  56.082 139.346  1.00  0.00     0.034 C 
BRANCH   5   6
ATOM      6  C   UNL     1      27.782  55.399 140.160  1.00  0.00     0.032 C 
BRANCH   6   7
ATOM      7  C   UNL     1      26.430  55.653 139.543  1.00  0.00    -0.028 C 
ATOM      8  C   UNL     1      25.520  56.749 141.603  1.00  0.00     0.039 C 
ATOM      9  C   UNL     1      25.411  56.281 140.171  1.00  0.00    -0.080 C 
ATOM     10  C   UNL     1      24.126  56.499 139.415  1.00  0.00     0.039 C 
ENDBRANCH   6   7
ENDBRANCH   5   6
ENDBRANCH   3   5
ENDBRANCH   1   2
BRANCH   1  11
ATOM     11  C   UNL     1      29.209  59.816 142.014  1.00  0.00     0.034 C 
BRANCH  11  12
ATOM     12  C   UNL     1      27.691  59.869 142.054  1.00  0.00    -0.077 C 
ATOM     13  C   UNL     1      26.933  60.080 140.954  1.00  0.00    -0.028 C 
ATOM     14  C   UNL     1      26.993  59.712 143.380  1.00  0.00     0.039 C 
BRANCH  13  15
ATOM     15  C   UNL     1      27.461  60.175 139.542  1.00  0.00     0.035 C 
BRANCH  15  16
ATOM     16  C   UNL     1      26.793  59.147 138.619  1.00  0.00     0.079 C 
BRANCH  16  17
ATOM     17  C   UNL     1      27.527  59.011 137.311  1.00  0.00     0.130 C 
ATOM     18  O   UNL     1      27.541  57.935 136.731  1.00  0.00    -0.300 OA
ATOM     19  C   UNL     1      28.229  60.190 136.709  1.00  0.00     0.087 C 
ENDBRANCH  16  17
ENDBRANCH  15  16
ENDBRANCH  13  15
ENDBRANCH  11  12
ENDBRANCH   1  11
TORSDOF 9
ENDMDL
MODEL 6
REMARK VINA RESULT:    -6.653      1.968      5.332
REMARK INTER + INTRA:         -12.405
REMARK INTER:                 -10.399
REMARK INTRA:                  -2.007
REMARK UNBOUND:                -2.251
REMARK SMILES CC(=O)CCC=C(C)CCC=C(C)CCC=C(C)C
REMARK SMILES IDX 10 1 11 2 12 3 13 4 14 5 15 6 16 7 18 8 17 9 19 10 9 11 7 12
REMARK SMILES IDX 6 13 8 14 5 15 4 16 2 17 3 18 1 19
REMARK H PARENT
REMARK Flexibility Score: inf
ROOT
ATOM      1  C   UNL     1      30.060  60.515 141.449  1.00  0.00     0.032 C 
ENDROOT
BRANCH   1   2
ATOM      2  C   UNL     1      29.048  60.346 140.340  1.00  0.00    -0.028 C 
ATOM      3  C   UNL     1      27.709  60.451 140.500  1.00  0.00    -0.077 C 
ATOM      4  C   UNL     1      27.091  60.833 141.825  1.00  0.00     0.039 C 
BRANCH   3   5
ATOM      5  C   UNL     1      26.807  60.202 139.310  1.00  0.00     0.034 C 
BRANCH   5   6
ATOM      6  C   UNL     1      26.844  58.727 138.896  1.00  0.00     0.032 C 
BRANCH   6   7
ATOM      7  C   UNL     1      25.505  58.072 139.129  1.00  0.00    -0.028 C 
ATOM      8  C   UNL     1      26.438  55.752 138.995  1.00  0.00     0.039 C 
ATOM      9  C   UNL     1      25.311  56.737 139.201  1.00  0.00    -0.080 C 
ATOM     10  C   UNL     1      23.921  56.227 139.478  1.00  0.00     0.039 C 
ENDBRANCH   6   7
ENDBRANCH   5   6
ENDBRANCH   3   5
ENDBRANCH   1   2
BRANCH   1  11
ATOM     11  C   UNL     1      30.857  59.226 141.698  1.00  0.00     0.034 C 
BRANCH  11  12
ATOM     12  C   UNL     1      30.331  58.065 140.872  1.00  0.00    -0.077 C 
ATOM     13  C   UNL     1      29.349  57.241 141.302  1.00  0.00    -0.028 C 
ATOM     14  C   UNL     1      30.950  57.792 139.525  1.00  0.00     0.039 C 
BRANCH  13  15
ATOM     15  C   UNL     1      28.567  57.418 142.582  1.00  0.00     0.035 C 
BRANCH  15  16
ATOM     16  C   UNL     1      27.084  57.073 142.391  1.00  0.00     0.079 C 
BRANCH  16  17
ATOM     17  C   UNL     1      26.276  57.378 143.625  1.00  0.00     0.130 C 
ATOM     18  O   UNL     1      25.355  56.642 143.945  1.00  0.00    -0.300 OA
ATOM     19  C   UNL     1      26.604  58.571 144.470  1.00  0.00     0.087 C 
ENDBRANCH  16  17
ENDBRANCH  15  16
ENDBRANCH  13  15
ENDBRANCH  11  12
ENDBRANCH   1  11
TORSDOF 9
ENDMDL
MODEL 7
REMARK VINA RESULT:    -6.600      1.086      4.427
REMARK INTER + INTRA:         -12.324
REMARK INTER:                 -10.612
REMARK INTRA:                  -1.711
REMARK UNBOUND:                -2.251
REMARK SMILES CC(=O)CCC=C(C)CCC=C(C)CCC=C(C)C
REMARK SMILES IDX 10 1 11 2 12 3 13 4 14 5 15 6 16 7 18 8 17 9 19 10 9 11 7 12
REMARK SMILES IDX 6 13 8 14 5 15 4 16 2 17 3 18 1 19
REMARK H PARENT
REMARK Flexibility Score: inf
ROOT
ATOM      1  C   UNL     1      25.181  56.651 142.182  1.00  0.00     0.032 C 
ENDROOT
BRANCH   1   2
ATOM      2  C   UNL     1      25.623  56.979 140.776  1.00  0.00    -0.028 C 
ATOM      3  C   UNL     1      24.960  56.609 139.657  1.00  0.00    -0.077 C 
ATOM      4  C   UNL     1      23.638  55.880 139.717  1.00  0.00     0.039 C 
BRANCH   3   5
ATOM      5  C   UNL     1      25.548  56.959 138.307  1.00  0.00     0.034 C 
BRANCH   5   6
ATOM      6  C   UNL     1      27.078  57.019 138.377  1.00  0.00     0.032 C 
BRANCH   6   7
ATOM      7  C   UNL     1      27.617  58.054 137.422  1.00  0.00    -0.028 C 
ATOM      8  C   UNL     1      27.059  59.970 138.935  1.00  0.00     0.039 C 
ATOM      9  C   UNL     1      27.639  59.382 137.670  1.00  0.00    -0.080 C 
ATOM     10  C   UNL     1      28.245  60.296 136.637  1.00  0.00     0.039 C 
ENDBRANCH   6   7
ENDBRANCH   5   6
ENDBRANCH   3   5
ENDBRANCH   1   2
BRANCH   1  11
ATOM     11  C   UNL     1      26.376  56.426 143.120  1.00  0.00     0.034 C 
BRANCH  11  12
ATOM     12  C   UNL     1      27.020  57.735 143.545  1.00  0.00    -0.077 C 
ATOM     13  C   UNL     1      28.218  58.152 143.077  1.00  0.00    -0.028 C 
ATOM     14  C   UNL     1      26.312  58.597 144.557  1.00  0.00     0.039 C 
BRANCH  13  15
ATOM     15  C   UNL     1      29.019  57.455 142.002  1.00  0.00     0.035 C 
BRANCH  15  16
ATOM     16  C   UNL     1      30.357  58.162 141.748  1.00  0.00     0.079 C 
BRANCH  16  17
ATOM     17  C   UNL     1      30.522  58.539 140.299  1.00  0.00     0.130 C 
ATOM     18  O   UNL     1      30.276  59.680 139.936  1.00  0.00    -0.300 OA
ATOM     19  C   UNL     1      31.000  57.528 139.302  1.00  0.00     0.087 C 
ENDBRANCH  16  17
ENDBRANCH  15  16
ENDBRANCH  13  15
ENDBRANCH  11  12
ENDBRANCH   1  11
TORSDOF 9
ENDMDL
MODEL 8
REMARK VINA RESULT:    -6.583      1.864      3.593
REMARK INTER + INTRA:         -12.298
REMARK INTER:                 -10.316
REMARK INTRA:                  -1.982
REMARK UNBOUND:                -2.251
REMARK SMILES CC(=O)CCC=C(C)CCC=C(C)CCC=C(C)C
REMARK SMILES IDX 10 1 11 2 12 3 13 4 14 5 15 6 16 7 18 8 17 9 19 10 9 11 7 12
REMARK SMILES IDX 6 13 8 14 5 15 4 16 2 17 3 18 1 19
REMARK H PARENT
REMARK Flexibility Score: inf
ROOT
ATOM      1  C   UNL     1      27.043  60.392 139.375  1.00  0.00     0.032 C 
ENDROOT
BRANCH   1   2
ATOM      2  C   UNL     1      26.866  59.502 140.582  1.00  0.00    -0.028 C 
ATOM      3  C   UNL     1      27.336  59.784 141.819  1.00  0.00    -0.077 C 
ATOM      4  C   UNL     1      28.032  61.088 142.131  1.00  0.00     0.039 C 
BRANCH   3   5
ATOM      5  C   UNL     1      27.135  58.773 142.927  1.00  0.00     0.034 C 
BRANCH   5   6
ATOM      6  C   UNL     1      28.389  57.911 143.114  1.00  0.00     0.032 C 
BRANCH   6   7
ATOM      7  C   UNL     1      28.933  57.460 141.782  1.00  0.00    -0.028 C 
ATOM      8  C   UNL     1      30.967  58.911 141.942  1.00  0.00     0.039 C 
ATOM      9  C   UNL     1      30.103  57.882 141.253  1.00  0.00    -0.080 C 
ATOM     10  C   UNL     1      30.538  57.313 139.928  1.00  0.00     0.039 C 
ENDBRANCH   6   7
ENDBRANCH   5   6
ENDBRANCH   3   5
ENDBRANCH   1   2
BRANCH   1  11
ATOM     11  C   UNL     1      28.266  59.988 138.539  1.00  0.00     0.034 C 
BRANCH  11  12
ATOM     12  C   UNL     1      27.870  59.456 137.173  1.00  0.00    -0.077 C 
ATOM     13  C   UNL     1      27.544  58.162 136.953  1.00  0.00    -0.028 C 
ATOM     14  C   UNL     1      27.870  60.400 135.998  1.00  0.00     0.039 C 
BRANCH  13  15
ATOM     15  C   UNL     1      27.414  57.107 138.026  1.00  0.00     0.035 C 
BRANCH  15  16
ATOM     16  C   UNL     1      25.953  56.920 138.459  1.00  0.00     0.079 C 
BRANCH  16  17
ATOM     17  C   UNL     1      25.820  55.876 139.536  1.00  0.00     0.130 C 
ATOM     18  O   UNL     1      26.177  54.728 139.318  1.00  0.00    -0.300 OA
ATOM     19  C   UNL     1      25.265  56.240 140.880  1.00  0.00     0.087 C 
ENDBRANCH  16  17
ENDBRANCH  15  16
ENDBRANCH  13  15
ENDBRANCH  11  12
ENDBRANCH   1  11
TORSDOF 9
ENDMDL
MODEL 9
REMARK VINA RESULT:    -6.481      1.321      3.774
REMARK INTER + INTRA:         -12.143
REMARK INTER:                  -9.213
REMARK INTRA:                  -2.930
REMARK UNBOUND:                -2.251
REMARK SMILES CC(=O)CCC=C(C)CCC=C(C)CCC=C(C)C
REMARK SMILES IDX 10 1 11 2 12 3 13 4 14 5 15 6 16 7 18 8 17 9 19 10 9 11 7 12
REMARK SMILES IDX 6 13 8 14 5 15 4 16 2 17 3 18 1 19
REMARK H PARENT
REMARK Flexibility Score: inf
ROOT
ATOM      1  C   UNL     1      26.000  57.827 137.997  1.00  0.00     0.032 C 
ENDROOT
BRANCH   1   2
ATOM      2  C   UNL     1      26.365  58.686 139.185  1.00  0.00    -0.028 C 
ATOM      3  C   UNL     1      27.360  59.603 139.192  1.00  0.00    -0.077 C 
ATOM      4  C   UNL     1      28.168  59.914 137.954  1.00  0.00     0.039 C 
BRANCH   3   5
ATOM      5  C   UNL     1      27.653  60.356 140.472  1.00  0.00     0.034 C 
BRANCH   5   6
ATOM      6  C   UNL     1      26.701  59.920 141.592  1.00  0.00     0.032 C 
BRANCH   6   7
ATOM      7  C   UNL     1      27.415  59.049 142.594  1.00  0.00    -0.028 C 
ATOM      8  C   UNL     1      25.841  57.126 142.283  1.00  0.00     0.039 C 
ATOM      9  C   UNL     1      27.056  57.782 142.897  1.00  0.00    -0.080 C 
ATOM     10  C   UNL     1      27.890  57.017 143.892  1.00  0.00     0.039 C 
ENDBRANCH   6   7
ENDBRANCH   5   6
ENDBRANCH   3   5
ENDBRANCH   1   2
BRANCH   1  11
ATOM     11  C   UNL     1      27.003  56.683 137.788  1.00  0.00     0.034 C 
BRANCH  11  12
ATOM     12  C   UNL     1      27.144  55.817 139.028  1.00  0.00    -0.077 C 
ATOM     13  C   UNL     1      28.261  55.800 139.791  1.00  0.00    -0.028 C 
ATOM     14  C   UNL     1      26.005  54.909 139.413  1.00  0.00     0.039 C 
BRANCH  13  15
ATOM     15  C   UNL     1      29.457  56.702 139.598  1.00  0.00     0.035 C 
BRANCH  15  16
ATOM     16  C   UNL     1      30.053  57.145 140.941  1.00  0.00     0.079 C 
BRANCH  16  17
ATOM     17  C   UNL     1      30.737  58.482 140.833  1.00  0.00     0.130 C 
ATOM     18  O   UNL     1      31.067  58.910 139.737  1.00  0.00    -0.300 OA
ATOM     19  C   UNL     1      31.004  59.298 142.062  1.00  0.00     0.087 C 
ENDBRANCH  16  17
ENDBRANCH  15  16
ENDBRANCH  13  15
ENDBRANCH  11  12
ENDBRANCH   1  11
TORSDOF 9
ENDMDL
