MODEL 1
REMARK VINA RESULT:    -4.979      0.000      0.000
REMARK INTER + INTRA:          -5.369
REMARK INTER:                  -5.271
REMARK INTRA:                  -0.098
REMARK UNBOUND:                -0.098
REMARK SMILES C=C(C)[C@@H]1CC=C(C)C(=O)C1
REMARK SMILES IDX 8 1 7 2 6 3 5 4 4 5 11 6 9 7 10 8 2 9 1 10 3 11
REMARK H PARENT
REMARK Flexibility Score: inf
ROOT
ATOM      1  C   UNL     1      31.958   4.407 107.367  1.00  0.00     0.048 C 
ATOM      2  C   UNL     1      31.700   5.842 106.996  1.00  0.00    -0.012 C 
ATOM      3  C   UNL     1      30.989   6.130 105.893  1.00  0.00    -0.019 C 
ATOM      4  C   UNL     1      30.686   7.548 105.486  1.00  0.00     0.036 C 
ATOM      5  C   UNL     1      31.829   8.497 105.891  1.00  0.00     0.025 C 
ATOM      6  C   UNL     1      32.120   8.373 107.397  1.00  0.00     0.089 C 
ATOM      7  C   UNL     1      32.335   6.934 107.777  1.00  0.00     0.158 C 
ATOM      8  O   UNL     1      33.032   6.664 108.792  1.00  0.00    -0.295 OA
ENDROOT
BRANCH   5   9
ATOM      9  C   UNL     1      31.524   9.936 105.499  1.00  0.00    -0.077 C 
ATOM     10  C   UNL     1      30.253  10.363 105.441  1.00  0.00     0.008 C 
ATOM     11  C   UNL     1      32.626  10.911 105.167  1.00  0.00     0.039 C 
ENDBRANCH   5   9
TORSDOF 1
ENDMDL
MODEL 2
REMARK VINA RESULT:    -4.822      1.854      4.780
REMARK INTER + INTRA:          -5.202
REMARK INTER:                  -5.105
REMARK INTRA:                  -0.097
REMARK UNBOUND:                -0.098
REMARK SMILES C=C(C)[C@@H]1CC=C(C)C(=O)C1
REMARK SMILES IDX 8 1 7 2 6 3 5 4 4 5 11 6 9 7 10 8 2 9 1 10 3 11
REMARK H PARENT
REMARK Flexibility Score: inf
ROOT
ATOM      1  C   UNL     1      30.988   9.875 105.130  1.00  0.00     0.048 C 
ATOM      2  C   UNL     1      31.218   8.560 105.822  1.00  0.00    -0.012 C 
ATOM      3  C   UNL     1      31.966   8.513 106.937  1.00  0.00    -0.019 C 
ATOM      4  C   UNL     1      32.213   7.226 107.679  1.00  0.00     0.036 C 
ATOM      5  C   UNL     1      32.263   6.029 106.712  1.00  0.00     0.025 C 
ATOM      6  C   UNL     1      30.980   5.974 105.862  1.00  0.00     0.089 C 
ATOM      7  C   UNL     1      30.725   7.302 105.204  1.00  0.00     0.158 C 
ATOM      8  O   UNL     1      30.053   7.341 104.138  1.00  0.00    -0.295 OA
ENDROOT
BRANCH   5   9
ATOM      9  C   UNL     1      32.494   4.720 107.455  1.00  0.00    -0.077 C 
ATOM     10  C   UNL     1      31.756   4.420 108.536  1.00  0.00     0.008 C 
ATOM     11  C   UNL     1      33.547   3.738 107.007  1.00  0.00     0.039 C 
ENDBRANCH   5   9
TORSDOF 1
ENDMDL
MODEL 3
REMARK VINA RESULT:    -4.502      2.731      5.284
REMARK INTER + INTRA:          -4.863
REMARK INTER:                  -4.774
REMARK INTRA:                  -0.090
REMARK UNBOUND:                -0.098
REMARK SMILES C=C(C)[C@@H]1CC=C(C)C(=O)C1
REMARK SMILES IDX 8 1 7 2 6 3 5 4 4 5 11 6 9 7 10 8 2 9 1 10 3 11
REMARK H PARENT
REMARK Flexibility Score: inf
ROOT
ATOM      1  C   UNL     1      33.596  13.356 104.750  1.00  0.00     0.048 C 
ATOM      2  C   UNL     1      32.966  12.040 105.115  1.00  0.00    -0.012 C 
ATOM      3  C   UNL     1      33.739  10.955 105.294  1.00  0.00    -0.019 C 
ATOM      4  C   UNL     1      33.163   9.619 105.678  1.00  0.00     0.036 C 
ATOM      5  C   UNL     1      31.758   9.427 105.075  1.00  0.00     0.025 C 
ATOM      6  C   UNL     1      30.840  10.594 105.477  1.00  0.00     0.089 C 
ATOM      7  C   UNL     1      31.487  11.912 105.152  1.00  0.00     0.158 C 
ATOM      8  O   UNL     1      30.759  12.921 104.949  1.00  0.00    -0.295 OA
ENDROOT
BRANCH   5   9
ATOM      9  C   UNL     1      31.160   8.084 105.472  1.00  0.00    -0.077 C 
ATOM     10  C   UNL     1      30.395   7.404 104.603  1.00  0.00     0.008 C 
ATOM     11  C   UNL     1      31.401   7.490 106.837  1.00  0.00     0.039 C 
ENDBRANCH   5   9
TORSDOF 1
ENDMDL
MODEL 4
REMARK VINA RESULT:    -4.441      2.378      3.355
REMARK INTER + INTRA:          -4.798
REMARK INTER:                  -4.709
REMARK INTRA:                  -0.089
REMARK UNBOUND:                -0.098
REMARK SMILES C=C(C)[C@@H]1CC=C(C)C(=O)C1
REMARK SMILES IDX 8 1 7 2 6 3 5 4 4 5 11 6 9 7 10 8 2 9 1 10 3 11
REMARK H PARENT
REMARK Flexibility Score: inf
ROOT
ATOM      1  C   UNL     1      31.004   6.922 106.739  1.00  0.00     0.048 C 
ATOM      2  C   UNL     1      32.093   7.955 106.829  1.00  0.00    -0.012 C 
ATOM      3  C   UNL     1      32.200   8.898 105.878  1.00  0.00    -0.019 C 
ATOM      4  C   UNL     1      33.260   9.967 105.930  1.00  0.00     0.036 C 
ATOM      5  C   UNL     1      34.548   9.439 106.588  1.00  0.00     0.025 C 
ATOM      6  C   UNL     1      34.238   8.858 107.980  1.00  0.00     0.089 C 
ATOM      7  C   UNL     1      33.120   7.856 107.897  1.00  0.00     0.158 C 
ATOM      8  O   UNL     1      33.041   6.950 108.770  1.00  0.00    -0.295 OA
ENDROOT
BRANCH   5   9
ATOM      9  C   UNL     1      35.620  10.519 106.662  1.00  0.00    -0.077 C 
ATOM     10  C   UNL     1      36.361  10.806 105.580  1.00  0.00     0.008 C 
ATOM     11  C   UNL     1      35.878  11.284 107.935  1.00  0.00     0.039 C 
ENDBRANCH   5   9
TORSDOF 1
ENDMDL
MODEL 5
REMARK VINA RESULT:    -4.371      2.279      5.056
REMARK INTER + INTRA:          -4.725
REMARK INTER:                  -4.627
REMARK INTRA:                  -0.098
REMARK UNBOUND:                -0.098
REMARK SMILES C=C(C)[C@@H]1CC=C(C)C(=O)C1
REMARK SMILES IDX 8 1 7 2 6 3 5 4 4 5 11 6 9 7 10 8 2 9 1 10 3 11
REMARK H PARENT
REMARK Flexibility Score: inf
ROOT
ATOM      1  C   UNL     1      33.420  13.602 105.024  1.00  0.00     0.048 C 
ATOM      2  C   UNL     1      32.893  12.195 105.079  1.00  0.00    -0.012 C 
ATOM      3  C   UNL     1      31.568  11.974 105.035  1.00  0.00    -0.019 C 
ATOM      4  C   UNL     1      30.989  10.584 105.068  1.00  0.00     0.036 C 
ATOM      5  C   UNL     1      31.861   9.640 105.917  1.00  0.00     0.025 C 
ATOM      6  C   UNL     1      33.314   9.653 105.408  1.00  0.00     0.089 C 
ATOM      7  C   UNL     1      33.828  11.063 105.311  1.00  0.00     0.158 C 
ATOM      8  O   UNL     1      35.068  11.272 105.389  1.00  0.00    -0.295 OA
ENDROOT
BRANCH   5   9
ATOM      9  C   UNL     1      31.293   8.228 105.943  1.00  0.00    -0.077 C 
ATOM     10  C   UNL     1      30.559   7.779 104.912  1.00  0.00     0.008 C 
ATOM     11  C   UNL     1      31.532   7.307 107.113  1.00  0.00     0.039 C 
ENDBRANCH   5   9
TORSDOF 1
ENDMDL
MODEL 6
REMARK VINA RESULT:    -4.260      1.960      4.447
REMARK INTER + INTRA:          -4.607
REMARK INTER:                  -4.513
REMARK INTRA:                  -0.094
REMARK UNBOUND:                -0.098
REMARK SMILES C=C(C)[C@@H]1CC=C(C)C(=O)C1
REMARK SMILES IDX 8 1 7 2 6 3 5 4 4 5 11 6 9 7 10 8 2 9 1 10 3 11
REMARK H PARENT
REMARK Flexibility Score: inf
ROOT
ATOM      1  C   UNL     1      34.724  11.687 105.353  1.00  0.00     0.048 C 
ATOM      2  C   UNL     1      34.031  10.424 105.784  1.00  0.00    -0.012 C 
ATOM      3  C   UNL     1      32.819  10.123 105.288  1.00  0.00    -0.019 C 
ATOM      4  C   UNL     1      32.090   8.862 105.672  1.00  0.00     0.036 C 
ATOM      5  C   UNL     1      32.409   8.458 107.123  1.00  0.00     0.025 C 
ATOM      6  C   UNL     1      33.931   8.333 107.321  1.00  0.00     0.089 C 
ATOM      7  C   UNL     1      34.629   9.579 106.850  1.00  0.00     0.158 C 
ATOM      8  O   UNL     1      35.749   9.879 107.342  1.00  0.00    -0.295 OA
ENDROOT
BRANCH   5   9
ATOM      9  C   UNL     1      31.690   7.174 107.515  1.00  0.00    -0.077 C 
ATOM     10  C   UNL     1      31.711   6.752 108.790  1.00  0.00     0.008 C 
ATOM     11  C   UNL     1      30.945   6.348 106.496  1.00  0.00     0.039 C 
ENDBRANCH   5   9
TORSDOF 1
ENDMDL
MODEL 7
REMARK VINA RESULT:    -4.137      2.692      4.777
REMARK INTER + INTRA:          -4.477
REMARK INTER:                  -4.386
REMARK INTRA:                  -0.091
REMARK UNBOUND:                -0.098
REMARK SMILES C=C(C)[C@@H]1CC=C(C)C(=O)C1
REMARK SMILES IDX 8 1 7 2 6 3 5 4 4 5 11 6 9 7 10 8 2 9 1 10 3 11
REMARK H PARENT
REMARK Flexibility Score: inf
ROOT
ATOM      1  C   UNL     1      36.234  10.861 105.893  1.00  0.00     0.048 C 
ATOM      2  C   UNL     1      35.040  10.102 106.403  1.00  0.00    -0.012 C 
ATOM      3  C   UNL     1      35.189   9.218 107.405  1.00  0.00    -0.019 C 
ATOM      4  C   UNL     1      34.025   8.445 107.966  1.00  0.00     0.036 C 
ATOM      5  C   UNL     1      32.979   8.148 106.876  1.00  0.00     0.025 C 
ATOM      6  C   UNL     1      32.535   9.453 106.191  1.00  0.00     0.089 C 
ATOM      7  C   UNL     1      33.730  10.235 105.718  1.00  0.00     0.158 C 
ATOM      8  O   UNL     1      33.597  11.037 104.755  1.00  0.00    -0.295 OA
ENDROOT
BRANCH   5   9
ATOM      9  C   UNL     1      31.789   7.382 107.438  1.00  0.00    -0.077 C 
ATOM     10  C   UNL     1      31.042   6.612 106.631  1.00  0.00     0.008 C 
ATOM     11  C   UNL     1      31.419   7.467 108.897  1.00  0.00     0.039 C 
ENDBRANCH   5   9
TORSDOF 1
ENDMDL
MODEL 8
REMARK VINA RESULT:    -4.041      2.662      4.015
REMARK INTER + INTRA:          -4.375
REMARK INTER:                  -4.278
REMARK INTRA:                  -0.097
REMARK UNBOUND:                -0.098
REMARK SMILES C=C(C)[C@@H]1CC=C(C)C(=O)C1
REMARK SMILES IDX 8 1 7 2 6 3 5 4 4 5 11 6 9 7 10 8 2 9 1 10 3 11
REMARK H PARENT
REMARK Flexibility Score: inf
ROOT
ATOM      1  C   UNL     1      31.780   7.384 107.920  1.00  0.00     0.048 C 
ATOM      2  C   UNL     1      32.805   8.282 107.286  1.00  0.00    -0.012 C 
ATOM      3  C   UNL     1      34.002   8.450 107.872  1.00  0.00    -0.019 C 
ATOM      4  C   UNL     1      35.071   9.323 107.270  1.00  0.00     0.036 C 
ATOM      5  C   UNL     1      34.454  10.513 106.512  1.00  0.00     0.025 C 
ATOM      6  C   UNL     1      33.449  10.012 105.459  1.00  0.00     0.089 C 
ATOM      7  C   UNL     1      32.449   9.079 106.084  1.00  0.00     0.158 C 
ATOM      8  O   UNL     1      31.313   8.951 105.553  1.00  0.00    -0.295 OA
ENDROOT
BRANCH   5   9
ATOM      9  C   UNL     1      35.527  11.392 105.885  1.00  0.00    -0.077 C 
ATOM     10  C   UNL     1      36.641  10.838 105.381  1.00  0.00     0.008 C 
ATOM     11  C   UNL     1      35.372  12.891 105.815  1.00  0.00     0.039 C 
ENDBRANCH   5   9
TORSDOF 1
ENDMDL
MODEL 9
REMARK VINA RESULT:    -3.945      3.311      5.460
REMARK INTER + INTRA:          -4.274
REMARK INTER:                  -4.176
REMARK INTRA:                  -0.098
REMARK UNBOUND:                -0.098
REMARK SMILES C=C(C)[C@@H]1CC=C(C)C(=O)C1
REMARK SMILES IDX 8 1 7 2 6 3 5 4 4 5 11 6 9 7 10 8 2 9 1 10 3 11
REMARK H PARENT
REMARK Flexibility Score: inf
ROOT
ATOM      1  C   UNL     1      37.090  11.913 105.169  1.00  0.00     0.048 C 
ATOM      2  C   UNL     1      35.728  11.352 105.470  1.00  0.00    -0.012 C 
ATOM      3  C   UNL     1      35.612  10.247 106.227  1.00  0.00    -0.019 C 
ATOM      4  C   UNL     1      34.272   9.654 106.573  1.00  0.00     0.036 C 
ATOM      5  C   UNL     1      33.258   9.872 105.434  1.00  0.00     0.025 C 
ATOM      6  C   UNL     1      33.160  11.369 105.086  1.00  0.00     0.089 C 
ATOM      7  C   UNL     1      34.526  11.942 104.828  1.00  0.00     0.158 C 
ATOM      8  O   UNL     1      34.636  12.957 104.088  1.00  0.00    -0.295 OA
ENDROOT
BRANCH   5   9
ATOM      9  C   UNL     1      31.894   9.291 105.783  1.00  0.00    -0.077 C 
ATOM     10  C   UNL     1      30.775   9.890 105.345  1.00  0.00     0.008 C 
ATOM     11  C   UNL     1      31.763   8.045 106.622  1.00  0.00     0.039 C 
ENDBRANCH   5   9
TORSDOF 1
ENDMDL
