MODEL 1
REMARK VINA RESULT:    -6.420      0.000      0.000
REMARK INTER + INTRA:          -8.181
REMARK INTER:                  -7.921
REMARK INTRA:                  -0.260
REMARK UNBOUND:                -0.260
REMARK SMILES O=c1c(O)c(-c2cc(O)c(O)c(O)c2)oc2cc(O)cc(O)c12
REMARK SMILES IDX 5 1 3 2 2 3 1 4 23 5 21 6 20 7 18 8 17 9 16 10 15 11 6 12
REMARK SMILES IDX 7 13 8 14 14 15 10 16 12 17 9 18 11 20 13 22 4 24 22 26
REMARK SMILES IDX 19 28
REMARK H PARENT 9 19 11 21 13 23 4 25 22 27 19 29
REMARK Flexibility Score: inf
ROOT
ATOM      1  C   UNL     1       1.810 -18.059  -3.998  1.00  0.00     0.180 A 
ATOM      2  C   UNL     1       0.951 -19.170  -4.099  1.00  0.00     0.208 A 
ATOM      3  C   UNL     1       1.219 -20.148  -5.069  1.00  0.00     0.238 A 
ATOM      4  O   UNL     1       0.462 -21.153  -5.163  1.00  0.00    -0.285 OA
ATOM      5  C   UNL     1       2.322 -19.989  -5.933  1.00  0.00     0.111 A 
ATOM      6  C   UNL     1       2.658 -20.926  -6.939  1.00  0.00     0.134 A 
ATOM      7  C   UNL     1       3.768 -20.692  -7.765  1.00  0.00     0.093 A 
ATOM      8  C   UNL     1       4.546 -19.544  -7.604  1.00  0.00     0.123 A 
ATOM      9  C   UNL     1       4.220 -18.615  -6.610  1.00  0.00     0.094 A 
ATOM     10  C   UNL     1       3.119 -18.831  -5.777  1.00  0.00     0.146 A 
ATOM     11  O   UNL     1       2.833 -17.935  -4.838  1.00  0.00    -0.452 OA
ENDROOT
BRANCH   1  12
ATOM     12  C   UNL     1       1.605 -16.996  -2.986  1.00  0.00     0.029 A 
ATOM     13  C   UNL     1       0.547 -16.089  -3.143  1.00  0.00     0.062 A 
ATOM     14  C   UNL     1       0.336 -15.061  -2.219  1.00  0.00     0.162 A 
ATOM     15  C   UNL     1       2.483 -16.839  -1.904  1.00  0.00     0.062 A 
ATOM     16  C   UNL     1       1.212 -14.922  -1.116  1.00  0.00     0.200 A 
ATOM     17  C   UNL     1       2.285 -15.813  -0.971  1.00  0.00     0.162 A 
BRANCH  14  18
ATOM     18  O   UNL     1      -0.746 -14.205  -2.434  1.00  0.00    -0.504 OA
ATOM     19  H   UNL     1      -1.227 -13.704  -1.701  1.00  0.00     0.293 HD
ENDBRANCH  14  18
BRANCH  16  20
ATOM     20  O   UNL     1       1.055 -13.921  -0.154  1.00  0.00    -0.502 OA
ATOM     21  H   UNL     1       0.203 -13.396  -0.017  1.00  0.00     0.293 HD
ENDBRANCH  16  20
BRANCH  17  22
ATOM     22  O   UNL     1       3.157 -15.668   0.107  1.00  0.00    -0.504 OA
ATOM     23  H   UNL     1       3.211 -16.361   0.843  1.00  0.00     0.293 HD
ENDBRANCH  17  22
ENDBRANCH   1  12
BRANCH   2  24
ATOM     24  O   UNL     1      -0.164 -19.279  -3.265  1.00  0.00    -0.502 OA
ATOM     25  H   UNL     1      -1.009 -18.742  -3.416  1.00  0.00     0.293 HD
ENDBRANCH   2  24
BRANCH   6  26
ATOM     26  O   UNL     1       1.900 -22.083  -7.127  1.00  0.00    -0.507 OA
ATOM     27  H   UNL     1       2.317 -23.006  -7.090  1.00  0.00     0.293 HD
ENDBRANCH   6  26
BRANCH   8  28
ATOM     28  O   UNL     1       5.643 -19.335  -8.437  1.00  0.00    -0.508 OA
ATOM     29  H   UNL     1       5.530 -19.011  -9.391  1.00  0.00     0.293 HD
ENDBRANCH   8  28
TORSDOF 7
ENDMDL
MODEL 2
REMARK VINA RESULT:    -6.411     12.860     13.721
REMARK INTER + INTRA:          -8.170
REMARK INTER:                  -7.807
REMARK INTRA:                  -0.363
REMARK UNBOUND:                -0.260
REMARK SMILES O=c1c(O)c(-c2cc(O)c(O)c(O)c2)oc2cc(O)cc(O)c12
REMARK SMILES IDX 5 1 3 2 2 3 1 4 23 5 21 6 20 7 18 8 17 9 16 10 15 11 6 12
REMARK SMILES IDX 7 13 8 14 14 15 10 16 12 17 9 18 11 20 13 22 4 24 22 26
REMARK SMILES IDX 19 28
REMARK H PARENT 9 19 11 21 13 23 4 25 22 27 19 29
REMARK Flexibility Score: inf
ROOT
ATOM      1  C   UNL     1      -9.077 -19.271   2.788  1.00  0.00     0.180 A 
ATOM      2  C   UNL     1      -9.352 -20.369   1.950  1.00  0.00     0.208 A 
ATOM      3  C   UNL     1      -9.736 -20.127   0.621  1.00  0.00     0.238 A 
ATOM      4  O   UNL     1      -9.975 -21.102  -0.142  1.00  0.00    -0.285 OA
ATOM      5  C   UNL     1      -9.858 -18.800   0.161  1.00  0.00     0.111 A 
ATOM      6  C   UNL     1     -10.243 -18.472  -1.161  1.00  0.00     0.134 A 
ATOM      7  C   UNL     1     -10.351 -17.126  -1.540  1.00  0.00     0.093 A 
ATOM      8  C   UNL     1     -10.082 -16.104  -0.627  1.00  0.00     0.123 A 
ATOM      9  C   UNL     1      -9.700 -16.422   0.681  1.00  0.00     0.094 A 
ATOM     10  C   UNL     1      -9.585 -17.758   1.078  1.00  0.00     0.146 A 
ATOM     11  O   UNL     1      -9.216 -18.033   2.324  1.00  0.00    -0.452 OA
ENDROOT
BRANCH   1  12
ATOM     12  C   UNL     1      -8.648 -19.444   4.195  1.00  0.00     0.029 A 
ATOM     13  C   UNL     1      -9.615 -19.505   5.209  1.00  0.00     0.062 A 
ATOM     14  C   UNL     1      -9.245 -19.648   6.551  1.00  0.00     0.162 A 
ATOM     15  C   UNL     1      -7.290 -19.491   4.544  1.00  0.00     0.062 A 
ATOM     16  C   UNL     1      -7.873 -19.717   6.893  1.00  0.00     0.200 A 
ATOM     17  C   UNL     1      -6.905 -19.633   5.884  1.00  0.00     0.162 A 
BRANCH  14  18
ATOM     18  O   UNL     1     -10.264 -19.714   7.503  1.00  0.00    -0.504 OA
ATOM     19  H   UNL     1     -11.072 -19.107   7.511  1.00  0.00     0.293 HD
ENDBRANCH  14  18
BRANCH  16  20
ATOM     20  O   UNL     1      -7.436 -19.865   8.212  1.00  0.00    -0.502 OA
ATOM     21  H   UNL     1      -7.050 -20.719   8.588  1.00  0.00     0.293 HD
ENDBRANCH  16  20
BRANCH  17  22
ATOM     22  O   UNL     1      -5.553 -19.685   6.222  1.00  0.00    -0.504 OA
ATOM     23  H   UNL     1      -5.134 -20.525   6.604  1.00  0.00     0.293 HD
ENDBRANCH  17  22
ENDBRANCH   1  12
BRANCH   2  24
ATOM     24  O   UNL     1      -9.272 -21.672   2.444  1.00  0.00    -0.502 OA
ATOM     25  H   UNL     1      -9.332 -21.882   3.433  1.00  0.00     0.293 HD
ENDBRANCH   2  24
BRANCH   6  26
ATOM     26  O   UNL     1     -10.521 -19.469  -2.098  1.00  0.00    -0.507 OA
ATOM     27  H   UNL     1     -11.074 -20.284  -1.861  1.00  0.00     0.293 HD
ENDBRANCH   6  26
BRANCH   8  28
ATOM     28  O   UNL     1     -10.197 -14.775  -1.029  1.00  0.00    -0.508 OA
ATOM     29  H   UNL     1     -10.986 -14.454  -1.578  1.00  0.00     0.293 HD
ENDBRANCH   8  28
TORSDOF 7
ENDMDL
MODEL 3
REMARK VINA RESULT:    -6.159      1.213      2.812
REMARK INTER + INTRA:          -7.859
REMARK INTER:                  -7.625
REMARK INTRA:                  -0.234
REMARK UNBOUND:                -0.260
REMARK SMILES O=c1c(O)c(-c2cc(O)c(O)c(O)c2)oc2cc(O)cc(O)c12
REMARK SMILES IDX 5 1 3 2 2 3 1 4 23 5 21 6 20 7 18 8 17 9 16 10 15 11 6 12
REMARK SMILES IDX 7 13 8 14 14 15 10 16 12 17 9 18 11 20 13 22 4 24 22 26
REMARK SMILES IDX 19 28
REMARK H PARENT 9 19 11 21 13 23 4 25 22 27 19 29
REMARK Flexibility Score: inf
ROOT
ATOM      1  C   UNL     1       2.009 -17.896  -4.214  1.00  0.00     0.180 A 
ATOM      2  C   UNL     1       3.080 -17.673  -5.101  1.00  0.00     0.208 A 
ATOM      3  C   UNL     1       3.293 -18.583  -6.149  1.00  0.00     0.238 A 
ATOM      4  O   UNL     1       4.242 -18.388  -6.956  1.00  0.00    -0.285 OA
ATOM      5  C   UNL     1       2.450 -19.705  -6.279  1.00  0.00     0.111 A 
ATOM      6  C   UNL     1       2.600 -20.671  -7.304  1.00  0.00     0.134 A 
ATOM      7  C   UNL     1       1.725 -21.766  -7.361  1.00  0.00     0.093 A 
ATOM      8  C   UNL     1       0.706 -21.915  -6.417  1.00  0.00     0.123 A 
ATOM      9  C   UNL     1       0.552 -20.964  -5.403  1.00  0.00     0.094 A 
ATOM     10  C   UNL     1       1.413 -19.864  -5.330  1.00  0.00     0.146 A 
ATOM     11  O   UNL     1       1.243 -18.973  -4.359  1.00  0.00    -0.452 OA
ENDROOT
BRANCH   1  12
ATOM     12  C   UNL     1       1.707 -16.971  -3.097  1.00  0.00     0.029 A 
ATOM     13  C   UNL     1       0.558 -16.170  -3.156  1.00  0.00     0.062 A 
ATOM     14  C   UNL     1       0.253 -15.270  -2.129  1.00  0.00     0.162 A 
ATOM     15  C   UNL     1       2.579 -16.835  -2.007  1.00  0.00     0.062 A 
ATOM     16  C   UNL     1       1.125 -15.155  -1.020  1.00  0.00     0.200 A 
ATOM     17  C   UNL     1       2.287 -15.937  -0.971  1.00  0.00     0.162 A 
BRANCH  14  18
ATOM     18  O   UNL     1      -0.916 -14.516  -2.251  1.00  0.00    -0.504 OA
ATOM     19  H   UNL     1      -1.256 -14.135  -3.122  1.00  0.00     0.293 HD
ENDBRANCH  14  18
BRANCH  16  20
ATOM     20  O   UNL     1       0.877 -14.281   0.042  1.00  0.00    -0.502 OA
ATOM     21  H   UNL     1       1.093 -13.295   0.026  1.00  0.00     0.293 HD
ENDBRANCH  16  20
BRANCH  17  22
ATOM     22  O   UNL     1       3.155 -15.812   0.113  1.00  0.00    -0.504 OA
ATOM     23  H   UNL     1       3.744 -14.996   0.230  1.00  0.00     0.293 HD
ENDBRANCH  17  22
ENDBRANCH   1  12
BRANCH   2  24
ATOM     24  O   UNL     1       3.930 -16.580  -4.921  1.00  0.00    -0.502 OA
ATOM     25  H   UNL     1       3.723 -15.663  -5.296  1.00  0.00     0.293 HD
ENDBRANCH   2  24
BRANCH   6  26
ATOM     26  O   UNL     1       3.608 -20.552  -8.262  1.00  0.00    -0.507 OA
ATOM     27  H   UNL     1       3.616 -21.120  -9.102  1.00  0.00     0.293 HD
ENDBRANCH   6  26
BRANCH   8  28
ATOM     28  O   UNL     1      -0.149 -23.012  -6.496  1.00  0.00    -0.508 OA
ATOM     29  H   UNL     1      -0.912 -23.137  -5.840  1.00  0.00     0.293 HD
ENDBRANCH   8  28
TORSDOF 7
ENDMDL
MODEL 4
REMARK VINA RESULT:    -5.986     12.276     14.102
REMARK INTER + INTRA:          -7.646
REMARK INTER:                  -7.411
REMARK INTRA:                  -0.235
REMARK UNBOUND:                -0.260
REMARK SMILES O=c1c(O)c(-c2cc(O)c(O)c(O)c2)oc2cc(O)cc(O)c12
REMARK SMILES IDX 5 1 3 2 2 3 1 4 23 5 21 6 20 7 18 8 17 9 16 10 15 11 6 12
REMARK SMILES IDX 7 13 8 14 14 15 10 16 12 17 9 18 11 20 13 22 4 24 22 26
REMARK SMILES IDX 19 28
REMARK H PARENT 9 19 11 21 13 23 4 25 22 27 19 29
REMARK Flexibility Score: inf
ROOT
ATOM      1  C   UNL     1       4.712 -25.164   6.423  1.00  0.00     0.180 A 
ATOM      2  C   UNL     1       4.872 -25.340   7.812  1.00  0.00     0.208 A 
ATOM      3  C   UNL     1       4.016 -26.225   8.486  1.00  0.00     0.238 A 
ATOM      4  O   UNL     1       4.156 -26.398   9.728  1.00  0.00    -0.285 OA
ATOM      5  C   UNL     1       3.006 -26.899   7.770  1.00  0.00     0.111 A 
ATOM      6  C   UNL     1       2.101 -27.803   8.376  1.00  0.00     0.134 A 
ATOM      7  C   UNL     1       1.117 -28.429   7.596  1.00  0.00     0.093 A 
ATOM      8  C   UNL     1       1.020 -28.170   6.227  1.00  0.00     0.123 A 
ATOM      9  C   UNL     1       1.913 -27.278   5.622  1.00  0.00     0.094 A 
ATOM     10  C   UNL     1       2.902 -26.646   6.383  1.00  0.00     0.146 A 
ATOM     11  O   UNL     1       3.740 -25.807   5.783  1.00  0.00    -0.452 OA
ENDROOT
BRANCH   1  12
ATOM     12  C   UNL     1       5.589 -24.265   5.638  1.00  0.00     0.029 A 
ATOM     13  C   UNL     1       5.481 -22.877   5.808  1.00  0.00     0.062 A 
ATOM     14  C   UNL     1       6.278 -21.996   5.069  1.00  0.00     0.162 A 
ATOM     15  C   UNL     1       6.485 -24.767   4.685  1.00  0.00     0.062 A 
ATOM     16  C   UNL     1       7.197 -22.512   4.124  1.00  0.00     0.200 A 
ATOM     17  C   UNL     1       7.290 -23.898   3.936  1.00  0.00     0.162 A 
BRANCH  14  18
ATOM     18  O   UNL     1       6.124 -20.628   5.301  1.00  0.00    -0.504 OA
ATOM     19  H   UNL     1       6.469 -19.906   4.685  1.00  0.00     0.293 HD
ENDBRANCH  14  18
BRANCH  16  20
ATOM     20  O   UNL     1       8.027 -21.689   3.358  1.00  0.00    -0.502 OA
ATOM     21  H   UNL     1       7.715 -21.159   2.556  1.00  0.00     0.293 HD
ENDBRANCH  16  20
BRANCH  17  22
ATOM     22  O   UNL     1       8.183 -24.406   2.995  1.00  0.00    -0.504 OA
ATOM     23  H   UNL     1       9.184 -24.403   3.157  1.00  0.00     0.293 HD
ENDBRANCH  17  22
ENDBRANCH   1  12
BRANCH   2  24
ATOM     24  O   UNL     1       5.849 -24.622   8.506  1.00  0.00    -0.502 OA
ATOM     25  H   UNL     1       5.645 -23.753   8.985  1.00  0.00     0.293 HD
ENDBRANCH   2  24
BRANCH   6  26
ATOM     26  O   UNL     1       2.169 -28.083   9.742  1.00  0.00    -0.507 OA
ATOM     27  H   UNL     1       1.365 -27.971  10.350  1.00  0.00     0.293 HD
ENDBRANCH   6  26
BRANCH   8  28
ATOM     28  O   UNL     1       0.034 -28.804   5.475  1.00  0.00    -0.508 OA
ATOM     29  H   UNL     1       0.215 -29.135   4.534  1.00  0.00     0.293 HD
ENDBRANCH   8  28
TORSDOF 7
ENDMDL
MODEL 5
REMARK VINA RESULT:    -5.920     12.052     14.617
REMARK INTER + INTRA:          -7.564
REMARK INTER:                  -7.255
REMARK INTRA:                  -0.309
REMARK UNBOUND:                -0.260
REMARK SMILES O=c1c(O)c(-c2cc(O)c(O)c(O)c2)oc2cc(O)cc(O)c12
REMARK SMILES IDX 5 1 3 2 2 3 1 4 23 5 21 6 20 7 18 8 17 9 16 10 15 11 6 12
REMARK SMILES IDX 7 13 8 14 14 15 10 16 12 17 9 18 11 20 13 22 4 24 22 26
REMARK SMILES IDX 19 28
REMARK H PARENT 9 19 11 21 13 23 4 25 22 27 19 29
REMARK Flexibility Score: inf
ROOT
ATOM      1  C   UNL     1       5.818 -26.439   4.206  1.00  0.00     0.180 A 
ATOM      2  C   UNL     1       5.755 -25.107   3.753  1.00  0.00     0.208 A 
ATOM      3  C   UNL     1       5.640 -24.074   4.696  1.00  0.00     0.238 A 
ATOM      4  O   UNL     1       5.593 -22.877   4.302  1.00  0.00    -0.285 OA
ATOM      5  C   UNL     1       5.569 -24.388   6.069  1.00  0.00     0.111 A 
ATOM      6  C   UNL     1       5.448 -23.407   7.082  1.00  0.00     0.134 A 
ATOM      7  C   UNL     1       5.374 -23.801   8.427  1.00  0.00     0.093 A 
ATOM      8  C   UNL     1       5.418 -25.152   8.777  1.00  0.00     0.123 A 
ATOM      9  C   UNL     1       5.539 -26.127   7.780  1.00  0.00     0.094 A 
ATOM     10  C   UNL     1       5.615 -25.754   6.434  1.00  0.00     0.146 A 
ATOM     11  O   UNL     1       5.734 -26.699   5.508  1.00  0.00    -0.452 OA
ENDROOT
BRANCH   1  12
ATOM     12  C   UNL     1       5.960 -27.581   3.274  1.00  0.00     0.029 A 
ATOM     13  C   UNL     1       4.871 -28.439   3.064  1.00  0.00     0.062 A 
ATOM     14  C   UNL     1       4.974 -29.539   2.206  1.00  0.00     0.162 A 
ATOM     15  C   UNL     1       7.179 -27.860   2.641  1.00  0.00     0.062 A 
ATOM     16  C   UNL     1       6.202 -29.801   1.552  1.00  0.00     0.200 A 
ATOM     17  C   UNL     1       7.299 -28.959   1.780  1.00  0.00     0.162 A 
BRANCH  14  18
ATOM     18  O   UNL     1       3.843 -30.340   2.036  1.00  0.00    -0.504 OA
ATOM     19  H   UNL     1       3.839 -31.215   1.532  1.00  0.00     0.293 HD
ENDBRANCH  14  18
BRANCH  16  20
ATOM     20  O   UNL     1       6.372 -30.879   0.679  1.00  0.00    -0.502 OA
ATOM     21  H   UNL     1       7.270 -31.242   0.396  1.00  0.00     0.293 HD
ENDBRANCH  16  20
BRANCH  17  22
ATOM     22  O   UNL     1       8.513 -29.226   1.148  1.00  0.00    -0.504 OA
ATOM     23  H   UNL     1       8.844 -28.661   0.375  1.00  0.00     0.293 HD
ENDBRANCH  17  22
ENDBRANCH   1  12
BRANCH   2  24
ATOM     24  O   UNL     1       5.778 -24.825   2.385  1.00  0.00    -0.502 OA
ATOM     25  H   UNL     1       6.613 -24.503   1.911  1.00  0.00     0.293 HD
ENDBRANCH   2  24
BRANCH   6  26
ATOM     26  O   UNL     1       5.400 -22.049   6.766  1.00  0.00    -0.507 OA
ATOM     27  H   UNL     1       6.024 -21.377   7.198  1.00  0.00     0.293 HD
ENDBRANCH   6  26
BRANCH   8  28
ATOM     28  O   UNL     1       5.342 -25.517  10.119  1.00  0.00    -0.508 OA
ATOM     29  H   UNL     1       5.853 -26.315  10.481  1.00  0.00     0.293 HD
ENDBRANCH   8  28
TORSDOF 7
ENDMDL
MODEL 6
REMARK VINA RESULT:    -5.900      1.304      7.243
REMARK INTER + INTRA:          -7.540
REMARK INTER:                  -7.321
REMARK INTRA:                  -0.218
REMARK UNBOUND:                -0.260
REMARK SMILES O=c1c(O)c(-c2cc(O)c(O)c(O)c2)oc2cc(O)cc(O)c12
REMARK SMILES IDX 5 1 3 2 2 3 1 4 23 5 21 6 20 7 18 8 17 9 16 10 15 11 6 12
REMARK SMILES IDX 7 13 8 14 14 15 10 16 12 17 9 18 11 20 13 22 4 24 22 26
REMARK SMILES IDX 19 28
REMARK H PARENT 9 19 11 21 13 23 4 25 22 27 19 29
REMARK Flexibility Score: inf
ROOT
ATOM      1  C   UNL     1       2.233 -18.286  -3.805  1.00  0.00     0.180 A 
ATOM      2  C   UNL     1       3.396 -18.176  -3.018  1.00  0.00     0.208 A 
ATOM      3  C   UNL     1       3.438 -17.208  -2.001  1.00  0.00     0.238 A 
ATOM      4  O   UNL     1       4.470 -17.107  -1.284  1.00  0.00    -0.285 OA
ATOM      5  C   UNL     1       2.331 -16.357  -1.803  1.00  0.00     0.111 A 
ATOM      6  C   UNL     1       2.295 -15.355  -0.804  1.00  0.00     0.134 A 
ATOM      7  C   UNL     1       1.159 -14.542  -0.676  1.00  0.00     0.093 A 
ATOM      8  C   UNL     1       0.062 -14.710  -1.524  1.00  0.00     0.123 A 
ATOM      9  C   UNL     1       0.091 -15.700  -2.512  1.00  0.00     0.094 A 
ATOM     10  C   UNL     1       1.214 -16.522  -2.655  1.00  0.00     0.146 A 
ATOM     11  O   UNL     1       1.214 -17.457  -3.599  1.00  0.00    -0.452 OA
ENDROOT
BRANCH   1  12
ATOM     12  C   UNL     1       2.105 -19.294  -4.882  1.00  0.00     0.029 A 
ATOM     13  C   UNL     1       2.891 -19.173  -6.037  1.00  0.00     0.062 A 
ATOM     14  C   UNL     1       2.783 -20.095  -7.083  1.00  0.00     0.162 A 
ATOM     15  C   UNL     1       1.172 -20.337  -4.800  1.00  0.00     0.062 A 
ATOM     16  C   UNL     1       1.855 -21.158  -6.983  1.00  0.00     0.200 A 
ATOM     17  C   UNL     1       1.051 -21.268  -5.840  1.00  0.00     0.162 A 
BRANCH  14  18
ATOM     18  O   UNL     1       3.608 -19.917  -8.196  1.00  0.00    -0.504 OA
ATOM     19  H   UNL     1       3.334 -19.420  -9.031  1.00  0.00     0.293 HD
ENDBRANCH  14  18
BRANCH  16  20
ATOM     20  O   UNL     1       1.700 -22.117  -7.988  1.00  0.00    -0.502 OA
ATOM     21  H   UNL     1       2.141 -22.063  -8.895  1.00  0.00     0.293 HD
ENDBRANCH  16  20
BRANCH  17  22
ATOM     22  O   UNL     1       0.125 -22.306  -5.747  1.00  0.00    -0.504 OA
ATOM     23  H   UNL     1      -0.265 -22.745  -6.573  1.00  0.00     0.293 HD
ENDBRANCH  17  22
ENDBRANCH   1  12
BRANCH   2  24
ATOM     24  O   UNL     1       4.498 -18.997  -3.267  1.00  0.00    -0.502 OA
ATOM     25  H   UNL     1       5.128 -18.839  -4.043  1.00  0.00     0.293 HD
ENDBRANCH   2  24
BRANCH   6  26
ATOM     26  O   UNL     1       3.375 -15.159   0.058  1.00  0.00    -0.507 OA
ATOM     27  H   UNL     1       4.190 -15.761   0.037  1.00  0.00     0.293 HD
ENDBRANCH   6  26
BRANCH   8  28
ATOM     28  O   UNL     1      -1.054 -13.889  -1.376  1.00  0.00    -0.508 OA
ATOM     29  H   UNL     1      -1.321 -13.224  -2.092  1.00  0.00     0.293 HD
ENDBRANCH   8  28
TORSDOF 7
ENDMDL
MODEL 7
REMARK VINA RESULT:    -5.894     11.256     12.787
REMARK INTER + INTRA:          -7.533
REMARK INTER:                  -7.225
REMARK INTRA:                  -0.307
REMARK UNBOUND:                -0.260
REMARK SMILES O=c1c(O)c(-c2cc(O)c(O)c(O)c2)oc2cc(O)cc(O)c12
REMARK SMILES IDX 5 1 3 2 2 3 1 4 23 5 21 6 20 7 18 8 17 9 16 10 15 11 6 12
REMARK SMILES IDX 7 13 8 14 14 15 10 16 12 17 9 18 11 20 13 22 4 24 22 26
REMARK SMILES IDX 19 28
REMARK H PARENT 9 19 11 21 13 23 4 25 22 27 19 29
REMARK Flexibility Score: inf
ROOT
ATOM      1  C   UNL     1       6.069 -24.147   5.312  1.00  0.00     0.180 A 
ATOM      2  C   UNL     1       6.497 -22.834   5.588  1.00  0.00     0.208 A 
ATOM      3  C   UNL     1       7.351 -22.193   4.676  1.00  0.00     0.238 A 
ATOM      4  O   UNL     1       7.733 -21.014   4.907  1.00  0.00    -0.285 OA
ATOM      5  C   UNL     1       7.778 -22.880   3.521  1.00  0.00     0.111 A 
ATOM      6  C   UNL     1       8.640 -22.307   2.555  1.00  0.00     0.134 A 
ATOM      7  C   UNL     1       9.027 -23.059   1.435  1.00  0.00     0.093 A 
ATOM      8  C   UNL     1       8.570 -24.366   1.262  1.00  0.00     0.123 A 
ATOM      9  C   UNL     1       7.716 -24.938   2.212  1.00  0.00     0.094 A 
ATOM     10  C   UNL     1       7.318 -24.204   3.334  1.00  0.00     0.146 A 
ATOM     11  O   UNL     1       6.503 -24.768   4.219  1.00  0.00    -0.452 OA
ENDROOT
BRANCH   1  12
ATOM     12  C   UNL     1       5.153 -24.882   6.215  1.00  0.00     0.029 A 
ATOM     13  C   UNL     1       5.657 -25.458   7.389  1.00  0.00     0.062 A 
ATOM     14  C   UNL     1       4.826 -26.176   8.255  1.00  0.00     0.162 A 
ATOM     15  C   UNL     1       3.801 -25.065   5.892  1.00  0.00     0.062 A 
ATOM     16  C   UNL     1       3.457 -26.337   7.934  1.00  0.00     0.200 A 
ATOM     17  C   UNL     1       2.956 -25.783   6.748  1.00  0.00     0.162 A 
BRANCH  14  18
ATOM     18  O   UNL     1       5.397 -26.710   9.412  1.00  0.00    -0.504 OA
ATOM     19  H   UNL     1       5.494 -27.699   9.592  1.00  0.00     0.293 HD
ENDBRANCH  14  18
BRANCH  16  20
ATOM     20  O   UNL     1       2.570 -27.038   8.757  1.00  0.00    -0.502 OA
ATOM     21  H   UNL     1       2.632 -28.028   8.942  1.00  0.00     0.293 HD
ENDBRANCH  16  20
BRANCH  17  22
ATOM     22  O   UNL     1       1.611 -25.955   6.423  1.00  0.00    -0.504 OA
ATOM     23  H   UNL     1       1.275 -26.806   5.989  1.00  0.00     0.293 HD
ENDBRANCH  17  22
ENDBRANCH   1  12
BRANCH   2  24
ATOM     24  O   UNL     1       6.100 -22.195   6.764  1.00  0.00    -0.502 OA
ATOM     25  H   UNL     1       5.150 -22.241   7.113  1.00  0.00     0.293 HD
ENDBRANCH   2  24
BRANCH   6  26
ATOM     26  O   UNL     1       9.116 -21.003   2.699  1.00  0.00    -0.507 OA
ATOM     27  H   UNL     1       9.863 -20.776   3.346  1.00  0.00     0.293 HD
ENDBRANCH   6  26
BRANCH   8  28
ATOM     28  O   UNL     1       8.969 -25.091   0.141  1.00  0.00    -0.508 OA
ATOM     29  H   UNL     1       9.481 -24.655  -0.618  1.00  0.00     0.293 HD
ENDBRANCH   8  28
TORSDOF 7
ENDMDL
MODEL 8
REMARK VINA RESULT:    -5.890     11.233     12.601
REMARK INTER + INTRA:          -7.527
REMARK INTER:                  -7.323
REMARK INTRA:                  -0.204
REMARK UNBOUND:                -0.260
REMARK SMILES O=c1c(O)c(-c2cc(O)c(O)c(O)c2)oc2cc(O)cc(O)c12
REMARK SMILES IDX 5 1 3 2 2 3 1 4 23 5 21 6 20 7 18 8 17 9 16 10 15 11 6 12
REMARK SMILES IDX 7 13 8 14 14 15 10 16 12 17 9 18 11 20 13 22 4 24 22 26
REMARK SMILES IDX 19 28
REMARK H PARENT 9 19 11 21 13 23 4 25 22 27 19 29
REMARK Flexibility Score: inf
ROOT
ATOM      1  C   UNL     1       6.051 -24.334   5.196  1.00  0.00     0.180 A 
ATOM      2  C   UNL     1       6.600 -23.075   5.510  1.00  0.00     0.208 A 
ATOM      3  C   UNL     1       7.397 -22.425   4.555  1.00  0.00     0.238 A 
ATOM      4  O   UNL     1       7.886 -21.294   4.820  1.00  0.00    -0.285 OA
ATOM      5  C   UNL     1       7.649 -23.051   3.316  1.00  0.00     0.111 A 
ATOM      6  C   UNL     1       8.445 -22.466   2.302  1.00  0.00     0.134 A 
ATOM      7  C   UNL     1       8.655 -23.156   1.098  1.00  0.00     0.093 A 
ATOM      8  C   UNL     1       8.088 -24.415   0.890  1.00  0.00     0.123 A 
ATOM      9  C   UNL     1       7.300 -24.998   1.888  1.00  0.00     0.094 A 
ATOM     10  C   UNL     1       7.077 -24.325   3.094  1.00  0.00     0.146 A 
ATOM     11  O   UNL     1       6.321 -24.899   4.024  1.00  0.00    -0.452 OA
ENDROOT
BRANCH   1  12
ATOM     12  C   UNL     1       5.184 -25.071   6.144  1.00  0.00     0.029 A 
ATOM     13  C   UNL     1       3.825 -25.244   5.845  1.00  0.00     0.062 A 
ATOM     14  C   UNL     1       2.973 -25.917   6.725  1.00  0.00     0.162 A 
ATOM     15  C   UNL     1       5.680 -25.552   7.365  1.00  0.00     0.062 A 
ATOM     16  C   UNL     1       3.485 -26.420   7.945  1.00  0.00     0.200 A 
ATOM     17  C   UNL     1       4.837 -26.228   8.257  1.00  0.00     0.162 A 
BRANCH  14  18
ATOM     18  O   UNL     1       1.634 -26.061   6.353  1.00  0.00    -0.504 OA
ATOM     19  H   UNL     1       1.221 -26.932   6.050  1.00  0.00     0.293 HD
ENDBRANCH  14  18
BRANCH  16  20
ATOM     20  O   UNL     1       2.689 -27.107   8.867  1.00  0.00    -0.502 OA
ATOM     21  H   UNL     1       2.371 -28.057   8.742  1.00  0.00     0.293 HD
ENDBRANCH  16  20
BRANCH  17  22
ATOM     22  O   UNL     1       5.339 -26.709   9.466  1.00  0.00    -0.504 OA
ATOM     23  H   UNL     1       5.211 -27.674   9.747  1.00  0.00     0.293 HD
ENDBRANCH  17  22
ENDBRANCH   1  12
BRANCH   2  24
ATOM     24  O   UNL     1       6.377 -22.500   6.763  1.00  0.00    -0.502 OA
ATOM     25  H   UNL     1       6.713 -21.576   7.004  1.00  0.00     0.293 HD
ENDBRANCH   2  24
BRANCH   6  26
ATOM     26  O   UNL     1       9.027 -21.210   2.479  1.00  0.00    -0.507 OA
ATOM     27  H   UNL     1       9.903 -20.960   2.035  1.00  0.00     0.293 HD
ENDBRANCH   6  26
BRANCH   8  28
ATOM     28  O   UNL     1       8.314 -25.079  -0.313  1.00  0.00    -0.508 OA
ATOM     29  H   UNL     1       7.564 -25.551  -0.807  1.00  0.00     0.293 HD
ENDBRANCH   8  28
TORSDOF 7
ENDMDL
MODEL 9
REMARK VINA RESULT:    -5.820     12.357     14.336
REMARK INTER + INTRA:          -7.441
REMARK INTER:                  -7.074
REMARK INTRA:                  -0.367
REMARK UNBOUND:                -0.260
REMARK SMILES O=c1c(O)c(-c2cc(O)c(O)c(O)c2)oc2cc(O)cc(O)c12
REMARK SMILES IDX 5 1 3 2 2 3 1 4 23 5 21 6 20 7 18 8 17 9 16 10 15 11 6 12
REMARK SMILES IDX 7 13 8 14 14 15 10 16 12 17 9 18 11 20 13 22 4 24 22 26
REMARK SMILES IDX 19 28
REMARK H PARENT 9 19 11 21 13 23 4 25 22 27 19 29
REMARK Flexibility Score: inf
ROOT
ATOM      1  C   UNL     1       4.887 -26.035   5.234  1.00  0.00     0.180 A 
ATOM      2  C   UNL     1       5.498 -25.578   6.418  1.00  0.00     0.208 A 
ATOM      3  C   UNL     1       4.912 -25.901   7.652  1.00  0.00     0.238 A 
ATOM      4  O   UNL     1       5.455 -25.506   8.719  1.00  0.00    -0.285 OA
ATOM      5  C   UNL     1       3.720 -26.654   7.682  1.00  0.00     0.111 A 
ATOM      6  C   UNL     1       3.064 -27.018   8.882  1.00  0.00     0.134 A 
ATOM      7  C   UNL     1       1.876 -27.762   8.828  1.00  0.00     0.093 A 
ATOM      8  C   UNL     1       1.332 -28.147   7.601  1.00  0.00     0.123 A 
ATOM      9  C   UNL     1       1.975 -27.791   6.411  1.00  0.00     0.094 A 
ATOM     10  C   UNL     1       3.162 -27.052   6.444  1.00  0.00     0.146 A 
ATOM     11  O   UNL     1       3.755 -26.730   5.300  1.00  0.00    -0.452 OA
ENDROOT
BRANCH   1  12
ATOM     12  C   UNL     1       5.455 -25.751   3.896  1.00  0.00     0.029 A 
ATOM     13  C   UNL     1       5.018 -24.624   3.186  1.00  0.00     0.062 A 
ATOM     14  C   UNL     1       5.518 -24.337   1.911  1.00  0.00     0.162 A 
ATOM     15  C   UNL     1       6.380 -26.619   3.297  1.00  0.00     0.062 A 
ATOM     16  C   UNL     1       6.468 -25.205   1.322  1.00  0.00     0.200 A 
ATOM     17  C   UNL     1       6.888 -26.344   2.020  1.00  0.00     0.162 A 
BRANCH  14  18
ATOM     18  O   UNL     1       5.045 -23.189   1.271  1.00  0.00    -0.504 OA
ATOM     19  H   UNL     1       5.459 -22.273   1.371  1.00  0.00     0.293 HD
ENDBRANCH  14  18
BRANCH  16  20
ATOM     20  O   UNL     1       7.012 -24.973   0.055  1.00  0.00    -0.502 OA
ATOM     21  H   UNL     1       7.319 -25.703  -0.571  1.00  0.00     0.293 HD
ENDBRANCH  16  20
BRANCH  17  22
ATOM     22  O   UNL     1       7.813 -27.208   1.434  1.00  0.00    -0.504 OA
ATOM     23  H   UNL     1       8.749 -27.315   1.806  1.00  0.00     0.293 HD
ENDBRANCH  17  22
ENDBRANCH   1  12
BRANCH   2  24
ATOM     24  O   UNL     1       6.651 -24.791   6.360  1.00  0.00    -0.502 OA
ATOM     25  H   UNL     1       6.665 -23.882   5.915  1.00  0.00     0.293 HD
ENDBRANCH   2  24
BRANCH   6  26
ATOM     26  O   UNL     1       3.581 -26.648  10.125  1.00  0.00    -0.507 OA
ATOM     27  H   UNL     1       2.979 -26.370  10.892  1.00  0.00     0.293 HD
ENDBRANCH   6  26
BRANCH   8  28
ATOM     28  O   UNL     1       0.150 -28.884   7.574  1.00  0.00    -0.508 OA
ATOM     29  H   UNL     1       0.150 -29.890   7.701  1.00  0.00     0.293 HD
ENDBRANCH   8  28
TORSDOF 7
ENDMDL
