MODEL 1
REMARK VINA RESULT:    -3.482      0.000      0.000
REMARK INTER + INTRA:          -4.780
REMARK INTER:                  -4.297
REMARK INTRA:                  -0.483
REMARK UNBOUND:                -0.483
REMARK SMILES C=CC[C@@H](C)C(=O)CC
REMARK SMILES IDX 4 1 5 2 6 3 7 4 8 5 9 6 3 7 2 8 1 9
REMARK H PARENT
REMARK Flexibility Score: inf
ROOT
ATOM      1  C   UNL     1      16.715  -7.652  12.686  1.00  0.00     0.057 C 
ATOM      2  C   UNL     1      15.651  -8.749  12.543  1.00  0.00     0.016 C 
ENDROOT
BRANCH   1   3
ATOM      3  C   UNL     1      16.326  -6.648  13.754  1.00  0.00     0.135 C 
ATOM      4  O   UNL     1      15.151  -6.348  13.910  1.00  0.00    -0.299 OA
BRANCH   3   5
ATOM      5  C   UNL     1      17.367  -6.001  14.630  1.00  0.00     0.072 C 
ATOM      6  C   UNL     1      17.125  -6.342  16.097  1.00  0.00     0.012 C 
ENDBRANCH   3   5
ENDBRANCH   1   3
BRANCH   1   7
ATOM      7  C   UNL     1      18.123  -8.231  12.936  1.00  0.00     0.038 C 
BRANCH   7   8
ATOM      8  C   UNL     1      18.112  -9.536  13.690  1.00  0.00    -0.034 C 
ATOM      9  C   UNL     1      18.587  -9.634  14.935  1.00  0.00     0.004 C 
ENDBRANCH   7   8
ENDBRANCH   1   7
TORSDOF 4
ENDMDL
MODEL 2
REMARK VINA RESULT:    -3.420      1.913      3.706
REMARK INTER + INTRA:          -4.703
REMARK INTER:                  -4.240
REMARK INTRA:                  -0.463
REMARK UNBOUND:                -0.483
REMARK SMILES C=CC[C@@H](C)C(=O)CC
REMARK SMILES IDX 4 1 5 2 6 3 7 4 8 5 9 6 3 7 2 8 1 9
REMARK H PARENT
REMARK Flexibility Score: inf
ROOT
ATOM      1  C   UNL     1      18.154  -9.078  13.321  1.00  0.00     0.057 C 
ATOM      2  C   UNL     1      18.494  -9.616  14.718  1.00  0.00     0.016 C 
ENDROOT
BRANCH   1   3
ATOM      3  C   UNL     1      16.935  -9.775  12.748  1.00  0.00     0.135 C 
ATOM      4  O   UNL     1      16.755 -10.965  12.963  1.00  0.00    -0.299 OA
BRANCH   3   5
ATOM      5  C   UNL     1      15.935  -9.026  11.906  1.00  0.00     0.072 C 
ATOM      6  C   UNL     1      14.570  -8.998  12.586  1.00  0.00     0.012 C 
ENDBRANCH   3   5
ENDBRANCH   1   3
BRANCH   1   7
ATOM      7  C   UNL     1      17.991  -7.544  13.308  1.00  0.00     0.038 C 
BRANCH   7   8
ATOM      8  C   UNL     1      17.496  -6.980  14.616  1.00  0.00    -0.034 C 
ATOM      9  C   UNL     1      16.435  -6.169  14.677  1.00  0.00     0.004 C 
ENDBRANCH   7   8
ENDBRANCH   1   7
TORSDOF 4
ENDMDL
MODEL 3
REMARK VINA RESULT:    -3.408      3.407      5.133
REMARK INTER + INTRA:          -4.688
REMARK INTER:                  -4.500
REMARK INTRA:                  -0.188
REMARK UNBOUND:                -0.483
REMARK SMILES C=CC[C@@H](C)C(=O)CC
REMARK SMILES IDX 4 1 5 2 6 3 7 4 8 5 9 6 3 7 2 8 1 9
REMARK H PARENT
REMARK Flexibility Score: inf
ROOT
ATOM      1  C   UNL     1      15.081 -11.267  12.001  1.00  0.00     0.057 C 
ATOM      2  C   UNL     1      15.818 -12.545  12.423  1.00  0.00     0.016 C 
ENDROOT
BRANCH   1   3
ATOM      3  C   UNL     1      13.719 -11.176  12.664  1.00  0.00     0.135 C 
ATOM      4  O   UNL     1      13.257 -10.084  12.961  1.00  0.00    -0.299 OA
BRANCH   3   5
ATOM      5  C   UNL     1      12.921 -12.415  12.974  1.00  0.00     0.072 C 
ATOM      6  C   UNL     1      11.620 -12.432  12.177  1.00  0.00     0.012 C 
ENDBRANCH   3   5
ENDBRANCH   1   3
BRANCH   1   7
ATOM      7  C   UNL     1      15.920  -9.996  12.251  1.00  0.00     0.038 C 
BRANCH   7   8
ATOM      8  C   UNL     1      17.327 -10.285  12.709  1.00  0.00    -0.034 C 
ATOM      9  C   UNL     1      18.019  -9.415  13.449  1.00  0.00     0.004 C 
ENDBRANCH   7   8
ENDBRANCH   1   7
TORSDOF 4
ENDMDL
MODEL 4
REMARK VINA RESULT:    -3.327      1.808      3.784
REMARK INTER + INTRA:          -4.588
REMARK INTER:                  -4.330
REMARK INTRA:                  -0.258
REMARK UNBOUND:                -0.483
REMARK SMILES C=CC[C@@H](C)C(=O)CC
REMARK SMILES IDX 4 1 5 2 6 3 7 4 8 5 9 6 3 7 2 8 1 9
REMARK H PARENT
REMARK Flexibility Score: inf
ROOT
ATOM      1  C   UNL     1      17.386  -7.781  12.782  1.00  0.00     0.057 C 
ATOM      2  C   UNL     1      18.638  -6.964  12.434  1.00  0.00     0.016 C 
ENDROOT
BRANCH   1   3
ATOM      3  C   UNL     1      17.754  -9.186  13.220  1.00  0.00     0.135 C 
ATOM      4  O   UNL     1      18.492  -9.353  14.180  1.00  0.00    -0.299 OA
BRANCH   3   5
ATOM      5  C   UNL     1      17.230 -10.392  12.485  1.00  0.00     0.072 C 
ATOM      6  C   UNL     1      15.705 -10.430  12.527  1.00  0.00     0.012 C 
ENDBRANCH   3   5
ENDBRANCH   1   3
BRANCH   1   7
ATOM      7  C   UNL     1      16.497  -7.076  13.827  1.00  0.00     0.038 C 
BRANCH   7   8
ATOM      8  C   UNL     1      17.271  -6.217  14.795  1.00  0.00    -0.034 C 
ATOM      9  C   UNL     1      17.155  -6.366  16.118  1.00  0.00     0.004 C 
ENDBRANCH   7   8
ENDBRANCH   1   7
TORSDOF 4
ENDMDL
MODEL 5
REMARK VINA RESULT:    -3.278      3.133      4.844
REMARK INTER + INTRA:          -4.528
REMARK INTER:                  -4.291
REMARK INTRA:                  -0.237
REMARK UNBOUND:                -0.483
REMARK SMILES C=CC[C@@H](C)C(=O)CC
REMARK SMILES IDX 4 1 5 2 6 3 7 4 8 5 9 6 3 7 2 8 1 9
REMARK H PARENT
REMARK Flexibility Score: inf
ROOT
ATOM      1  C   UNL     1      14.800  -9.871  12.553  1.00  0.00     0.057 C 
ATOM      2  C   UNL     1      14.043  -8.681  11.945  1.00  0.00     0.016 C 
ENDROOT
BRANCH   1   3
ATOM      3  C   UNL     1      13.965 -11.136  12.498  1.00  0.00     0.135 C 
ATOM      4  O   UNL     1      12.831 -11.139  12.954  1.00  0.00    -0.299 OA
BRANCH   3   5
ATOM      5  C   UNL     1      14.512 -12.403  11.894  1.00  0.00     0.072 C 
ATOM      6  C   UNL     1      14.113 -13.615  12.730  1.00  0.00     0.012 C 
ENDBRANCH   3   5
ENDBRANCH   1   3
BRANCH   1   7
ATOM      7  C   UNL     1      16.186 -10.076  11.908  1.00  0.00     0.038 C 
BRANCH   7   8
ATOM      8  C   UNL     1      17.305 -10.194  12.911  1.00  0.00    -0.034 C 
ATOM      9  C   UNL     1      18.029  -9.136  13.286  1.00  0.00     0.004 C 
ENDBRANCH   7   8
ENDBRANCH   1   7
TORSDOF 4
ENDMDL
MODEL 6
REMARK VINA RESULT:    -3.225      2.065      4.064
REMARK INTER + INTRA:          -4.462
REMARK INTER:                  -4.294
REMARK INTRA:                  -0.168
REMARK UNBOUND:                -0.483
REMARK SMILES C=CC[C@@H](C)C(=O)CC
REMARK SMILES IDX 4 1 5 2 6 3 7 4 8 5 9 6 3 7 2 8 1 9
REMARK H PARENT
REMARK Flexibility Score: inf
ROOT
ATOM      1  C   UNL     1      18.121  -9.009  13.243  1.00  0.00     0.057 C 
ATOM      2  C   UNL     1      18.443  -9.536  14.648  1.00  0.00     0.016 C 
ENDROOT
BRANCH   1   3
ATOM      3  C   UNL     1      16.849  -9.634  12.702  1.00  0.00     0.135 C 
ATOM      4  O   UNL     1      15.807  -8.995  12.704  1.00  0.00    -0.299 OA
BRANCH   3   5
ATOM      5  C   UNL     1      16.841 -11.041  12.164  1.00  0.00     0.072 C 
ATOM      6  C   UNL     1      15.433 -11.626  12.205  1.00  0.00     0.012 C 
ENDBRANCH   3   5
ENDBRANCH   1   3
BRANCH   1   7
ATOM      7  C   UNL     1      18.061  -7.468  13.194  1.00  0.00     0.038 C 
BRANCH   7   8
ATOM      8  C   UNL     1      18.574  -6.886  11.901  1.00  0.00    -0.034 C 
ATOM      9  C   UNL     1      19.546  -5.970  11.878  1.00  0.00     0.004 C 
ENDBRANCH   7   8
ENDBRANCH   1   7
TORSDOF 4
ENDMDL
MODEL 7
REMARK VINA RESULT:    -3.201      2.606      3.905
REMARK INTER + INTRA:          -4.432
REMARK INTER:                  -4.199
REMARK INTRA:                  -0.233
REMARK UNBOUND:                -0.483
REMARK SMILES C=CC[C@@H](C)C(=O)CC
REMARK SMILES IDX 4 1 5 2 6 3 7 4 8 5 9 6 3 7 2 8 1 9
REMARK H PARENT
REMARK Flexibility Score: inf
ROOT
ATOM      1  C   UNL     1      15.318 -10.005  11.999  1.00  0.00     0.057 C 
ATOM      2  C   UNL     1      13.969  -9.624  12.625  1.00  0.00     0.016 C 
ENDROOT
BRANCH   1   3
ATOM      3  C   UNL     1      16.451  -9.210  12.618  1.00  0.00     0.135 C 
ATOM      4  O   UNL     1      16.324  -8.009  12.805  1.00  0.00    -0.299 OA
BRANCH   3   5
ATOM      5  C   UNL     1      17.747  -9.875  13.005  1.00  0.00     0.072 C 
ATOM      6  C   UNL     1      18.216  -9.389  14.373  1.00  0.00     0.012 C 
ENDBRANCH   3   5
ENDBRANCH   1   3
BRANCH   1   7
ATOM      7  C   UNL     1      15.586 -11.523  12.064  1.00  0.00     0.038 C 
BRANCH   7   8
ATOM      8  C   UNL     1      14.336 -12.348  12.236  1.00  0.00    -0.034 C 
ATOM      9  C   UNL     1      14.384 -13.625  12.627  1.00  0.00     0.004 C 
ENDBRANCH   7   8
ENDBRANCH   1   7
TORSDOF 4
ENDMDL
MODEL 8
REMARK VINA RESULT:    -3.169      1.847      4.100
REMARK INTER + INTRA:          -4.393
REMARK INTER:                  -4.178
REMARK INTRA:                  -0.215
REMARK UNBOUND:                -0.483
REMARK SMILES C=CC[C@@H](C)C(=O)CC
REMARK SMILES IDX 4 1 5 2 6 3 7 4 8 5 9 6 3 7 2 8 1 9
REMARK H PARENT
REMARK Flexibility Score: inf
ROOT
ATOM      1  C   UNL     1      16.549  -6.222  14.020  1.00  0.00     0.057 C 
ATOM      2  C   UNL     1      16.993  -6.277  15.488  1.00  0.00     0.016 C 
ENDROOT
BRANCH   1   3
ATOM      3  C   UNL     1      16.753  -7.559  13.335  1.00  0.00     0.135 C 
ATOM      4  O   UNL     1      15.787  -8.198  12.942  1.00  0.00    -0.299 OA
BRANCH   3   5
ATOM      5  C   UNL     1      18.133  -8.128  13.134  1.00  0.00     0.072 C 
ATOM      6  C   UNL     1      18.283  -9.455  13.872  1.00  0.00     0.012 C 
ENDBRANCH   3   5
ENDBRANCH   1   3
BRANCH   1   7
ATOM      7  C   UNL     1      15.098  -5.720  13.865  1.00  0.00     0.038 C 
BRANCH   7   8
ATOM      8  C   UNL     1      14.415  -5.439  15.179  1.00  0.00    -0.034 C 
ATOM      9  C   UNL     1      13.372  -4.608  15.267  1.00  0.00     0.004 C 
ENDBRANCH   7   8
ENDBRANCH   1   7
TORSDOF 4
ENDMDL
MODEL 9
REMARK VINA RESULT:    -3.143      1.730      3.769
REMARK INTER + INTRA:          -4.361
REMARK INTER:                  -3.887
REMARK INTRA:                  -0.474
REMARK UNBOUND:                -0.483
REMARK SMILES C=CC[C@@H](C)C(=O)CC
REMARK SMILES IDX 4 1 5 2 6 3 7 4 8 5 9 6 3 7 2 8 1 9
REMARK H PARENT
REMARK Flexibility Score: inf
ROOT
ATOM      1  C   UNL     1      17.598  -6.396  13.906  1.00  0.00     0.057 C 
ATOM      2  C   UNL     1      17.361  -6.726  15.387  1.00  0.00     0.016 C 
ENDROOT
BRANCH   1   3
ATOM      3  C   UNL     1      18.123  -7.604  13.154  1.00  0.00     0.135 C 
ATOM      4  O   UNL     1      18.485  -7.489  11.992  1.00  0.00    -0.299 OA
BRANCH   3   5
ATOM      5  C   UNL     1      18.200  -8.957  13.812  1.00  0.00     0.072 C 
ATOM      6  C   UNL     1      17.478 -10.007  12.973  1.00  0.00     0.012 C 
ENDBRANCH   3   5
ENDBRANCH   1   3
BRANCH   1   7
ATOM      7  C   UNL     1      16.344  -5.806  13.229  1.00  0.00     0.038 C 
BRANCH   7   8
ATOM      8  C   UNL     1      15.069  -6.521  13.596  1.00  0.00    -0.034 C 
ATOM      9  C   UNL     1      14.438  -7.322  12.732  1.00  0.00     0.004 C 
ENDBRANCH   7   8
ENDBRANCH   1   7
TORSDOF 4
ENDMDL
