MODEL 1
REMARK VINA RESULT:    -2.790      0.000      0.000
REMARK INTER + INTRA:          -3.836
REMARK INTER:                  -3.769
REMARK INTRA:                  -0.067
REMARK UNBOUND:                -0.067
REMARK SMILES [NH3+]CCCC[C@@H]([NH3+])C(=O)[O-]
REMARK SMILES IDX 4 1 3 2 2 3 1 4 5 8 6 9 7 10 8 14 9 15 10 16
REMARK H PARENT 1 5 1 6 1 7 7 11 7 12 7 13
REMARK Flexibility Score: inf
ROOT
ATOM      1  C   UNL     1       2.307   4.107  -4.889  1.00  0.00     0.012 C 
ENDROOT
BRANCH   1   2
ATOM      2  C   UNL     1       3.710   3.603  -4.527  1.00  0.00     0.061 C 
BRANCH   2   3
ATOM      3  C   UNL     1       4.793   4.434  -5.229  1.00  0.00     0.258 C 
BRANCH   3   4
ATOM      4  N   UNL     1       6.129   4.006  -4.816  1.00  0.00    -0.358 N 
ATOM      5  H   UNL     1       6.149   3.905  -3.775  1.00  0.00     0.344 HD
ATOM      6  H   UNL     1       6.839   4.719  -5.100  1.00  0.00     0.344 HD
ATOM      7  H   UNL     1       6.360   3.082  -5.249  1.00  0.00     0.344 HD
ENDBRANCH   3   4
ENDBRANCH   2   3
ENDBRANCH   1   2
BRANCH   1   8
ATOM      8  C   UNL     1       1.224   3.230  -4.241  1.00  0.00     0.072 C 
BRANCH   8   9
ATOM      9  C   UNL     1       0.459   3.963  -3.117  1.00  0.00     0.227 C 
BRANCH   9  10
ATOM     10  N   UNL     1      -0.562   4.873  -3.656  1.00  0.00    -0.350 N 
ATOM     11  H   UNL     1      -0.262   5.239  -4.588  1.00  0.00     0.345 HD
ATOM     12  H   UNL     1      -0.680   5.694  -3.020  1.00  0.00     0.345 HD
ATOM     13  H   UNL     1      -1.482   4.383  -3.755  1.00  0.00     0.345 HD
ENDBRANCH   9  10
BRANCH   9  14
ATOM     14  C   UNL     1      -0.184   2.951  -2.206  1.00  0.00     0.099 C 
ATOM     15  O   UNL     1      -0.104   3.083  -0.956  1.00  0.00    -0.544 OA
ATOM     16  O   UNL     1      -0.852   1.854  -2.737  1.00  0.00    -0.544 OA
ENDBRANCH   9  14
ENDBRANCH   8   9
ENDBRANCH   1   8
TORSDOF 7
ENDMDL
MODEL 2
REMARK VINA RESULT:    -2.758      3.905      4.574
REMARK INTER + INTRA:          -3.793
REMARK INTER:                  -3.234
REMARK INTRA:                  -0.558
REMARK UNBOUND:                -0.067
REMARK SMILES [NH3+]CCCC[C@@H]([NH3+])C(=O)[O-]
REMARK SMILES IDX 4 1 3 2 2 3 1 4 5 8 6 9 7 10 8 14 9 15 10 16
REMARK H PARENT 1 5 1 6 1 7 7 11 7 12 7 13
REMARK Flexibility Score: inf
ROOT
ATOM      1  C   UNL     1       4.864   2.136  -5.326  1.00  0.00     0.012 C 
ENDROOT
BRANCH   1   2
ATOM      2  C   UNL     1       6.081   2.309  -6.243  1.00  0.00     0.061 C 
BRANCH   2   3
ATOM      3  C   UNL     1       7.327   2.702  -5.437  1.00  0.00     0.258 C 
BRANCH   3   4
ATOM      4  N   UNL     1       7.180   4.041  -4.868  1.00  0.00    -0.358 N 
ATOM      5  H   UNL     1       7.088   4.734  -5.646  1.00  0.00     0.344 HD
ATOM      6  H   UNL     1       8.023   4.284  -4.298  1.00  0.00     0.344 HD
ATOM      7  H   UNL     1       6.323   4.086  -4.272  1.00  0.00     0.344 HD
ENDBRANCH   3   4
ENDBRANCH   2   3
ENDBRANCH   1   2
BRANCH   1   8
ATOM      8  C   UNL     1       3.637   2.866  -5.898  1.00  0.00     0.072 C 
BRANCH   8   9
ATOM      9  C   UNL     1       3.232   4.096  -5.056  1.00  0.00     0.227 C 
BRANCH   9  10
ATOM     10  N   UNL     1       3.855   4.076  -3.725  1.00  0.00    -0.350 N 
ATOM     11  H   UNL     1       3.792   3.118  -3.313  1.00  0.00     0.345 HD
ATOM     12  H   UNL     1       3.348   4.727  -3.084  1.00  0.00     0.345 HD
ATOM     13  H   UNL     1       4.859   4.366  -3.780  1.00  0.00     0.345 HD
ENDBRANCH   9  10
BRANCH   9  14
ATOM     14  C   UNL     1       3.623   5.353  -5.788  1.00  0.00     0.099 C 
ATOM     15  O   UNL     1       2.737   6.097  -6.287  1.00  0.00    -0.544 OA
ATOM     16  O   UNL     1       4.963   5.691  -5.934  1.00  0.00    -0.544 OA
ENDBRANCH   9  14
ENDBRANCH   8   9
ENDBRANCH   1   8
TORSDOF 7
ENDMDL
MODEL 3
REMARK VINA RESULT:    -2.747     10.895     11.400
REMARK INTER + INTRA:          -3.777
REMARK INTER:                  -3.554
REMARK INTRA:                  -0.223
REMARK UNBOUND:                -0.067
REMARK SMILES [NH3+]CCCC[C@@H]([NH3+])C(=O)[O-]
REMARK SMILES IDX 4 1 3 2 2 3 1 4 5 8 6 9 7 10 8 14 9 15 10 16
REMARK H PARENT 1 5 1 6 1 7 7 11 7 12 7 13
REMARK Flexibility Score: inf
ROOT
ATOM      1  C   UNL     1       4.396   6.917   6.816  1.00  0.00     0.012 C 
ENDROOT
BRANCH   1   2
ATOM      2  C   UNL     1       5.307   8.093   7.191  1.00  0.00     0.061 C 
BRANCH   2   3
ATOM      3  C   UNL     1       4.686   9.430   6.764  1.00  0.00     0.258 C 
BRANCH   3   4
ATOM      4  N   UNL     1       4.269   9.388   5.363  1.00  0.00    -0.358 N 
ATOM      5  H   UNL     1       5.008   9.835   4.773  1.00  0.00     0.344 HD
ATOM      6  H   UNL     1       3.374   9.915   5.239  1.00  0.00     0.344 HD
ATOM      7  H   UNL     1       4.144   8.397   5.055  1.00  0.00     0.344 HD
ENDBRANCH   3   4
ENDBRANCH   2   3
ENDBRANCH   1   2
BRANCH   1   8
ATOM      8  C   UNL     1       3.350   6.660   7.912  1.00  0.00     0.072 C 
BRANCH   8   9
ATOM      9  C   UNL     1       1.923   6.497   7.345  1.00  0.00     0.227 C 
BRANCH   9  10
ATOM     10  N   UNL     1       1.838   6.939   5.946  1.00  0.00    -0.350 N 
ATOM     11  H   UNL     1       2.795   7.015   5.534  1.00  0.00     0.345 HD
ATOM     12  H   UNL     1       1.400   7.887   5.898  1.00  0.00     0.345 HD
ATOM     13  H   UNL     1       1.267   6.270   5.379  1.00  0.00     0.345 HD
ENDBRANCH   9  10
BRANCH   9  14
ATOM     14  C   UNL     1       1.501   5.056   7.456  1.00  0.00     0.099 C 
ATOM     15  O   UNL     1       1.011   4.460   6.460  1.00  0.00    -0.544 OA
ATOM     16  O   UNL     1       1.632   4.379   8.663  1.00  0.00    -0.544 OA
ENDBRANCH   9  14
ENDBRANCH   8   9
ENDBRANCH   1   8
TORSDOF 7
ENDMDL
MODEL 4
REMARK VINA RESULT:    -2.682     10.158     10.889
REMARK INTER + INTRA:          -3.690
REMARK INTER:                  -3.212
REMARK INTRA:                  -0.477
REMARK UNBOUND:                -0.067
REMARK SMILES [NH3+]CCCC[C@@H]([NH3+])C(=O)[O-]
REMARK SMILES IDX 4 1 3 2 2 3 1 4 5 8 6 9 7 10 8 14 9 15 10 16
REMARK H PARENT 1 5 1 6 1 7 7 11 7 12 7 13
REMARK Flexibility Score: inf
ROOT
ATOM      1  C   UNL     1      -0.823   6.088   5.428  1.00  0.00     0.012 C 
ENDROOT
BRANCH   1   2
ATOM      2  C   UNL     1       0.191   7.035   4.774  1.00  0.00     0.061 C 
BRANCH   2   3
ATOM      3  C   UNL     1       0.825   7.968   5.814  1.00  0.00     0.258 C 
BRANCH   3   4
ATOM      4  N   UNL     1       2.207   7.579   6.091  1.00  0.00    -0.358 N 
ATOM      5  H   UNL     1       2.780   7.715   5.226  1.00  0.00     0.344 HD
ATOM      6  H   UNL     1       2.249   6.572   6.369  1.00  0.00     0.344 HD
ATOM      7  H   UNL     1       2.603   8.175   6.854  1.00  0.00     0.344 HD
ENDBRANCH   3   4
ENDBRANCH   2   3
ENDBRANCH   1   2
BRANCH   1   8
ATOM      8  C   UNL     1      -0.197   4.709   5.694  1.00  0.00     0.072 C 
BRANCH   8   9
ATOM      9  C   UNL     1      -0.350   4.261   7.164  1.00  0.00     0.227 C 
BRANCH   9  10
ATOM     10  N   UNL     1      -0.947   2.923   7.267  1.00  0.00    -0.350 N 
ATOM     11  H   UNL     1      -0.844   2.412   6.362  1.00  0.00     0.345 HD
ATOM     12  H   UNL     1      -1.970   3.004   7.467  1.00  0.00     0.345 HD
ATOM     13  H   UNL     1      -0.493   2.371   8.032  1.00  0.00     0.345 HD
ENDBRANCH   9  10
BRANCH   9  14
ATOM     14  C   UNL     1       0.999   4.276   7.834  1.00  0.00     0.099 C 
ATOM     15  O   UNL     1       1.944   4.948   7.342  1.00  0.00    -0.544 OA
ATOM     16  O   UNL     1       1.216   3.533   8.988  1.00  0.00    -0.544 OA
ENDBRANCH   9  14
ENDBRANCH   8   9
ENDBRANCH   1   8
TORSDOF 7
ENDMDL
MODEL 5
REMARK VINA RESULT:    -2.634      1.310      1.671
REMARK INTER + INTRA:          -3.624
REMARK INTER:                  -3.534
REMARK INTRA:                  -0.090
REMARK UNBOUND:                -0.067
REMARK SMILES [NH3+]CCCC[C@@H]([NH3+])C(=O)[O-]
REMARK SMILES IDX 4 1 3 2 2 3 1 4 5 8 6 9 7 10 8 14 9 15 10 16
REMARK H PARENT 1 5 1 6 1 7 7 11 7 12 7 13
REMARK Flexibility Score: inf
ROOT
ATOM      1  C   UNL     1       0.908   4.152  -3.846  1.00  0.00     0.012 C 
ENDROOT
BRANCH   1   2
ATOM      2  C   UNL     1       1.979   3.309  -4.550  1.00  0.00     0.061 C 
BRANCH   2   3
ATOM      3  C   UNL     1       3.303   4.078  -4.662  1.00  0.00     0.258 C 
BRANCH   3   4
ATOM      4  N   UNL     1       4.444   3.176  -4.510  1.00  0.00    -0.358 N 
ATOM      5  H   UNL     1       5.261   3.718  -4.147  1.00  0.00     0.344 HD
ATOM      6  H   UNL     1       4.699   2.760  -5.435  1.00  0.00     0.344 HD
ATOM      7  H   UNL     1       4.213   2.416  -3.830  1.00  0.00     0.344 HD
ENDBRANCH   3   4
ENDBRANCH   2   3
ENDBRANCH   1   2
BRANCH   1   8
ATOM      8  C   UNL     1       0.954   3.942  -2.324  1.00  0.00     0.072 C 
BRANCH   8   9
ATOM      9  C   UNL     1      -0.328   4.433  -1.618  1.00  0.00     0.227 C 
BRANCH   9  10
ATOM     10  N   UNL     1      -1.084   5.378  -2.452  1.00  0.00    -0.350 N 
ATOM     11  H   UNL     1      -2.013   4.972  -2.703  1.00  0.00     0.345 HD
ATOM     12  H   UNL     1      -0.568   5.556  -3.344  1.00  0.00     0.345 HD
ATOM     13  H   UNL     1      -1.224   6.286  -1.952  1.00  0.00     0.345 HD
ENDBRANCH   9  10
BRANCH   9  14
ATOM     14  C   UNL     1      -1.192   3.250  -1.269  1.00  0.00     0.099 C 
ATOM     15  O   UNL     1      -1.811   3.218  -0.173  1.00  0.00    -0.544 OA
ATOM     16  O   UNL     1      -1.297   2.177  -2.146  1.00  0.00    -0.544 OA
ENDBRANCH   9  14
ENDBRANCH   8   9
ENDBRANCH   1   8
TORSDOF 7
ENDMDL
MODEL 6
REMARK VINA RESULT:    -2.622     10.822     11.835
REMARK INTER + INTRA:          -3.609
REMARK INTER:                  -3.085
REMARK INTRA:                  -0.524
REMARK UNBOUND:                -0.067
REMARK SMILES [NH3+]CCCC[C@@H]([NH3+])C(=O)[O-]
REMARK SMILES IDX 4 1 3 2 2 3 1 4 5 8 6 9 7 10 8 14 9 15 10 16
REMARK H PARENT 1 5 1 6 1 7 7 11 7 12 7 13
REMARK Flexibility Score: inf
ROOT
ATOM      1  C   UNL     1       1.533   6.326   8.934  1.00  0.00     0.012 C 
ENDROOT
BRANCH   1   2
ATOM      2  C   UNL     1       3.056   6.320   8.751  1.00  0.00     0.061 C 
BRANCH   2   3
ATOM      3  C   UNL     1       3.466   7.123   7.509  1.00  0.00     0.258 C 
BRANCH   3   4
ATOM      4  N   UNL     1       3.252   6.344   6.290  1.00  0.00    -0.358 N 
ATOM      5  H   UNL     1       2.544   5.599   6.481  1.00  0.00     0.344 HD
ATOM      6  H   UNL     1       4.146   5.892   5.991  1.00  0.00     0.344 HD
ATOM      7  H   UNL     1       2.894   6.963   5.527  1.00  0.00     0.344 HD
ENDBRANCH   3   4
ENDBRANCH   2   3
ENDBRANCH   1   2
BRANCH   1   8
ATOM      8  C   UNL     1       1.021   4.932   9.331  1.00  0.00     0.072 C 
BRANCH   8   9
ATOM      9  C   UNL     1       1.044   3.933   8.154  1.00  0.00     0.227 C 
BRANCH   9  10
ATOM     10  N   UNL     1       0.571   2.602   8.559  1.00  0.00    -0.350 N 
ATOM     11  H   UNL     1       0.157   2.102   7.739  1.00  0.00     0.345 HD
ATOM     12  H   UNL     1      -0.179   2.695   9.281  1.00  0.00     0.345 HD
ATOM     13  H   UNL     1       1.355   2.033   8.954  1.00  0.00     0.345 HD
ENDBRANCH   9  10
BRANCH   9  14
ATOM     14  C   UNL     1       0.191   4.462   7.031  1.00  0.00     0.099 C 
ATOM     15  O   UNL     1      -1.047   4.621   7.196  1.00  0.00    -0.544 OA
ATOM     16  O   UNL     1       0.762   4.761   5.799  1.00  0.00    -0.544 OA
ENDBRANCH   9  14
ENDBRANCH   8   9
ENDBRANCH   1   8
TORSDOF 7
ENDMDL
MODEL 7
REMARK VINA RESULT:    -2.619     10.474     11.638
REMARK INTER + INTRA:          -3.604
REMARK INTER:                  -3.084
REMARK INTRA:                  -0.520
REMARK UNBOUND:                -0.067
REMARK SMILES [NH3+]CCCC[C@@H]([NH3+])C(=O)[O-]
REMARK SMILES IDX 4 1 3 2 2 3 1 4 5 8 6 9 7 10 8 14 9 15 10 16
REMARK H PARENT 1 5 1 6 1 7 7 11 7 12 7 13
REMARK Flexibility Score: inf
ROOT
ATOM      1  C   UNL     1       0.359   7.227   6.079  1.00  0.00     0.012 C 
ENDROOT
BRANCH   1   2
ATOM      2  C   UNL     1       0.482   5.876   5.364  1.00  0.00     0.061 C 
BRANCH   2   3
ATOM      3  C   UNL     1      -0.626   4.912   5.810  1.00  0.00     0.258 C 
BRANCH   3   4
ATOM      4  N   UNL     1      -0.085   3.855   6.664  1.00  0.00    -0.358 N 
ATOM      5  H   UNL     1      -0.866   3.419   7.205  1.00  0.00     0.344 HD
ATOM      6  H   UNL     1       0.609   4.256   7.337  1.00  0.00     0.344 HD
ATOM      7  H   UNL     1       0.373   3.119   6.079  1.00  0.00     0.344 HD
ENDBRANCH   3   4
ENDBRANCH   2   3
ENDBRANCH   1   2
BRANCH   1   8
ATOM      8  C   UNL     1       1.627   7.538   6.890  1.00  0.00     0.072 C 
BRANCH   8   9
ATOM      9  C   UNL     1       2.586   6.331   6.980  1.00  0.00     0.227 C 
BRANCH   9  10
ATOM     10  N   UNL     1       3.948   6.682   6.556  1.00  0.00    -0.350 N 
ATOM     11  H   UNL     1       4.594   6.675   7.377  1.00  0.00     0.345 HD
ATOM     12  H   UNL     1       3.959   7.648   6.157  1.00  0.00     0.345 HD
ATOM     13  H   UNL     1       4.297   6.011   5.833  1.00  0.00     0.345 HD
ENDBRANCH   9  10
BRANCH   9  14
ATOM     14  C   UNL     1       2.605   5.812   8.394  1.00  0.00     0.099 C 
ATOM     15  O   UNL     1       3.385   6.318   9.244  1.00  0.00    -0.544 OA
ATOM     16  O   UNL     1       1.776   4.760   8.766  1.00  0.00    -0.544 OA
ENDBRANCH   9  14
ENDBRANCH   8   9
ENDBRANCH   1   8
TORSDOF 7
ENDMDL
MODEL 8
REMARK VINA RESULT:    -2.611      1.157      1.522
REMARK INTER + INTRA:          -3.593
REMARK INTER:                  -3.467
REMARK INTRA:                  -0.127
REMARK UNBOUND:                -0.067
REMARK SMILES [NH3+]CCCC[C@@H]([NH3+])C(=O)[O-]
REMARK SMILES IDX 4 1 3 2 2 3 1 4 5 8 6 9 7 10 8 14 9 15 10 16
REMARK H PARENT 1 5 1 6 1 7 7 11 7 12 7 13
REMARK Flexibility Score: inf
ROOT
ATOM      1  C   UNL     1       2.468   3.535  -5.090  1.00  0.00     0.012 C 
ENDROOT
BRANCH   1   2
ATOM      2  C   UNL     1       3.676   4.092  -4.328  1.00  0.00     0.061 C 
BRANCH   2   3
ATOM      3  C   UNL     1       4.819   4.448  -5.289  1.00  0.00     0.258 C 
BRANCH   3   4
ATOM      4  N   UNL     1       6.106   3.998  -4.760  1.00  0.00    -0.358 N 
ATOM      5  H   UNL     1       6.497   4.741  -4.137  1.00  0.00     0.344 HD
ATOM      6  H   UNL     1       6.776   3.827  -5.543  1.00  0.00     0.344 HD
ATOM      7  H   UNL     1       5.978   3.123  -4.202  1.00  0.00     0.344 HD
ENDBRANCH   3   4
ENDBRANCH   2   3
ENDBRANCH   1   2
BRANCH   1   8
ATOM      8  C   UNL     1       1.151   4.044  -4.482  1.00  0.00     0.072 C 
BRANCH   8   9
ATOM      9  C   UNL     1       0.742   3.265  -3.213  1.00  0.00     0.227 C 
BRANCH   9  10
ATOM     10  N   UNL     1       0.616   4.150  -2.047  1.00  0.00    -0.350 N 
ATOM     11  H   UNL     1       0.053   4.995  -2.295  1.00  0.00     0.345 HD
ATOM     12  H   UNL     1       1.561   4.480  -1.746  1.00  0.00     0.345 HD
ATOM     13  H   UNL     1       0.159   3.651  -1.249  1.00  0.00     0.345 HD
ENDBRANCH   9  10
BRANCH   9  14
ATOM     14  C   UNL     1      -0.562   2.553  -3.462  1.00  0.00     0.099 C 
ATOM     15  O   UNL     1      -1.083   2.567  -4.608  1.00  0.00    -0.544 OA
ATOM     16  O   UNL     1      -1.207   1.891  -2.424  1.00  0.00    -0.544 OA
ENDBRANCH   9  14
ENDBRANCH   8   9
ENDBRANCH   1   8
TORSDOF 7
ENDMDL
MODEL 9
REMARK VINA RESULT:    -2.604     10.971     11.542
REMARK INTER + INTRA:          -3.585
REMARK INTER:                  -3.136
REMARK INTRA:                  -0.449
REMARK UNBOUND:                -0.067
REMARK SMILES [NH3+]CCCC[C@@H]([NH3+])C(=O)[O-]
REMARK SMILES IDX 4 1 3 2 2 3 1 4 5 8 6 9 7 10 8 14 9 15 10 16
REMARK H PARENT 1 5 1 6 1 7 7 11 7 12 7 13
REMARK Flexibility Score: inf
ROOT
ATOM      1  C   UNL     1       1.727   7.421   6.480  1.00  0.00     0.012 C 
ENDROOT
BRANCH   1   2
ATOM      2  C   UNL     1       3.072   8.075   6.816  1.00  0.00     0.061 C 
BRANCH   2   3
ATOM      3  C   UNL     1       4.194   7.030   6.883  1.00  0.00     0.258 C 
BRANCH   3   4
ATOM      4  N   UNL     1       4.722   6.917   8.242  1.00  0.00    -0.358 N 
ATOM      5  H   UNL     1       4.706   7.860   8.694  1.00  0.00     0.344 HD
ATOM      6  H   UNL     1       5.708   6.571   8.217  1.00  0.00     0.344 HD
ATOM      7  H   UNL     1       4.130   6.262   8.804  1.00  0.00     0.344 HD
ENDBRANCH   3   4
ENDBRANCH   2   3
ENDBRANCH   1   2
BRANCH   1   8
ATOM      8  C   UNL     1       1.867   5.893   6.383  1.00  0.00     0.072 C 
BRANCH   8   9
ATOM      9  C   UNL     1       0.781   5.144   7.187  1.00  0.00     0.227 C 
BRANCH   9  10
ATOM     10  N   UNL     1       0.132   4.098   6.384  1.00  0.00    -0.350 N 
ATOM     11  H   UNL     1      -0.896   4.277   6.323  1.00  0.00     0.345 HD
ATOM     12  H   UNL     1       0.262   3.167   6.841  1.00  0.00     0.345 HD
ATOM     13  H   UNL     1       0.536   4.065   5.420  1.00  0.00     0.345 HD
ENDBRANCH   9  10
BRANCH   9  14
ATOM     14  C   UNL     1       1.398   4.538   8.419  1.00  0.00     0.099 C 
ATOM     15  O   UNL     1       1.129   3.352   8.745  1.00  0.00    -0.544 OA
ATOM     16  O   UNL     1       2.254   5.290   9.216  1.00  0.00    -0.544 OA
ENDBRANCH   9  14
ENDBRANCH   8   9
ENDBRANCH   1   8
TORSDOF 7
ENDMDL
