MODEL 1
REMARK VINA RESULT:     0.027      0.000      0.000
REMARK INTER + INTRA:          -0.136
REMARK INTER:                   0.036
REMARK INTRA:                  -0.172
REMARK UNBOUND:                -0.172
REMARK SMILES CC[C@@H](CC[C@H](C)[C@H]1CC[C@@H]2[C@H]3CC(=O)C4=CC(=O)CC[C@@]4(C)[C@@H]3CC[C@@]21C)C(C)C
REMARK SMILES IDX 4 1 3 2 2 3 1 4 29 5 30 6 31 7 5 8 6 9 7 10 8 11 9 12 27 13
REMARK SMILES IDX 10 14 11 15 26 16 28 17 12 18 25 19 24 20 13 21 22 22 14 23
REMARK SMILES IDX 16 24 21 25 23 26 15 27 17 28 20 29 18 30 19 31
REMARK H PARENT
REMARK Flexibility Score: inf
ROOT
ATOM      1  C   UNL     1      -7.096  -9.892  35.340  1.00  0.00     0.004 C 
ENDROOT
BRANCH   1   2
ATOM      2  C   UNL     1      -8.403 -10.562  35.860  1.00  0.00    -0.009 C 
BRANCH   2   3
ATOM      3  C   UNL     1      -9.643  -9.917  35.172  1.00  0.00     0.000 C 
ATOM      4  C   UNL     1     -10.705 -10.915  34.711  1.00  0.00     0.004 C 
ENDBRANCH   2   3
BRANCH   2   5
ATOM      5  C   UNL     1      -8.425 -10.537  37.431  1.00  0.00    -0.014 C 
ATOM      6  C   UNL     1      -7.162  -9.912  38.050  1.00  0.00     0.007 C 
ATOM      7  C   UNL     1      -8.730 -11.901  38.070  1.00  0.00     0.007 C 
ENDBRANCH   2   5
ENDBRANCH   1   2
BRANCH   1   8
ATOM      8  C   UNL     1      -5.851 -10.798  35.459  1.00  0.00     0.004 C 
BRANCH   8   9
ATOM      9  C   UNL     1      -6.058 -12.201  34.821  1.00  0.00    -0.011 C 
ATOM     10  C   UNL     1      -6.326 -13.257  35.916  1.00  0.00     0.008 C 
BRANCH   9  11
ATOM     11  C   UNL     1      -4.858 -12.562  33.865  1.00  0.00    -0.002 C 
ATOM     12  C   UNL     1      -4.789 -14.056  33.536  1.00  0.00     0.005 C 
ATOM     13  C   UNL     1      -4.785 -11.844  32.467  1.00  0.00    -0.026 C 
ATOM     14  C   UNL     1      -5.447 -14.229  32.179  1.00  0.00     0.005 C 
ATOM     15  C   UNL     1      -5.331 -12.882  31.437  1.00  0.00    -0.001 C 
ATOM     16  C   UNL     1      -3.296 -11.531  32.153  1.00  0.00     0.007 C 
ATOM     17  C   UNL     1      -5.585 -10.511  32.414  1.00  0.00     0.012 C 
ATOM     18  C   UNL     1      -4.489 -13.042  30.121  1.00  0.00     0.004 C 
ATOM     19  C   UNL     1      -3.075 -10.965  30.743  1.00  0.00     0.005 C 
ATOM     20  C   UNL     1      -3.887 -11.692  29.627  1.00  0.00     0.003 C 
ATOM     21  C   UNL     1      -5.384 -13.681  29.034  1.00  0.00     0.085 C 
ATOM     22  C   UNL     1      -3.078 -11.820  28.271  1.00  0.00    -0.000 C 
ATOM     23  C   UNL     1      -4.730 -13.722  27.693  1.00  0.00     0.159 C 
ATOM     24  C   UNL     1      -3.913 -12.581  27.239  1.00  0.00     0.005 C 
ATOM     25  C   UNL     1      -2.771 -10.384  27.739  1.00  0.00     0.020 C 
ATOM     26  C   UNL     1      -1.749 -12.609  28.445  1.00  0.00     0.017 C 
ATOM     27  O   UNL     1      -4.959 -14.695  26.925  1.00  0.00    -0.295 OA
ATOM     28  C   UNL     1      -3.812 -12.323  25.922  1.00  0.00     0.055 C 
ATOM     29  C   UNL     1      -2.160 -10.385  26.333  1.00  0.00     0.081 C 
ATOM     30  C   UNL     1      -2.972 -11.233  25.404  1.00  0.00     0.156 C 
ATOM     31  O   UNL     1      -2.901 -11.038  24.161  1.00  0.00    -0.295 OA
ENDBRANCH   9  11
ENDBRANCH   8   9
ENDBRANCH   1   8
TORSDOF 6
ENDMDL
