MODEL 1
REMARK VINA RESULT:    -4.196      0.000      0.000
REMARK INTER + INTRA:          -4.318
REMARK INTER:                  -4.318
REMARK INTRA:                   0.000
REMARK UNBOUND:                 0.000
REMARK SMILES CC1(C)[C@H]2CC[C@]1(C)[C@H](O)C2
REMARK SMILES IDX 1 1 2 2 4 3 5 4 6 5 7 6 9 7 11 8 8 9 3 10 10 11
REMARK H PARENT 10 12
REMARK Flexibility Score: inf
ROOT
ATOM      1  C   UNL     1     116.909 118.898 114.590  1.00  0.00     0.012 C 
ATOM      2  C   UNL     1     117.555 118.358 113.277  1.00  0.00    -0.025 C 
ATOM      3  C   UNL     1     119.064 118.636 113.168  1.00  0.00    -0.002 C 
ATOM      4  C   UNL     1     119.662 117.828 114.345  1.00  0.00     0.005 C 
ATOM      5  C   UNL     1     118.762 116.577 114.393  1.00  0.00     0.010 C 
ATOM      6  C   UNL     1     117.771 116.827 113.220  1.00  0.00    -0.001 C 
ATOM      7  C   UNL     1     118.561 116.641 111.889  1.00  0.00     0.121 C 
ATOM      8  C   UNL     1     119.479 117.886 111.876  1.00  0.00     0.036 C 
ATOM      9  C   UNL     1     116.502 115.970 113.303  1.00  0.00     0.015 C 
ATOM     10  C   UNL     1     116.719 118.969 112.109  1.00  0.00     0.012 C 
ENDROOT
BRANCH   7  11
ATOM     11  O   UNL     1     119.304 115.449 111.876  1.00  0.00    -0.393 OA
ATOM     12  H   UNL     1     118.650 114.709 111.974  1.00  0.00     0.210 HD
ENDBRANCH   7  11
TORSDOF 1
ENDMDL
MODEL 2
REMARK VINA RESULT:    -4.187      2.200      3.501
REMARK INTER + INTRA:          -4.309
REMARK INTER:                  -4.309
REMARK INTRA:                   0.000
REMARK UNBOUND:                 0.000
REMARK SMILES CC1(C)[C@H]2CC[C@]1(C)[C@H](O)C2
REMARK SMILES IDX 1 1 2 2 4 3 5 4 6 5 7 6 9 7 11 8 8 9 3 10 10 11
REMARK H PARENT 10 12
REMARK Flexibility Score: inf
ROOT
ATOM      1  C   UNL     1     114.357 116.782 114.770  1.00  0.00     0.012 C 
ATOM      2  C   UNL     1     114.840 117.382 113.414  1.00  0.00    -0.025 C 
ATOM      3  C   UNL     1     114.451 118.857 113.213  1.00  0.00    -0.002 C 
ATOM      4  C   UNL     1     115.220 119.585 114.342  1.00  0.00     0.005 C 
ATOM      5  C   UNL     1     116.535 118.784 114.433  1.00  0.00     0.010 C 
ATOM      6  C   UNL     1     116.350 117.705 113.327  1.00  0.00    -0.001 C 
ATOM      7  C   UNL     1     116.471 118.421 111.947  1.00  0.00     0.121 C 
ATOM      8  C   UNL     1     115.161 119.243 111.890  1.00  0.00     0.036 C 
ATOM      9  C   UNL     1     117.299 116.510 113.480  1.00  0.00     0.015 C 
ATOM     10  C   UNL     1     114.285 116.432 112.307  1.00  0.00     0.012 C 
ENDROOT
BRANCH   7  11
ATOM     11  O   UNL     1     117.605 119.247 111.875  1.00  0.00    -0.393 OA
ATOM     12  H   UNL     1     117.642 119.748 112.731  1.00  0.00     0.210 HD
ENDBRANCH   7  11
TORSDOF 1
ENDMDL
MODEL 3
REMARK VINA RESULT:    -4.144      2.843      4.822
REMARK INTER + INTRA:          -4.265
REMARK INTER:                  -4.265
REMARK INTRA:                   0.000
REMARK UNBOUND:                 0.000
REMARK SMILES CC1(C)[C@H]2CC[C@]1(C)[C@H](O)C2
REMARK SMILES IDX 1 1 2 2 4 3 5 4 6 5 7 6 9 7 11 8 8 9 3 10 10 11
REMARK H PARENT 10 12
REMARK Flexibility Score: inf
ROOT
ATOM      1  C   UNL     1     116.382 114.359 114.839  1.00  0.00     0.012 C 
ATOM      2  C   UNL     1     115.805 114.826 113.468  1.00  0.00    -0.025 C 
ATOM      3  C   UNL     1     114.344 114.406 113.233  1.00  0.00    -0.002 C 
ATOM      4  C   UNL     1     113.573 115.163 114.341  1.00  0.00     0.005 C 
ATOM      5  C   UNL     1     114.344 116.494 114.447  1.00  0.00     0.010 C 
ATOM      6  C   UNL     1     115.453 116.329 113.368  1.00  0.00    -0.001 C 
ATOM      7  C   UNL     1     114.768 116.431 111.972  1.00  0.00     0.121 C 
ATOM      8  C   UNL     1     113.975 115.105 111.899  1.00  0.00     0.036 C 
ATOM      9  C   UNL     1     116.624 117.303 113.547  1.00  0.00     0.015 C 
ATOM     10  C   UNL     1     116.793 114.289 112.385  1.00  0.00     0.012 C 
ENDROOT
BRANCH   7  11
ATOM     11  O   UNL     1     113.921 117.548 111.876  1.00  0.00    -0.393 OA
ATOM     12  H   UNL     1     114.051 117.922 110.966  1.00  0.00     0.210 HD
ENDBRANCH   7  11
TORSDOF 1
ENDMDL
MODEL 4
REMARK VINA RESULT:    -4.118      2.163      3.411
REMARK INTER + INTRA:          -4.238
REMARK INTER:                  -4.238
REMARK INTRA:                   0.000
REMARK UNBOUND:                 0.000
REMARK SMILES CC1(C)[C@H]2CC[C@]1(C)[C@H](O)C2
REMARK SMILES IDX 1 1 2 2 4 3 5 4 6 5 7 6 9 7 11 8 8 9 3 10 10 11
REMARK H PARENT 10 12
REMARK Flexibility Score: inf
ROOT
ATOM      1  C   UNL     1     118.874 116.362 114.550  1.00  0.00     0.012 C 
ATOM      2  C   UNL     1     118.297 115.715 113.254  1.00  0.00    -0.025 C 
ATOM      3  C   UNL     1     118.551 114.201 113.148  1.00  0.00    -0.002 C 
ATOM      4  C   UNL     1     117.759 113.623 114.345  1.00  0.00     0.005 C 
ATOM      5  C   UNL     1     116.522 114.542 114.414  1.00  0.00     0.010 C 
ATOM      6  C   UNL     1     116.763 115.521 113.230  1.00  0.00    -0.001 C 
ATOM      7  C   UNL     1     116.536 114.726 111.908  1.00  0.00     0.121 C 
ATOM      8  C   UNL     1     117.767 113.790 111.875  1.00  0.00     0.036 C 
ATOM      9  C   UNL     1     115.926 116.804 113.323  1.00  0.00     0.015 C 
ATOM     10  C   UNL     1     118.895 116.535 112.067  1.00  0.00     0.012 C 
ENDROOT
BRANCH   7  11
ATOM     11  O   UNL     1     115.333 114.001 111.925  1.00  0.00    -0.393 OA
ATOM     12  H   UNL     1     114.608 114.664 112.071  1.00  0.00     0.210 HD
ENDBRANCH   7  11
TORSDOF 1
ENDMDL
MODEL 5
REMARK VINA RESULT:    -4.007      1.507      2.734
REMARK INTER + INTRA:          -4.125
REMARK INTER:                  -4.125
REMARK INTRA:                   0.000
REMARK UNBOUND:                 0.000
REMARK SMILES CC1(C)[C@H]2CC[C@]1(C)[C@H](O)C2
REMARK SMILES IDX 1 1 2 2 4 3 5 4 6 5 7 6 9 7 11 8 8 9 3 10 10 11
REMARK H PARENT 10 12
REMARK Flexibility Score: inf
ROOT
ATOM      1  C   UNL     1     116.304 115.910 113.248  1.00  0.00     0.012 C 
ATOM      2  C   UNL     1     117.681 116.516 112.838  1.00  0.00    -0.025 C 
ATOM      3  C   UNL     1     117.571 117.816 112.022  1.00  0.00    -0.002 C 
ATOM      4  C   UNL     1     116.907 118.802 113.013  1.00  0.00     0.005 C 
ATOM      5  C   UNL     1     117.515 118.388 114.368  1.00  0.00     0.010 C 
ATOM      6  C   UNL     1     118.465 117.222 113.970  1.00  0.00    -0.001 C 
ATOM      7  C   UNL     1     119.679 117.841 113.215  1.00  0.00     0.121 C 
ATOM      8  C   UNL     1     119.043 118.279 111.875  1.00  0.00     0.036 C 
ATOM      9  C   UNL     1     118.869 116.336 115.156  1.00  0.00     0.015 C 
ATOM     10  C   UNL     1     118.445 115.374 112.097  1.00  0.00     0.012 C 
ENDROOT
BRANCH   7  11
ATOM     11  O   UNL     1     120.234 118.931 113.906  1.00  0.00    -0.393 OA
ATOM     12  H   UNL     1     120.672 119.503 113.223  1.00  0.00     0.210 HD
ENDBRANCH   7  11
TORSDOF 1
ENDMDL
MODEL 6
REMARK VINA RESULT:    -4.005      2.713      4.160
REMARK INTER + INTRA:          -4.122
REMARK INTER:                  -4.122
REMARK INTRA:                   0.000
REMARK UNBOUND:                 0.000
REMARK SMILES CC1(C)[C@H]2CC[C@]1(C)[C@H](O)C2
REMARK SMILES IDX 1 1 2 2 4 3 5 4 6 5 7 6 9 7 11 8 8 9 3 10 10 11
REMARK H PARENT 10 12
REMARK Flexibility Score: inf
ROOT
ATOM      1  C   UNL     1     117.326 116.379 113.457  1.00  0.00     0.012 C 
ATOM      2  C   UNL     1     116.681 117.716 112.978  1.00  0.00    -0.025 C 
ATOM      3  C   UNL     1     115.435 117.524 112.095  1.00  0.00    -0.002 C 
ATOM      4  C   UNL     1     114.426 116.838 113.047  1.00  0.00     0.005 C 
ATOM      5  C   UNL     1     114.735 117.497 114.406  1.00  0.00     0.010 C 
ATOM      6  C   UNL     1     115.877 118.491 114.048  1.00  0.00    -0.001 C 
ATOM      7  C   UNL     1     115.246 119.657 113.229  1.00  0.00     0.121 C 
ATOM      8  C   UNL     1     114.914 118.968 111.884  1.00  0.00     0.036 C 
ATOM      9  C   UNL     1     116.675 118.964 115.270  1.00  0.00     0.015 C 
ATOM     10  C   UNL     1     117.826 118.515 112.280  1.00  0.00     0.012 C 
ENDROOT
BRANCH   7  11
ATOM     11  O   UNL     1     114.094 120.175 113.844  1.00  0.00    -0.393 OA
ATOM     12  H   UNL     1     113.336 119.610 113.543  1.00  0.00     0.210 HD
ENDBRANCH   7  11
TORSDOF 1
ENDMDL
MODEL 7
REMARK VINA RESULT:    -3.924      2.164      3.163
REMARK INTER + INTRA:          -4.038
REMARK INTER:                  -4.038
REMARK INTRA:                   0.000
REMARK UNBOUND:                 0.000
REMARK SMILES CC1(C)[C@H]2CC[C@]1(C)[C@H](O)C2
REMARK SMILES IDX 1 1 2 2 4 3 5 4 6 5 7 6 9 7 11 8 8 9 3 10 10 11
REMARK H PARENT 10 12
REMARK Flexibility Score: inf
ROOT
ATOM      1  C   UNL     1     115.831 116.675 113.748  1.00  0.00     0.012 C 
ATOM      2  C   UNL     1     116.433 115.362 113.162  1.00  0.00    -0.025 C 
ATOM      3  C   UNL     1     117.603 115.594 112.190  1.00  0.00    -0.002 C 
ATOM      4  C   UNL     1     118.687 116.241 113.085  1.00  0.00     0.005 C 
ATOM      5  C   UNL     1     118.489 115.524 114.436  1.00  0.00     0.010 C 
ATOM      6  C   UNL     1     117.321 114.544 114.130  1.00  0.00    -0.001 C 
ATOM      7  C   UNL     1     117.882 113.415 113.213  1.00  0.00     0.121 C 
ATOM      8  C   UNL     1     118.104 114.161 111.876  1.00  0.00     0.036 C 
ATOM      9  C   UNL     1     116.624 114.017 115.391  1.00  0.00     0.015 C 
ATOM     10  C   UNL     1     115.234 114.591 112.526  1.00  0.00     0.012 C 
ENDROOT
BRANCH   7  11
ATOM     11  O   UNL     1     119.079 112.874 113.709  1.00  0.00    -0.393 OA
ATOM     12  H   UNL     1     118.858 112.459 114.584  1.00  0.00     0.210 HD
ENDBRANCH   7  11
TORSDOF 1
ENDMDL
MODEL 8
REMARK VINA RESULT:    -3.873      1.747      3.260
REMARK INTER + INTRA:          -3.987
REMARK INTER:                  -3.987
REMARK INTRA:                   0.000
REMARK UNBOUND:                 0.000
REMARK SMILES CC1(C)[C@H]2CC[C@]1(C)[C@H](O)C2
REMARK SMILES IDX 1 1 2 2 4 3 5 4 6 5 7 6 9 7 11 8 8 9 3 10 10 11
REMARK H PARENT 10 12
REMARK Flexibility Score: inf
ROOT
ATOM      1  C   UNL     1     118.513 115.718 114.574  1.00  0.00     0.012 C 
ATOM      2  C   UNL     1     117.945 116.383 113.282  1.00  0.00    -0.025 C 
ATOM      3  C   UNL     1     116.413 116.515 113.272  1.00  0.00    -0.002 C 
ATOM      4  C   UNL     1     116.131 117.478 114.451  1.00  0.00     0.005 C 
ATOM      5  C   UNL     1     117.331 118.445 114.397  1.00  0.00     0.010 C 
ATOM      6  C   UNL     1     118.139 117.914 113.178  1.00  0.00    -0.001 C 
ATOM      7  C   UNL     1     117.339 118.276 111.890  1.00  0.00     0.121 C 
ATOM      8  C   UNL     1     116.126 117.321 111.980  1.00  0.00     0.036 C 
ATOM      9  C   UNL     1     119.592 118.404 113.153  1.00  0.00     0.015 C 
ATOM     10  C   UNL     1     118.509 115.547 112.091  1.00  0.00     0.012 C 
ENDROOT
BRANCH   7  11
ATOM     11  O   UNL     1     116.939 119.623 111.875  1.00  0.00    -0.393 OA
ATOM     12  H   UNL     1     115.979 119.628 111.619  1.00  0.00     0.210 HD
ENDBRANCH   7  11
TORSDOF 1
ENDMDL
MODEL 9
REMARK VINA RESULT:    -3.860      2.490      3.117
REMARK INTER + INTRA:          -3.973
REMARK INTER:                  -3.973
REMARK INTRA:                   0.000
REMARK UNBOUND:                 0.000
REMARK SMILES CC1(C)[C@H]2CC[C@]1(C)[C@H](O)C2
REMARK SMILES IDX 1 1 2 2 4 3 5 4 6 5 7 6 9 7 11 8 8 9 3 10 10 11
REMARK H PARENT 10 12
REMARK Flexibility Score: inf
ROOT
ATOM      1  C   UNL     1     114.742 117.394 114.775  1.00  0.00     0.012 C 
ATOM      2  C   UNL     1     115.217 116.770 113.427  1.00  0.00    -0.025 C 
ATOM      3  C   UNL     1     116.747 116.685 113.287  1.00  0.00    -0.002 C 
ATOM      4  C   UNL     1     117.154 115.710 114.418  1.00  0.00     0.005 C 
ATOM      5  C   UNL     1     115.983 114.708 114.445  1.00  0.00     0.010 C 
ATOM      6  C   UNL     1     115.060 115.236 113.309  1.00  0.00    -0.001 C 
ATOM      7  C   UNL     1     115.759 114.921 111.952  1.00  0.00     0.121 C 
ATOM      8  C   UNL     1     116.947 115.912 111.959  1.00  0.00     0.036 C 
ATOM      9  C   UNL     1     113.624 114.703 113.395  1.00  0.00     0.015 C 
ATOM     10  C   UNL     1     114.531 117.611 112.305  1.00  0.00     0.012 C 
ENDROOT
BRANCH   7  11
ATOM     11  O   UNL     1     116.195 113.588 111.875  1.00  0.00    -0.393 OA
ATOM     12  H   UNL     1     115.622 113.144 111.196  1.00  0.00     0.210 HD
ENDBRANCH   7  11
TORSDOF 1
ENDMDL
