MODEL 1
REMARK VINA RESULT:    -6.972      0.000      0.000
REMARK INTER + INTRA:         -18.942
REMARK INTER:                 -15.938
REMARK INTRA:                  -3.004
REMARK UNBOUND:                -3.004
REMARK SMILES CCCCCCCCCCCCCCCCCCCCCCCC(=O)[O-]
REMARK SMILES IDX 13 1 14 2 15 3 16 4 17 5 18 6 19 7 20 8 21 9 22 10 23 11
REMARK SMILES IDX 24 12 25 13 26 14 12 15 11 16 10 17 9 18 8 19 7 20 6 21 5 22
REMARK SMILES IDX 4 23 3 24 2 25 1 26
REMARK H PARENT
REMARK Flexibility Score: inf
ROOT
ATOM      1  C   UNL     1      19.625  69.419  78.718  1.00  0.00     0.000 C 
ENDROOT
BRANCH   1   2
ATOM      2  C   UNL     1      20.315  69.023  77.399  1.00  0.00     0.000 C 
BRANCH   2   3
ATOM      3  C   UNL     1      21.840  68.893  77.553  1.00  0.00     0.000 C 
BRANCH   3   4
ATOM      4  C   UNL     1      22.614  69.690  76.488  1.00  0.00     0.000 C 
BRANCH   4   5
ATOM      5  C   UNL     1      21.740  70.286  75.366  1.00  0.00     0.000 C 
BRANCH   5   6
ATOM      6  C   UNL     1      22.544  70.743  74.129  1.00  0.00     0.000 C 
BRANCH   6   7
ATOM      7  C   UNL     1      22.516  72.272  73.949  1.00  0.00     0.000 C 
BRANCH   7   8
ATOM      8  C   UNL     1      22.598  72.700  72.474  1.00  0.00     0.000 C 
BRANCH   8   9
ATOM      9  C   UNL     1      21.245  72.585  71.751  1.00  0.00     0.000 C 
BRANCH   9  10
ATOM     10  C   UNL     1      21.252  71.514  70.644  1.00  0.00     0.006 C 
BRANCH  10  11
ATOM     11  C   UNL     1      20.470  70.237  70.992  1.00  0.00     0.053 C 
BRANCH  11  12
ATOM     12  C   UNL     1      20.351  69.313  69.819  1.00  0.00     0.041 C 
ATOM     13  O   UNL     1      20.881  69.616  68.717  1.00  0.00    -0.550 OA
ATOM     14  O   UNL     1      19.651  68.119  69.940  1.00  0.00    -0.550 OA
ENDBRANCH  11  12
ENDBRANCH  10  11
ENDBRANCH   9  10
ENDBRANCH   8   9
ENDBRANCH   7   8
ENDBRANCH   6   7
ENDBRANCH   5   6
ENDBRANCH   4   5
ENDBRANCH   3   4
ENDBRANCH   2   3
ENDBRANCH   1   2
BRANCH   1  15
ATOM     15  C   UNL     1      18.909  70.783  78.665  1.00  0.00     0.000 C 
BRANCH  15  16
ATOM     16  C   UNL     1      18.682  71.268  77.221  1.00  0.00     0.000 C 
BRANCH  16  17
ATOM     17  C   UNL     1      17.198  71.264  76.819  1.00  0.00     0.000 C 
BRANCH  17  18
ATOM     18  C   UNL     1      16.962  71.849  75.417  1.00  0.00    -0.000 C 
BRANCH  18  19
ATOM     19  C   UNL     1      18.067  71.463  74.421  1.00  0.00    -0.000 C 
BRANCH  19  20
ATOM     20  C   UNL     1      17.927  72.177  73.064  1.00  0.00    -0.000 C 
BRANCH  20  21
ATOM     21  C   UNL     1      16.811  71.559  72.196  1.00  0.00    -0.000 C 
BRANCH  21  22
ATOM     22  C   UNL     1      15.581  72.468  72.031  1.00  0.00    -0.000 C 
BRANCH  22  23
ATOM     23  C   UNL     1      14.430  72.090  72.979  1.00  0.00    -0.000 C 
BRANCH  23  24
ATOM     24  C   UNL     1      13.987  70.623  72.829  1.00  0.00    -0.000 C 
BRANCH  24  25
ATOM     25  C   UNL     1      14.228  69.741  74.068  1.00  0.00    -0.003 C 
ATOM     26  C   UNL     1      13.676  70.351  75.355  1.00  0.00     0.004 C 
ENDBRANCH  24  25
ENDBRANCH  23  24
ENDBRANCH  22  23
ENDBRANCH  21  22
ENDBRANCH  20  21
ENDBRANCH  19  20
ENDBRANCH  18  19
ENDBRANCH  17  18
ENDBRANCH  16  17
ENDBRANCH  15  16
ENDBRANCH   1  15
TORSDOF 22
ENDMDL
MODEL 2
REMARK VINA RESULT:    -6.882      1.970      5.418
REMARK INTER + INTRA:         -18.737
REMARK INTER:                 -15.624
REMARK INTRA:                  -3.113
REMARK UNBOUND:                -3.004
REMARK SMILES CCCCCCCCCCCCCCCCCCCCCCCC(=O)[O-]
REMARK SMILES IDX 13 1 14 2 15 3 16 4 17 5 18 6 19 7 20 8 21 9 22 10 23 11
REMARK SMILES IDX 24 12 25 13 26 14 12 15 11 16 10 17 9 18 8 19 7 20 6 21 5 22
REMARK SMILES IDX 4 23 3 24 2 25 1 26
REMARK H PARENT
REMARK Flexibility Score: inf
ROOT
ATOM      1  C   UNL     1      16.273  71.095  76.332  1.00  0.00     0.000 C 
ENDROOT
BRANCH   1   2
ATOM      2  C   UNL     1      17.420  71.464  77.292  1.00  0.00     0.000 C 
BRANCH   2   3
ATOM      3  C   UNL     1      16.948  71.568  78.754  1.00  0.00     0.000 C 
BRANCH   3   4
ATOM      4  C   UNL     1      17.882  70.833  79.732  1.00  0.00     0.000 C 
BRANCH   4   5
ATOM      5  C   UNL     1      17.535  69.349  79.967  1.00  0.00     0.000 C 
BRANCH   5   6
ATOM      6  C   UNL     1      18.548  68.367  79.339  1.00  0.00     0.000 C 
BRANCH   6   7
ATOM      7  C   UNL     1      19.965  68.545  79.915  1.00  0.00     0.000 C 
BRANCH   7   8
ATOM      8  C   UNL     1      20.997  68.941  78.847  1.00  0.00     0.000 C 
BRANCH   8   9
ATOM      9  C   UNL     1      20.359  69.175  77.468  1.00  0.00     0.000 C 
BRANCH   9  10
ATOM     10  C   UNL     1      21.395  69.536  76.386  1.00  0.00     0.006 C 
BRANCH  10  11
ATOM     11  C   UNL     1      20.855  70.441  75.267  1.00  0.00     0.053 C 
BRANCH  11  12
ATOM     12  C   UNL     1      21.925  70.832  74.294  1.00  0.00     0.041 C 
ATOM     13  O   UNL     1      22.652  69.951  73.764  1.00  0.00    -0.550 OA
ATOM     14  O   UNL     1      22.124  72.170  73.978  1.00  0.00    -0.550 OA
ENDBRANCH  11  12
ENDBRANCH  10  11
ENDBRANCH   9  10
ENDBRANCH   8   9
ENDBRANCH   7   8
ENDBRANCH   6   7
ENDBRANCH   5   6
ENDBRANCH   4   5
ENDBRANCH   3   4
ENDBRANCH   2   3
ENDBRANCH   1   2
BRANCH   1  15
ATOM     15  C   UNL     1      15.106  70.350  77.008  1.00  0.00     0.000 C 
BRANCH  15  16
ATOM     16  C   UNL     1      14.030  69.911  75.998  1.00  0.00     0.000 C 
BRANCH  16  17
ATOM     17  C   UNL     1      14.069  70.727  74.694  1.00  0.00     0.000 C 
BRANCH  17  18
ATOM     18  C   UNL     1      14.200  69.841  73.444  1.00  0.00    -0.000 C 
BRANCH  18  19
ATOM     19  C   UNL     1      15.048  70.497  72.342  1.00  0.00    -0.000 C 
BRANCH  19  20
ATOM     20  C   UNL     1      14.976  72.035  72.366  1.00  0.00    -0.000 C 
BRANCH  20  21
ATOM     21  C   UNL     1      16.358  72.685  72.143  1.00  0.00    -0.000 C 
BRANCH  21  22
ATOM     22  C   UNL     1      17.488  72.022  72.949  1.00  0.00    -0.000 C 
BRANCH  22  23
ATOM     23  C   UNL     1      18.851  72.701  72.732  1.00  0.00    -0.000 C 
BRANCH  23  24
ATOM     24  C   UNL     1      19.596  72.167  71.495  1.00  0.00    -0.000 C 
BRANCH  24  25
ATOM     25  C   UNL     1      19.563  70.637  71.326  1.00  0.00    -0.003 C 
ATOM     26  C   UNL     1      20.828  70.078  70.675  1.00  0.00     0.004 C 
ENDBRANCH  24  25
ENDBRANCH  23  24
ENDBRANCH  22  23
ENDBRANCH  21  22
ENDBRANCH  20  21
ENDBRANCH  19  20
ENDBRANCH  18  19
ENDBRANCH  17  18
ENDBRANCH  16  17
ENDBRANCH  15  16
ENDBRANCH   1  15
TORSDOF 22
ENDMDL
MODEL 3
REMARK VINA RESULT:    -6.855      3.097      7.675
REMARK INTER + INTRA:         -18.675
REMARK INTER:                 -15.920
REMARK INTRA:                  -2.755
REMARK UNBOUND:                -3.004
REMARK SMILES CCCCCCCCCCCCCCCCCCCCCCCC(=O)[O-]
REMARK SMILES IDX 13 1 14 2 15 3 16 4 17 5 18 6 19 7 20 8 21 9 22 10 23 11
REMARK SMILES IDX 24 12 25 13 26 14 12 15 11 16 10 17 9 18 8 19 7 20 6 21 5 22
REMARK SMILES IDX 4 23 3 24 2 25 1 26
REMARK H PARENT
REMARK Flexibility Score: inf
ROOT
ATOM      1  C   UNL     1      15.366  72.237  72.578  1.00  0.00     0.000 C 
ENDROOT
BRANCH   1   2
ATOM      2  C   UNL     1      15.328  70.731  72.258  1.00  0.00     0.000 C 
BRANCH   2   3
ATOM      3  C   UNL     1      14.194  70.003  73.002  1.00  0.00     0.000 C 
BRANCH   3   4
ATOM      4  C   UNL     1      13.789  70.712  74.306  1.00  0.00     0.000 C 
BRANCH   4   5
ATOM      5  C   UNL     1      14.061  69.906  75.592  1.00  0.00     0.000 C 
BRANCH   5   6
ATOM      6  C   UNL     1      15.050  70.594  76.559  1.00  0.00     0.000 C 
BRANCH   6   7
ATOM      7  C   UNL     1      16.260  71.197  75.822  1.00  0.00     0.000 C 
BRANCH   7   8
ATOM      8  C   UNL     1      17.347  71.709  76.781  1.00  0.00     0.000 C 
BRANCH   8   9
ATOM      9  C   UNL     1      17.190  71.147  78.204  1.00  0.00     0.000 C 
BRANCH   9  10
ATOM     10  C   UNL     1      18.526  70.674  78.808  1.00  0.00     0.006 C 
BRANCH  10  11
ATOM     11  C   UNL     1      18.379  69.728  80.010  1.00  0.00     0.053 C 
BRANCH  11  12
ATOM     12  C   UNL     1      19.009  68.392  79.755  1.00  0.00     0.041 C 
ATOM     13  O   UNL     1      18.314  67.437  79.318  1.00  0.00    -0.550 OA
ATOM     14  O   UNL     1      20.362  68.201  80.005  1.00  0.00    -0.550 OA
ENDBRANCH  11  12
ENDBRANCH  10  11
ENDBRANCH   9  10
ENDBRANCH   8   9
ENDBRANCH   7   8
ENDBRANCH   6   7
ENDBRANCH   5   6
ENDBRANCH   4   5
ENDBRANCH   3   4
ENDBRANCH   2   3
ENDBRANCH   1   2
BRANCH   1  15
ATOM     15  C   UNL     1      16.756  72.879  72.406  1.00  0.00     0.000 C 
BRANCH  15  16
ATOM     16  C   UNL     1      17.897  71.881  72.672  1.00  0.00     0.000 C 
BRANCH  16  17
ATOM     17  C   UNL     1      19.084  72.064  71.711  1.00  0.00     0.000 C 
BRANCH  17  18
ATOM     18  C   UNL     1      19.663  70.726  71.223  1.00  0.00    -0.000 C 
BRANCH  18  19
ATOM     19  C   UNL     1      21.173  70.803  70.942  1.00  0.00    -0.000 C 
BRANCH  19  20
ATOM     20  C   UNL     1      21.591  72.125  70.272  1.00  0.00    -0.000 C 
BRANCH  20  21
ATOM     21  C   UNL     1      22.343  73.057  71.246  1.00  0.00    -0.000 C 
BRANCH  21  22
ATOM     22  C   UNL     1      23.095  72.308  72.360  1.00  0.00    -0.000 C 
BRANCH  22  23
ATOM     23  C   UNL     1      22.417  72.446  73.733  1.00  0.00    -0.000 C 
BRANCH  23  24
ATOM     24  C   UNL     1      22.226  71.094  74.446  1.00  0.00    -0.000 C 
BRANCH  24  25
ATOM     25  C   UNL     1      20.772  70.763  74.833  1.00  0.00    -0.003 C 
ATOM     26  C   UNL     1      20.664  69.971  76.135  1.00  0.00     0.004 C 
ENDBRANCH  24  25
ENDBRANCH  23  24
ENDBRANCH  22  23
ENDBRANCH  21  22
ENDBRANCH  20  21
ENDBRANCH  19  20
ENDBRANCH  18  19
ENDBRANCH  17  18
ENDBRANCH  16  17
ENDBRANCH  15  16
ENDBRANCH   1  15
TORSDOF 22
ENDMDL
MODEL 4
REMARK VINA RESULT:    -6.814      3.484      7.295
REMARK INTER + INTRA:         -18.582
REMARK INTER:                 -16.089
REMARK INTRA:                  -2.493
REMARK UNBOUND:                -3.004
REMARK SMILES CCCCCCCCCCCCCCCCCCCCCCCC(=O)[O-]
REMARK SMILES IDX 13 1 14 2 15 3 16 4 17 5 18 6 19 7 20 8 21 9 22 10 23 11
REMARK SMILES IDX 24 12 25 13 26 14 12 15 11 16 10 17 9 18 8 19 7 20 6 21 5 22
REMARK SMILES IDX 4 23 3 24 2 25 1 26
REMARK H PARENT
REMARK Flexibility Score: inf
ROOT
ATOM      1  C   UNL     1      13.225  70.858  75.327  1.00  0.00     0.000 C 
ENDROOT
BRANCH   1   2
ATOM      2  C   UNL     1      14.345  69.947  75.863  1.00  0.00     0.000 C 
BRANCH   2   3
ATOM      3  C   UNL     1      15.388  70.724  76.686  1.00  0.00     0.000 C 
BRANCH   3   4
ATOM      4  C   UNL     1      16.459  71.393  75.807  1.00  0.00     0.000 C 
BRANCH   4   5
ATOM      5  C   UNL     1      17.725  71.845  76.562  1.00  0.00     0.000 C 
BRANCH   5   6
ATOM      6  C   UNL     1      18.309  70.765  77.500  1.00  0.00     0.000 C 
BRANCH   6   7
ATOM      7  C   UNL     1      19.723  70.329  77.076  1.00  0.00     0.000 C 
BRANCH   7   8
ATOM      8  C   UNL     1      20.067  68.900  77.528  1.00  0.00     0.000 C 
BRANCH   8   9
ATOM      9  C   UNL     1      20.858  68.873  78.847  1.00  0.00     0.000 C 
BRANCH   9  10
ATOM     10  C   UNL     1      19.970  68.560  80.066  1.00  0.00     0.006 C 
BRANCH  10  11
ATOM     11  C   UNL     1      19.408  69.802  80.777  1.00  0.00     0.053 C 
BRANCH  11  12
ATOM     12  C   UNL     1      17.934  69.691  81.020  1.00  0.00     0.041 C 
ATOM     13  O   UNL     1      17.402  70.308  81.981  1.00  0.00    -0.550 OA
ATOM     14  O   UNL     1      17.148  68.903  80.189  1.00  0.00    -0.550 OA
ENDBRANCH  11  12
ENDBRANCH  10  11
ENDBRANCH   9  10
ENDBRANCH   8   9
ENDBRANCH   7   8
ENDBRANCH   6   7
ENDBRANCH   5   6
ENDBRANCH   4   5
ENDBRANCH   3   4
ENDBRANCH   2   3
ENDBRANCH   1   2
BRANCH   1  15
ATOM     15  C   UNL     1      13.252  71.051  73.798  1.00  0.00     0.000 C 
BRANCH  15  16
ATOM     16  C   UNL     1      14.164  70.028  73.097  1.00  0.00     0.000 C 
BRANCH  16  17
ATOM     17  C   UNL     1      15.334  70.689  72.349  1.00  0.00     0.000 C 
BRANCH  17  18
ATOM     18  C   UNL     1      15.369  72.215  72.532  1.00  0.00    -0.000 C 
BRANCH  18  19
ATOM     19  C   UNL     1      16.637  72.853  71.941  1.00  0.00    -0.000 C 
BRANCH  19  20
ATOM     20  C   UNL     1      17.851  71.907  71.968  1.00  0.00    -0.000 C 
BRANCH  20  21
ATOM     21  C   UNL     1      18.801  72.216  73.145  1.00  0.00    -0.000 C 
BRANCH  21  22
ATOM     22  C   UNL     1      20.263  71.822  72.877  1.00  0.00    -0.000 C 
BRANCH  22  23
ATOM     23  C   UNL     1      20.449  70.305  72.704  1.00  0.00    -0.000 C 
BRANCH  23  24
ATOM     24  C   UNL     1      21.038  69.926  71.333  1.00  0.00    -0.000 C 
BRANCH  24  25
ATOM     25  C   UNL     1      19.997  69.657  70.230  1.00  0.00    -0.003 C 
ATOM     26  C   UNL     1      20.366  68.477  69.332  1.00  0.00     0.004 C 
ENDBRANCH  24  25
ENDBRANCH  23  24
ENDBRANCH  22  23
ENDBRANCH  21  22
ENDBRANCH  20  21
ENDBRANCH  19  20
ENDBRANCH  18  19
ENDBRANCH  17  18
ENDBRANCH  16  17
ENDBRANCH  15  16
ENDBRANCH   1  15
TORSDOF 22
ENDMDL
MODEL 5
REMARK VINA RESULT:    -6.807      3.076      7.829
REMARK INTER + INTRA:         -18.567
REMARK INTER:                 -15.776
REMARK INTRA:                  -2.791
REMARK UNBOUND:                -3.004
REMARK SMILES CCCCCCCCCCCCCCCCCCCCCCCC(=O)[O-]
REMARK SMILES IDX 13 1 14 2 15 3 16 4 17 5 18 6 19 7 20 8 21 9 22 10 23 11
REMARK SMILES IDX 24 12 25 13 26 14 12 15 11 16 10 17 9 18 8 19 7 20 6 21 5 22
REMARK SMILES IDX 4 23 3 24 2 25 1 26
REMARK H PARENT
REMARK Flexibility Score: inf
ROOT
ATOM      1  C   UNL     1      15.443  72.619  72.455  1.00  0.00     0.000 C 
ENDROOT
BRANCH   1   2
ATOM      2  C   UNL     1      15.004  71.148  72.318  1.00  0.00     0.000 C 
BRANCH   2   3
ATOM      3  C   UNL     1      13.836  70.796  73.257  1.00  0.00     0.000 C 
BRANCH   3   4
ATOM      4  C   UNL     1      14.247  69.820  74.374  1.00  0.00     0.000 C 
BRANCH   4   5
ATOM      5  C   UNL     1      13.919  70.298  75.803  1.00  0.00     0.000 C 
BRANCH   5   6
ATOM      6  C   UNL     1      15.166  70.668  76.636  1.00  0.00     0.000 C 
BRANCH   6   7
ATOM      7  C   UNL     1      16.300  71.236  75.764  1.00  0.00     0.000 C 
BRANCH   7   8
ATOM      8  C   UNL     1      17.534  71.648  76.584  1.00  0.00     0.000 C 
BRANCH   8   9
ATOM      9  C   UNL     1      18.077  70.498  77.450  1.00  0.00     0.000 C 
BRANCH   9  10
ATOM     10  C   UNL     1      19.600  70.316  77.309  1.00  0.00     0.006 C 
BRANCH  10  11
ATOM     11  C   UNL     1      20.135  68.991  77.875  1.00  0.00     0.053 C 
BRANCH  11  12
ATOM     12  C   UNL     1      19.511  68.649  79.193  1.00  0.00     0.041 C 
ATOM     13  O   UNL     1      19.888  69.234  80.244  1.00  0.00    -0.550 OA
ATOM     14  O   UNL     1      18.517  67.681  79.264  1.00  0.00    -0.550 OA
ENDBRANCH  11  12
ENDBRANCH  10  11
ENDBRANCH   9  10
ENDBRANCH   8   9
ENDBRANCH   7   8
ENDBRANCH   6   7
ENDBRANCH   5   6
ENDBRANCH   4   5
ENDBRANCH   3   4
ENDBRANCH   2   3
ENDBRANCH   1   2
BRANCH   1  15
ATOM     15  C   UNL     1      16.970  72.818  72.457  1.00  0.00     0.000 C 
BRANCH  15  16
ATOM     16  C   UNL     1      17.709  71.685  71.721  1.00  0.00     0.000 C 
BRANCH  16  17
ATOM     17  C   UNL     1      19.231  71.727  71.938  1.00  0.00     0.000 C 
BRANCH  17  18
ATOM     18  C   UNL     1      19.962  70.569  71.240  1.00  0.00    -0.000 C 
BRANCH  18  19
ATOM     19  C   UNL     1      21.129  70.018  72.076  1.00  0.00    -0.000 C 
BRANCH  19  20
ATOM     20  C   UNL     1      20.847  70.046  73.589  1.00  0.00    -0.000 C 
BRANCH  20  21
ATOM     21  C   UNL     1      22.019  70.657  74.386  1.00  0.00    -0.000 C 
BRANCH  21  22
ATOM     22  C   UNL     1      23.178  71.148  73.502  1.00  0.00    -0.000 C 
BRANCH  22  23
ATOM     23  C   UNL     1      23.250  72.682  73.412  1.00  0.00    -0.000 C 
BRANCH  23  24
ATOM     24  C   UNL     1      22.637  73.236  72.113  1.00  0.00    -0.000 C 
BRANCH  24  25
ATOM     25  C   UNL     1      23.462  72.971  70.840  1.00  0.00    -0.003 C 
ATOM     26  C   UNL     1      22.598  72.636  69.624  1.00  0.00     0.004 C 
ENDBRANCH  24  25
ENDBRANCH  23  24
ENDBRANCH  22  23
ENDBRANCH  21  22
ENDBRANCH  20  21
ENDBRANCH  19  20
ENDBRANCH  18  19
ENDBRANCH  17  18
ENDBRANCH  16  17
ENDBRANCH  15  16
ENDBRANCH   1  15
TORSDOF 22
ENDMDL
MODEL 6
REMARK VINA RESULT:    -6.752      2.054      6.478
REMARK INTER + INTRA:         -18.440
REMARK INTER:                 -15.417
REMARK INTRA:                  -3.023
REMARK UNBOUND:                -3.004
REMARK SMILES CCCCCCCCCCCCCCCCCCCCCCCC(=O)[O-]
REMARK SMILES IDX 13 1 14 2 15 3 16 4 17 5 18 6 19 7 20 8 21 9 22 10 23 11
REMARK SMILES IDX 24 12 25 13 26 14 12 15 11 16 10 17 9 18 8 19 7 20 6 21 5 22
REMARK SMILES IDX 4 23 3 24 2 25 1 26
REMARK H PARENT
REMARK Flexibility Score: inf
ROOT
ATOM      1  C   UNL     1      13.989  70.006  75.141  1.00  0.00     0.000 C 
ENDROOT
BRANCH   1   2
ATOM      2  C   UNL     1      14.415  69.997  73.661  1.00  0.00     0.000 C 
BRANCH   2   3
ATOM      3  C   UNL     1      13.580  70.966  72.806  1.00  0.00     0.000 C 
BRANCH   3   4
ATOM      4  C   UNL     1      14.385  72.191  72.340  1.00  0.00     0.000 C 
BRANCH   4   5
ATOM      5  C   UNL     1      15.897  71.943  72.165  1.00  0.00     0.000 C 
BRANCH   5   6
ATOM      6  C   UNL     1      16.721  73.236  71.973  1.00  0.00     0.000 C 
BRANCH   6   7
ATOM      7  C   UNL     1      18.228  73.001  72.181  1.00  0.00     0.000 C 
BRANCH   7   8
ATOM      8  C   UNL     1      18.612  71.513  72.137  1.00  0.00     0.000 C 
BRANCH   8   9
ATOM      9  C   UNL     1      19.455  71.085  73.350  1.00  0.00     0.000 C 
BRANCH   9  10
ATOM     10  C   UNL     1      20.598  72.071  73.656  1.00  0.00     0.006 C 
BRANCH  10  11
ATOM     11  C   UNL     1      21.899  71.792  72.885  1.00  0.00     0.053 C 
BRANCH  11  12
ATOM     12  C   UNL     1      22.800  70.851  73.624  1.00  0.00     0.041 C 
ATOM     13  O   UNL     1      22.679  69.606  73.471  1.00  0.00    -0.550 OA
ATOM     14  O   UNL     1      23.769  71.346  74.487  1.00  0.00    -0.550 OA
ENDBRANCH  11  12
ENDBRANCH  10  11
ENDBRANCH   9  10
ENDBRANCH   8   9
ENDBRANCH   7   8
ENDBRANCH   6   7
ENDBRANCH   5   6
ENDBRANCH   4   5
ENDBRANCH   3   4
ENDBRANCH   2   3
ENDBRANCH   1   2
BRANCH   1  15
ATOM     15  C   UNL     1      14.984  70.723  76.074  1.00  0.00     0.000 C 
BRANCH  15  16
ATOM     16  C   UNL     1      16.287  71.111  75.352  1.00  0.00     0.000 C 
BRANCH  16  17
ATOM     17  C   UNL     1      17.280  71.845  76.269  1.00  0.00     0.000 C 
BRANCH  17  18
ATOM     18  C   UNL     1      17.369  71.218  77.670  1.00  0.00    -0.000 C 
BRANCH  18  19
ATOM     19  C   UNL     1      18.004  72.164  78.702  1.00  0.00    -0.000 C 
BRANCH  19  20
ATOM     20  C   UNL     1      17.871  71.649  80.147  1.00  0.00    -0.000 C 
BRANCH  20  21
ATOM     21  C   UNL     1      19.050  70.739  80.550  1.00  0.00    -0.000 C 
BRANCH  21  22
ATOM     22  C   UNL     1      18.741  69.237  80.428  1.00  0.00    -0.000 C 
BRANCH  22  23
ATOM     23  C   UNL     1      19.999  68.387  80.183  1.00  0.00    -0.000 C 
BRANCH  23  24
ATOM     24  C   UNL     1      20.833  68.883  78.987  1.00  0.00    -0.000 C 
BRANCH  24  25
ATOM     25  C   UNL     1      20.111  68.839  77.628  1.00  0.00    -0.003 C 
ATOM     26  C   UNL     1      20.638  69.875  76.635  1.00  0.00     0.004 C 
ENDBRANCH  24  25
ENDBRANCH  23  24
ENDBRANCH  22  23
ENDBRANCH  21  22
ENDBRANCH  20  21
ENDBRANCH  19  20
ENDBRANCH  18  19
ENDBRANCH  17  18
ENDBRANCH  16  17
ENDBRANCH  15  16
ENDBRANCH   1  15
TORSDOF 22
ENDMDL
MODEL 7
REMARK VINA RESULT:    -6.719      3.194      6.049
REMARK INTER + INTRA:         -18.365
REMARK INTER:                 -15.337
REMARK INTRA:                  -3.028
REMARK UNBOUND:                -3.004
REMARK SMILES CCCCCCCCCCCCCCCCCCCCCCCC(=O)[O-]
REMARK SMILES IDX 13 1 14 2 15 3 16 4 17 5 18 6 19 7 20 8 21 9 22 10 23 11
REMARK SMILES IDX 24 12 25 13 26 14 12 15 11 16 10 17 9 18 8 19 7 20 6 21 5 22
REMARK SMILES IDX 4 23 3 24 2 25 1 26
REMARK H PARENT
REMARK Flexibility Score: inf
ROOT
ATOM      1  C   UNL     1      23.002  72.931  72.503  1.00  0.00     0.000 C 
ENDROOT
BRANCH   1   2
ATOM      2  C   UNL     1      23.758  71.891  73.352  1.00  0.00     0.000 C 
BRANCH   2   3
ATOM      3  C   UNL     1      22.875  71.286  74.458  1.00  0.00     0.000 C 
BRANCH   3   4
ATOM      4  C   UNL     1      21.924  70.198  73.930  1.00  0.00     0.000 C 
BRANCH   4   5
ATOM      5  C   UNL     1      20.558  70.132  74.641  1.00  0.00     0.000 C 
BRANCH   5   6
ATOM      6  C   UNL     1      19.997  71.515  75.040  1.00  0.00     0.000 C 
BRANCH   6   7
ATOM      7  C   UNL     1      18.553  71.427  75.568  1.00  0.00     0.000 C 
BRANCH   7   8
ATOM      8  C   UNL     1      18.473  71.513  77.101  1.00  0.00     0.000 C 
BRANCH   8   9
ATOM      9  C   UNL     1      17.076  71.159  77.638  1.00  0.00     0.000 C 
BRANCH   9  10
ATOM     10  C   UNL     1      17.116  70.076  78.733  1.00  0.00     0.006 C 
BRANCH  10  11
ATOM     11  C   UNL     1      18.435  70.021  79.522  1.00  0.00     0.053 C 
BRANCH  11  12
ATOM     12  C   UNL     1      19.073  68.667  79.456  1.00  0.00     0.041 C 
ATOM     13  O   UNL     1      18.360  67.635  79.333  1.00  0.00    -0.550 OA
ATOM     14  O   UNL     1      20.454  68.542  79.538  1.00  0.00    -0.550 OA
ENDBRANCH  11  12
ENDBRANCH  10  11
ENDBRANCH   9  10
ENDBRANCH   8   9
ENDBRANCH   7   8
ENDBRANCH   6   7
ENDBRANCH   5   6
ENDBRANCH   4   5
ENDBRANCH   3   4
ENDBRANCH   2   3
ENDBRANCH   1   2
BRANCH   1  15
ATOM     15  C   UNL     1      22.956  72.598  70.999  1.00  0.00     0.000 C 
BRANCH  15  16
ATOM     16  C   UNL     1      21.532  72.694  70.422  1.00  0.00     0.000 C 
BRANCH  16  17
ATOM     17  C   UNL     1      20.680  71.452  70.730  1.00  0.00     0.000 C 
BRANCH  17  18
ATOM     18  C   UNL     1      19.445  71.777  71.586  1.00  0.00    -0.000 C 
BRANCH  18  19
ATOM     19  C   UNL     1      19.160  73.286  71.665  1.00  0.00    -0.000 C 
BRANCH  19  20
ATOM     20  C   UNL     1      17.690  73.634  71.368  1.00  0.00    -0.000 C 
BRANCH  20  21
ATOM     21  C   UNL     1      16.752  73.227  72.524  1.00  0.00    -0.000 C 
BRANCH  21  22
ATOM     22  C   UNL     1      15.673  72.211  72.114  1.00  0.00    -0.000 C 
BRANCH  22  23
ATOM     23  C   UNL     1      15.763  70.894  72.903  1.00  0.00    -0.000 C 
BRANCH  23  24
ATOM     24  C   UNL     1      15.187  71.007  74.327  1.00  0.00    -0.000 C 
BRANCH  24  25
ATOM     25  C   UNL     1      14.053  70.016  74.650  1.00  0.00    -0.003 C 
ATOM     26  C   UNL     1      13.963  69.672  76.136  1.00  0.00     0.004 C 
ENDBRANCH  24  25
ENDBRANCH  23  24
ENDBRANCH  22  23
ENDBRANCH  21  22
ENDBRANCH  20  21
ENDBRANCH  19  20
ENDBRANCH  18  19
ENDBRANCH  17  18
ENDBRANCH  16  17
ENDBRANCH  15  16
ENDBRANCH   1  15
TORSDOF 22
ENDMDL
MODEL 8
REMARK VINA RESULT:    -6.710      0.850      2.362
REMARK INTER + INTRA:         -18.344
REMARK INTER:                 -15.564
REMARK INTRA:                  -2.780
REMARK UNBOUND:                -3.004
REMARK SMILES CCCCCCCCCCCCCCCCCCCCCCCC(=O)[O-]
REMARK SMILES IDX 13 1 14 2 15 3 16 4 17 5 18 6 19 7 20 8 21 9 22 10 23 11
REMARK SMILES IDX 24 12 25 13 26 14 12 15 11 16 10 17 9 18 8 19 7 20 6 21 5 22
REMARK SMILES IDX 4 23 3 24 2 25 1 26
REMARK H PARENT
REMARK Flexibility Score: inf
ROOT
ATOM      1  C   UNL     1      19.618  70.030  77.383  1.00  0.00     0.000 C 
ENDROOT
BRANCH   1   2
ATOM      2  C   UNL     1      20.921  69.267  77.688  1.00  0.00     0.000 C 
BRANCH   2   3
ATOM      3  C   UNL     1      21.906  69.295  76.506  1.00  0.00     0.000 C 
BRANCH   3   4
ATOM      4  C   UNL     1      21.433  70.206  75.360  1.00  0.00     0.000 C 
BRANCH   4   5
ATOM      5  C   UNL     1      22.349  70.216  74.120  1.00  0.00     0.000 C 
BRANCH   5   6
ATOM      6  C   UNL     1      23.237  71.476  74.014  1.00  0.00     0.000 C 
BRANCH   6   7
ATOM      7  C   UNL     1      22.948  72.285  72.736  1.00  0.00     0.000 C 
BRANCH   7   8
ATOM      8  C   UNL     1      21.486  72.753  72.645  1.00  0.00     0.000 C 
BRANCH   8   9
ATOM      9  C   UNL     1      20.882  72.527  71.248  1.00  0.00     0.000 C 
BRANCH   9  10
ATOM     10  C   UNL     1      21.287  71.172  70.637  1.00  0.00     0.006 C 
BRANCH  10  11
ATOM     11  C   UNL     1      20.331  70.015  70.972  1.00  0.00     0.053 C 
BRANCH  11  12
ATOM     12  C   UNL     1      20.244  69.017  69.858  1.00  0.00     0.041 C 
ATOM     13  O   UNL     1      19.598  67.947  70.015  1.00  0.00    -0.550 OA
ATOM     14  O   UNL     1      20.879  69.266  68.648  1.00  0.00    -0.550 OA
ENDBRANCH  11  12
ENDBRANCH  10  11
ENDBRANCH   9  10
ENDBRANCH   8   9
ENDBRANCH   7   8
ENDBRANCH   6   7
ENDBRANCH   5   6
ENDBRANCH   4   5
ENDBRANCH   3   4
ENDBRANCH   2   3
ENDBRANCH   1   2
BRANCH   1  15
ATOM     15  C   UNL     1      18.641  70.101  78.572  1.00  0.00     0.000 C 
BRANCH  15  16
ATOM     16  C   UNL     1      17.242  70.586  78.150  1.00  0.00     0.000 C 
BRANCH  16  17
ATOM     17  C   UNL     1      17.277  71.499  76.913  1.00  0.00     0.000 C 
BRANCH  17  18
ATOM     18  C   UNL     1      16.199  71.136  75.878  1.00  0.00    -0.000 C 
BRANCH  18  19
ATOM     19  C   UNL     1      14.986  70.433  76.509  1.00  0.00    -0.000 C 
BRANCH  19  20
ATOM     20  C   UNL     1      13.798  70.302  75.538  1.00  0.00    -0.000 C 
BRANCH  20  21
ATOM     21  C   UNL     1      14.259  70.026  74.091  1.00  0.00    -0.000 C 
BRANCH  21  22
ATOM     22  C   UNL     1      13.709  71.032  73.066  1.00  0.00    -0.000 C 
BRANCH  22  23
ATOM     23  C   UNL     1      14.810  71.898  72.430  1.00  0.00    -0.000 C 
BRANCH  23  24
ATOM     24  C   UNL     1      16.075  71.094  72.077  1.00  0.00    -0.000 C 
BRANCH  24  25
ATOM     25  C   UNL     1      17.404  71.831  72.328  1.00  0.00    -0.003 C 
ATOM     26  C   UNL     1      17.282  73.349  72.201  1.00  0.00     0.004 C 
ENDBRANCH  24  25
ENDBRANCH  23  24
ENDBRANCH  22  23
ENDBRANCH  21  22
ENDBRANCH  20  21
ENDBRANCH  19  20
ENDBRANCH  18  19
ENDBRANCH  17  18
ENDBRANCH  16  17
ENDBRANCH  15  16
ENDBRANCH   1  15
TORSDOF 22
ENDMDL
MODEL 9
REMARK VINA RESULT:    -6.694      1.098      2.473
REMARK INTER + INTRA:         -18.307
REMARK INTER:                 -15.663
REMARK INTRA:                  -2.644
REMARK UNBOUND:                -3.004
REMARK SMILES CCCCCCCCCCCCCCCCCCCCCCCC(=O)[O-]
REMARK SMILES IDX 13 1 14 2 15 3 16 4 17 5 18 6 19 7 20 8 21 9 22 10 23 11
REMARK SMILES IDX 24 12 25 13 26 14 12 15 11 16 10 17 9 18 8 19 7 20 6 21 5 22
REMARK SMILES IDX 4 23 3 24 2 25 1 26
REMARK H PARENT
REMARK Flexibility Score: inf
ROOT
ATOM      1  C   UNL     1      18.714  70.985  79.336  1.00  0.00     0.000 C 
ENDROOT
BRANCH   1   2
ATOM      2  C   UNL     1      17.749  69.794  79.483  1.00  0.00     0.000 C 
BRANCH   2   3
ATOM      3  C   UNL     1      18.491  68.451  79.597  1.00  0.00     0.000 C 
BRANCH   3   4
ATOM      4  C   UNL     1      20.013  68.597  79.425  1.00  0.00     0.000 C 
BRANCH   4   5
ATOM      5  C   UNL     1      20.492  68.694  77.962  1.00  0.00     0.000 C 
BRANCH   5   6
ATOM      6  C   UNL     1      21.921  69.261  77.813  1.00  0.00     0.000 C 
BRANCH   6   7
ATOM      7  C   UNL     1      22.380  69.302  76.344  1.00  0.00     0.000 C 
BRANCH   7   8
ATOM      8  C   UNL     1      21.422  70.097  75.442  1.00  0.00     0.000 C 
BRANCH   8   9
ATOM      9  C   UNL     1      22.140  71.202  74.649  1.00  0.00     0.000 C 
BRANCH   9  10
ATOM     10  C   UNL     1      21.958  71.055  73.126  1.00  0.00     0.006 C 
BRANCH  10  11
ATOM     11  C   UNL     1      21.113  69.843  72.703  1.00  0.00     0.053 C 
BRANCH  11  12
ATOM     12  C   UNL     1      20.814  69.851  71.235  1.00  0.00     0.041 C 
ATOM     13  O   UNL     1      20.655  70.943  70.626  1.00  0.00    -0.550 OA
ATOM     14  O   UNL     1      20.704  68.653  70.539  1.00  0.00    -0.550 OA
ENDBRANCH  11  12
ENDBRANCH  10  11
ENDBRANCH   9  10
ENDBRANCH   8   9
ENDBRANCH   7   8
ENDBRANCH   6   7
ENDBRANCH   5   6
ENDBRANCH   4   5
ENDBRANCH   3   4
ENDBRANCH   2   3
ENDBRANCH   1   2
BRANCH   1  15
ATOM     15  C   UNL     1      18.361  71.938  78.178  1.00  0.00     0.000 C 
BRANCH  15  16
ATOM     16  C   UNL     1      17.742  71.197  76.978  1.00  0.00     0.000 C 
BRANCH  16  17
ATOM     17  C   UNL     1      18.431  71.540  75.647  1.00  0.00     0.000 C 
BRANCH  17  18
ATOM     18  C   UNL     1      17.429  71.832  74.518  1.00  0.00    -0.000 C 
BRANCH  18  19
ATOM     19  C   UNL     1      18.075  71.773  73.124  1.00  0.00    -0.000 C 
BRANCH  19  20
ATOM     20  C   UNL     1      17.038  71.734  71.986  1.00  0.00    -0.000 C 
BRANCH  20  21
ATOM     21  C   UNL     1      15.811  72.619  72.289  1.00  0.00    -0.000 C 
BRANCH  21  22
ATOM     22  C   UNL     1      14.479  71.850  72.283  1.00  0.00    -0.000 C 
BRANCH  22  23
ATOM     23  C   UNL     1      14.671  70.324  72.310  1.00  0.00    -0.000 C 
BRANCH  23  24
ATOM     24  C   UNL     1      14.128  69.675  73.597  1.00  0.00    -0.000 C 
BRANCH  24  25
ATOM     25  C   UNL     1      14.340  70.499  74.880  1.00  0.00    -0.003 C 
ATOM     26  C   UNL     1      13.916  69.757  76.147  1.00  0.00     0.004 C 
ENDBRANCH  24  25
ENDBRANCH  23  24
ENDBRANCH  22  23
ENDBRANCH  21  22
ENDBRANCH  20  21
ENDBRANCH  19  20
ENDBRANCH  18  19
ENDBRANCH  17  18
ENDBRANCH  16  17
ENDBRANCH  15  16
ENDBRANCH   1  15
TORSDOF 22
ENDMDL
