MODEL 1
REMARK VINA RESULT:    -3.416      0.000      0.000
REMARK INTER + INTRA:          -4.088
REMARK INTER:                  -4.015
REMARK INTRA:                  -0.073
REMARK UNBOUND:                -0.073
REMARK SMILES O=C([O-])CCC(=O)[O-]
REMARK SMILES IDX 4 1 2 2 1 3 3 4 5 5 6 6 7 7 8 8
REMARK H PARENT
REMARK Flexibility Score: inf
ROOT
ATOM      1  C   UNL     1       0.195 -18.234 -26.626  1.00  0.00     0.059 C 
ENDROOT
BRANCH   1   2
ATOM      2  C   UNL     1       1.130 -17.068 -26.510  1.00  0.00     0.042 C 
ATOM      3  O   UNL     1       1.233 -16.445 -25.420  1.00  0.00    -0.550 OA
ATOM      4  O   UNL     1       1.856 -16.644 -27.616  1.00  0.00    -0.550 OA
ENDBRANCH   1   2
BRANCH   1   5
ATOM      5  C   UNL     1      -0.522 -18.250 -27.979  1.00  0.00     0.059 C 
BRANCH   5   6
ATOM      6  C   UNL     1       0.046 -19.291 -28.893  1.00  0.00     0.042 C 
ATOM      7  O   UNL     1       1.223 -19.706 -28.727  1.00  0.00    -0.550 OA
ATOM      8  O   UNL     1      -0.739 -19.833 -29.903  1.00  0.00    -0.550 OA
ENDBRANCH   5   6
ENDBRANCH   1   5
TORSDOF 3
ENDMDL
MODEL 2
REMARK VINA RESULT:    -3.409     16.522     17.378
REMARK INTER + INTRA:          -4.080
REMARK INTER:                  -3.979
REMARK INTRA:                  -0.101
REMARK UNBOUND:                -0.073
REMARK SMILES O=C([O-])CCC(=O)[O-]
REMARK SMILES IDX 4 1 2 2 1 3 3 4 5 5 6 6 7 7 8 8
REMARK H PARENT
REMARK Flexibility Score: inf
ROOT
ATOM      1  C   UNL     1       3.828 -34.414 -20.371  1.00  0.00     0.059 C 
ENDROOT
BRANCH   1   2
ATOM      2  C   UNL     1       5.174 -34.876 -20.842  1.00  0.00     0.042 C 
ATOM      3  O   UNL     1       6.085 -35.125 -20.008  1.00  0.00    -0.550 OA
ATOM      4  O   UNL     1       5.434 -34.992 -22.201  1.00  0.00    -0.550 OA
ENDBRANCH   1   2
BRANCH   1   5
ATOM      5  C   UNL     1       3.798 -32.899 -20.148  1.00  0.00     0.059 C 
BRANCH   5   6
ATOM      6  C   UNL     1       3.022 -32.198 -21.221  1.00  0.00     0.042 C 
ATOM      7  O   UNL     1       3.027 -32.644 -22.399  1.00  0.00    -0.550 OA
ATOM      8  O   UNL     1       2.263 -31.077 -20.912  1.00  0.00    -0.550 OA
ENDBRANCH   5   6
ENDBRANCH   1   5
TORSDOF 3
ENDMDL
MODEL 3
REMARK VINA RESULT:    -3.404      0.106      3.873
REMARK INTER + INTRA:          -4.074
REMARK INTER:                  -3.979
REMARK INTRA:                  -0.094
REMARK UNBOUND:                -0.073
REMARK SMILES O=C([O-])CCC(=O)[O-]
REMARK SMILES IDX 4 1 2 2 1 3 3 4 5 5 6 6 7 7 8 8
REMARK H PARENT
REMARK Flexibility Score: inf
ROOT
ATOM      1  C   UNL     1      -0.511 -18.263 -28.071  1.00  0.00     0.059 C 
ENDROOT
BRANCH   1   2
ATOM      2  C   UNL     1       0.058 -19.335 -28.952  1.00  0.00     0.042 C 
ATOM      3  O   UNL     1       1.228 -19.759 -28.757  1.00  0.00    -0.550 OA
ATOM      4  O   UNL     1      -0.689 -19.834 -30.012  1.00  0.00    -0.550 OA
ENDBRANCH   1   2
BRANCH   1   5
ATOM      5  C   UNL     1       0.180 -18.230 -26.705  1.00  0.00     0.059 C 
BRANCH   5   6
ATOM      6  C   UNL     1       1.086 -17.045 -26.572  1.00  0.00     0.042 C 
ATOM      7  O   UNL     1       1.805 -16.685 -27.542  1.00  0.00    -0.550 OA
ATOM      8  O   UNL     1       1.106 -16.313 -25.392  1.00  0.00    -0.550 OA
ENDBRANCH   5   6
ENDBRANCH   1   5
TORSDOF 3
ENDMDL
MODEL 4
REMARK VINA RESULT:    -3.380      1.990      3.431
REMARK INTER + INTRA:          -4.045
REMARK INTER:                  -3.915
REMARK INTRA:                  -0.130
REMARK UNBOUND:                -0.073
REMARK SMILES O=C([O-])CCC(=O)[O-]
REMARK SMILES IDX 4 1 2 2 1 3 3 4 5 5 6 6 7 7 8 8
REMARK H PARENT
REMARK Flexibility Score: inf
ROOT
ATOM      1  C   UNL     1       0.662 -18.240 -27.200  1.00  0.00     0.059 C 
ENDROOT
BRANCH   1   2
ATOM      2  C   UNL     1       0.786 -18.843 -28.567  1.00  0.00     0.042 C 
ATOM      3  O   UNL     1       1.855 -18.713 -29.222  1.00  0.00    -0.550 OA
ATOM      4  O   UNL     1      -0.292 -19.512 -29.133  1.00  0.00    -0.550 OA
ENDBRANCH   1   2
BRANCH   1   5
ATOM      5  C   UNL     1      -0.784 -17.842 -26.888  1.00  0.00     0.059 C 
BRANCH   5   6
ATOM      6  C   UNL     1      -1.140 -16.526 -27.509  1.00  0.00     0.042 C 
ATOM      7  O   UNL     1      -0.394 -15.525 -27.344  1.00  0.00    -0.550 OA
ATOM      8  O   UNL     1      -2.275 -16.416 -28.302  1.00  0.00    -0.550 OA
ENDBRANCH   5   6
ENDBRANCH   1   5
TORSDOF 3
ENDMDL
MODEL 5
REMARK VINA RESULT:    -3.357      2.032      2.416
REMARK INTER + INTRA:          -4.018
REMARK INTER:                  -3.900
REMARK INTRA:                  -0.118
REMARK UNBOUND:                -0.073
REMARK SMILES O=C([O-])CCC(=O)[O-]
REMARK SMILES IDX 4 1 2 2 1 3 3 4 5 5 6 6 7 7 8 8
REMARK H PARENT
REMARK Flexibility Score: inf
ROOT
ATOM      1  C   UNL     1      -0.784 -17.742 -26.791  1.00  0.00     0.059 C 
ENDROOT
BRANCH   1   2
ATOM      2  C   UNL     1      -1.135 -16.465 -27.494  1.00  0.00     0.042 C 
ATOM      3  O   UNL     1      -0.414 -15.443 -27.347  1.00  0.00    -0.550 OA
ATOM      4  O   UNL     1      -2.280 -16.394 -28.277  1.00  0.00    -0.550 OA
ENDBRANCH   1   2
BRANCH   1   5
ATOM      5  C   UNL     1       0.644 -18.190 -27.115  1.00  0.00     0.059 C 
BRANCH   5   6
ATOM      6  C   UNL     1       0.735 -18.805 -28.478  1.00  0.00     0.042 C 
ATOM      7  O   UNL     1      -0.239 -19.451 -28.947  1.00  0.00    -0.550 OA
ATOM      8  O   UNL     1       1.879 -18.630 -29.245  1.00  0.00    -0.550 OA
ENDBRANCH   5   6
ENDBRANCH   1   5
TORSDOF 3
ENDMDL
MODEL 6
REMARK VINA RESULT:    -3.345     16.475     17.251
REMARK INTER + INTRA:          -4.004
REMARK INTER:                  -3.915
REMARK INTRA:                  -0.089
REMARK UNBOUND:                -0.073
REMARK SMILES O=C([O-])CCC(=O)[O-]
REMARK SMILES IDX 4 1 2 2 1 3 3 4 5 5 6 6 7 7 8 8
REMARK H PARENT
REMARK Flexibility Score: inf
ROOT
ATOM      1  C   UNL     1       3.768 -32.943 -20.213  1.00  0.00     0.059 C 
ENDROOT
BRANCH   1   2
ATOM      2  C   UNL     1       3.091 -32.156 -21.294  1.00  0.00     0.042 C 
ATOM      3  O   UNL     1       3.081 -32.586 -22.478  1.00  0.00    -0.550 OA
ATOM      4  O   UNL     1       2.508 -30.929 -21.002  1.00  0.00    -0.550 OA
ENDBRANCH   1   2
BRANCH   1   5
ATOM      5  C   UNL     1       3.776 -34.442 -20.527  1.00  0.00     0.059 C 
BRANCH   5   6
ATOM      6  C   UNL     1       5.125 -34.902 -20.987  1.00  0.00     0.042 C 
ATOM      7  O   UNL     1       6.039 -35.125 -20.149  1.00  0.00    -0.550 OA
ATOM      8  O   UNL     1       5.362 -35.125 -22.338  1.00  0.00    -0.550 OA
ENDBRANCH   5   6
ENDBRANCH   1   5
TORSDOF 3
ENDMDL
MODEL 7
REMARK VINA RESULT:    -3.259      2.095      2.765
REMARK INTER + INTRA:          -3.903
REMARK INTER:                  -3.775
REMARK INTRA:                  -0.128
REMARK UNBOUND:                -0.073
REMARK SMILES O=C([O-])CCC(=O)[O-]
REMARK SMILES IDX 4 1 2 2 1 3 3 4 5 5 6 6 7 7 8 8
REMARK H PARENT
REMARK Flexibility Score: inf
ROOT
ATOM      1  C   UNL     1      -0.855 -17.870 -26.832  1.00  0.00     0.059 C 
ENDROOT
BRANCH   1   2
ATOM      2  C   UNL     1      -1.441 -16.536 -27.183  1.00  0.00     0.042 C 
ATOM      3  O   UNL     1      -1.204 -15.531 -26.461  1.00  0.00    -0.550 OA
ATOM      4  O   UNL     1      -2.281 -16.411 -28.282  1.00  0.00    -0.550 OA
ENDBRANCH   1   2
BRANCH   1   5
ATOM      5  C   UNL     1       0.670 -17.800 -26.704  1.00  0.00     0.059 C 
BRANCH   5   6
ATOM      6  C   UNL     1       1.327 -17.582 -28.032  1.00  0.00     0.042 C 
ATOM      7  O   UNL     1       1.756 -16.441 -28.348  1.00  0.00    -0.550 OA
ATOM      8  O   UNL     1       1.502 -18.649 -28.905  1.00  0.00    -0.550 OA
ENDBRANCH   5   6
ENDBRANCH   1   5
TORSDOF 3
ENDMDL
MODEL 8
REMARK VINA RESULT:    -3.250      1.146      3.947
REMARK INTER + INTRA:          -3.893
REMARK INTER:                  -3.853
REMARK INTRA:                  -0.040
REMARK UNBOUND:                -0.073
REMARK SMILES O=C([O-])CCC(=O)[O-]
REMARK SMILES IDX 4 1 2 2 1 3 3 4 5 5 6 6 7 7 8 8
REMARK H PARENT
REMARK Flexibility Score: inf
ROOT
ATOM      1  C   UNL     1      -0.412 -18.463 -27.856  1.00  0.00     0.059 C 
ENDROOT
BRANCH   1   2
ATOM      2  C   UNL     1       0.195 -19.341 -28.908  1.00  0.00     0.042 C 
ATOM      3  O   UNL     1       1.412 -19.657 -28.843  1.00  0.00    -0.550 OA
ATOM      4  O   UNL     1      -0.574 -19.776 -29.980  1.00  0.00    -0.550 OA
ENDBRANCH   1   2
BRANCH   1   5
ATOM      5  C   UNL     1       0.656 -17.868 -26.933  1.00  0.00     0.059 C 
BRANCH   5   6
ATOM      6  C   UNL     1       0.053 -17.296 -25.686  1.00  0.00     0.042 C 
ATOM      7  O   UNL     1       0.723 -16.517 -24.959  1.00  0.00    -0.550 OA
ATOM      8  O   UNL     1      -1.262 -17.592 -25.351  1.00  0.00    -0.550 OA
ENDBRANCH   5   6
ENDBRANCH   1   5
TORSDOF 3
ENDMDL
MODEL 9
REMARK VINA RESULT:    -3.187      1.496      3.479
REMARK INTER + INTRA:          -3.819
REMARK INTER:                  -3.703
REMARK INTRA:                  -0.116
REMARK UNBOUND:                -0.073
REMARK SMILES O=C([O-])CCC(=O)[O-]
REMARK SMILES IDX 4 1 2 2 1 3 3 4 5 5 6 6 7 7 8 8
REMARK H PARENT
REMARK Flexibility Score: inf
ROOT
ATOM      1  C   UNL     1      -0.539 -18.567 -27.939  1.00  0.00     0.059 C 
ENDROOT
BRANCH   1   2
ATOM      2  C   UNL     1       0.890 -18.647 -28.384  1.00  0.00     0.042 C 
ATOM      3  O   UNL     1       1.386 -19.754 -28.724  1.00  0.00    -0.550 OA
ATOM      4  O   UNL     1       1.685 -17.508 -28.384  1.00  0.00    -0.550 OA
ENDBRANCH   1   2
BRANCH   1   5
ATOM      5  C   UNL     1      -0.823 -17.263 -27.187  1.00  0.00     0.059 C 
BRANCH   5   6
ATOM      6  C   UNL     1      -0.578 -17.409 -25.716  1.00  0.00     0.042 C 
ATOM      7  O   UNL     1       0.529 -17.069 -25.221  1.00  0.00    -0.550 OA
ATOM      8  O   UNL     1      -1.586 -17.882 -24.886  1.00  0.00    -0.550 OA
ENDBRANCH   5   6
ENDBRANCH   1   5
TORSDOF 3
ENDMDL
