MODEL 1
REMARK VINA RESULT:    -5.767      0.000      0.000
REMARK INTER + INTRA:         -13.135
REMARK INTER:                 -10.823
REMARK INTRA:                  -2.312
REMARK UNBOUND:                -2.312
REMARK SMILES CCCCCCCCC=CCCCCCCCC(=O)[O-]
REMARK SMILES IDX 10 1 9 2 11 3 12 4 13 5 14 6 15 7 16 8 17 9 18 10 19 11
REMARK SMILES IDX 20 12 8 13 7 14 6 15 5 16 4 17 3 18 2 19 1 20
REMARK H PARENT
REMARK Flexibility Score: inf
ROOT
ATOM      1  C   UNL     1       3.143   5.841  20.743  1.00  0.00    -0.031 C 
ATOM      2  C   UNL     1       3.624   6.030  21.978  1.00  0.00    -0.031 C 
ENDROOT
BRANCH   1   3
ATOM      3  C   UNL     1       2.420   4.571  20.389  1.00  0.00     0.027 C 
BRANCH   3   4
ATOM      4  C   UNL     1       2.217   4.451  18.874  1.00  0.00     0.004 C 
BRANCH   4   5
ATOM      5  C   UNL     1       0.766   4.770  18.487  1.00  0.00     0.000 C 
BRANCH   5   6
ATOM      6  C   UNL     1       0.556   6.252  18.126  1.00  0.00     0.000 C 
BRANCH   6   7
ATOM      7  C   UNL     1       1.740   6.924  17.401  1.00  0.00     0.000 C 
BRANCH   7   8
ATOM      8  C   UNL     1       2.181   8.278  17.988  1.00  0.00     0.006 C 
BRANCH   8   9
ATOM      9  C   UNL     1       2.807   9.205  16.938  1.00  0.00     0.053 C 
BRANCH   9  10
ATOM     10  C   UNL     1       3.413  10.405  17.595  1.00  0.00     0.041 C 
ATOM     11  O   UNL     1       3.601  10.417  18.841  1.00  0.00    -0.550 OA
ATOM     12  O   UNL     1       3.729  11.527  16.840  1.00  0.00    -0.550 OA
ENDBRANCH   9  10
ENDBRANCH   8   9
ENDBRANCH   7   8
ENDBRANCH   6   7
ENDBRANCH   5   6
ENDBRANCH   4   5
ENDBRANCH   3   4
ENDBRANCH   1   3
BRANCH   2  13
ATOM     13  C   UNL     1       4.345   7.295  22.362  1.00  0.00     0.027 C 
BRANCH  13  14
ATOM     14  C   UNL     1       5.631   7.024  23.162  1.00  0.00     0.004 C 
BRANCH  14  15
ATOM     15  C   UNL     1       6.935   7.195  22.355  1.00  0.00     0.000 C 
BRANCH  15  16
ATOM     16  C   UNL     1       6.787   7.960  21.027  1.00  0.00     0.000 C 
BRANCH  16  17
ATOM     17  C   UNL     1       7.844   7.556  19.985  1.00  0.00    -0.000 C 
BRANCH  17  18
ATOM     18  C   UNL     1       7.267   7.471  18.563  1.00  0.00    -0.000 C 
BRANCH  18  19
ATOM     19  C   UNL     1       5.753   7.213  18.551  1.00  0.00    -0.003 C 
ATOM     20  C   UNL     1       5.411   5.987  17.710  1.00  0.00     0.004 C 
ENDBRANCH  18  19
ENDBRANCH  17  18
ENDBRANCH  16  17
ENDBRANCH  15  16
ENDBRANCH  14  15
ENDBRANCH  13  14
ENDBRANCH   2  13
TORSDOF 15
ENDMDL
MODEL 2
REMARK VINA RESULT:    -5.709      1.445      5.243
REMARK INTER + INTRA:         -13.027
REMARK INTER:                 -10.906
REMARK INTRA:                  -2.121
REMARK UNBOUND:                -2.312
REMARK SMILES CCCCCCCCC=CCCCCCCCC(=O)[O-]
REMARK SMILES IDX 10 1 9 2 11 3 12 4 13 5 14 6 15 7 16 8 17 9 18 10 19 11
REMARK SMILES IDX 20 12 8 13 7 14 6 15 5 16 4 17 3 18 2 19 1 20
REMARK H PARENT
REMARK Flexibility Score: inf
ROOT
ATOM      1  C   UNL     1       4.507   7.090  22.490  1.00  0.00    -0.031 C 
ATOM      2  C   UNL     1       3.902   5.991  22.022  1.00  0.00    -0.031 C 
ENDROOT
BRANCH   1   3
ATOM      3  C   UNL     1       5.677   6.979  23.429  1.00  0.00     0.027 C 
BRANCH   3   4
ATOM      4  C   UNL     1       7.004   6.951  22.663  1.00  0.00     0.004 C 
BRANCH   4   5
ATOM      5  C   UNL     1       7.088   8.117  21.668  1.00  0.00     0.000 C 
BRANCH   5   6
ATOM      6  C   UNL     1       7.499   7.668  20.254  1.00  0.00     0.000 C 
BRANCH   6   7
ATOM      7  C   UNL     1       6.334   7.502  19.256  1.00  0.00     0.000 C 
BRANCH   7   8
ATOM      8  C   UNL     1       5.237   8.578  19.348  1.00  0.00     0.006 C 
BRANCH   8   9
ATOM      9  C   UNL     1       5.614   9.876  18.623  1.00  0.00     0.053 C 
BRANCH   9  10
ATOM     10  C   UNL     1       5.473  11.048  19.542  1.00  0.00     0.041 C 
ATOM     11  O   UNL     1       4.509  11.846  19.405  1.00  0.00    -0.550 OA
ATOM     12  O   UNL     1       6.429  11.284  20.522  1.00  0.00    -0.550 OA
ENDBRANCH   9  10
ENDBRANCH   8   9
ENDBRANCH   7   8
ENDBRANCH   6   7
ENDBRANCH   5   6
ENDBRANCH   4   5
ENDBRANCH   3   4
ENDBRANCH   1   3
BRANCH   2  13
ATOM     13  C   UNL     1       2.735   6.072  21.074  1.00  0.00     0.027 C 
BRANCH  13  14
ATOM     14  C   UNL     1       2.982   5.302  19.764  1.00  0.00     0.004 C 
BRANCH  14  15
ATOM     15  C   UNL     1       1.911   4.243  19.433  1.00  0.00     0.000 C 
BRANCH  15  16
ATOM     16  C   UNL     1       1.119   4.496  18.137  1.00  0.00     0.000 C 
BRANCH  16  17
ATOM     17  C   UNL     1       1.214   5.953  17.653  1.00  0.00    -0.000 C 
BRANCH  17  18
ATOM     18  C   UNL     1       0.056   6.822  18.168  1.00  0.00    -0.000 C 
BRANCH  18  19
ATOM     19  C   UNL     1       0.308   8.324  17.973  1.00  0.00    -0.003 C 
ATOM     20  C   UNL     1       1.774   8.597  17.648  1.00  0.00     0.004 C 
ENDBRANCH  18  19
ENDBRANCH  17  18
ENDBRANCH  16  17
ENDBRANCH  15  16
ENDBRANCH  14  15
ENDBRANCH  13  14
ENDBRANCH   2  13
TORSDOF 15
ENDMDL
MODEL 3
REMARK VINA RESULT:    -5.695      1.354      4.994
REMARK INTER + INTRA:         -13.002
REMARK INTER:                 -10.540
REMARK INTRA:                  -2.462
REMARK UNBOUND:                -2.312
REMARK SMILES CCCCCCCCC=CCCCCCCCC(=O)[O-]
REMARK SMILES IDX 10 1 9 2 11 3 12 4 13 5 14 6 15 7 16 8 17 9 18 10 19 11
REMARK SMILES IDX 20 12 8 13 7 14 6 15 5 16 4 17 3 18 2 19 1 20
REMARK H PARENT
REMARK Flexibility Score: inf
ROOT
ATOM      1  C   UNL     1       3.299   5.684  20.807  1.00  0.00    -0.031 C 
ATOM      2  C   UNL     1       2.385   4.756  20.495  1.00  0.00    -0.031 C 
ENDROOT
BRANCH   1   3
ATOM      3  C   UNL     1       3.554   6.056  22.241  1.00  0.00     0.027 C 
BRANCH   3   4
ATOM      4  C   UNL     1       4.416   7.320  22.342  1.00  0.00     0.004 C 
BRANCH   4   5
ATOM      5  C   UNL     1       5.676   7.061  23.179  1.00  0.00     0.000 C 
BRANCH   5   6
ATOM      6  C   UNL     1       6.972   7.451  22.445  1.00  0.00     0.000 C 
BRANCH   6   7
ATOM      7  C   UNL     1       6.900   7.376  20.906  1.00  0.00     0.000 C 
BRANCH   7   8
ATOM      8  C   UNL     1       7.833   8.348  20.161  1.00  0.00     0.006 C 
BRANCH   8   9
ATOM      9  C   UNL     1       7.675   9.800  20.629  1.00  0.00     0.053 C 
BRANCH   9  10
ATOM     10  C   UNL     1       6.408  10.387  20.094  1.00  0.00     0.041 C 
ATOM     11  O   UNL     1       5.363  10.384  20.797  1.00  0.00    -0.550 OA
ATOM     12  O   UNL     1       6.368  10.899  18.803  1.00  0.00    -0.550 OA
ENDBRANCH   9  10
ENDBRANCH   8   9
ENDBRANCH   7   8
ENDBRANCH   6   7
ENDBRANCH   5   6
ENDBRANCH   4   5
ENDBRANCH   3   4
ENDBRANCH   1   3
BRANCH   2  13
ATOM     13  C   UNL     1       2.115   4.358  19.068  1.00  0.00     0.027 C 
BRANCH  13  14
ATOM     14  C   UNL     1       0.838   5.006  18.505  1.00  0.00     0.004 C 
BRANCH  14  15
ATOM     15  C   UNL     1       1.070   6.338  17.762  1.00  0.00     0.000 C 
BRANCH  15  16
ATOM     16  C   UNL     1       2.499   6.551  17.229  1.00  0.00     0.000 C 
BRANCH  16  17
ATOM     17  C   UNL     1       3.146   7.843  17.756  1.00  0.00    -0.000 C 
BRANCH  17  18
ATOM     18  C   UNL     1       4.649   7.678  18.036  1.00  0.00    -0.000 C 
BRANCH  18  19
ATOM     19  C   UNL     1       5.140   6.240  17.810  1.00  0.00    -0.003 C 
ATOM     20  C   UNL     1       6.490   6.226  17.100  1.00  0.00     0.004 C 
ENDBRANCH  18  19
ENDBRANCH  17  18
ENDBRANCH  16  17
ENDBRANCH  15  16
ENDBRANCH  14  15
ENDBRANCH  13  14
ENDBRANCH   2  13
TORSDOF 15
ENDMDL
MODEL 4
REMARK VINA RESULT:    -5.694      1.000      4.512
REMARK INTER + INTRA:         -13.000
REMARK INTER:                 -10.526
REMARK INTRA:                  -2.474
REMARK UNBOUND:                -2.312
REMARK SMILES CCCCCCCCC=CCCCCCCCC(=O)[O-]
REMARK SMILES IDX 10 1 9 2 11 3 12 4 13 5 14 6 15 7 16 8 17 9 18 10 19 11
REMARK SMILES IDX 20 12 8 13 7 14 6 15 5 16 4 17 3 18 2 19 1 20
REMARK H PARENT
REMARK Flexibility Score: inf
ROOT
ATOM      1  C   UNL     1       6.414   8.088  21.280  1.00  0.00    -0.031 C 
ATOM      2  C   UNL     1       6.698   7.468  22.434  1.00  0.00    -0.031 C 
ENDROOT
BRANCH   1   3
ATOM      3  C   UNL     1       7.517   8.530  20.358  1.00  0.00     0.027 C 
BRANCH   3   4
ATOM      4  C   UNL     1       7.997   7.374  19.474  1.00  0.00     0.004 C 
BRANCH   4   5
ATOM      5  C   UNL     1       7.624   7.614  18.004  1.00  0.00     0.000 C 
BRANCH   5   6
ATOM      6  C   UNL     1       6.709   6.516  17.432  1.00  0.00     0.000 C 
BRANCH   6   7
ATOM      7  C   UNL     1       5.363   6.339  18.165  1.00  0.00     0.000 C 
BRANCH   7   8
ATOM      8  C   UNL     1       4.226   7.252  17.672  1.00  0.00     0.006 C 
BRANCH   8   9
ATOM      9  C   UNL     1       3.874   8.359  18.675  1.00  0.00     0.053 C 
BRANCH   9  10
ATOM     10  C   UNL     1       4.121   9.706  18.075  1.00  0.00     0.041 C 
ATOM     11  O   UNL     1       5.300  10.114  17.899  1.00  0.00    -0.550 OA
ATOM     12  O   UNL     1       3.052  10.532  17.751  1.00  0.00    -0.550 OA
ENDBRANCH   9  10
ENDBRANCH   8   9
ENDBRANCH   7   8
ENDBRANCH   6   7
ENDBRANCH   5   6
ENDBRANCH   4   5
ENDBRANCH   3   4
ENDBRANCH   1   3
BRANCH   2  13
ATOM     13  C   UNL     1       5.614   7.008  23.372  1.00  0.00     0.027 C 
BRANCH  13  14
ATOM     14  C   UNL     1       4.218   7.041  22.725  1.00  0.00     0.004 C 
BRANCH  14  15
ATOM     15  C   UNL     1       3.779   5.711  22.080  1.00  0.00     0.000 C 
BRANCH  15  16
ATOM     16  C   UNL     1       2.756   5.843  20.937  1.00  0.00     0.000 C 
BRANCH  16  17
ATOM     17  C   UNL     1       2.726   4.610  20.017  1.00  0.00    -0.000 C 
BRANCH  17  18
ATOM     18  C   UNL     1       1.339   4.368  19.402  1.00  0.00    -0.000 C 
BRANCH  18  19
ATOM     19  C   UNL     1       1.168   5.049  18.036  1.00  0.00    -0.003 C 
ATOM     20  C   UNL     1       0.357   6.335  18.161  1.00  0.00     0.004 C 
ENDBRANCH  18  19
ENDBRANCH  17  18
ENDBRANCH  16  17
ENDBRANCH  15  16
ENDBRANCH  14  15
ENDBRANCH  13  14
ENDBRANCH   2  13
TORSDOF 15
ENDMDL
MODEL 5
REMARK VINA RESULT:    -5.681      2.015      5.601
REMARK INTER + INTRA:         -12.974
REMARK INTER:                 -10.859
REMARK INTRA:                  -2.115
REMARK UNBOUND:                -2.312
REMARK SMILES CCCCCCCCC=CCCCCCCCC(=O)[O-]
REMARK SMILES IDX 10 1 9 2 11 3 12 4 13 5 14 6 15 7 16 8 17 9 18 10 19 11
REMARK SMILES IDX 20 12 8 13 7 14 6 15 5 16 4 17 3 18 2 19 1 20
REMARK H PARENT
REMARK Flexibility Score: inf
ROOT
ATOM      1  C   UNL     1       4.524   6.983  22.081  1.00  0.00    -0.031 C 
ATOM      2  C   UNL     1       3.798   5.880  21.853  1.00  0.00    -0.031 C 
ENDROOT
BRANCH   1   3
ATOM      3  C   UNL     1       5.549   7.013  23.181  1.00  0.00     0.027 C 
BRANCH   3   4
ATOM      4  C   UNL     1       6.899   7.526  22.668  1.00  0.00     0.004 C 
BRANCH   4   5
ATOM      5  C   UNL     1       6.719   8.378  21.404  1.00  0.00     0.000 C 
BRANCH   5   6
ATOM      6  C   UNL     1       7.932   8.312  20.460  1.00  0.00     0.000 C 
BRANCH   6   7
ATOM      7  C   UNL     1       7.769   7.371  19.248  1.00  0.00     0.000 C 
BRANCH   7   8
ATOM      8  C   UNL     1       6.351   7.316  18.651  1.00  0.00     0.006 C 
BRANCH   8   9
ATOM      9  C   UNL     1       6.105   6.053  17.816  1.00  0.00     0.053 C 
BRANCH   9  10
ATOM     10  C   UNL     1       6.432   6.306  16.378  1.00  0.00     0.041 C 
ATOM     11  O   UNL     1       5.602   6.893  15.635  1.00  0.00    -0.550 OA
ATOM     12  O   UNL     1       7.633   5.854  15.847  1.00  0.00    -0.550 OA
ENDBRANCH   9  10
ENDBRANCH   8   9
ENDBRANCH   7   8
ENDBRANCH   6   7
ENDBRANCH   5   6
ENDBRANCH   4   5
ENDBRANCH   3   4
ENDBRANCH   1   3
BRANCH   2  13
ATOM     13  C   UNL     1       2.772   5.821  20.754  1.00  0.00     0.027 C 
BRANCH  13  14
ATOM     14  C   UNL     1       2.480   4.381  20.294  1.00  0.00     0.004 C 
BRANCH  14  15
ATOM     15  C   UNL     1       2.005   4.260  18.832  1.00  0.00     0.000 C 
BRANCH  15  16
ATOM     16  C   UNL     1       0.644   4.912  18.529  1.00  0.00     0.000 C 
BRANCH  16  17
ATOM     17  C   UNL     1       0.765   6.164  17.642  1.00  0.00    -0.000 C 
BRANCH  17  18
ATOM     18  C   UNL     1       2.187   6.360  17.092  1.00  0.00    -0.000 C 
BRANCH  18  19
ATOM     19  C   UNL     1       2.796   7.713  17.491  1.00  0.00    -0.003 C 
ATOM     20  C   UNL     1       1.714   8.776  17.654  1.00  0.00     0.004 C 
ENDBRANCH  18  19
ENDBRANCH  17  18
ENDBRANCH  16  17
ENDBRANCH  15  16
ENDBRANCH  14  15
ENDBRANCH  13  14
ENDBRANCH   2  13
TORSDOF 15
ENDMDL
MODEL 6
REMARK VINA RESULT:    -5.676      2.191      5.554
REMARK INTER + INTRA:         -12.965
REMARK INTER:                 -10.913
REMARK INTRA:                  -2.052
REMARK UNBOUND:                -2.312
REMARK SMILES CCCCCCCCC=CCCCCCCCC(=O)[O-]
REMARK SMILES IDX 10 1 9 2 11 3 12 4 13 5 14 6 15 7 16 8 17 9 18 10 19 11
REMARK SMILES IDX 20 12 8 13 7 14 6 15 5 16 4 17 3 18 2 19 1 20
REMARK H PARENT
REMARK Flexibility Score: inf
ROOT
ATOM      1  C   UNL     1       3.883   6.424  22.724  1.00  0.00    -0.031 C 
ATOM      2  C   UNL     1       3.785   6.328  21.392  1.00  0.00    -0.031 C 
ENDROOT
BRANCH   1   3
ATOM      3  C   UNL     1       5.117   7.002  23.362  1.00  0.00     0.027 C 
BRANCH   3   4
ATOM      4  C   UNL     1       6.377   6.621  22.577  1.00  0.00     0.004 C 
BRANCH   4   5
ATOM      5  C   UNL     1       7.232   7.861  22.275  1.00  0.00     0.000 C 
BRANCH   5   6
ATOM      6  C   UNL     1       6.923   8.479  20.899  1.00  0.00     0.000 C 
BRANCH   6   7
ATOM      7  C   UNL     1       7.485   7.702  19.691  1.00  0.00     0.000 C 
BRANCH   7   8
ATOM      8  C   UNL     1       6.488   7.475  18.540  1.00  0.00     0.006 C 
BRANCH   8   9
ATOM      9  C   UNL     1       6.824   6.238  17.697  1.00  0.00     0.053 C 
BRANCH   9  10
ATOM     10  C   UNL     1       7.253   6.642  16.322  1.00  0.00     0.041 C 
ATOM     11  O   UNL     1       7.709   7.798  16.116  1.00  0.00    -0.550 OA
ATOM     12  O   UNL     1       7.108   5.759  15.260  1.00  0.00    -0.550 OA
ENDBRANCH   9  10
ENDBRANCH   8   9
ENDBRANCH   7   8
ENDBRANCH   6   7
ENDBRANCH   5   6
ENDBRANCH   4   5
ENDBRANCH   3   4
ENDBRANCH   1   3
BRANCH   2  13
ATOM     13  C   UNL     1       2.559   5.761  20.727  1.00  0.00     0.027 C 
BRANCH  13  14
ATOM     14  C   UNL     1       2.800   4.361  20.136  1.00  0.00     0.004 C 
BRANCH  14  15
ATOM     15  C   UNL     1       1.880   3.998  18.952  1.00  0.00     0.000 C 
BRANCH  15  16
ATOM     16  C   UNL     1       0.688   4.948  18.735  1.00  0.00     0.000 C 
BRANCH  16  17
ATOM     17  C   UNL     1       0.838   5.816  17.474  1.00  0.00    -0.000 C 
BRANCH  17  18
ATOM     18  C   UNL     1       1.377   7.221  17.788  1.00  0.00    -0.000 C 
BRANCH  18  19
ATOM     19  C   UNL     1       2.795   7.448  17.242  1.00  0.00    -0.003 C 
ATOM     20  C   UNL     1       3.238   6.283  16.362  1.00  0.00     0.004 C 
ENDBRANCH  18  19
ENDBRANCH  17  18
ENDBRANCH  16  17
ENDBRANCH  15  16
ENDBRANCH  14  15
ENDBRANCH  13  14
ENDBRANCH   2  13
TORSDOF 15
ENDMDL
MODEL 7
REMARK VINA RESULT:    -5.667      1.198      4.656
REMARK INTER + INTRA:         -12.949
REMARK INTER:                 -10.308
REMARK INTRA:                  -2.642
REMARK UNBOUND:                -2.312
REMARK SMILES CCCCCCCCC=CCCCCCCCC(=O)[O-]
REMARK SMILES IDX 10 1 9 2 11 3 12 4 13 5 14 6 15 7 16 8 17 9 18 10 19 11
REMARK SMILES IDX 20 12 8 13 7 14 6 15 5 16 4 17 3 18 2 19 1 20
REMARK H PARENT
REMARK Flexibility Score: inf
ROOT
ATOM      1  C   UNL     1       3.823   6.027  22.145  1.00  0.00    -0.031 C 
ATOM      2  C   UNL     1       3.357   5.984  20.890  1.00  0.00    -0.031 C 
ENDROOT
BRANCH   1   3
ATOM      3  C   UNL     1       4.444   7.285  22.688  1.00  0.00     0.027 C 
BRANCH   3   4
ATOM      4  C   UNL     1       5.786   6.993  23.368  1.00  0.00     0.004 C 
BRANCH   4   5
ATOM      5  C   UNL     1       6.927   7.760  22.684  1.00  0.00     0.000 C 
BRANCH   5   6
ATOM      6  C   UNL     1       6.985   7.515  21.166  1.00  0.00     0.000 C 
BRANCH   6   7
ATOM      7  C   UNL     1       7.104   8.787  20.302  1.00  0.00     0.000 C 
BRANCH   7   8
ATOM      8  C   UNL     1       5.897   9.740  20.372  1.00  0.00     0.006 C 
BRANCH   8   9
ATOM      9  C   UNL     1       4.713   9.264  19.520  1.00  0.00     0.053 C 
BRANCH   9  10
ATOM     10  C   UNL     1       4.021  10.431  18.889  1.00  0.00     0.041 C 
ATOM     11  O   UNL     1       4.195  11.592  19.345  1.00  0.00    -0.550 OA
ATOM     12  O   UNL     1       3.151  10.232  17.825  1.00  0.00    -0.550 OA
ENDBRANCH   9  10
ENDBRANCH   8   9
ENDBRANCH   7   8
ENDBRANCH   6   7
ENDBRANCH   5   6
ENDBRANCH   4   5
ENDBRANCH   3   4
ENDBRANCH   1   3
BRANCH   2  13
ATOM     13  C   UNL     1       2.724   4.741  20.323  1.00  0.00     0.027 C 
BRANCH  13  14
ATOM     14  C   UNL     1       1.850   5.031  19.090  1.00  0.00     0.004 C 
BRANCH  14  15
ATOM     15  C   UNL     1       1.711   6.527  18.742  1.00  0.00     0.000 C 
BRANCH  15  16
ATOM     16  C   UNL     1       2.169   6.914  17.323  1.00  0.00     0.000 C 
BRANCH  16  17
ATOM     17  C   UNL     1       3.137   5.889  16.707  1.00  0.00    -0.000 C 
BRANCH  17  18
ATOM     18  C   UNL     1       4.585   6.403  16.656  1.00  0.00    -0.000 C 
BRANCH  18  19
ATOM     19  C   UNL     1       5.440   5.887  17.823  1.00  0.00    -0.003 C 
ATOM     20  C   UNL     1       6.912   6.232  17.620  1.00  0.00     0.004 C 
ENDBRANCH  18  19
ENDBRANCH  17  18
ENDBRANCH  16  17
ENDBRANCH  15  16
ENDBRANCH  14  15
ENDBRANCH  13  14
ENDBRANCH   2  13
TORSDOF 15
ENDMDL
MODEL 8
REMARK VINA RESULT:    -5.662      1.560      2.906
REMARK INTER + INTRA:         -12.940
REMARK INTER:                 -10.468
REMARK INTRA:                  -2.472
REMARK UNBOUND:                -2.312
REMARK SMILES CCCCCCCCC=CCCCCCCCC(=O)[O-]
REMARK SMILES IDX 10 1 9 2 11 3 12 4 13 5 14 6 15 7 16 8 17 9 18 10 19 11
REMARK SMILES IDX 20 12 8 13 7 14 6 15 5 16 4 17 3 18 2 19 1 20
REMARK H PARENT
REMARK Flexibility Score: inf
ROOT
ATOM      1  C   UNL     1       4.273   7.237  22.609  1.00  0.00    -0.031 C 
ATOM      2  C   UNL     1       5.556   6.856  22.557  1.00  0.00    -0.031 C 
ENDROOT
BRANCH   1   3
ATOM      3  C   UNL     1       3.179   6.306  22.163  1.00  0.00     0.027 C 
BRANCH   3   4
ATOM      4  C   UNL     1       3.373   5.883  20.703  1.00  0.00     0.004 C 
BRANCH   4   5
ATOM      5  C   UNL     1       2.660   4.554  20.417  1.00  0.00     0.000 C 
BRANCH   5   6
ATOM      6  C   UNL     1       2.266   4.393  18.938  1.00  0.00     0.000 C 
BRANCH   6   7
ATOM      7  C   UNL     1       0.792   4.711  18.614  1.00  0.00     0.000 C 
BRANCH   7   8
ATOM      8  C   UNL     1       0.577   5.845  17.596  1.00  0.00     0.006 C 
BRANCH   8   9
ATOM      9  C   UNL     1       0.761   7.239  18.209  1.00  0.00     0.053 C 
BRANCH   9  10
ATOM     10  C   UNL     1       1.927   7.936  17.583  1.00  0.00     0.041 C 
ATOM     11  O   UNL     1       1.970   9.194  17.553  1.00  0.00    -0.550 OA
ATOM     12  O   UNL     1       2.945   7.197  16.992  1.00  0.00    -0.550 OA
ENDBRANCH   9  10
ENDBRANCH   8   9
ENDBRANCH   7   8
ENDBRANCH   6   7
ENDBRANCH   5   6
ENDBRANCH   4   5
ENDBRANCH   3   4
ENDBRANCH   1   3
BRANCH   2  13
ATOM     13  C   UNL     1       6.671   7.764  23.005  1.00  0.00     0.027 C 
BRANCH  13  14
ATOM     14  C   UNL     1       7.638   8.121  21.862  1.00  0.00     0.004 C 
BRANCH  14  15
ATOM     15  C   UNL     1       7.396   7.345  20.552  1.00  0.00     0.000 C 
BRANCH  15  16
ATOM     16  C   UNL     1       7.833   8.074  19.268  1.00  0.00     0.000 C 
BRANCH  16  17
ATOM     17  C   UNL     1       6.731   8.982  18.693  1.00  0.00    -0.000 C 
BRANCH  17  18
ATOM     18  C   UNL     1       5.327   8.576  19.168  1.00  0.00    -0.000 C 
BRANCH  18  19
ATOM     19  C   UNL     1       4.586   9.720  19.876  1.00  0.00    -0.003 C 
ATOM     20  C   UNL     1       5.553  10.822  20.298  1.00  0.00     0.004 C 
ENDBRANCH  18  19
ENDBRANCH  17  18
ENDBRANCH  16  17
ENDBRANCH  15  16
ENDBRANCH  14  15
ENDBRANCH  13  14
ENDBRANCH   2  13
TORSDOF 15
ENDMDL
MODEL 9
REMARK VINA RESULT:    -5.635      2.133      4.279
REMARK INTER + INTRA:         -12.889
REMARK INTER:                 -10.067
REMARK INTRA:                  -2.821
REMARK UNBOUND:                -2.312
REMARK SMILES CCCCCCCCC=CCCCCCCCC(=O)[O-]
REMARK SMILES IDX 10 1 9 2 11 3 12 4 13 5 14 6 15 7 16 8 17 9 18 10 19 11
REMARK SMILES IDX 20 12 8 13 7 14 6 15 5 16 4 17 3 18 2 19 1 20
REMARK H PARENT
REMARK Flexibility Score: inf
ROOT
ATOM      1  C   UNL     1       6.922   7.634  22.545  1.00  0.00    -0.031 C 
ATOM      2  C   UNL     1       6.758   8.299  21.394  1.00  0.00    -0.031 C 
ENDROOT
BRANCH   1   3
ATOM      3  C   UNL     1       5.741   7.035  23.258  1.00  0.00     0.027 C 
BRANCH   3   4
ATOM      4  C   UNL     1       4.429   7.375  22.542  1.00  0.00     0.004 C 
BRANCH   4   5
ATOM      5  C   UNL     1       3.493   6.159  22.502  1.00  0.00     0.000 C 
BRANCH   5   6
ATOM      6  C   UNL     1       3.087   5.763  21.071  1.00  0.00     0.000 C 
BRANCH   6   7
ATOM      7  C   UNL     1       3.744   6.596  19.951  1.00  0.00     0.000 C 
BRANCH   7   8
ATOM      8  C   UNL     1       3.898   5.868  18.602  1.00  0.00     0.006 C 
BRANCH   8   9
ATOM      9  C   UNL     1       3.007   6.459  17.502  1.00  0.00     0.053 C 
BRANCH   9  10
ATOM     10  C   UNL     1       1.572   6.117  17.753  1.00  0.00     0.041 C 
ATOM     11  O   UNL     1       0.713   7.032  17.853  1.00  0.00    -0.550 OA
ATOM     12  O   UNL     1       1.190   4.792  17.920  1.00  0.00    -0.550 OA
ENDBRANCH   9  10
ENDBRANCH   8   9
ENDBRANCH   7   8
ENDBRANCH   6   7
ENDBRANCH   5   6
ENDBRANCH   4   5
ENDBRANCH   3   4
ENDBRANCH   1   3
BRANCH   2  13
ATOM     13  C   UNL     1       7.923   8.901  20.654  1.00  0.00     0.027 C 
BRANCH  13  14
ATOM     14  C   UNL     1       8.431   8.000  19.515  1.00  0.00     0.004 C 
BRANCH  14  15
ATOM     15  C   UNL     1       7.360   7.071  18.907  1.00  0.00     0.000 C 
BRANCH  15  16
ATOM     16  C   UNL     1       7.299   7.062  17.368  1.00  0.00     0.000 C 
BRANCH  16  17
ATOM     17  C   UNL     1       7.164   8.471  16.767  1.00  0.00    -0.000 C 
BRANCH  17  18
ATOM     18  C   UNL     1       5.742   9.039  16.909  1.00  0.00    -0.000 C 
BRANCH  18  19
ATOM     19  C   UNL     1       5.669  10.216  17.892  1.00  0.00    -0.003 C 
ATOM     20  C   UNL     1       4.566  10.002  18.924  1.00  0.00     0.004 C 
ENDBRANCH  18  19
ENDBRANCH  17  18
ENDBRANCH  16  17
ENDBRANCH  15  16
ENDBRANCH  14  15
ENDBRANCH  13  14
ENDBRANCH   2  13
TORSDOF 15
ENDMDL
