MODEL 1
REMARK VINA RESULT:    -4.319      0.000      0.000
REMARK INTER + INTRA:          -9.233
REMARK INTER:                  -7.476
REMARK INTRA:                  -1.758
REMARK UNBOUND:                -1.758
REMARK SMILES CCCCCCCCCCCCCCO
REMARK SMILES IDX 8 1 7 2 6 3 5 4 4 5 3 6 2 7 1 8 9 9 10 10 11 11 12 12 13 13
REMARK SMILES IDX 14 14 15 15
REMARK H PARENT 15 16
REMARK Flexibility Score: inf
ROOT
ATOM      1  C   UNL     1     -25.545  61.317  30.993  1.00  0.00     0.000 C 
ENDROOT
BRANCH   1   2
ATOM      2  C   UNL     1     -25.698  60.135  30.019  1.00  0.00    -0.000 C 
BRANCH   2   3
ATOM      3  C   UNL     1     -24.802  58.941  30.385  1.00  0.00    -0.000 C 
BRANCH   3   4
ATOM      4  C   UNL     1     -23.562  58.835  29.482  1.00  0.00    -0.000 C 
BRANCH   4   5
ATOM      5  C   UNL     1     -23.761  59.532  28.124  1.00  0.00    -0.000 C 
BRANCH   5   6
ATOM      6  C   UNL     1     -22.648  60.544  27.811  1.00  0.00    -0.000 C 
BRANCH   6   7
ATOM      7  C   UNL     1     -21.387  60.321  28.660  1.00  0.00    -0.003 C 
ATOM      8  C   UNL     1     -20.492  61.557  28.649  1.00  0.00     0.004 C 
ENDBRANCH   6   7
ENDBRANCH   5   6
ENDBRANCH   4   5
ENDBRANCH   3   4
ENDBRANCH   2   3
ENDBRANCH   1   2
BRANCH   1   9
ATOM      9  C   UNL     1     -24.805  62.527  30.384  1.00  0.00     0.000 C 
BRANCH   9  10
ATOM     10  C   UNL     1     -23.326  62.574  30.806  1.00  0.00     0.000 C 
BRANCH  10  11
ATOM     11  C   UNL     1     -23.021  61.651  31.996  1.00  0.00     0.000 C 
BRANCH  11  12
ATOM     12  C   UNL     1     -21.548  61.718  32.434  1.00  0.00     0.002 C 
BRANCH  12  13
ATOM     13  C   UNL     1     -21.386  61.734  33.964  1.00  0.00     0.028 C 
BRANCH  13  14
ATOM     14  C   UNL     1     -19.923  61.824  34.424  1.00  0.00     0.156 C 
BRANCH  14  15
ATOM     15  O   UNL     1     -19.810  62.572  35.605  1.00  0.00    -0.396 OA
ATOM     16  H   UNL     1     -20.701  62.551  36.041  1.00  0.00     0.210 HD
ENDBRANCH  14  15
ENDBRANCH  13  14
ENDBRANCH  12  13
ENDBRANCH  11  12
ENDBRANCH  10  11
ENDBRANCH   9  10
ENDBRANCH   1   9
TORSDOF 13
ENDMDL
MODEL 2
REMARK VINA RESULT:    -4.283      2.654      4.949
REMARK INTER + INTRA:          -9.171
REMARK INTER:                  -7.882
REMARK INTRA:                  -1.289
REMARK UNBOUND:                -1.758
REMARK SMILES CCCCCCCCCCCCCCO
REMARK SMILES IDX 8 1 7 2 6 3 5 4 4 5 3 6 2 7 1 8 9 9 10 10 11 11 12 12 13 13
REMARK SMILES IDX 14 14 15 15
REMARK H PARENT 15 16
REMARK Flexibility Score: inf
ROOT
ATOM      1  C   UNL     1     -23.683  60.551  28.439  1.00  0.00     0.000 C 
ENDROOT
BRANCH   1   2
ATOM      2  C   UNL     1     -22.851  61.620  27.709  1.00  0.00    -0.000 C 
BRANCH   2   3
ATOM      3  C   UNL     1     -21.387  61.659  28.175  1.00  0.00    -0.000 C 
BRANCH   3   4
ATOM      4  C   UNL     1     -21.197  61.057  29.577  1.00  0.00    -0.000 C 
BRANCH   4   5
ATOM      5  C   UNL     1     -20.750  62.105  30.612  1.00  0.00    -0.000 C 
BRANCH   5   6
ATOM      6  C   UNL     1     -21.679  62.160  31.835  1.00  0.00    -0.000 C 
BRANCH   6   7
ATOM      7  C   UNL     1     -20.916  62.056  33.164  1.00  0.00    -0.003 C 
ATOM      8  C   UNL     1     -21.875  61.846  34.333  1.00  0.00     0.004 C 
ENDBRANCH   6   7
ENDBRANCH   5   6
ENDBRANCH   4   5
ENDBRANCH   3   4
ENDBRANCH   2   3
ENDBRANCH   1   2
BRANCH   1   9
ATOM      9  C   UNL     1     -24.910  61.122  29.180  1.00  0.00     0.000 C 
BRANCH   9  10
ATOM     10  C   UNL     1     -24.693  62.581  29.622  1.00  0.00     0.000 C 
BRANCH  10  11
ATOM     11  C   UNL     1     -25.286  62.873  31.009  1.00  0.00     0.000 C 
BRANCH  11  12
ATOM     12  C   UNL     1     -25.682  61.592  31.764  1.00  0.00     0.002 C 
BRANCH  12  13
ATOM     13  C   UNL     1     -26.885  61.804  32.698  1.00  0.00     0.028 C 
BRANCH  13  14
ATOM     14  C   UNL     1     -27.832  60.597  32.762  1.00  0.00     0.156 C 
BRANCH  14  15
ATOM     15  O   UNL     1     -27.245  59.463  32.182  1.00  0.00    -0.396 OA
ATOM     16  H   UNL     1     -27.110  59.673  31.221  1.00  0.00     0.210 HD
ENDBRANCH  14  15
ENDBRANCH  13  14
ENDBRANCH  12  13
ENDBRANCH  11  12
ENDBRANCH  10  11
ENDBRANCH   9  10
ENDBRANCH   1   9
TORSDOF 13
ENDMDL
MODEL 3
REMARK VINA RESULT:    -4.279      2.682      5.108
REMARK INTER + INTRA:          -9.164
REMARK INTER:                  -7.069
REMARK INTRA:                  -2.095
REMARK UNBOUND:                -1.758
REMARK SMILES CCCCCCCCCCCCCCO
REMARK SMILES IDX 8 1 7 2 6 3 5 4 4 5 3 6 2 7 1 8 9 9 10 10 11 11 12 12 13 13
REMARK SMILES IDX 14 14 15 15
REMARK H PARENT 15 16
REMARK Flexibility Score: inf
ROOT
ATOM      1  C   UNL     1     -21.653  60.668  28.533  1.00  0.00     0.000 C 
ENDROOT
BRANCH   1   2
ATOM      2  C   UNL     1     -20.566  61.643  29.018  1.00  0.00    -0.000 C 
BRANCH   2   3
ATOM      3  C   UNL     1     -20.299  61.537  30.528  1.00  0.00    -0.000 C 
BRANCH   3   4
ATOM      4  C   UNL     1     -21.235  62.430  31.358  1.00  0.00    -0.000 C 
BRANCH   4   5
ATOM      5  C   UNL     1     -22.046  61.630  32.394  1.00  0.00    -0.000 C 
BRANCH   5   6
ATOM      6  C   UNL     1     -21.905  60.110  32.208  1.00  0.00    -0.000 C 
BRANCH   6   7
ATOM      7  C   UNL     1     -23.252  59.377  32.275  1.00  0.00    -0.003 C 
ATOM      8  C   UNL     1     -23.434  58.450  31.076  1.00  0.00     0.004 C 
ENDBRANCH   6   7
ENDBRANCH   5   6
ENDBRANCH   4   5
ENDBRANCH   3   4
ENDBRANCH   2   3
ENDBRANCH   1   2
BRANCH   1   9
ATOM      9  C   UNL     1     -22.905  61.370  27.966  1.00  0.00     0.000 C 
BRANCH   9  10
ATOM     10  C   UNL     1     -24.084  61.341  28.956  1.00  0.00     0.000 C 
BRANCH  10  11
ATOM     11  C   UNL     1     -24.425  62.734  29.509  1.00  0.00     0.000 C 
BRANCH  11  12
ATOM     12  C   UNL     1     -25.197  62.669  30.838  1.00  0.00     0.002 C 
BRANCH  12  13
ATOM     13  C   UNL     1     -25.946  61.339  31.023  1.00  0.00     0.028 C 
BRANCH  13  14
ATOM     14  C   UNL     1     -26.886  61.329  32.238  1.00  0.00     0.156 C 
BRANCH  14  15
ATOM     15  O   UNL     1     -27.929  62.253  32.078  1.00  0.00    -0.396 OA
ATOM     16  H   UNL     1     -28.763  61.789  32.351  1.00  0.00     0.210 HD
ENDBRANCH  14  15
ENDBRANCH  13  14
ENDBRANCH  12  13
ENDBRANCH  11  12
ENDBRANCH  10  11
ENDBRANCH   9  10
ENDBRANCH   1   9
TORSDOF 13
ENDMDL
MODEL 4
REMARK VINA RESULT:    -4.277      1.946      3.944
REMARK INTER + INTRA:          -9.160
REMARK INTER:                  -7.713
REMARK INTRA:                  -1.447
REMARK UNBOUND:                -1.758
REMARK SMILES CCCCCCCCCCCCCCO
REMARK SMILES IDX 8 1 7 2 6 3 5 4 4 5 3 6 2 7 1 8 9 9 10 10 11 11 12 12 13 13
REMARK SMILES IDX 14 14 15 15
REMARK H PARENT 15 16
REMARK Flexibility Score: inf
ROOT
ATOM      1  C   UNL     1     -24.158  61.424  29.424  1.00  0.00     0.000 C 
ENDROOT
BRANCH   1   2
ATOM      2  C   UNL     1     -25.512  60.706  29.556  1.00  0.00    -0.000 C 
BRANCH   2   3
ATOM      3  C   UNL     1     -25.430  59.425  30.402  1.00  0.00    -0.000 C 
BRANCH   3   4
ATOM      4  C   UNL     1     -26.247  59.523  31.701  1.00  0.00    -0.000 C 
BRANCH   4   5
ATOM      5  C   UNL     1     -26.941  60.888  31.858  1.00  0.00    -0.000 C 
BRANCH   5   6
ATOM      6  C   UNL     1     -27.190  61.257  33.330  1.00  0.00    -0.000 C 
BRANCH   6   7
ATOM      7  C   UNL     1     -26.410  60.364  34.306  1.00  0.00    -0.003 C 
ATOM      8  C   UNL     1     -25.536  61.201  35.237  1.00  0.00     0.004 C 
ENDBRANCH   6   7
ENDBRANCH   5   6
ENDBRANCH   4   5
ENDBRANCH   3   4
ENDBRANCH   2   3
ENDBRANCH   1   2
BRANCH   1   9
ATOM      9  C   UNL     1     -23.868  62.413  30.574  1.00  0.00     0.000 C 
BRANCH   9  10
ATOM     10  C   UNL     1     -22.627  62.007  31.389  1.00  0.00     0.000 C 
BRANCH  10  11
ATOM     11  C   UNL     1     -22.982  61.175  32.631  1.00  0.00     0.000 C 
BRANCH  11  12
ATOM     12  C   UNL     1     -22.080  61.496  33.836  1.00  0.00     0.002 C 
BRANCH  12  13
ATOM     13  C   UNL     1     -20.753  62.155  33.422  1.00  0.00     0.028 C 
BRANCH  13  14
ATOM     14  C   UNL     1     -19.537  61.228  33.570  1.00  0.00     0.156 C 
BRANCH  14  15
ATOM     15  O   UNL     1     -18.443  61.914  34.117  1.00  0.00    -0.396 OA
ATOM     16  H   UNL     1     -18.595  61.956  35.097  1.00  0.00     0.210 HD
ENDBRANCH  14  15
ENDBRANCH  13  14
ENDBRANCH  12  13
ENDBRANCH  11  12
ENDBRANCH  10  11
ENDBRANCH   9  10
ENDBRANCH   1   9
TORSDOF 13
ENDMDL
MODEL 5
REMARK VINA RESULT:    -4.276      2.846      4.706
REMARK INTER + INTRA:          -9.159
REMARK INTER:                  -7.308
REMARK INTRA:                  -1.851
REMARK UNBOUND:                -1.758
REMARK SMILES CCCCCCCCCCCCCCO
REMARK SMILES IDX 8 1 7 2 6 3 5 4 4 5 3 6 2 7 1 8 9 9 10 10 11 11 12 12 13 13
REMARK SMILES IDX 14 14 15 15
REMARK H PARENT 15 16
REMARK Flexibility Score: inf
ROOT
ATOM      1  C   UNL     1     -21.993  60.938  31.591  1.00  0.00     0.000 C 
ENDROOT
BRANCH   1   2
ATOM      2  C   UNL     1     -22.436  61.811  30.404  1.00  0.00    -0.000 C 
BRANCH   2   3
ATOM      3  C   UNL     1     -23.668  62.674  30.723  1.00  0.00    -0.000 C 
BRANCH   3   4
ATOM      4  C   UNL     1     -24.866  62.350  29.817  1.00  0.00    -0.000 C 
BRANCH   4   5
ATOM      5  C   UNL     1     -24.653  61.065  28.996  1.00  0.00    -0.000 C 
BRANCH   5   6
ATOM      6  C   UNL     1     -25.503  59.891  29.506  1.00  0.00    -0.000 C 
BRANCH   6   7
ATOM      7  C   UNL     1     -24.655  58.769  30.124  1.00  0.00    -0.003 C 
ATOM      8  C   UNL     1     -23.505  58.377  29.201  1.00  0.00     0.004 C 
ENDBRANCH   6   7
ENDBRANCH   5   6
ENDBRANCH   4   5
ENDBRANCH   3   4
ENDBRANCH   2   3
ENDBRANCH   1   2
BRANCH   1   9
ATOM      9  C   UNL     1     -22.657  61.331  32.929  1.00  0.00     0.000 C 
BRANCH   9  10
ATOM     10  C   UNL     1     -23.678  60.280  33.400  1.00  0.00     0.000 C 
BRANCH  10  11
ATOM     11  C   UNL     1     -24.461  60.732  34.643  1.00  0.00     0.000 C 
BRANCH  11  12
ATOM     12  C   UNL     1     -25.940  61.022  34.336  1.00  0.00     0.002 C 
BRANCH  12  13
ATOM     13  C   UNL     1     -26.351  60.571  32.924  1.00  0.00     0.028 C 
BRANCH  13  14
ATOM     14  C   UNL     1     -27.751  61.050  32.511  1.00  0.00     0.156 C 
BRANCH  14  15
ATOM     15  O   UNL     1     -27.714  62.369  32.035  1.00  0.00    -0.396 OA
ATOM     16  H   UNL     1     -28.539  62.500  31.500  1.00  0.00     0.210 HD
ENDBRANCH  14  15
ENDBRANCH  13  14
ENDBRANCH  12  13
ENDBRANCH  11  12
ENDBRANCH  10  11
ENDBRANCH   9  10
ENDBRANCH   1   9
TORSDOF 13
ENDMDL
MODEL 6
REMARK VINA RESULT:    -4.252      2.759      5.239
REMARK INTER + INTRA:          -9.117
REMARK INTER:                  -7.468
REMARK INTRA:                  -1.649
REMARK UNBOUND:                -1.758
REMARK SMILES CCCCCCCCCCCCCCO
REMARK SMILES IDX 8 1 7 2 6 3 5 4 4 5 3 6 2 7 1 8 9 9 10 10 11 11 12 12 13 13
REMARK SMILES IDX 14 14 15 15
REMARK H PARENT 15 16
REMARK Flexibility Score: inf
ROOT
ATOM      1  C   UNL     1     -23.742  61.426  28.508  1.00  0.00     0.000 C 
ENDROOT
BRANCH   1   2
ATOM      2  C   UNL     1     -24.516  62.352  29.464  1.00  0.00    -0.000 C 
BRANCH   2   3
ATOM      3  C   UNL     1     -23.739  62.662  30.753  1.00  0.00    -0.000 C 
BRANCH   3   4
ATOM      4  C   UNL     1     -22.368  61.968  30.799  1.00  0.00    -0.000 C 
BRANCH   4   5
ATOM      5  C   UNL     1     -21.737  62.003  32.203  1.00  0.00    -0.000 C 
BRANCH   5   6
ATOM      6  C   UNL     1     -22.223  60.852  33.098  1.00  0.00    -0.000 C 
BRANCH   6   7
ATOM      7  C   UNL     1     -22.444  61.284  34.554  1.00  0.00    -0.003 C 
ATOM      8  C   UNL     1     -23.861  60.954  35.017  1.00  0.00     0.004 C 
ENDBRANCH   6   7
ENDBRANCH   5   6
ENDBRANCH   4   5
ENDBRANCH   3   4
ENDBRANCH   2   3
ENDBRANCH   1   2
BRANCH   1   9
ATOM      9  C   UNL     1     -24.309  59.992  28.444  1.00  0.00     0.000 C 
BRANCH   9  10
ATOM     10  C   UNL     1     -25.453  59.774  29.451  1.00  0.00     0.000 C 
BRANCH  10  11
ATOM     11  C   UNL     1     -25.035  58.892  30.638  1.00  0.00     0.000 C 
BRANCH  11  12
ATOM     12  C   UNL     1     -25.484  59.470  31.991  1.00  0.00     0.002 C 
BRANCH  12  13
ATOM     13  C   UNL     1     -26.834  60.201  31.903  1.00  0.00     0.028 C 
BRANCH  13  14
ATOM     14  C   UNL     1     -26.830  61.579  32.582  1.00  0.00     0.156 C 
BRANCH  14  15
ATOM     15  O   UNL     1     -27.857  62.393  32.081  1.00  0.00    -0.396 OA
ATOM     16  H   UNL     1     -27.435  63.253  31.819  1.00  0.00     0.210 HD
ENDBRANCH  14  15
ENDBRANCH  13  14
ENDBRANCH  12  13
ENDBRANCH  11  12
ENDBRANCH  10  11
ENDBRANCH   9  10
ENDBRANCH   1   9
TORSDOF 13
ENDMDL
MODEL 7
REMARK VINA RESULT:    -4.251      2.403      4.370
REMARK INTER + INTRA:          -9.115
REMARK INTER:                  -7.329
REMARK INTRA:                  -1.785
REMARK UNBOUND:                -1.758
REMARK SMILES CCCCCCCCCCCCCCO
REMARK SMILES IDX 8 1 7 2 6 3 5 4 4 5 3 6 2 7 1 8 9 9 10 10 11 11 12 12 13 13
REMARK SMILES IDX 14 14 15 15
REMARK H PARENT 15 16
REMARK Flexibility Score: inf
ROOT
ATOM      1  C   UNL     1     -21.617  61.413  31.686  1.00  0.00     0.000 C 
ENDROOT
BRANCH   1   2
ATOM      2  C   UNL     1     -20.978  62.270  30.580  1.00  0.00    -0.000 C 
BRANCH   2   3
ATOM      3  C   UNL     1     -20.411  61.430  29.425  1.00  0.00    -0.000 C 
BRANCH   3   4
ATOM      4  C   UNL     1     -21.228  61.577  28.131  1.00  0.00    -0.000 C 
BRANCH   4   5
ATOM      5  C   UNL     1     -22.090  60.336  27.836  1.00  0.00    -0.000 C 
BRANCH   5   6
ATOM      6  C   UNL     1     -23.594  60.612  27.992  1.00  0.00    -0.000 C 
BRANCH   6   7
ATOM      7  C   UNL     1     -24.362  59.411  28.564  1.00  0.00    -0.003 C 
ATOM      8  C   UNL     1     -23.536  58.685  29.623  1.00  0.00     0.004 C 
ENDBRANCH   6   7
ENDBRANCH   5   6
ENDBRANCH   4   5
ENDBRANCH   3   4
ENDBRANCH   2   3
ENDBRANCH   1   2
BRANCH   1   9
ATOM      9  C   UNL     1     -23.142  61.610  31.818  1.00  0.00     0.000 C 
BRANCH   9  10
ATOM     10  C   UNL     1     -23.692  62.594  30.769  1.00  0.00     0.000 C 
BRANCH  10  11
ATOM     11  C   UNL     1     -25.228  62.620  30.731  1.00  0.00     0.000 C 
BRANCH  11  12
ATOM     12  C   UNL     1     -25.857  61.403  31.432  1.00  0.00     0.002 C 
BRANCH  12  13
ATOM     13  C   UNL     1     -26.830  61.804  32.554  1.00  0.00     0.028 C 
BRANCH  13  14
ATOM     14  C   UNL     1     -26.528  61.126  33.898  1.00  0.00     0.156 C 
BRANCH  14  15
ATOM     15  O   UNL     1     -26.863  59.764  33.864  1.00  0.00    -0.396 OA
ATOM     16  H   UNL     1     -26.245  59.304  34.489  1.00  0.00     0.210 HD
ENDBRANCH  14  15
ENDBRANCH  13  14
ENDBRANCH  12  13
ENDBRANCH  11  12
ENDBRANCH  10  11
ENDBRANCH   9  10
ENDBRANCH   1   9
TORSDOF 13
ENDMDL
MODEL 8
REMARK VINA RESULT:    -4.248      1.765      2.873
REMARK INTER + INTRA:          -9.109
REMARK INTER:                  -7.858
REMARK INTRA:                  -1.251
REMARK UNBOUND:                -1.758
REMARK SMILES CCCCCCCCCCCCCCO
REMARK SMILES IDX 8 1 7 2 6 3 5 4 4 5 3 6 2 7 1 8 9 9 10 10 11 11 12 12 13 13
REMARK SMILES IDX 14 14 15 15
REMARK H PARENT 15 16
REMARK Flexibility Score: inf
ROOT
ATOM      1  C   UNL     1     -25.837  59.997  33.086  1.00  0.00     0.000 C 
ENDROOT
BRANCH   1   2
ATOM      2  C   UNL     1     -26.331  60.675  31.796  1.00  0.00    -0.000 C 
BRANCH   2   3
ATOM      3  C   UNL     1     -25.861  62.133  31.669  1.00  0.00    -0.000 C 
BRANCH   3   4
ATOM      4  C   UNL     1     -24.964  62.358  30.441  1.00  0.00    -0.000 C 
BRANCH   4   5
ATOM      5  C   UNL     1     -23.467  62.380  30.801  1.00  0.00    -0.000 C 
BRANCH   5   6
ATOM      6  C   UNL     1     -22.678  61.256  30.112  1.00  0.00    -0.000 C 
BRANCH   6   7
ATOM      7  C   UNL     1     -23.097  61.046  28.650  1.00  0.00    -0.003 C 
ATOM      8  C   UNL     1     -22.076  61.656  27.692  1.00  0.00     0.004 C 
ENDBRANCH   6   7
ENDBRANCH   5   6
ENDBRANCH   4   5
ENDBRANCH   3   4
ENDBRANCH   2   3
ENDBRANCH   1   2
BRANCH   1   9
ATOM      9  C   UNL     1     -25.990  60.878  34.345  1.00  0.00     0.000 C 
BRANCH   9  10
ATOM     10  C   UNL     1     -24.716  60.882  35.209  1.00  0.00     0.000 C 
BRANCH  10  11
ATOM     11  C   UNL     1     -23.433  60.794  34.368  1.00  0.00     0.000 C 
BRANCH  11  12
ATOM     12  C   UNL     1     -22.303  61.683  34.918  1.00  0.00     0.002 C 
BRANCH  12  13
ATOM     13  C   UNL     1     -21.219  61.979  33.869  1.00  0.00     0.028 C 
BRANCH  13  14
ATOM     14  C   UNL     1     -19.789  61.862  34.417  1.00  0.00     0.156 C 
BRANCH  14  15
ATOM     15  O   UNL     1     -19.658  62.539  35.638  1.00  0.00    -0.396 OA
ATOM     16  H   UNL     1     -20.265  62.086  36.280  1.00  0.00     0.210 HD
ENDBRANCH  14  15
ENDBRANCH  13  14
ENDBRANCH  12  13
ENDBRANCH  11  12
ENDBRANCH  10  11
ENDBRANCH   9  10
ENDBRANCH   1   9
TORSDOF 13
ENDMDL
MODEL 9
REMARK VINA RESULT:    -4.235      1.571      3.753
REMARK INTER + INTRA:          -9.087
REMARK INTER:                  -7.536
REMARK INTRA:                  -1.551
REMARK UNBOUND:                -1.758
REMARK SMILES CCCCCCCCCCCCCCO
REMARK SMILES IDX 8 1 7 2 6 3 5 4 4 5 3 6 2 7 1 8 9 9 10 10 11 11 12 12 13 13
REMARK SMILES IDX 14 14 15 15
REMARK H PARENT 15 16
REMARK Flexibility Score: inf
ROOT
ATOM      1  C   UNL     1     -22.016  61.028  29.779  1.00  0.00     0.000 C 
ENDROOT
BRANCH   1   2
ATOM      2  C   UNL     1     -22.776  61.646  28.592  1.00  0.00    -0.000 C 
BRANCH   2   3
ATOM      3  C   UNL     1     -24.290  61.743  28.838  1.00  0.00    -0.000 C 
BRANCH   3   4
ATOM      4  C   UNL     1     -24.653  62.826  29.868  1.00  0.00    -0.000 C 
BRANCH   4   5
ATOM      5  C   UNL     1     -25.348  62.245  31.112  1.00  0.00    -0.000 C 
BRANCH   5   6
ATOM      6  C   UNL     1     -25.864  60.815  30.886  1.00  0.00    -0.000 C 
BRANCH   6   7
ATOM      7  C   UNL     1     -26.227  60.101  32.197  1.00  0.00    -0.003 C 
ATOM      8  C   UNL     1     -25.842  60.946  33.408  1.00  0.00     0.004 C 
ENDBRANCH   6   7
ENDBRANCH   5   6
ENDBRANCH   4   5
ENDBRANCH   3   4
ENDBRANCH   2   3
ENDBRANCH   1   2
BRANCH   1   9
ATOM      9  C   UNL     1     -20.958  61.971  30.393  1.00  0.00     0.000 C 
BRANCH   9  10
ATOM     10  C   UNL     1     -21.317  62.386  31.832  1.00  0.00     0.000 C 
BRANCH  10  11
ATOM     11  C   UNL     1     -22.143  61.318  32.566  1.00  0.00     0.000 C 
BRANCH  11  12
ATOM     12  C   UNL     1     -21.967  61.381  34.093  1.00  0.00     0.002 C 
BRANCH  12  13
ATOM     13  C   UNL     1     -20.907  62.408  34.525  1.00  0.00     0.028 C 
BRANCH  13  14
ATOM     14  C   UNL     1     -19.612  61.769  35.048  1.00  0.00     0.156 C 
BRANCH  14  15
ATOM     15  O   UNL     1     -18.595  61.825  34.083  1.00  0.00    -0.396 OA
ATOM     16  H   UNL     1     -18.401  60.888  33.821  1.00  0.00     0.210 HD
ENDBRANCH  14  15
ENDBRANCH  13  14
ENDBRANCH  12  13
ENDBRANCH  11  12
ENDBRANCH  10  11
ENDBRANCH   9  10
ENDBRANCH   1   9
TORSDOF 13
ENDMDL
