MODEL 1
REMARK VINA RESULT:    -7.831      0.000      0.000
REMARK INTER + INTRA:         -15.673
REMARK INTER:                 -13.553
REMARK INTRA:                  -2.120
REMARK UNBOUND:                -2.120
REMARK SMILES OC[C@@H]1O[C@@H](O[C@H]2[C@@H](O)[C@H](O)[C@H](O)O[C@@H]2CO)[C@H](O)[C@@H](O)[C@H]1O[C@@H]1O[C@H](CO)[C@@H](O)[C@@H](O)[C@@H]1O
REMARK SMILES IDX 22 1 3 2 4 3 5 4 18 5 20 6 23 7 24 8 26 9 29 10 25 11 31 12
REMARK SMILES IDX 33 13 27 14 28 15 30 17 32 19 34 21 2 23 1 24 21 26 19 28
REMARK SMILES IDX 6 30 7 31 15 32 8 33 14 34 10 35 12 36 16 37 17 38 9 40
REMARK SMILES IDX 11 42 13 44
REMARK H PARENT 28 16 30 18 32 20 34 22 1 25 21 27 19 29 17 39 9 41 11 43
REMARK H PARENT 13 45
REMARK Flexibility Score: inf
ROOT
ATOM      1  C   UNL     1      40.570  28.703   8.608  1.00  0.00     0.184 C 
ATOM      2  C   UNL     1      40.755  30.244   8.391  1.00  0.00     0.178 C 
ATOM      3  O   UNL     1      42.040  30.778   8.717  1.00  0.00    -0.341 OA
ATOM      4  C   UNL     1      42.881  29.933   9.477  1.00  0.00     0.282 C 
ATOM      5  C   UNL     1      43.148  28.612   8.729  1.00  0.00     0.202 C 
ATOM      6  C   UNL     1      41.848  27.935   8.217  1.00  0.00     0.180 C 
ENDROOT
BRANCH   1   7
ATOM      7  O   UNL     1      40.247  28.423   9.964  1.00  0.00    -0.341 OA
BRANCH   7   8
ATOM      8  C   UNL     1      38.982  27.792  10.092  1.00  0.00     0.282 C 
ATOM      9  C   UNL     1      37.163  27.084   8.810  1.00  0.00     0.178 C 
ATOM     10  C   UNL     1      36.304  27.110  10.121  1.00  0.00     0.177 C 
ATOM     11  O   UNL     1      38.286  27.959   8.873  1.00  0.00    -0.341 OA
ATOM     12  C   UNL     1      36.646  28.358  10.958  1.00  0.00     0.179 C 
ATOM     13  C   UNL     1      38.166  28.438  11.241  1.00  0.00     0.202 C 
BRANCH   9  14
ATOM     14  C   UNL     1      36.306  27.478   7.598  1.00  0.00     0.191 C 
BRANCH  14  15
ATOM     15  O   UNL     1      37.100  28.069   6.602  1.00  0.00    -0.394 OA
ATOM     16  H   UNL     1      37.503  27.326   6.078  1.00  0.00     0.210 HD
ENDBRANCH  14  15
ENDBRANCH   9  14
BRANCH  10  17
ATOM     17  O   UNL     1      36.567  25.960  10.887  1.00  0.00    -0.387 OA
ATOM     18  H   UNL     1      37.203  25.407  10.361  1.00  0.00     0.211 HD
ENDBRANCH  10  17
BRANCH  12  19
ATOM     19  O   UNL     1      35.943  28.341  12.177  1.00  0.00    -0.387 OA
ATOM     20  H   UNL     1      35.012  28.059  11.970  1.00  0.00     0.211 HD
ENDBRANCH  12  19
BRANCH  13  21
ATOM     21  O   UNL     1      38.540  29.784  11.405  1.00  0.00    -0.385 OA
ATOM     22  H   UNL     1      38.754  30.132  10.502  1.00  0.00     0.211 HD
ENDBRANCH  13  21
ENDBRANCH   7   8
ENDBRANCH   1   7
BRANCH   2  23
ATOM     23  C   UNL     1      40.442  30.615   6.931  1.00  0.00     0.191 C 
BRANCH  23  24
ATOM     24  O   UNL     1      39.489  29.733   6.391  1.00  0.00    -0.394 OA
ATOM     25  H   UNL     1      38.600  30.065   6.683  1.00  0.00     0.210 HD
ENDBRANCH  23  24
ENDBRANCH   2  23
BRANCH   6  26
ATOM     26  O   UNL     1      41.783  26.618   8.709  1.00  0.00    -0.387 OA
ATOM     27  H   UNL     1      42.598  26.139   8.391  1.00  0.00     0.211 HD
ENDBRANCH   6  26
BRANCH   5  28
ATOM     28  O   UNL     1      44.008  28.878   7.647  1.00  0.00    -0.385 OA
ATOM     29  H   UNL     1      44.922  28.616   7.935  1.00  0.00     0.211 HD
ENDBRANCH   5  28
BRANCH   4  30
ATOM     30  O   UNL     1      42.335  29.673  10.764  1.00  0.00    -0.341 OA
BRANCH  30  31
ATOM     31  C   UNL     1      43.245  29.707  11.864  1.00  0.00     0.184 C 
ATOM     32  C   UNL     1      44.199  28.480  11.975  1.00  0.00     0.178 C 
ATOM     33  C   UNL     1      42.576  30.070  13.214  1.00  0.00     0.180 C 
ATOM     34  O   UNL     1      43.656  27.394  12.720  1.00  0.00    -0.342 OA
ATOM     35  C   UNL     1      42.104  28.837  14.002  1.00  0.00     0.201 C 
ATOM     36  C   UNL     1      43.194  27.741  14.020  1.00  0.00     0.279 C 
BRANCH  32  37
ATOM     37  C   UNL     1      45.649  28.838  12.393  1.00  0.00     0.191 C 
BRANCH  37  38
ATOM     38  O   UNL     1      46.405  27.697  12.709  1.00  0.00    -0.394 OA
ATOM     39  H   UNL     1      45.944  26.931  12.277  1.00  0.00     0.210 HD
ENDBRANCH  37  38
ENDBRANCH  32  37
BRANCH  33  40
ATOM     40  O   UNL     1      41.535  30.995  13.040  1.00  0.00    -0.387 OA
ATOM     41  H   UNL     1      41.764  31.799  13.574  1.00  0.00     0.211 HD
ENDBRANCH  33  40
BRANCH  35  42
ATOM     42  O   UNL     1      41.800  29.215  15.323  1.00  0.00    -0.385 OA
ATOM     43  H   UNL     1      41.006  29.812  15.280  1.00  0.00     0.211 HD
ENDBRANCH  35  42
BRANCH  36  44
ATOM     44  O   UNL     1      44.275  28.073  14.862  1.00  0.00    -0.366 OA
ATOM     45  H   UNL     1      44.884  28.659  14.347  1.00  0.00     0.213 HD
ENDBRANCH  36  44
ENDBRANCH  30  31
ENDBRANCH   4  30
TORSDOF 18
ENDMDL
MODEL 2
REMARK VINA RESULT:    -6.836      0.949      2.086
REMARK INTER + INTRA:         -13.953
REMARK INTER:                 -12.865
REMARK INTRA:                  -1.087
REMARK UNBOUND:                -2.120
REMARK SMILES OC[C@@H]1O[C@@H](O[C@H]2[C@@H](O)[C@H](O)[C@H](O)O[C@@H]2CO)[C@H](O)[C@@H](O)[C@H]1O[C@@H]1O[C@H](CO)[C@@H](O)[C@@H](O)[C@@H]1O
REMARK SMILES IDX 22 1 3 2 4 3 5 4 18 5 20 6 23 7 24 8 26 9 29 10 25 11 31 12
REMARK SMILES IDX 33 13 27 14 28 15 30 17 32 19 34 21 2 23 1 24 21 26 19 28
REMARK SMILES IDX 6 30 7 31 15 32 8 33 14 34 10 35 12 36 16 37 17 38 9 40
REMARK SMILES IDX 11 42 13 44
REMARK H PARENT 28 16 30 18 32 20 34 22 1 25 21 27 19 29 17 39 9 41 11 43
REMARK H PARENT 13 45
REMARK Flexibility Score: inf
ROOT
ATOM      1  C   UNL     1      40.631  28.960   8.437  1.00  0.00     0.184 C 
ATOM      2  C   UNL     1      40.945  30.478   8.207  1.00  0.00     0.178 C 
ATOM      3  O   UNL     1      42.255  30.916   8.572  1.00  0.00    -0.341 OA
ATOM      4  C   UNL     1      43.000  30.020   9.374  1.00  0.00     0.282 C 
ATOM      5  C   UNL     1      43.188  28.670   8.655  1.00  0.00     0.202 C 
ATOM      6  C   UNL     1      41.858  28.088   8.105  1.00  0.00     0.180 C 
ENDROOT
BRANCH   1   7
ATOM      7  O   UNL     1      40.239  28.729   9.785  1.00  0.00    -0.341 OA
BRANCH   7   8
ATOM      8  C   UNL     1      38.871  29.036  10.003  1.00  0.00     0.282 C 
ATOM      9  C   UNL     1      37.241  28.995  11.675  1.00  0.00     0.178 C 
ATOM     10  C   UNL     1      36.159  29.016  10.541  1.00  0.00     0.177 C 
ATOM     11  O   UNL     1      38.486  28.460  11.236  1.00  0.00    -0.341 OA
ATOM     12  C   UNL     1      36.580  28.086   9.386  1.00  0.00     0.179 C 
ATOM     13  C   UNL     1      37.994  28.448   8.867  1.00  0.00     0.202 C 
BRANCH   9  14
ATOM     14  C   UNL     1      36.749  28.165  12.870  1.00  0.00     0.191 C 
BRANCH  14  15
ATOM     15  O   UNL     1      36.009  27.056  12.430  1.00  0.00    -0.394 OA
ATOM     16  H   UNL     1      35.050  27.319  12.461  1.00  0.00     0.210 HD
ENDBRANCH  14  15
ENDBRANCH   9  14
BRANCH  10  17
ATOM     17  O   UNL     1      36.013  30.324  10.044  1.00  0.00    -0.387 OA
ATOM     18  H   UNL     1      35.131  30.652  10.364  1.00  0.00     0.211 HD
ENDBRANCH  10  17
BRANCH  12  19
ATOM     19  O   UNL     1      35.658  28.168   8.327  1.00  0.00    -0.387 OA
ATOM     20  H   UNL     1      35.622  27.269   7.903  1.00  0.00     0.211 HD
ENDBRANCH  12  19
BRANCH  13  21
ATOM     21  O   UNL     1      38.602  27.299   8.329  1.00  0.00    -0.385 OA
ATOM     22  H   UNL     1      38.652  26.634   9.062  1.00  0.00     0.211 HD
ENDBRANCH  13  21
ENDBRANCH   7   8
ENDBRANCH   1   7
BRANCH   2  23
ATOM     23  C   UNL     1      40.713  30.848   6.731  1.00  0.00     0.191 C 
BRANCH  23  24
ATOM     24  O   UNL     1      39.749  30.003   6.156  1.00  0.00    -0.394 OA
ATOM     25  H   UNL     1      39.983  29.078   6.431  1.00  0.00     0.210 HD
ENDBRANCH  23  24
ENDBRANCH   2  23
BRANCH   6  26
ATOM     26  O   UNL     1      41.673  26.789   8.612  1.00  0.00    -0.387 OA
ATOM     27  H   UNL     1      42.313  26.189   8.138  1.00  0.00     0.211 HD
ENDBRANCH   6  26
BRANCH   5  28
ATOM     28  O   UNL     1      44.104  28.850   7.601  1.00  0.00    -0.385 OA
ATOM     29  H   UNL     1      43.582  29.169   6.818  1.00  0.00     0.211 HD
ENDBRANCH   5  28
BRANCH   4  30
ATOM     30  O   UNL     1      42.389  29.825  10.644  1.00  0.00    -0.341 OA
BRANCH  30  31
ATOM     31  C   UNL     1      43.257  29.829  11.778  1.00  0.00     0.184 C 
ATOM     32  C   UNL     1      44.198  28.594  11.899  1.00  0.00     0.178 C 
ATOM     33  C   UNL     1      42.538  30.167  13.109  1.00  0.00     0.180 C 
ATOM     34  O   UNL     1      43.621  27.495  12.599  1.00  0.00    -0.342 OA
ATOM     35  C   UNL     1      42.030  28.921  13.852  1.00  0.00     0.201 C 
ATOM     36  C   UNL     1      43.112  27.818  13.887  1.00  0.00     0.279 C 
BRANCH  32  37
ATOM     37  C   UNL     1      45.634  28.932  12.379  1.00  0.00     0.191 C 
BRANCH  37  38
ATOM     38  O   UNL     1      46.356  27.782  12.738  1.00  0.00    -0.394 OA
ATOM     39  H   UNL     1      45.693  27.044  12.790  1.00  0.00     0.210 HD
ENDBRANCH  37  38
ENDBRANCH  32  37
BRANCH  33  40
ATOM     40  O   UNL     1      41.511  31.104  12.916  1.00  0.00    -0.387 OA
ATOM     41  H   UNL     1      41.710  31.882  13.496  1.00  0.00     0.211 HD
ENDBRANCH  33  40
BRANCH  35  42
ATOM     42  O   UNL     1      41.678  29.272  15.168  1.00  0.00    -0.385 OA
ATOM     43  H   UNL     1      42.193  30.091  15.399  1.00  0.00     0.211 HD
ENDBRANCH  35  42
BRANCH  36  44
ATOM     44  O   UNL     1      44.162  28.124  14.776  1.00  0.00    -0.366 OA
ATOM     45  H   UNL     1      44.438  29.057  14.601  1.00  0.00     0.213 HD
ENDBRANCH  36  44
ENDBRANCH  30  31
ENDBRANCH   4  30
TORSDOF 18
ENDMDL
MODEL 3
REMARK VINA RESULT:    -6.795      2.193      7.474
REMARK INTER + INTRA:         -13.882
REMARK INTER:                 -11.495
REMARK INTRA:                  -2.387
REMARK UNBOUND:                -2.120
REMARK SMILES OC[C@@H]1O[C@@H](O[C@H]2[C@@H](O)[C@H](O)[C@H](O)O[C@@H]2CO)[C@H](O)[C@@H](O)[C@H]1O[C@@H]1O[C@H](CO)[C@@H](O)[C@@H](O)[C@@H]1O
REMARK SMILES IDX 22 1 3 2 4 3 5 4 18 5 20 6 23 7 24 8 26 9 29 10 25 11 31 12
REMARK SMILES IDX 33 13 27 14 28 15 30 17 32 19 34 21 2 23 1 24 21 26 19 28
REMARK SMILES IDX 6 30 7 31 15 32 8 33 14 34 10 35 12 36 16 37 17 38 9 40
REMARK SMILES IDX 11 42 13 44
REMARK H PARENT 28 16 30 18 32 20 34 22 1 25 21 27 19 29 17 39 9 41 11 43
REMARK H PARENT 13 45
REMARK Flexibility Score: inf
ROOT
ATOM      1  C   UNL     1      42.002  29.069  10.875  1.00  0.00     0.184 C 
ATOM      2  C   UNL     1      41.912  30.559  11.350  1.00  0.00     0.178 C 
ATOM      3  O   UNL     1      40.598  31.112  11.452  1.00  0.00    -0.341 OA
ATOM      4  C   UNL     1      39.570  30.370  10.824  1.00  0.00     0.282 C 
ATOM      5  C   UNL     1      39.481  28.951  11.419  1.00  0.00     0.202 C 
ATOM      6  C   UNL     1      40.855  28.230  11.471  1.00  0.00     0.180 C 
ENDROOT
BRANCH   1   7
ATOM      7  O   UNL     1      41.955  28.992   9.455  1.00  0.00    -0.341 OA
BRANCH   7   8
ATOM      8  C   UNL     1      43.251  28.966   8.878  1.00  0.00     0.282 C 
ATOM      9  C   UNL     1      45.509  29.028   9.471  1.00  0.00     0.178 C 
ATOM     10  C   UNL     1      45.821  29.490   8.005  1.00  0.00     0.177 C 
ATOM     11  O   UNL     1      44.180  29.345   9.874  1.00  0.00    -0.341 OA
ATOM     12  C   UNL     1      44.774  30.519   7.537  1.00  0.00     0.179 C 
ATOM     13  C   UNL     1      43.337  29.961   7.692  1.00  0.00     0.202 C 
BRANCH   9  14
ATOM     14  C   UNL     1      46.487  29.680  10.459  1.00  0.00     0.191 C 
BRANCH  14  15
ATOM     15  O   UNL     1      45.897  30.797  11.073  1.00  0.00    -0.394 OA
ATOM     16  H   UNL     1      46.184  30.785  12.026  1.00  0.00     0.210 HD
ENDBRANCH  14  15
ENDBRANCH   9  14
BRANCH  10  17
ATOM     17  O   UNL     1      45.792  28.382   7.138  1.00  0.00    -0.387 OA
ATOM     18  H   UNL     1      45.334  27.649   7.629  1.00  0.00     0.211 HD
ENDBRANCH  10  17
BRANCH  12  19
ATOM     19  O   UNL     1      44.997  30.871   6.193  1.00  0.00    -0.387 OA
ATOM     20  H   UNL     1      44.775  31.837   6.105  1.00  0.00     0.211 HD
ENDBRANCH  12  19
BRANCH  13  21
ATOM     21  O   UNL     1      42.441  31.028   7.886  1.00  0.00    -0.385 OA
ATOM     22  H   UNL     1      42.757  31.773   7.314  1.00  0.00     0.211 HD
ENDBRANCH  13  21
ENDBRANCH   7   8
ENDBRANCH   1   7
BRANCH   2  23
ATOM     23  C   UNL     1      42.604  30.722  12.716  1.00  0.00     0.191 C 
BRANCH  23  24
ATOM     24  O   UNL     1      43.726  29.880  12.804  1.00  0.00    -0.394 OA
ATOM     25  H   UNL     1      43.941  29.795  13.769  1.00  0.00     0.210 HD
ENDBRANCH  23  24
ENDBRANCH   2  23
BRANCH   6  26
ATOM     26  O   UNL     1      40.762  26.999  10.796  1.00  0.00    -0.387 OA
ATOM     27  H   UNL     1      41.572  26.910  10.222  1.00  0.00     0.211 HD
ENDBRANCH   6  26
BRANCH   5  28
ATOM     28  O   UNL     1      38.939  29.043  12.715  1.00  0.00    -0.385 OA
ATOM     29  H   UNL     1      38.283  28.302  12.806  1.00  0.00     0.211 HD
ENDBRANCH   5  28
BRANCH   4  30
ATOM     30  O   UNL     1      39.757  30.307   9.416  1.00  0.00    -0.341 OA
BRANCH  30  31
ATOM     31  C   UNL     1      38.582  30.126   8.624  1.00  0.00     0.184 C 
ATOM     32  C   UNL     1      37.234  30.287   9.388  1.00  0.00     0.178 C 
ATOM     33  C   UNL     1      38.621  28.855   7.738  1.00  0.00     0.180 C 
ATOM     34  O   UNL     1      36.766  29.085   9.992  1.00  0.00    -0.342 OA
ATOM     35  C   UNL     1      38.010  27.623   8.426  1.00  0.00     0.201 C 
ATOM     36  C   UNL     1      36.667  27.978   9.105  1.00  0.00     0.279 C 
BRANCH  32  37
ATOM     37  C   UNL     1      36.134  31.031   8.586  1.00  0.00     0.191 C 
BRANCH  37  38
ATOM     38  O   UNL     1      34.885  30.975   9.226  1.00  0.00    -0.394 OA
ATOM     39  H   UNL     1      34.499  30.088   9.001  1.00  0.00     0.210 HD
ENDBRANCH  37  38
ENDBRANCH  32  37
BRANCH  33  40
ATOM     40  O   UNL     1      39.918  28.591   7.272  1.00  0.00    -0.387 OA
ATOM     41  H   UNL     1      40.328  29.462   7.033  1.00  0.00     0.211 HD
ENDBRANCH  33  40
BRANCH  35  42
ATOM     42  O   UNL     1      37.798  26.612   7.472  1.00  0.00    -0.385 OA
ATOM     43  H   UNL     1      38.106  26.968   6.595  1.00  0.00     0.211 HD
ENDBRANCH  35  42
BRANCH  36  44
ATOM     44  O   UNL     1      35.630  28.178   8.171  1.00  0.00    -0.366 OA
ATOM     45  H   UNL     1      34.775  28.166   8.669  1.00  0.00     0.213 HD
ENDBRANCH  36  44
ENDBRANCH  30  31
ENDBRANCH   4  30
TORSDOF 18
ENDMDL
MODEL 4
REMARK VINA RESULT:    -6.411      1.439      2.941
REMARK INTER + INTRA:         -13.216
REMARK INTER:                 -12.138
REMARK INTRA:                  -1.079
REMARK UNBOUND:                -2.120
REMARK SMILES OC[C@@H]1O[C@@H](O[C@H]2[C@@H](O)[C@H](O)[C@H](O)O[C@@H]2CO)[C@H](O)[C@@H](O)[C@H]1O[C@@H]1O[C@H](CO)[C@@H](O)[C@@H](O)[C@@H]1O
REMARK SMILES IDX 22 1 3 2 4 3 5 4 18 5 20 6 23 7 24 8 26 9 29 10 25 11 31 12
REMARK SMILES IDX 33 13 27 14 28 15 30 17 32 19 34 21 2 23 1 24 21 26 19 28
REMARK SMILES IDX 6 30 7 31 15 32 8 33 14 34 10 35 12 36 16 37 17 38 9 40
REMARK SMILES IDX 11 42 13 44
REMARK H PARENT 28 16 30 18 32 20 34 22 1 25 21 27 19 29 17 39 9 41 11 43
REMARK H PARENT 13 45
REMARK Flexibility Score: inf
ROOT
ATOM      1  C   UNL     1      40.390  28.767   8.017  1.00  0.00     0.184 C 
ATOM      2  C   UNL     1      40.187  30.309   8.208  1.00  0.00     0.178 C 
ATOM      3  O   UNL     1      41.045  30.947   9.155  1.00  0.00    -0.341 OA
ATOM      4  C   UNL     1      41.750  30.082  10.024  1.00  0.00     0.282 C 
ATOM      5  C   UNL     1      42.646  29.116   9.224  1.00  0.00     0.202 C 
ATOM      6  C   UNL     1      41.885  28.396   8.078  1.00  0.00     0.180 C 
ENDROOT
BRANCH   1   7
ATOM      7  O   UNL     1      39.683  28.042   9.015  1.00  0.00    -0.341 OA
BRANCH   7   8
ATOM      8  C   UNL     1      38.418  28.619   9.300  1.00  0.00     0.282 C 
ATOM      9  C   UNL     1      36.847  28.802  11.018  1.00  0.00     0.178 C 
ATOM     10  C   UNL     1      35.777  29.143   9.924  1.00  0.00     0.177 C 
ATOM     11  O   UNL     1      37.938  28.047  10.501  1.00  0.00    -0.341 OA
ATOM     12  C   UNL     1      35.965  28.235   8.693  1.00  0.00     0.179 C 
ATOM     13  C   UNL     1      37.415  28.322   8.155  1.00  0.00     0.202 C 
BRANCH   9  14
ATOM     14  C   UNL     1      36.206  28.009  12.166  1.00  0.00     0.191 C 
BRANCH  14  15
ATOM     15  O   UNL     1      36.077  26.655  11.820  1.00  0.00    -0.394 OA
ATOM     16  H   UNL     1      35.194  26.555  11.372  1.00  0.00     0.210 HD
ENDBRANCH  14  15
ENDBRANCH   9  14
BRANCH  10  17
ATOM     17  O   UNL     1      35.910  30.486   9.526  1.00  0.00    -0.387 OA
ATOM     18  H   UNL     1      35.379  31.027  10.169  1.00  0.00     0.211 HD
ENDBRANCH  10  17
BRANCH  12  19
ATOM     19  O   UNL     1      35.065  28.596   7.673  1.00  0.00    -0.387 OA
ATOM     20  H   UNL     1      35.520  29.282   7.115  1.00  0.00     0.211 HD
ENDBRANCH  12  19
BRANCH  13  21
ATOM     21  O   UNL     1      37.750  27.114   7.517  1.00  0.00    -0.385 OA
ATOM     22  H   UNL     1      38.521  26.735   8.011  1.00  0.00     0.211 HD
ENDBRANCH  13  21
ENDBRANCH   7   8
ENDBRANCH   1   7
BRANCH   2  23
ATOM     23  C   UNL     1      40.344  31.034   6.859  1.00  0.00     0.191 C 
BRANCH  23  24
ATOM     24  O   UNL     1      39.807  30.259   5.816  1.00  0.00    -0.394 OA
ATOM     25  H   UNL     1      38.821  30.353   5.873  1.00  0.00     0.210 HD
ENDBRANCH  23  24
ENDBRANCH   2  23
BRANCH   6  26
ATOM     26  O   UNL     1      42.027  27.004   8.226  1.00  0.00    -0.387 OA
ATOM     27  H   UNL     1      41.585  26.747   9.081  1.00  0.00     0.211 HD
ENDBRANCH   6  26
BRANCH   5  28
ATOM     28  O   UNL     1      43.729  29.844   8.697  1.00  0.00    -0.385 OA
ATOM     29  H   UNL     1      43.748  30.716   9.172  1.00  0.00     0.211 HD
ENDBRANCH   5  28
BRANCH   4  30
ATOM     30  O   UNL     1      40.866  29.356  10.868  1.00  0.00    -0.341 OA
BRANCH  30  31
ATOM     31  C   UNL     1      41.376  28.967  12.144  1.00  0.00     0.184 C 
ATOM     32  C   UNL     1      42.170  30.069  12.907  1.00  0.00     0.178 C 
ATOM     33  C   UNL     1      42.111  27.602  12.130  1.00  0.00     0.180 C 
ATOM     34  O   UNL     1      43.558  30.105  12.588  1.00  0.00    -0.342 OA
ATOM     35  C   UNL     1      43.622  27.734  11.876  1.00  0.00     0.201 C 
ATOM     36  C   UNL     1      44.231  28.862  12.740  1.00  0.00     0.279 C 
BRANCH  32  37
ATOM     37  C   UNL     1      41.896  30.110  14.433  1.00  0.00     0.191 C 
BRANCH  37  38
ATOM     38  O   UNL     1      41.788  28.822  14.985  1.00  0.00    -0.394 OA
ATOM     39  H   UNL     1      40.963  28.425  14.600  1.00  0.00     0.210 HD
ENDBRANCH  37  38
ENDBRANCH  32  37
BRANCH  33  40
ATOM     40  O   UNL     1      41.516  26.707  11.228  1.00  0.00    -0.387 OA
ATOM     41  H   UNL     1      41.484  27.157  10.345  1.00  0.00     0.211 HD
ENDBRANCH  33  40
BRANCH  35  42
ATOM     42  O   UNL     1      44.255  26.516  12.182  1.00  0.00    -0.385 OA
ATOM     43  H   UNL     1      45.193  26.586  11.859  1.00  0.00     0.211 HD
ENDBRANCH  35  42
BRANCH  36  44
ATOM     44  O   UNL     1      44.323  28.506  14.101  1.00  0.00    -0.366 OA
ATOM     45  H   UNL     1      43.842  27.650  14.217  1.00  0.00     0.213 HD
ENDBRANCH  36  44
ENDBRANCH  30  31
ENDBRANCH   4  30
TORSDOF 18
ENDMDL
MODEL 5
REMARK VINA RESULT:    -6.114      2.131      7.427
REMARK INTER + INTRA:         -12.702
REMARK INTER:                 -10.968
REMARK INTRA:                  -1.734
REMARK UNBOUND:                -2.120
REMARK SMILES OC[C@@H]1O[C@@H](O[C@H]2[C@@H](O)[C@H](O)[C@H](O)O[C@@H]2CO)[C@H](O)[C@@H](O)[C@H]1O[C@@H]1O[C@H](CO)[C@@H](O)[C@@H](O)[C@@H]1O
REMARK SMILES IDX 22 1 3 2 4 3 5 4 18 5 20 6 23 7 24 8 26 9 29 10 25 11 31 12
REMARK SMILES IDX 33 13 27 14 28 15 30 17 32 19 34 21 2 23 1 24 21 26 19 28
REMARK SMILES IDX 6 30 7 31 15 32 8 33 14 34 10 35 12 36 16 37 17 38 9 40
REMARK SMILES IDX 11 42 13 44
REMARK H PARENT 28 16 30 18 32 20 34 22 1 25 21 27 19 29 17 39 9 41 11 43
REMARK H PARENT 13 45
REMARK Flexibility Score: inf
ROOT
ATOM      1  C   UNL     1      41.189  29.430  11.420  1.00  0.00     0.184 C 
ATOM      2  C   UNL     1      40.595  30.786  11.933  1.00  0.00     0.178 C 
ATOM      3  O   UNL     1      39.233  31.050  11.588  1.00  0.00    -0.341 OA
ATOM      4  C   UNL     1      38.684  30.225  10.580  1.00  0.00     0.282 C 
ATOM      5  C   UNL     1      38.735  28.742  11.001  1.00  0.00     0.202 C 
ATOM      6  C   UNL     1      40.139  28.304  11.498  1.00  0.00     0.180 C 
ENDROOT
BRANCH   1   7
ATOM      7  O   UNL     1      41.644  29.558  10.079  1.00  0.00    -0.341 OA
BRANCH   7   8
ATOM      8  C   UNL     1      43.002  29.966  10.012  1.00  0.00     0.282 C 
ATOM      9  C   UNL     1      44.551  30.897   8.533  1.00  0.00     0.178 C 
ATOM     10  C   UNL     1      45.685  30.310   9.443  1.00  0.00     0.177 C 
ATOM     11  O   UNL     1      43.326  30.180   8.653  1.00  0.00    -0.341 OA
ATOM     12  C   UNL     1      45.315  28.886   9.903  1.00  0.00     0.179 C 
ATOM     13  C   UNL     1      43.928  28.866  10.592  1.00  0.00     0.202 C 
BRANCH   9  14
ATOM     14  C   UNL     1      44.984  30.882   7.060  1.00  0.00     0.191 C 
BRANCH  14  15
ATOM     15  O   UNL     1      44.303  29.876   6.355  1.00  0.00    -0.394 OA
ATOM     16  H   UNL     1      43.920  29.258   7.035  1.00  0.00     0.210 HD
ENDBRANCH  14  15
ENDBRANCH   9  14
BRANCH  10  17
ATOM     17  O   UNL     1      45.859  31.125  10.577  1.00  0.00    -0.387 OA
ATOM     18  H   UNL     1      46.641  31.709  10.389  1.00  0.00     0.211 HD
ENDBRANCH  10  17
BRANCH  12  19
ATOM     19  O   UNL     1      46.286  28.387  10.791  1.00  0.00    -0.387 OA
ATOM     20  H   UNL     1      47.129  28.288  10.272  1.00  0.00     0.211 HD
ENDBRANCH  12  19
BRANCH  13  21
ATOM     21  O   UNL     1      43.342  27.599  10.426  1.00  0.00    -0.385 OA
ATOM     22  H   UNL     1      42.470  27.745   9.978  1.00  0.00     0.211 HD
ENDBRANCH  13  21
ENDBRANCH   7   8
ENDBRANCH   1   7
BRANCH   2  23
ATOM     23  C   UNL     1      40.724  30.875  13.464  1.00  0.00     0.191 C 
BRANCH  23  24
ATOM     24  O   UNL     1      41.968  30.373  13.884  1.00  0.00    -0.394 OA
ATOM     25  H   UNL     1      42.489  31.150  14.216  1.00  0.00     0.210 HD
ENDBRANCH  23  24
ENDBRANCH   2  23
BRANCH   6  26
ATOM     26  O   UNL     1      40.573  27.193  10.752  1.00  0.00    -0.387 OA
ATOM     27  H   UNL     1      39.760  26.704  10.443  1.00  0.00     0.211 HD
ENDBRANCH   6  26
BRANCH   5  28
ATOM     28  O   UNL     1      37.781  28.533  12.015  1.00  0.00    -0.385 OA
ATOM     29  H   UNL     1      37.342  27.663  11.821  1.00  0.00     0.211 HD
ENDBRANCH   5  28
BRANCH   4  30
ATOM     30  O   UNL     1      39.346  30.410   9.335  1.00  0.00    -0.341 OA
BRANCH  30  31
ATOM     31  C   UNL     1      38.596  30.097   8.161  1.00  0.00     0.184 C 
ATOM     32  C   UNL     1      37.089  30.488   8.210  1.00  0.00     0.178 C 
ATOM     33  C   UNL     1      38.823  28.653   7.646  1.00  0.00     0.180 C 
ATOM     34  O   UNL     1      36.250  29.481   8.769  1.00  0.00    -0.342 OA
ATOM     35  C   UNL     1      37.817  27.643   8.220  1.00  0.00     0.201 C 
ATOM     36  C   UNL     1      36.377  28.201   8.161  1.00  0.00     0.279 C 
BRANCH  32  37
ATOM     37  C   UNL     1      36.538  31.068   6.881  1.00  0.00     0.191 C 
BRANCH  37  38
ATOM     38  O   UNL     1      37.407  30.833   5.802  1.00  0.00    -0.394 OA
ATOM     39  H   UNL     1      37.592  29.858   5.803  1.00  0.00     0.210 HD
ENDBRANCH  37  38
ENDBRANCH  32  37
BRANCH  33  40
ATOM     40  O   UNL     1      40.146  28.234   7.855  1.00  0.00    -0.387 OA
ATOM     41  H   UNL     1      40.147  27.655   8.660  1.00  0.00     0.211 HD
ENDBRANCH  33  40
BRANCH  35  42
ATOM     42  O   UNL     1      37.884  26.445   7.485  1.00  0.00    -0.385 OA
ATOM     43  H   UNL     1      38.259  26.671   6.593  1.00  0.00     0.211 HD
ENDBRANCH  35  42
BRANCH  36  44
ATOM     44  O   UNL     1      35.862  28.220   6.848  1.00  0.00    -0.366 OA
ATOM     45  H   UNL     1      36.616  28.404   6.235  1.00  0.00     0.213 HD
ENDBRANCH  36  44
ENDBRANCH  30  31
ENDBRANCH   4  30
TORSDOF 18
ENDMDL
MODEL 6
REMARK VINA RESULT:    -5.995      1.814      5.109
REMARK INTER + INTRA:         -12.497
REMARK INTER:                 -11.595
REMARK INTRA:                  -0.902
REMARK UNBOUND:                -2.120
REMARK SMILES OC[C@@H]1O[C@@H](O[C@H]2[C@@H](O)[C@H](O)[C@H](O)O[C@@H]2CO)[C@H](O)[C@@H](O)[C@H]1O[C@@H]1O[C@H](CO)[C@@H](O)[C@@H](O)[C@@H]1O
REMARK SMILES IDX 22 1 3 2 4 3 5 4 18 5 20 6 23 7 24 8 26 9 29 10 25 11 31 12
REMARK SMILES IDX 33 13 27 14 28 15 30 17 32 19 34 21 2 23 1 24 21 26 19 28
REMARK SMILES IDX 6 30 7 31 15 32 8 33 14 34 10 35 12 36 16 37 17 38 9 40
REMARK SMILES IDX 11 42 13 44
REMARK H PARENT 28 16 30 18 32 20 34 22 1 25 21 27 19 29 17 39 9 41 11 43
REMARK H PARENT 13 45
REMARK Flexibility Score: inf
ROOT
ATOM      1  C   UNL     1      41.756  29.010  12.804  1.00  0.00     0.184 C 
ATOM      2  C   UNL     1      42.749  28.084  13.586  1.00  0.00     0.178 C 
ATOM      3  O   UNL     1      44.135  28.234  13.272  1.00  0.00    -0.341 OA
ATOM      4  C   UNL     1      44.421  28.960  12.092  1.00  0.00     0.282 C 
ATOM      5  C   UNL     1      43.848  30.388  12.178  1.00  0.00     0.202 C 
ATOM      6  C   UNL     1      42.356  30.416  12.604  1.00  0.00     0.180 C 
ENDROOT
BRANCH   1   7
ATOM      7  O   UNL     1      41.440  28.448  11.536  1.00  0.00    -0.341 OA
BRANCH   7   8
ATOM      8  C   UNL     1      40.124  28.777  11.119  1.00  0.00     0.282 C 
ATOM      9  C   UNL     1      37.996  29.205  11.980  1.00  0.00     0.178 C 
ATOM     10  C   UNL     1      37.417  28.862  10.564  1.00  0.00     0.177 C 
ATOM     11  O   UNL     1      39.258  28.590  12.221  1.00  0.00    -0.341 OA
ATOM     12  C   UNL     1      38.144  27.637   9.974  1.00  0.00     0.179 C 
ATOM     13  C   UNL     1      39.677  27.856   9.954  1.00  0.00     0.202 C 
BRANCH   9  14
ATOM     14  C   UNL     1      37.020  28.763  13.080  1.00  0.00     0.191 C 
BRANCH  14  15
ATOM     15  O   UNL     1      36.052  27.889  12.559  1.00  0.00    -0.394 OA
ATOM     16  H   UNL     1      36.483  26.995  12.485  1.00  0.00     0.210 HD
ENDBRANCH  14  15
ENDBRANCH   9  14
BRANCH  10  17
ATOM     17  O   UNL     1      37.592  29.957   9.698  1.00  0.00    -0.387 OA
ATOM     18  H   UNL     1      38.562  30.002   9.488  1.00  0.00     0.211 HD
ENDBRANCH  10  17
BRANCH  12  19
ATOM     19  O   UNL     1      37.691  27.378   8.668  1.00  0.00    -0.387 OA
ATOM     20  H   UNL     1      36.745  27.683   8.623  1.00  0.00     0.211 HD
ENDBRANCH  12  19
BRANCH  13  21
ATOM     21  O   UNL     1      40.328  26.612  10.041  1.00  0.00    -0.385 OA
ATOM     22  H   UNL     1      39.723  26.010  10.545  1.00  0.00     0.211 HD
ENDBRANCH  13  21
ENDBRANCH   7   8
ENDBRANCH   1   7
BRANCH   2  23
ATOM     23  C   UNL     1      42.580  28.288  15.102  1.00  0.00     0.191 C 
BRANCH  23  24
ATOM     24  O   UNL     1      41.689  29.344  15.362  1.00  0.00    -0.394 OA
ATOM     25  H   UNL     1      42.241  30.114  15.658  1.00  0.00     0.210 HD
ENDBRANCH  23  24
ENDBRANCH   2  23
BRANCH   6  26
ATOM     26  O   UNL     1      41.609  31.123  11.644  1.00  0.00    -0.387 OA
ATOM     27  H   UNL     1      42.227  31.356  10.897  1.00  0.00     0.211 HD
ENDBRANCH   6  26
BRANCH   5  28
ATOM     28  O   UNL     1      44.622  31.125  13.094  1.00  0.00    -0.385 OA
ATOM     29  H   UNL     1      45.314  31.605  12.566  1.00  0.00     0.211 HD
ENDBRANCH   5  28
BRANCH   4  30
ATOM     30  O   UNL     1      43.925  28.295  10.937  1.00  0.00    -0.341 OA
BRANCH  30  31
ATOM     31  C   UNL     1      44.641  28.511   9.720  1.00  0.00     0.184 C 
ATOM     32  C   UNL     1      45.851  29.486   9.824  1.00  0.00     0.178 C 
ATOM     33  C   UNL     1      43.726  28.821   8.508  1.00  0.00     0.180 C 
ATOM     34  O   UNL     1      45.509  30.855   9.628  1.00  0.00    -0.342 OA
ATOM     35  C   UNL     1      43.482  30.325   8.306  1.00  0.00     0.201 C 
ATOM     36  C   UNL     1      44.803  31.120   8.422  1.00  0.00     0.279 C 
BRANCH  32  37
ATOM     37  C   UNL     1      47.093  29.048   9.005  1.00  0.00     0.191 C 
BRANCH  37  38
ATOM     38  O   UNL     1      46.756  28.162   7.967  1.00  0.00    -0.394 OA
ATOM     39  H   UNL     1      47.186  27.296   8.192  1.00  0.00     0.210 HD
ENDBRANCH  37  38
ENDBRANCH  32  37
BRANCH  33  40
ATOM     40  O   UNL     1      42.518  28.111   8.580  1.00  0.00    -0.387 OA
ATOM     41  H   UNL     1      42.738  27.180   8.842  1.00  0.00     0.211 HD
ENDBRANCH  33  40
BRANCH  35  42
ATOM     42  O   UNL     1      42.918  30.541   7.036  1.00  0.00    -0.385 OA
ATOM     43  H   UNL     1      43.664  30.532   6.379  1.00  0.00     0.211 HD
ENDBRANCH  35  42
BRANCH  36  44
ATOM     44  O   UNL     1      45.641  30.936   7.303  1.00  0.00    -0.366 OA
ATOM     45  H   UNL     1      46.271  31.697   7.276  1.00  0.00     0.213 HD
ENDBRANCH  36  44
ENDBRANCH  30  31
ENDBRANCH   4  30
TORSDOF 18
ENDMDL
MODEL 7
REMARK VINA RESULT:    -5.823      1.870      7.235
REMARK INTER + INTRA:         -12.199
REMARK INTER:                 -10.229
REMARK INTRA:                  -1.970
REMARK UNBOUND:                -2.120
REMARK SMILES OC[C@@H]1O[C@@H](O[C@H]2[C@@H](O)[C@H](O)[C@H](O)O[C@@H]2CO)[C@H](O)[C@@H](O)[C@H]1O[C@@H]1O[C@H](CO)[C@@H](O)[C@@H](O)[C@@H]1O
REMARK SMILES IDX 22 1 3 2 4 3 5 4 18 5 20 6 23 7 24 8 26 9 29 10 25 11 31 12
REMARK SMILES IDX 33 13 27 14 28 15 30 17 32 19 34 21 2 23 1 24 21 26 19 28
REMARK SMILES IDX 6 30 7 31 15 32 8 33 14 34 10 35 12 36 16 37 17 38 9 40
REMARK SMILES IDX 11 42 13 44
REMARK H PARENT 28 16 30 18 32 20 34 22 1 25 21 27 19 29 17 39 9 41 11 43
REMARK H PARENT 13 45
REMARK Flexibility Score: inf
ROOT
ATOM      1  C   UNL     1      43.446  28.978  11.674  1.00  0.00     0.184 C 
ATOM      2  C   UNL     1      43.411  30.541  11.766  1.00  0.00     0.178 C 
ATOM      3  O   UNL     1      42.160  31.125  12.134  1.00  0.00    -0.341 OA
ATOM      4  C   UNL     1      41.039  30.266  12.066  1.00  0.00     0.282 C 
ATOM      5  C   UNL     1      41.227  29.048  12.992  1.00  0.00     0.202 C 
ATOM      6  C   UNL     1      42.594  28.340  12.788  1.00  0.00     0.180 C 
ENDROOT
BRANCH   1   7
ATOM      7  O   UNL     1      42.970  28.540  10.407  1.00  0.00    -0.341 OA
BRANCH   7   8
ATOM      8  C   UNL     1      43.990  28.548   9.420  1.00  0.00     0.282 C 
ATOM      9  C   UNL     1      46.316  28.559   9.208  1.00  0.00     0.178 C 
ATOM     10  C   UNL     1      46.122  29.119   7.756  1.00  0.00     0.177 C 
ATOM     11  O   UNL     1      45.213  28.853  10.061  1.00  0.00    -0.341 OA
ATOM     12  C   UNL     1      45.007  30.182   7.739  1.00  0.00     0.179 C 
ATOM     13  C   UNL     1      43.695  29.621   8.341  1.00  0.00     0.202 C 
BRANCH   9  14
ATOM     14  C   UNL     1      47.590  29.138   9.841  1.00  0.00     0.191 C 
BRANCH  14  15
ATOM     15  O   UNL     1      47.268  29.983  10.915  1.00  0.00    -0.394 OA
ATOM     16  H   UNL     1      48.111  30.141  11.419  1.00  0.00     0.210 HD
ENDBRANCH  14  15
ENDBRANCH   9  14
BRANCH  10  17
ATOM     17  O   UNL     1      45.769  28.073   6.884  1.00  0.00    -0.387 OA
ATOM     18  H   UNL     1      46.592  27.834   6.380  1.00  0.00     0.211 HD
ENDBRANCH  10  17
BRANCH  12  19
ATOM     19  O   UNL     1      44.768  30.624   6.425  1.00  0.00    -0.387 OA
ATOM     20  H   UNL     1      45.069  31.571   6.378  1.00  0.00     0.211 HD
ENDBRANCH  12  19
BRANCH  13  21
ATOM     21  O   UNL     1      42.948  30.676   8.897  1.00  0.00    -0.385 OA
ATOM     22  H   UNL     1      43.586  31.413   9.076  1.00  0.00     0.211 HD
ENDBRANCH  13  21
ENDBRANCH   7   8
ENDBRANCH   1   7
BRANCH   2  23
ATOM     23  C   UNL     1      44.477  31.036  12.760  1.00  0.00     0.191 C 
BRANCH  23  24
ATOM     24  O   UNL     1      45.400  30.014  13.044  1.00  0.00    -0.394 OA
ATOM     25  H   UNL     1      44.873  29.242  13.378  1.00  0.00     0.210 HD
ENDBRANCH  23  24
ENDBRANCH   2  23
BRANCH   6  26
ATOM     26  O   UNL     1      42.377  26.979  12.506  1.00  0.00    -0.387 OA
ATOM     27  H   UNL     1      43.257  26.581  12.259  1.00  0.00     0.211 HD
ENDBRANCH   6  26
BRANCH   5  28
ATOM     28  O   UNL     1      41.105  29.479  14.326  1.00  0.00    -0.385 OA
ATOM     29  H   UNL     1      41.955  29.938  14.559  1.00  0.00     0.211 HD
ENDBRANCH   5  28
BRANCH   4  30
ATOM     30  O   UNL     1      40.787  29.840  10.732  1.00  0.00    -0.341 OA
BRANCH  30  31
ATOM     31  C   UNL     1      39.418  29.664  10.366  1.00  0.00     0.184 C 
ATOM     32  C   UNL     1      38.753  28.355  10.887  1.00  0.00     0.178 C 
ATOM     33  C   UNL     1      39.139  29.920   8.862  1.00  0.00     0.180 C 
ATOM     34  O   UNL     1      38.918  27.239  10.018  1.00  0.00    -0.342 OA
ATOM     35  C   UNL     1      39.243  28.647   8.006  1.00  0.00     0.201 C 
ATOM     36  C   UNL     1      38.503  27.467   8.677  1.00  0.00     0.279 C 
BRANCH  32  37
ATOM     37  C   UNL     1      37.291  28.535  11.373  1.00  0.00     0.191 C 
BRANCH  37  38
ATOM     38  O   UNL     1      36.682  27.306  11.680  1.00  0.00    -0.394 OA
ATOM     39  H   UNL     1      36.403  27.366  12.631  1.00  0.00     0.210 HD
ENDBRANCH  37  38
ENDBRANCH  32  37
BRANCH  33  40
ATOM     40  O   UNL     1      39.952  30.946   8.356  1.00  0.00    -0.387 OA
ATOM     41  H   UNL     1      39.889  31.709   8.986  1.00  0.00     0.211 HD
ENDBRANCH  33  40
BRANCH  35  42
ATOM     42  O   UNL     1      38.684  28.890   6.739  1.00  0.00    -0.385 OA
ATOM     43  H   UNL     1      39.423  29.190   6.146  1.00  0.00     0.211 HD
ENDBRANCH  35  42
BRANCH  36  44
ATOM     44  O   UNL     1      37.102  27.602   8.605  1.00  0.00    -0.366 OA
ATOM     45  H   UNL     1      36.865  28.471   9.012  1.00  0.00     0.213 HD
ENDBRANCH  36  44
ENDBRANCH  30  31
ENDBRANCH   4  30
TORSDOF 18
ENDMDL
