MODEL 1
REMARK VINA RESULT:    -3.994      0.000      0.000
REMARK INTER + INTRA:          -7.428
REMARK INTER:                  -6.330
REMARK INTRA:                  -1.099
REMARK UNBOUND:                -1.099
REMARK SMILES C=CCCCCCCCCCCC
REMARK SMILES IDX 7 1 8 2 9 3 10 4 11 5 12 6 13 7 6 8 5 9 4 10 3 11 2 12 1 13
REMARK H PARENT
REMARK Flexibility Score: inf
ROOT
ATOM      1  C   UNL     1       3.051  -3.637  17.893  1.00  0.00     0.000 C 
ENDROOT
BRANCH   1   2
ATOM      2  C   UNL     1       4.411  -3.624  18.615  1.00  0.00     0.000 C 
BRANCH   2   3
ATOM      3  C   UNL     1       5.079  -2.238  18.599  1.00  0.00    -0.000 C 
BRANCH   3   4
ATOM      4  C   UNL     1       6.579  -2.312  18.265  1.00  0.00    -0.000 C 
BRANCH   4   5
ATOM      5  C   UNL     1       6.840  -2.559  16.769  1.00  0.00    -0.000 C 
BRANCH   5   6
ATOM      6  C   UNL     1       8.337  -2.546  16.423  1.00  0.00    -0.003 C 
ATOM      7  C   UNL     1       9.098  -1.422  17.123  1.00  0.00     0.004 C 
ENDBRANCH   5   6
ENDBRANCH   4   5
ENDBRANCH   3   4
ENDBRANCH   2   3
ENDBRANCH   1   2
BRANCH   1   8
ATOM      8  C   UNL     1       2.006  -2.648  18.448  1.00  0.00     0.000 C 
BRANCH   8   9
ATOM      9  C   UNL     1       0.900  -2.236  17.457  1.00  0.00     0.000 C 
BRANCH   9  10
ATOM     10  C   UNL     1       1.361  -2.083  15.995  1.00  0.00     0.004 C 
BRANCH  10  11
ATOM     11  C   UNL     1       1.920  -0.685  15.693  1.00  0.00     0.027 C 
BRANCH  11  12
ATOM     12  C   UNL     1       3.154  -0.767  14.835  1.00  0.00    -0.035 C 
ATOM     13  C   UNL     1       3.879  -1.887  14.751  1.00  0.00     0.004 C 
ENDBRANCH  11  12
ENDBRANCH  10  11
ENDBRANCH   9  10
ENDBRANCH   8   9
ENDBRANCH   1   8
TORSDOF 10
ENDMDL
MODEL 2
REMARK VINA RESULT:    -3.946      1.255      4.496
REMARK INTER + INTRA:          -7.351
REMARK INTER:                  -6.046
REMARK INTRA:                  -1.305
REMARK UNBOUND:                -1.099
REMARK SMILES C=CCCCCCCCCCCC
REMARK SMILES IDX 7 1 8 2 9 3 10 4 11 5 12 6 13 7 6 8 5 9 4 10 3 11 2 12 1 13
REMARK H PARENT
REMARK Flexibility Score: inf
ROOT
ATOM      1  C   UNL     1       3.502  -4.531  19.333  1.00  0.00     0.000 C 
ENDROOT
BRANCH   1   2
ATOM      2  C   UNL     1       2.782  -4.125  18.034  1.00  0.00     0.000 C 
BRANCH   2   3
ATOM      3  C   UNL     1       2.314  -2.659  18.047  1.00  0.00    -0.000 C 
BRANCH   3   4
ATOM      4  C   UNL     1       3.126  -1.773  17.088  1.00  0.00    -0.000 C 
BRANCH   4   5
ATOM      5  C   UNL     1       3.722  -2.567  15.912  1.00  0.00    -0.000 C 
BRANCH   5   6
ATOM      6  C   UNL     1       4.407  -1.662  14.877  1.00  0.00    -0.003 C 
ATOM      7  C   UNL     1       3.481  -1.269  13.727  1.00  0.00     0.004 C 
ENDBRANCH   5   6
ENDBRANCH   4   5
ENDBRANCH   3   4
ENDBRANCH   2   3
ENDBRANCH   1   2
BRANCH   1   8
ATOM      8  C   UNL     1       4.998  -4.164  19.394  1.00  0.00     0.000 C 
BRANCH   8   9
ATOM      9  C   UNL     1       5.311  -2.779  19.994  1.00  0.00     0.000 C 
BRANCH   9  10
ATOM     10  C   UNL     1       6.269  -1.910  19.159  1.00  0.00     0.004 C 
BRANCH  10  11
ATOM     11  C   UNL     1       6.801  -2.638  17.916  1.00  0.00     0.027 C 
BRANCH  11  12
ATOM     12  C   UNL     1       7.897  -1.849  17.252  1.00  0.00    -0.035 C 
ATOM     13  C   UNL     1       8.834  -2.438  16.503  1.00  0.00     0.004 C 
ENDBRANCH  11  12
ENDBRANCH  10  11
ENDBRANCH   9  10
ENDBRANCH   8   9
ENDBRANCH   1   8
TORSDOF 10
ENDMDL
MODEL 3
REMARK VINA RESULT:    -3.926      1.575      4.748
REMARK INTER + INTRA:          -7.320
REMARK INTER:                  -5.729
REMARK INTRA:                  -1.591
REMARK UNBOUND:                -1.099
REMARK SMILES C=CCCCCCCCCCCC
REMARK SMILES IDX 7 1 8 2 9 3 10 4 11 5 12 6 13 7 6 8 5 9 4 10 3 11 2 12 1 13
REMARK H PARENT
REMARK Flexibility Score: inf
ROOT
ATOM      1  C   UNL     1       4.303  -3.718  21.136  1.00  0.00     0.000 C 
ENDROOT
BRANCH   1   2
ATOM      2  C   UNL     1       3.827  -4.846  20.201  1.00  0.00     0.000 C 
BRANCH   2   3
ATOM      3  C   UNL     1       3.260  -4.317  18.872  1.00  0.00    -0.000 C 
BRANCH   3   4
ATOM      4  C   UNL     1       2.558  -2.958  19.030  1.00  0.00    -0.000 C 
BRANCH   4   5
ATOM      5  C   UNL     1       2.405  -2.213  17.692  1.00  0.00    -0.000 C 
BRANCH   5   6
ATOM      6  C   UNL     1       3.091  -2.947  16.529  1.00  0.00    -0.003 C 
ATOM      7  C   UNL     1       3.927  -2.017  15.651  1.00  0.00     0.004 C 
ENDBRANCH   5   6
ENDBRANCH   4   5
ENDBRANCH   3   4
ENDBRANCH   2   3
ENDBRANCH   1   2
BRANCH   1   8
ATOM      8  C   UNL     1       5.804  -3.378  21.038  1.00  0.00     0.000 C 
BRANCH   8   9
ATOM      9  C   UNL     1       6.123  -1.948  20.558  1.00  0.00     0.000 C 
BRANCH   9  10
ATOM     10  C   UNL     1       5.989  -1.727  19.040  1.00  0.00     0.004 C 
BRANCH  10  11
ATOM     11  C   UNL     1       6.586  -2.878  18.217  1.00  0.00     0.027 C 
BRANCH  11  12
ATOM     12  C   UNL     1       7.307  -2.359  17.002  1.00  0.00    -0.035 C 
ATOM     13  C   UNL     1       8.555  -1.884  17.073  1.00  0.00     0.004 C 
ENDBRANCH  11  12
ENDBRANCH  10  11
ENDBRANCH   9  10
ENDBRANCH   8   9
ENDBRANCH   1   8
TORSDOF 10
ENDMDL
MODEL 4
REMARK VINA RESULT:    -3.859      2.328      5.431
REMARK INTER + INTRA:          -7.213
REMARK INTER:                  -5.693
REMARK INTRA:                  -1.520
REMARK UNBOUND:                -1.099
REMARK SMILES C=CCCCCCCCCCCC
REMARK SMILES IDX 7 1 8 2 9 3 10 4 11 5 12 6 13 7 6 8 5 9 4 10 3 11 2 12 1 13
REMARK H PARENT
REMARK Flexibility Score: inf
ROOT
ATOM      1  C   UNL     1       4.501  -2.257  16.001  1.00  0.00     0.000 C 
ENDROOT
BRANCH   1   2
ATOM      2  C   UNL     1       4.171  -1.563  14.668  1.00  0.00     0.000 C 
BRANCH   2   3
ATOM      3  C   UNL     1       3.018  -0.551  14.793  1.00  0.00    -0.000 C 
BRANCH   3   4
ATOM      4  C   UNL     1       1.883  -0.824  13.791  1.00  0.00    -0.000 C 
BRANCH   4   5
ATOM      5  C   UNL     1       0.648  -1.457  14.456  1.00  0.00    -0.000 C 
BRANCH   5   6
ATOM      6  C   UNL     1       0.642  -2.989  14.347  1.00  0.00    -0.003 C 
ATOM      7  C   UNL     1       1.471  -3.505  13.172  1.00  0.00     0.004 C 
ENDBRANCH   5   6
ENDBRANCH   4   5
ENDBRANCH   3   4
ENDBRANCH   2   3
ENDBRANCH   1   2
BRANCH   1   8
ATOM      8  C   UNL     1       3.373  -2.226  17.051  1.00  0.00     0.000 C 
BRANCH   8   9
ATOM      9  C   UNL     1       2.839  -3.607  17.483  1.00  0.00     0.000 C 
BRANCH   9  10
ATOM     10  C   UNL     1       1.365  -3.624  17.929  1.00  0.00     0.004 C 
BRANCH  10  11
ATOM     11  C   UNL     1       0.754  -2.218  18.014  1.00  0.00     0.027 C 
BRANCH  11  12
ATOM     12  C   UNL     1      -0.066  -2.057  19.265  1.00  0.00    -0.035 C 
ATOM     13  C   UNL     1      -0.095  -2.998  20.214  1.00  0.00     0.004 C 
ENDBRANCH  11  12
ENDBRANCH  10  11
ENDBRANCH   9  10
ENDBRANCH   8   9
ENDBRANCH   1   8
TORSDOF 10
ENDMDL
MODEL 5
REMARK VINA RESULT:    -3.839      2.555      4.796
REMARK INTER + INTRA:          -7.183
REMARK INTER:                  -5.802
REMARK INTRA:                  -1.381
REMARK UNBOUND:                -1.099
REMARK SMILES C=CCCCCCCCCCCC
REMARK SMILES IDX 7 1 8 2 9 3 10 4 11 5 12 6 13 7 6 8 5 9 4 10 3 11 2 12 1 13
REMARK H PARENT
REMARK Flexibility Score: inf
ROOT
ATOM      1  C   UNL     1       2.946  -4.466  18.248  1.00  0.00     0.000 C 
ENDROOT
BRANCH   1   2
ATOM      2  C   UNL     1       3.796  -3.263  18.694  1.00  0.00     0.000 C 
BRANCH   2   3
ATOM      3  C   UNL     1       3.499  -1.991  17.880  1.00  0.00    -0.000 C 
BRANCH   3   4
ATOM      4  C   UNL     1       3.721  -2.191  16.371  1.00  0.00    -0.000 C 
BRANCH   4   5
ATOM      5  C   UNL     1       3.019  -1.115  15.524  1.00  0.00    -0.000 C 
BRANCH   5   6
ATOM      6  C   UNL     1       1.502  -1.075  15.763  1.00  0.00    -0.003 C 
ATOM      7  C   UNL     1       0.785  -2.320  15.245  1.00  0.00     0.004 C 
ENDBRANCH   5   6
ENDBRANCH   4   5
ENDBRANCH   3   4
ENDBRANCH   2   3
ENDBRANCH   1   2
BRANCH   1   8
ATOM      8  C   UNL     1       1.422  -4.274  18.379  1.00  0.00     0.000 C 
BRANCH   8   9
ATOM      9  C   UNL     1       0.896  -4.157  19.823  1.00  0.00     0.000 C 
BRANCH   9  10
ATOM     10  C   UNL     1       0.385  -2.759  20.218  1.00  0.00     0.004 C 
BRANCH  10  11
ATOM     11  C   UNL     1      -0.155  -1.964  19.020  1.00  0.00     0.027 C 
BRANCH  11  12
ATOM     12  C   UNL     1      -1.444  -1.270  19.366  1.00  0.00    -0.035 C 
ATOM     13  C   UNL     1      -1.916  -0.254  18.636  1.00  0.00     0.004 C 
ENDBRANCH  11  12
ENDBRANCH  10  11
ENDBRANCH   9  10
ENDBRANCH   8   9
ENDBRANCH   1   8
TORSDOF 10
ENDMDL
MODEL 6
REMARK VINA RESULT:    -3.823      2.599      5.585
REMARK INTER + INTRA:          -7.157
REMARK INTER:                  -5.890
REMARK INTRA:                  -1.267
REMARK UNBOUND:                -1.099
REMARK SMILES C=CCCCCCCCCCCC
REMARK SMILES IDX 7 1 8 2 9 3 10 4 11 5 12 6 13 7 6 8 5 9 4 10 3 11 2 12 1 13
REMARK H PARENT
REMARK Flexibility Score: inf
ROOT
ATOM      1  C   UNL     1       2.769  -4.352  18.234  1.00  0.00     0.000 C 
ENDROOT
BRANCH   1   2
ATOM      2  C   UNL     1       1.251  -4.130  18.103  1.00  0.00     0.000 C 
BRANCH   2   3
ATOM      3  C   UNL     1       0.510  -4.278  19.444  1.00  0.00    -0.000 C 
BRANCH   3   4
ATOM      4  C   UNL     1       0.081  -2.923  20.031  1.00  0.00    -0.000 C 
BRANCH   4   5
ATOM      5  C   UNL     1      -0.197  -1.869  18.944  1.00  0.00    -0.000 C 
BRANCH   5   6
ATOM      6  C   UNL     1      -1.466  -1.052  19.227  1.00  0.00    -0.003 C 
ATOM      7  C   UNL     1      -1.775  -0.932  20.719  1.00  0.00     0.004 C 
ENDBRANCH   5   6
ENDBRANCH   4   5
ENDBRANCH   3   4
ENDBRANCH   2   3
ENDBRANCH   1   2
BRANCH   1   8
ATOM      8  C   UNL     1       3.584  -3.094  18.596  1.00  0.00     0.000 C 
BRANCH   8   9
ATOM      9  C   UNL     1       3.408  -1.899  17.638  1.00  0.00     0.000 C 
BRANCH   9  10
ATOM     10  C   UNL     1       3.655  -2.215  16.151  1.00  0.00     0.004 C 
BRANCH  10  11
ATOM     11  C   UNL     1       3.063  -1.154  15.212  1.00  0.00     0.027 C 
BRANCH  11  12
ATOM     12  C   UNL     1       1.712  -0.700  15.690  1.00  0.00    -0.035 C 
ATOM     13  C   UNL     1       0.594  -1.364  15.378  1.00  0.00     0.004 C 
ENDBRANCH  11  12
ENDBRANCH  10  11
ENDBRANCH   9  10
ENDBRANCH   8   9
ENDBRANCH   1   8
TORSDOF 10
ENDMDL
MODEL 7
REMARK VINA RESULT:    -3.777      1.184      4.993
REMARK INTER + INTRA:          -7.083
REMARK INTER:                  -5.702
REMARK INTRA:                  -1.381
REMARK UNBOUND:                -1.099
REMARK SMILES C=CCCCCCCCCCCC
REMARK SMILES IDX 7 1 8 2 9 3 10 4 11 5 12 6 13 7 6 8 5 9 4 10 3 11 2 12 1 13
REMARK H PARENT
REMARK Flexibility Score: inf
ROOT
ATOM      1  C   UNL     1       2.591  -3.163  19.105  1.00  0.00     0.000 C 
ENDROOT
BRANCH   1   2
ATOM      2  C   UNL     1       1.997  -2.533  17.833  1.00  0.00     0.000 C 
BRANCH   2   3
ATOM      3  C   UNL     1       2.740  -2.960  16.554  1.00  0.00    -0.000 C 
BRANCH   3   4
ATOM      4  C   UNL     1       3.527  -1.803  15.917  1.00  0.00    -0.000 C 
BRANCH   4   5
ATOM      5  C   UNL     1       2.647  -0.571  15.641  1.00  0.00    -0.000 C 
BRANCH   5   6
ATOM      6  C   UNL     1       1.606  -0.827  14.540  1.00  0.00    -0.003 C 
ATOM      7  C   UNL     1       0.168  -0.697  15.040  1.00  0.00     0.004 C 
ENDBRANCH   5   6
ENDBRANCH   4   5
ENDBRANCH   3   4
ENDBRANCH   2   3
ENDBRANCH   1   2
BRANCH   1   8
ATOM      8  C   UNL     1       3.463  -4.413  18.870  1.00  0.00     0.000 C 
BRANCH   8   9
ATOM      9  C   UNL     1       4.965  -4.231  19.165  1.00  0.00     0.000 C 
BRANCH   9  10
ATOM     10  C   UNL     1       5.348  -2.870  19.776  1.00  0.00     0.004 C 
BRANCH  10  11
ATOM     11  C   UNL     1       6.105  -1.968  18.790  1.00  0.00     0.027 C 
BRANCH  11  12
ATOM     12  C   UNL     1       6.889  -2.785  17.800  1.00  0.00    -0.035 C 
ATOM     13  C   UNL     1       7.240  -2.298  16.606  1.00  0.00     0.004 C 
ENDBRANCH  11  12
ENDBRANCH  10  11
ENDBRANCH   9  10
ENDBRANCH   8   9
ENDBRANCH   1   8
TORSDOF 10
ENDMDL
MODEL 8
REMARK VINA RESULT:    -3.751      2.458      5.440
REMARK INTER + INTRA:          -7.042
REMARK INTER:                  -5.689
REMARK INTRA:                  -1.353
REMARK UNBOUND:                -1.099
REMARK SMILES C=CCCCCCCCCCCC
REMARK SMILES IDX 7 1 8 2 9 3 10 4 11 5 12 6 13 7 6 8 5 9 4 10 3 11 2 12 1 13
REMARK H PARENT
REMARK Flexibility Score: inf
ROOT
ATOM      1  C   UNL     1       3.624  -2.254  17.441  1.00  0.00     0.000 C 
ENDROOT
BRANCH   1   2
ATOM      2  C   UNL     1       2.930  -3.557  17.877  1.00  0.00     0.000 C 
BRANCH   2   3
ATOM      3  C   UNL     1       1.415  -3.544  17.606  1.00  0.00    -0.000 C 
BRANCH   3   4
ATOM      4  C   UNL     1       0.724  -2.297  18.183  1.00  0.00    -0.000 C 
BRANCH   4   5
ATOM      5  C   UNL     1       0.360  -2.458  19.669  1.00  0.00    -0.000 C 
BRANCH   5   6
ATOM      6  C   UNL     1      -0.998  -1.828  20.014  1.00  0.00    -0.003 C 
ATOM      7  C   UNL     1      -1.431  -0.762  19.008  1.00  0.00     0.004 C 
ENDBRANCH   5   6
ENDBRANCH   4   5
ENDBRANCH   3   4
ENDBRANCH   2   3
ENDBRANCH   1   2
BRANCH   1   8
ATOM      8  C   UNL     1       4.090  -2.222  15.971  1.00  0.00     0.000 C 
BRANCH   8   9
ATOM      9  C   UNL     1       3.269  -1.308  15.041  1.00  0.00     0.000 C 
BRANCH   9  10
ATOM     10  C   UNL     1       2.429  -2.044  13.981  1.00  0.00     0.004 C 
BRANCH  10  11
ATOM     11  C   UNL     1       0.922  -1.987  14.272  1.00  0.00     0.027 C 
BRANCH  11  12
ATOM     12  C   UNL     1       0.547  -0.692  14.939  1.00  0.00    -0.035 C 
ATOM     13  C   UNL     1      -0.718  -0.407  15.264  1.00  0.00     0.004 C 
ENDBRANCH  11  12
ENDBRANCH  10  11
ENDBRANCH   9  10
ENDBRANCH   8   9
ENDBRANCH   1   8
TORSDOF 10
ENDMDL
MODEL 9
REMARK VINA RESULT:    -3.750      1.089      4.174
REMARK INTER + INTRA:          -7.041
REMARK INTER:                  -5.973
REMARK INTRA:                  -1.068
REMARK UNBOUND:                -1.099
REMARK SMILES C=CCCCCCCCCCCC
REMARK SMILES IDX 7 1 8 2 9 3 10 4 11 5 12 6 13 7 6 8 5 9 4 10 3 11 2 12 1 13
REMARK H PARENT
REMARK Flexibility Score: inf
ROOT
ATOM      1  C   UNL     1       0.604  -1.316  15.046  1.00  0.00     0.000 C 
ENDROOT
BRANCH   1   2
ATOM      2  C   UNL     1       0.892  -1.491  16.549  1.00  0.00     0.000 C 
BRANCH   2   3
ATOM      3  C   UNL     1       1.429  -2.892  16.892  1.00  0.00    -0.000 C 
BRANCH   3   4
ATOM      4  C   UNL     1       2.400  -2.873  18.085  1.00  0.00    -0.000 C 
BRANCH   4   5
ATOM      5  C   UNL     1       3.188  -4.188  18.224  1.00  0.00    -0.000 C 
BRANCH   5   6
ATOM      6  C   UNL     1       4.430  -4.037  19.117  1.00  0.00    -0.003 C 
ATOM      7  C   UNL     1       4.967  -2.607  19.151  1.00  0.00     0.004 C 
ENDBRANCH   5   6
ENDBRANCH   4   5
ENDBRANCH   3   4
ENDBRANCH   2   3
ENDBRANCH   1   2
BRANCH   1   8
ATOM      8  C   UNL     1       1.754  -0.692  14.230  1.00  0.00     0.000 C 
BRANCH   8   9
ATOM      9  C   UNL     1       3.116  -0.636  14.950  1.00  0.00     0.000 C 
BRANCH   9  10
ATOM     10  C   UNL     1       4.148  -1.674  14.471  1.00  0.00     0.004 C 
BRANCH  10  11
ATOM     11  C   UNL     1       5.048  -2.184  15.606  1.00  0.00     0.027 C 
BRANCH  11  12
ATOM     12  C   UNL     1       6.498  -2.155  15.204  1.00  0.00    -0.035 C 
ATOM     13  C   UNL     1       7.480  -2.140  16.110  1.00  0.00     0.004 C 
ENDBRANCH  11  12
ENDBRANCH  10  11
ENDBRANCH   9  10
ENDBRANCH   8   9
ENDBRANCH   1   8
TORSDOF 10
ENDMDL
