MODEL 1
REMARK VINA RESULT:    -5.185      0.000      0.000
REMARK INTER + INTRA:          -6.094
REMARK INTER:                  -5.943
REMARK INTRA:                  -0.151
REMARK UNBOUND:                -0.151
REMARK SMILES CC=Cc1ccc(O)c(OC)c1
REMARK SMILES IDX 4 1 12 2 9 3 7 4 6 5 5 6 3 7 1 8 2 9 10 10 11 11 8 12
REMARK H PARENT 8 13
REMARK Flexibility Score: inf
ROOT
ATOM      1  C   UNL     1       6.453  -2.043  48.517  1.00  0.00    -0.022 A 
ATOM      2  C   UNL     1       5.979  -3.236  47.933  1.00  0.00     0.058 A 
ATOM      3  C   UNL     1       5.491  -3.243  46.610  1.00  0.00     0.161 A 
ATOM      4  C   UNL     1       5.487  -2.052  45.871  1.00  0.00     0.157 A 
ATOM      5  C   UNL     1       5.973  -0.870  46.443  1.00  0.00     0.051 A 
ATOM      6  C   UNL     1       6.457  -0.867  47.752  1.00  0.00     0.012 A 
ENDROOT
BRANCH   1   7
ATOM      7  C   UNL     1       6.985  -1.990  49.901  1.00  0.00     0.003 C 
ATOM      8  C   UNL     1       6.881  -1.565  52.326  1.00  0.00     0.035 C 
ATOM      9  C   UNL     1       6.267  -1.607  50.963  1.00  0.00    -0.030 C 
ENDBRANCH   1   7
BRANCH   3  10
ATOM     10  O   UNL     1       5.005  -4.408  45.997  1.00  0.00    -0.493 OA
ATOM     11  C   UNL     1       4.774  -5.640  46.673  1.00  0.00     0.278 C 
ENDBRANCH   3  10
BRANCH   4  12
ATOM     12  O   UNL     1       5.002  -2.053  44.565  1.00  0.00    -0.504 OA
ATOM     13  H   UNL     1       4.225  -2.642  44.287  1.00  0.00     0.293 HD
ENDBRANCH   4  12
TORSDOF 3
ENDMDL
MODEL 2
REMARK VINA RESULT:    -4.976     12.673     14.286
REMARK INTER + INTRA:          -5.854
REMARK INTER:                  -5.690
REMARK INTRA:                  -0.164
REMARK UNBOUND:                -0.151
REMARK SMILES CC=Cc1ccc(O)c(OC)c1
REMARK SMILES IDX 4 1 12 2 9 3 7 4 6 5 5 6 3 7 1 8 2 9 10 10 11 11 8 12
REMARK H PARENT 8 13
REMARK Flexibility Score: inf
ROOT
ATOM      1  C   UNL     1      -2.168   5.370  40.731  1.00  0.00    -0.022 A 
ATOM      2  C   UNL     1      -1.507   6.493  40.191  1.00  0.00     0.058 A 
ATOM      3  C   UNL     1      -0.823   7.395  41.031  1.00  0.00     0.161 A 
ATOM      4  C   UNL     1      -0.797   7.165  42.413  1.00  0.00     0.157 A 
ATOM      5  C   UNL     1      -1.439   6.042  42.950  1.00  0.00     0.051 A 
ATOM      6  C   UNL     1      -2.114   5.150  42.115  1.00  0.00     0.012 A 
ENDROOT
BRANCH   1   7
ATOM      7  C   UNL     1      -2.893   4.389  39.885  1.00  0.00     0.003 C 
ATOM      8  C   UNL     1      -3.125   2.728  38.081  1.00  0.00     0.035 C 
ATOM      9  C   UNL     1      -2.322   3.688  38.900  1.00  0.00    -0.030 C 
ENDBRANCH   1   7
BRANCH   3  10
ATOM     10  O   UNL     1      -0.158   8.526  40.531  1.00  0.00    -0.493 OA
ATOM     11  C   UNL     1      -0.808   9.677  40.001  1.00  0.00     0.278 C 
ENDBRANCH   3  10
BRANCH   4  12
ATOM     12  O   UNL     1      -0.125   8.056  43.248  1.00  0.00    -0.504 OA
ATOM     13  H   UNL     1      -0.027   9.036  43.009  1.00  0.00     0.293 HD
ENDBRANCH   4  12
TORSDOF 3
ENDMDL
MODEL 3
REMARK VINA RESULT:    -4.917     13.109     14.403
REMARK INTER + INTRA:          -5.787
REMARK INTER:                  -5.608
REMARK INTRA:                  -0.179
REMARK UNBOUND:                -0.151
REMARK SMILES CC=Cc1ccc(O)c(OC)c1
REMARK SMILES IDX 4 1 12 2 9 3 7 4 6 5 5 6 3 7 1 8 2 9 10 10 11 11 8 12
REMARK H PARENT 8 13
REMARK Flexibility Score: inf
ROOT
ATOM      1  C   UNL     1       4.778  11.157  47.454  1.00  0.00    -0.022 A 
ATOM      2  C   UNL     1       3.386  10.948  47.359  1.00  0.00     0.058 A 
ATOM      3  C   UNL     1       2.511  11.500  48.318  1.00  0.00     0.161 A 
ATOM      4  C   UNL     1       3.034  12.268  49.366  1.00  0.00     0.157 A 
ATOM      5  C   UNL     1       4.414  12.491  49.453  1.00  0.00     0.051 A 
ATOM      6  C   UNL     1       5.277  11.945  48.502  1.00  0.00     0.012 A 
ENDROOT
BRANCH   1   7
ATOM      7  C   UNL     1       5.736  10.605  46.465  1.00  0.00     0.003 C 
ATOM      8  C   UNL     1       7.873   9.633  45.717  1.00  0.00     0.035 C 
ATOM      9  C   UNL     1       6.959  10.161  46.776  1.00  0.00    -0.030 C 
ENDBRANCH   1   7
BRANCH   3  10
ATOM     10  O   UNL     1       1.122  11.308  48.260  1.00  0.00    -0.493 OA
ATOM     11  C   UNL     1       0.488  10.059  48.004  1.00  0.00     0.278 C 
ENDBRANCH   3  10
BRANCH   4  12
ATOM     12  O   UNL     1       2.174  12.812  50.318  1.00  0.00    -0.504 OA
ATOM     13  H   UNL     1       2.370  12.748  51.310  1.00  0.00     0.293 HD
ENDBRANCH   4  12
TORSDOF 3
ENDMDL
MODEL 4
REMARK VINA RESULT:    -4.825      1.896      2.684
REMARK INTER + INTRA:          -5.681
REMARK INTER:                  -5.502
REMARK INTRA:                  -0.179
REMARK UNBOUND:                -0.151
REMARK SMILES CC=Cc1ccc(O)c(OC)c1
REMARK SMILES IDX 4 1 12 2 9 3 7 4 6 5 5 6 3 7 1 8 2 9 10 10 11 11 8 12
REMARK H PARENT 8 13
REMARK Flexibility Score: inf
ROOT
ATOM      1  C   UNL     1       6.136  -3.434  48.124  1.00  0.00    -0.022 A 
ATOM      2  C   UNL     1       5.485  -3.310  46.879  1.00  0.00     0.058 A 
ATOM      3  C   UNL     1       5.526  -2.094  46.166  1.00  0.00     0.161 A 
ATOM      4  C   UNL     1       6.229  -1.006  46.700  1.00  0.00     0.157 A 
ATOM      5  C   UNL     1       6.891  -1.132  47.928  1.00  0.00     0.051 A 
ATOM      6  C   UNL     1       6.849  -2.337  48.630  1.00  0.00     0.012 A 
ENDROOT
BRANCH   1   7
ATOM      7  C   UNL     1       6.128  -4.696  48.905  1.00  0.00     0.003 C 
ATOM      8  C   UNL     1       6.596  -6.125  50.857  1.00  0.00     0.035 C 
ATOM      9  C   UNL     1       6.628  -4.812  50.140  1.00  0.00    -0.030 C 
ENDBRANCH   1   7
BRANCH   3  10
ATOM     10  O   UNL     1       4.886  -1.930  44.928  1.00  0.00    -0.493 OA
ATOM     11  C   UNL     1       4.431  -3.000  44.106  1.00  0.00     0.278 C 
ENDBRANCH   3  10
BRANCH   4  12
ATOM     12  O   UNL     1       6.270   0.199  46.001  1.00  0.00    -0.504 OA
ATOM     13  H   UNL     1       7.067   0.455  45.430  1.00  0.00     0.293 HD
ENDBRANCH   4  12
TORSDOF 3
ENDMDL
MODEL 5
REMARK VINA RESULT:    -4.763      2.631      3.769
REMARK INTER + INTRA:          -5.611
REMARK INTER:                  -5.449
REMARK INTRA:                  -0.161
REMARK UNBOUND:                -0.151
REMARK SMILES CC=Cc1ccc(O)c(OC)c1
REMARK SMILES IDX 4 1 12 2 9 3 7 4 6 5 5 6 3 7 1 8 2 9 10 10 11 11 8 12
REMARK H PARENT 8 13
REMARK Flexibility Score: inf
ROOT
ATOM      1  C   UNL     1       5.559  -3.050  48.730  1.00  0.00    -0.022 A 
ATOM      2  C   UNL     1       6.958  -2.938  48.862  1.00  0.00     0.058 A 
ATOM      3  C   UNL     1       7.683  -2.022  48.072  1.00  0.00     0.161 A 
ATOM      4  C   UNL     1       6.999  -1.212  47.155  1.00  0.00     0.157 A 
ATOM      5  C   UNL     1       5.607  -1.310  47.034  1.00  0.00     0.051 A 
ATOM      6  C   UNL     1       4.893  -2.217  47.818  1.00  0.00     0.012 A 
ENDROOT
BRANCH   1   7
ATOM      7  C   UNL     1       4.754  -3.993  49.546  1.00  0.00     0.003 C 
ATOM      8  C   UNL     1       3.194  -5.863  49.921  1.00  0.00     0.035 C 
ATOM      9  C   UNL     1       3.989  -4.962  49.031  1.00  0.00    -0.030 C 
ENDBRANCH   1   7
BRANCH   3  10
ATOM     10  O   UNL     1       9.076  -1.886  48.171  1.00  0.00    -0.493 OA
ATOM     11  C   UNL     1       9.915  -2.718  48.966  1.00  0.00     0.278 C 
ENDBRANCH   3  10
BRANCH   4  12
ATOM     12  O   UNL     1       7.710  -0.308  46.369  1.00  0.00    -0.504 OA
ATOM     13  H   UNL     1       8.724  -0.295  46.360  1.00  0.00     0.293 HD
ENDBRANCH   4  12
TORSDOF 3
ENDMDL
MODEL 6
REMARK VINA RESULT:    -4.611      2.957      4.501
REMARK INTER + INTRA:          -5.436
REMARK INTER:                  -5.286
REMARK INTRA:                  -0.150
REMARK UNBOUND:                -0.151
REMARK SMILES CC=Cc1ccc(O)c(OC)c1
REMARK SMILES IDX 4 1 12 2 9 3 7 4 6 5 5 6 3 7 1 8 2 9 10 10 11 11 8 12
REMARK H PARENT 8 13
REMARK Flexibility Score: inf
ROOT
ATOM      1  C   UNL     1       6.333  -4.008  49.302  1.00  0.00    -0.022 A 
ATOM      2  C   UNL     1       6.388  -2.711  48.750  1.00  0.00     0.058 A 
ATOM      3  C   UNL     1       7.623  -2.141  48.379  1.00  0.00     0.161 A 
ATOM      4  C   UNL     1       8.802  -2.879  48.554  1.00  0.00     0.157 A 
ATOM      5  C   UNL     1       8.748  -4.173  49.086  1.00  0.00     0.051 A 
ATOM      6  C   UNL     1       7.524  -4.734  49.452  1.00  0.00     0.012 A 
ENDROOT
BRANCH   1   7
ATOM      7  C   UNL     1       5.056  -4.652  49.699  1.00  0.00     0.003 C 
ATOM      8  C   UNL     1       2.728  -5.392  49.382  1.00  0.00     0.035 C 
ATOM      9  C   UNL     1       3.986  -4.741  48.902  1.00  0.00    -0.030 C 
ENDBRANCH   1   7
BRANCH   3  10
ATOM     10  O   UNL     1       7.719  -0.852  47.833  1.00  0.00    -0.493 OA
ATOM     11  C   UNL     1       6.817  -0.313  46.872  1.00  0.00     0.278 C 
ENDBRANCH   3  10
BRANCH   4  12
ATOM     12  O   UNL     1      10.025  -2.319  48.192  1.00  0.00    -0.504 OA
ATOM     13  H   UNL     1      10.397  -1.502  48.665  1.00  0.00     0.293 HD
ENDBRANCH   4  12
TORSDOF 3
ENDMDL
MODEL 7
REMARK VINA RESULT:    -4.544     13.272     14.135
REMARK INTER + INTRA:          -5.359
REMARK INTER:                  -5.170
REMARK INTRA:                  -0.189
REMARK UNBOUND:                -0.151
REMARK SMILES CC=Cc1ccc(O)c(OC)c1
REMARK SMILES IDX 4 1 12 2 9 3 7 4 6 5 5 6 3 7 1 8 2 9 10 10 11 11 8 12
REMARK H PARENT 8 13
REMARK Flexibility Score: inf
ROOT
ATOM      1  C   UNL     1       1.885  10.364  47.267  1.00  0.00    -0.022 A 
ATOM      2  C   UNL     1       3.200  10.710  46.893  1.00  0.00     0.058 A 
ATOM      3  C   UNL     1       4.138  11.119  47.863  1.00  0.00     0.161 A 
ATOM      4  C   UNL     1       3.756  11.172  49.210  1.00  0.00     0.157 A 
ATOM      5  C   UNL     1       2.456  10.813  49.586  1.00  0.00     0.051 A 
ATOM      6  C   UNL     1       1.531  10.408  48.623  1.00  0.00     0.012 A 
ENDROOT
BRANCH   1   7
ATOM      7  C   UNL     1       0.868   9.920  46.282  1.00  0.00     0.003 C 
ATOM      8  C   UNL     1      -0.936   8.479  45.421  1.00  0.00     0.035 C 
ATOM      9  C   UNL     1       0.054   8.874  46.470  1.00  0.00    -0.030 C 
ENDBRANCH   1   7
BRANCH   3  10
ATOM     10  O   UNL     1       5.454  11.477  47.529  1.00  0.00    -0.493 OA
ATOM     11  C   UNL     1       6.461  10.559  47.118  1.00  0.00     0.278 C 
ENDBRANCH   3  10
BRANCH   4  12
ATOM     12  O   UNL     1       4.678  11.579  50.173  1.00  0.00    -0.504 OA
ATOM     13  H   UNL     1       5.306  10.920  50.619  1.00  0.00     0.293 HD
ENDBRANCH   4  12
TORSDOF 3
ENDMDL
MODEL 8
REMARK VINA RESULT:    -4.493      9.020     10.114
REMARK INTER + INTRA:          -5.301
REMARK INTER:                  -5.157
REMARK INTRA:                  -0.144
REMARK UNBOUND:                -0.151
REMARK SMILES CC=Cc1ccc(O)c(OC)c1
REMARK SMILES IDX 4 1 12 2 9 3 7 4 6 5 5 6 3 7 1 8 2 9 10 10 11 11 8 12
REMARK H PARENT 8 13
REMARK Flexibility Score: inf
ROOT
ATOM      1  C   UNL     1       7.950   3.280  53.833  1.00  0.00    -0.022 A 
ATOM      2  C   UNL     1       9.011   4.210  53.828  1.00  0.00     0.058 A 
ATOM      3  C   UNL     1       8.784   5.556  53.474  1.00  0.00     0.161 A 
ATOM      4  C   UNL     1       7.489   5.969  53.133  1.00  0.00     0.157 A 
ATOM      5  C   UNL     1       6.430   5.052  53.154  1.00  0.00     0.051 A 
ATOM      6  C   UNL     1       6.659   3.721  53.506  1.00  0.00     0.012 A 
ENDROOT
BRANCH   1   7
ATOM      7  C   UNL     1       8.139   1.857  54.207  1.00  0.00     0.003 C 
ATOM      8  C   UNL     1       9.004  -0.005  55.570  1.00  0.00     0.035 C 
ATOM      9  C   UNL     1       8.846   1.451  55.268  1.00  0.00    -0.030 C 
ENDBRANCH   1   7
BRANCH   3  10
ATOM     10  O   UNL     1       9.814   6.508  53.451  1.00  0.00    -0.493 OA
ATOM     11  C   UNL     1      11.156   6.256  53.856  1.00  0.00     0.278 C 
ENDBRANCH   3  10
BRANCH   4  12
ATOM     12  O   UNL     1       7.259   7.297  52.779  1.00  0.00    -0.504 OA
ATOM     13  H   UNL     1       7.206   8.031  53.476  1.00  0.00     0.293 HD
ENDBRANCH   4  12
TORSDOF 3
ENDMDL
