MODEL 1
REMARK VINA RESULT:    -4.583      0.000      0.000
REMARK INTER + INTRA:          -5.616
REMARK INTER:                  -5.387
REMARK INTRA:                  -0.229
REMARK UNBOUND:                -0.229
REMARK SMILES C=C[C@]1(C)CC[C@@H](C(=C)C)C[C@H]1C(=C)C
REMARK SMILES IDX 7 1 6 2 5 3 3 4 12 5 11 6 4 7 8 8 10 9 9 10 13 11 14 12
REMARK SMILES IDX 15 13 2 14 1 15
REMARK H PARENT
REMARK Flexibility Score: inf
ROOT
ATOM      1  C   UNL     1      43.444  20.113  -5.519  1.00  0.00     0.015 C 
ATOM      2  C   UNL     1      43.175  21.335  -4.625  1.00  0.00     0.009 C 
ATOM      3  C   UNL     1      42.080  21.032  -3.593  1.00  0.00     0.012 C 
ATOM      4  C   UNL     1      42.405  19.803  -2.691  1.00  0.00    -0.008 C 
ATOM      5  C   UNL     1      42.749  18.573  -3.614  1.00  0.00     0.024 C 
ATOM      6  C   UNL     1      43.837  18.892  -4.668  1.00  0.00     0.017 C 
ATOM      7  C   UNL     1      43.566  20.150  -1.723  1.00  0.00     0.016 C 
ENDROOT
BRANCH   1   8
ATOM      8  C   UNL     1      44.499  20.417  -6.576  1.00  0.00    -0.077 C 
ATOM      9  C   UNL     1      44.729  21.836  -7.027  1.00  0.00     0.039 C 
ATOM     10  C   UNL     1      45.241  19.440  -7.125  1.00  0.00     0.008 C 
ENDBRANCH   1   8
BRANCH   5  11
ATOM     11  C   UNL     1      43.076  17.281  -2.855  1.00  0.00    -0.077 C 
ATOM     12  C   UNL     1      44.330  16.796  -2.867  1.00  0.00     0.008 C 
ATOM     13  C   UNL     1      42.040  16.525  -2.056  1.00  0.00     0.039 C 
ENDBRANCH   5  11
BRANCH   4  14
ATOM     14  C   UNL     1      41.159  19.479  -1.867  1.00  0.00    -0.028 C 
ATOM     15  C   UNL     1      40.776  20.195  -0.801  1.00  0.00     0.004 C 
ENDBRANCH   4  14
TORSDOF 3
ENDMDL
MODEL 2
REMARK VINA RESULT:    -4.317      1.144      3.202
REMARK INTER + INTRA:          -5.303
REMARK INTER:                  -5.075
REMARK INTRA:                  -0.228
REMARK UNBOUND:                -0.229
REMARK SMILES C=C[C@]1(C)CC[C@@H](C(=C)C)C[C@H]1C(=C)C
REMARK SMILES IDX 7 1 6 2 5 3 3 4 12 5 11 6 4 7 8 8 10 9 9 10 13 11 14 12
REMARK SMILES IDX 15 13 2 14 1 15
REMARK H PARENT
REMARK Flexibility Score: inf
ROOT
ATOM      1  C   UNL     1      44.007  20.677  -5.520  1.00  0.00     0.015 C 
ATOM      2  C   UNL     1      44.244  19.301  -6.164  1.00  0.00     0.009 C 
ATOM      3  C   UNL     1      44.478  18.225  -5.095  1.00  0.00     0.012 C 
ATOM      4  C   UNL     1      43.311  18.113  -4.067  1.00  0.00    -0.008 C 
ATOM      5  C   UNL     1      43.028  19.540  -3.463  1.00  0.00     0.024 C 
ATOM      6  C   UNL     1      42.815  20.625  -4.547  1.00  0.00     0.017 C 
ATOM      7  C   UNL     1      42.059  17.508  -4.753  1.00  0.00     0.016 C 
ENDROOT
BRANCH   1   8
ATOM      8  C   UNL     1      43.817  21.760  -6.574  1.00  0.00    -0.077 C 
ATOM      9  C   UNL     1      42.431  22.139  -7.028  1.00  0.00     0.039 C 
ATOM     10  C   UNL     1      44.868  22.398  -7.119  1.00  0.00     0.008 C 
ENDBRANCH   1   8
BRANCH   5  11
ATOM     11  C   UNL     1      41.906  19.576  -2.417  1.00  0.00    -0.077 C 
ATOM     12  C   UNL     1      42.195  19.860  -1.136  1.00  0.00     0.008 C 
ATOM     13  C   UNL     1      40.458  19.326  -2.771  1.00  0.00     0.039 C 
ENDBRANCH   5  11
BRANCH   4  14
ATOM     14  C   UNL     1      43.758  17.173  -2.946  1.00  0.00    -0.028 C 
ATOM     15  C   UNL     1      44.798  16.336  -3.059  1.00  0.00     0.004 C 
ENDBRANCH   4  14
TORSDOF 3
ENDMDL
MODEL 3
REMARK VINA RESULT:    -4.272      5.979      8.343
REMARK INTER + INTRA:          -5.251
REMARK INTER:                  -5.155
REMARK INTRA:                  -0.096
REMARK UNBOUND:                -0.229
REMARK SMILES C=C[C@]1(C)CC[C@@H](C(=C)C)C[C@H]1C(=C)C
REMARK SMILES IDX 7 1 6 2 5 3 3 4 12 5 11 6 4 7 8 8 10 9 9 10 13 11 14 12
REMARK SMILES IDX 15 13 2 14 1 15
REMARK H PARENT
REMARK Flexibility Score: inf
ROOT
ATOM      1  C   UNL     1      50.779  14.720  -5.079  1.00  0.00     0.015 C 
ATOM      2  C   UNL     1      50.390  13.237  -4.951  1.00  0.00     0.009 C 
ATOM      3  C   UNL     1      49.236  13.054  -3.956  1.00  0.00     0.012 C 
ATOM      4  C   UNL     1      47.968  13.885  -4.321  1.00  0.00    -0.008 C 
ATOM      5  C   UNL     1      48.387  15.390  -4.519  1.00  0.00     0.024 C 
ATOM      6  C   UNL     1      49.566  15.566  -5.506  1.00  0.00     0.017 C 
ATOM      7  C   UNL     1      47.295  13.293  -5.587  1.00  0.00     0.016 C 
ENDROOT
BRANCH   1   8
ATOM      8  C   UNL     1      51.953  14.908  -6.031  1.00  0.00    -0.077 C 
ATOM      9  C   UNL     1      52.729  13.713  -6.519  1.00  0.00     0.039 C 
ATOM     10  C   UNL     1      52.320  16.130  -6.456  1.00  0.00     0.008 C 
ENDBRANCH   1   8
BRANCH   5  11
ATOM     11  C   UNL     1      47.227  16.331  -4.869  1.00  0.00    -0.077 C 
ATOM     12  C   UNL     1      47.326  17.149  -5.931  1.00  0.00     0.008 C 
ATOM     13  C   UNL     1      45.942  16.366  -4.075  1.00  0.00     0.039 C 
ENDBRANCH   5  11
BRANCH   4  14
ATOM     14  C   UNL     1      46.986  13.786  -3.153  1.00  0.00    -0.028 C 
ATOM     15  C   UNL     1      47.345  13.399  -1.922  1.00  0.00     0.004 C 
ENDBRANCH   4  14
TORSDOF 3
ENDMDL
MODEL 4
REMARK VINA RESULT:    -4.271      6.185      9.089
REMARK INTER + INTRA:          -5.250
REMARK INTER:                  -4.923
REMARK INTRA:                  -0.326
REMARK UNBOUND:                -0.229
REMARK SMILES C=C[C@]1(C)CC[C@@H](C(=C)C)C[C@H]1C(=C)C
REMARK SMILES IDX 7 1 6 2 5 3 3 4 12 5 11 6 4 7 8 8 10 9 9 10 13 11 14 12
REMARK SMILES IDX 15 13 2 14 1 15
REMARK H PARENT
REMARK Flexibility Score: inf
ROOT
ATOM      1  C   UNL     1      48.047  13.503  -3.018  1.00  0.00     0.015 C 
ATOM      2  C   UNL     1      46.872  14.133  -3.785  1.00  0.00     0.009 C 
ATOM      3  C   UNL     1      47.268  15.492  -4.380  1.00  0.00     0.012 C 
ATOM      4  C   UNL     1      48.508  15.416  -5.321  1.00  0.00    -0.008 C 
ATOM      5  C   UNL     1      49.685  14.706  -4.552  1.00  0.00     0.024 C 
ATOM      6  C   UNL     1      49.274  13.347  -3.935  1.00  0.00     0.017 C 
ATOM      7  C   UNL     1      48.133  14.675  -6.631  1.00  0.00     0.016 C 
ENDROOT
BRANCH   1   8
ATOM      8  C   UNL     1      47.652  12.174  -2.387  1.00  0.00    -0.077 C 
ATOM      9  C   UNL     1      48.693  11.318  -1.714  1.00  0.00     0.039 C 
ATOM     10  C   UNL     1      46.380  11.738  -2.413  1.00  0.00     0.008 C 
ENDBRANCH   1   8
BRANCH   5  11
ATOM     11  C   UNL     1      50.984  14.577  -5.359  1.00  0.00    -0.077 C 
ATOM     12  C   UNL     1      51.300  13.404  -5.935  1.00  0.00     0.008 C 
ATOM     13  C   UNL     1      51.932  15.735  -5.562  1.00  0.00     0.039 C 
ENDBRANCH   5  11
BRANCH   4  14
ATOM     14  C   UNL     1      48.925  16.845  -5.668  1.00  0.00    -0.028 C 
ATOM     15  C   UNL     1      48.803  17.369  -6.895  1.00  0.00     0.004 C 
ENDBRANCH   4  14
TORSDOF 3
ENDMDL
MODEL 5
REMARK VINA RESULT:    -4.257      1.488      4.581
REMARK INTER + INTRA:          -5.233
REMARK INTER:                  -4.944
REMARK INTRA:                  -0.288
REMARK UNBOUND:                -0.229
REMARK SMILES C=C[C@]1(C)CC[C@@H](C(=C)C)C[C@H]1C(=C)C
REMARK SMILES IDX 7 1 6 2 5 3 3 4 12 5 11 6 4 7 8 8 10 9 9 10 13 11 14 12
REMARK SMILES IDX 15 13 2 14 1 15
REMARK H PARENT
REMARK Flexibility Score: inf
ROOT
ATOM      1  C   UNL     1      42.651  19.355  -2.653  1.00  0.00     0.015 C 
ATOM      2  C   UNL     1      42.630  19.878  -4.099  1.00  0.00     0.009 C 
ATOM      3  C   UNL     1      43.862  19.394  -4.877  1.00  0.00     0.012 C 
ATOM      4  C   UNL     1      44.009  17.842  -4.897  1.00  0.00    -0.008 C 
ATOM      5  C   UNL     1      43.958  17.308  -3.416  1.00  0.00     0.024 C 
ATOM      6  C   UNL     1      42.727  17.818  -2.630  1.00  0.00     0.017 C 
ATOM      7  C   UNL     1      42.899  17.217  -5.782  1.00  0.00     0.016 C 
ENDROOT
BRANCH   1   8
ATOM      8  C   UNL     1      41.455  19.866  -1.859  1.00  0.00    -0.077 C 
ATOM      9  C   UNL     1      40.081  19.307  -2.120  1.00  0.00     0.039 C 
ATOM     10  C   UNL     1      41.594  20.816  -0.918  1.00  0.00     0.008 C 
ENDBRANCH   1   8
BRANCH   5  11
ATOM     11  C   UNL     1      44.109  15.787  -3.283  1.00  0.00    -0.077 C 
ATOM     12  C   UNL     1      45.317  15.254  -3.035  1.00  0.00     0.008 C 
ATOM     13  C   UNL     1      42.935  14.843  -3.396  1.00  0.00     0.039 C 
ENDBRANCH   5  11
BRANCH   4  14
ATOM     14  C   UNL     1      45.370  17.504  -5.506  1.00  0.00    -0.028 C 
ATOM     15  C   UNL     1      45.844  18.087  -6.616  1.00  0.00     0.004 C 
ENDBRANCH   4  14
TORSDOF 3
ENDMDL
MODEL 6
REMARK VINA RESULT:    -4.242      1.523      4.459
REMARK INTER + INTRA:          -5.215
REMARK INTER:                  -4.926
REMARK INTRA:                  -0.289
REMARK UNBOUND:                -0.229
REMARK SMILES C=C[C@]1(C)CC[C@@H](C(=C)C)C[C@H]1C(=C)C
REMARK SMILES IDX 7 1 6 2 5 3 3 4 12 5 11 6 4 7 8 8 10 9 9 10 13 11 14 12
REMARK SMILES IDX 15 13 2 14 1 15
REMARK H PARENT
REMARK Flexibility Score: inf
ROOT
ATOM      1  C   UNL     1      44.308  16.181  -2.922  1.00  0.00     0.015 C 
ATOM      2  C   UNL     1      42.878  15.723  -2.588  1.00  0.00     0.009 C 
ATOM      3  C   UNL     1      42.053  16.878  -2.001  1.00  0.00     0.012 C 
ATOM      4  C   UNL     1      41.986  18.125  -2.935  1.00  0.00    -0.008 C 
ATOM      5  C   UNL     1      43.452  18.543  -3.329  1.00  0.00     0.024 C 
ATOM      6  C   UNL     1      44.285  17.370  -3.899  1.00  0.00     0.017 C 
ATOM      7  C   UNL     1      41.113  17.807  -4.178  1.00  0.00     0.016 C 
ENDROOT
BRANCH   1   8
ATOM      8  C   UNL     1      45.148  15.031  -3.463  1.00  0.00    -0.077 C 
ATOM      9  C   UNL     1      46.480  15.307  -4.111  1.00  0.00     0.039 C 
ATOM     10  C   UNL     1      44.728  13.757  -3.378  1.00  0.00     0.008 C 
ENDBRANCH   1   8
BRANCH   5  11
ATOM     11  C   UNL     1      43.537  19.775  -4.240  1.00  0.00    -0.077 C 
ATOM     12  C   UNL     1      43.349  21.003  -3.724  1.00  0.00     0.008 C 
ATOM     13  C   UNL     1      43.854  19.675  -5.714  1.00  0.00     0.039 C 
ENDBRANCH   5  11
BRANCH   4  14
ATOM     14  C   UNL     1      41.330  19.264  -2.154  1.00  0.00    -0.028 C 
ATOM     15  C   UNL     1      41.538  19.475  -0.848  1.00  0.00     0.004 C 
ENDBRANCH   4  14
TORSDOF 3
ENDMDL
MODEL 7
REMARK VINA RESULT:    -4.156      1.186      4.697
REMARK INTER + INTRA:          -5.115
REMARK INTER:                  -4.767
REMARK INTRA:                  -0.347
REMARK UNBOUND:                -0.229
REMARK SMILES C=C[C@]1(C)CC[C@@H](C(=C)C)C[C@H]1C(=C)C
REMARK SMILES IDX 7 1 6 2 5 3 3 4 12 5 11 6 4 7 8 8 10 9 9 10 13 11 14 12
REMARK SMILES IDX 15 13 2 14 1 15
REMARK H PARENT
REMARK Flexibility Score: inf
ROOT
ATOM      1  C   UNL     1      42.776  19.911  -2.916  1.00  0.00     0.015 C 
ATOM      2  C   UNL     1      41.997  20.825  -3.879  1.00  0.00     0.009 C 
ATOM      3  C   UNL     1      42.860  21.211  -5.089  1.00  0.00     0.012 C 
ATOM      4  C   UNL     1      43.402  19.981  -5.879  1.00  0.00    -0.008 C 
ATOM      5  C   UNL     1      44.136  19.016  -4.873  1.00  0.00     0.024 C 
ATOM      6  C   UNL     1      43.270  18.648  -3.644  1.00  0.00     0.017 C 
ATOM      7  C   UNL     1      42.237  19.276  -6.622  1.00  0.00     0.016 C 
ENDROOT
BRANCH   1   8
ATOM      8  C   UNL     1      41.944  19.558  -1.690  1.00  0.00    -0.077 C 
ATOM      9  C   UNL     1      41.346  20.650  -0.841  1.00  0.00     0.039 C 
ATOM     10  C   UNL     1      41.724  18.279  -1.339  1.00  0.00     0.008 C 
ENDBRANCH   1   8
BRANCH   5  11
ATOM     11  C   UNL     1      44.737  17.762  -5.521  1.00  0.00    -0.077 C 
ATOM     12  C   UNL     1      44.050  16.607  -5.508  1.00  0.00     0.008 C 
ATOM     13  C   UNL     1      46.082  17.769  -6.210  1.00  0.00     0.039 C 
ENDBRANCH   5  11
BRANCH   4  14
ATOM     14  C   UNL     1      44.407  20.489  -6.912  1.00  0.00    -0.028 C 
ATOM     15  C   UNL     1      44.814  21.764  -6.978  1.00  0.00     0.004 C 
ENDBRANCH   4  14
TORSDOF 3
ENDMDL
MODEL 8
REMARK VINA RESULT:    -4.151      5.318      7.726
REMARK INTER + INTRA:          -5.108
REMARK INTER:                  -4.782
REMARK INTRA:                  -0.326
REMARK UNBOUND:                -0.229
REMARK SMILES C=C[C@]1(C)CC[C@@H](C(=C)C)C[C@H]1C(=C)C
REMARK SMILES IDX 7 1 6 2 5 3 3 4 12 5 11 6 4 7 8 8 10 9 9 10 13 11 14 12
REMARK SMILES IDX 15 13 2 14 1 15
REMARK H PARENT
REMARK Flexibility Score: inf
ROOT
ATOM      1  C   UNL     1      50.012  15.356  -4.852  1.00  0.00     0.015 C 
ATOM      2  C   UNL     1      50.132  13.824  -4.927  1.00  0.00     0.009 C 
ATOM      3  C   UNL     1      49.225  13.149  -3.889  1.00  0.00     0.012 C 
ATOM      4  C   UNL     1      47.725  13.551  -4.026  1.00  0.00    -0.008 C 
ATOM      5  C   UNL     1      47.618  15.123  -4.019  1.00  0.00     0.024 C 
ATOM      6  C   UNL     1      48.551  15.798  -5.052  1.00  0.00     0.017 C 
ATOM      7  C   UNL     1      47.127  12.929  -5.315  1.00  0.00     0.016 C 
ENDROOT
BRANCH   1   8
ATOM      8  C   UNL     1      50.941  16.037  -5.849  1.00  0.00    -0.077 C 
ATOM      9  C   UNL     1      50.377  16.950  -6.906  1.00  0.00     0.039 C 
ATOM     10  C   UNL     1      52.271  15.844  -5.810  1.00  0.00     0.008 C 
ENDBRANCH   1   8
BRANCH   5  11
ATOM     11  C   UNL     1      46.186  15.662  -4.131  1.00  0.00    -0.077 C 
ATOM     12  C   UNL     1      45.771  16.226  -5.279  1.00  0.00     0.008 C 
ATOM     13  C   UNL     1      45.190  15.564  -2.999  1.00  0.00     0.039 C 
ENDBRANCH   5  11
BRANCH   4  14
ATOM     14  C   UNL     1      46.974  12.991  -2.818  1.00  0.00    -0.028 C 
ATOM     15  C   UNL     1      47.581  12.615  -1.684  1.00  0.00     0.004 C 
ENDBRANCH   4  14
TORSDOF 3
ENDMDL
MODEL 9
REMARK VINA RESULT:    -4.029      3.918      6.887
REMARK INTER + INTRA:          -4.965
REMARK INTER:                  -4.610
REMARK INTRA:                  -0.355
REMARK UNBOUND:                -0.229
REMARK SMILES C=C[C@]1(C)CC[C@@H](C(=C)C)C[C@H]1C(=C)C
REMARK SMILES IDX 7 1 6 2 5 3 3 4 12 5 11 6 4 7 8 8 10 9 9 10 13 11 14 12
REMARK SMILES IDX 15 13 2 14 1 15
REMARK H PARENT
REMARK Flexibility Score: inf
ROOT
ATOM      1  C   UNL     1      45.141  16.292  -3.277  1.00  0.00     0.015 C 
ATOM      2  C   UNL     1      45.834  16.591  -4.617  1.00  0.00     0.009 C 
ATOM      3  C   UNL     1      47.281  16.080  -4.615  1.00  0.00     0.012 C 
ATOM      4  C   UNL     1      47.397  14.555  -4.309  1.00  0.00    -0.008 C 
ATOM      5  C   UNL     1      46.624  14.246  -2.972  1.00  0.00     0.024 C 
ATOM      6  C   UNL     1      45.173  14.784  -2.972  1.00  0.00     0.017 C 
ATOM      7  C   UNL     1      46.848  13.734  -5.506  1.00  0.00     0.016 C 
ENDROOT
BRANCH   1   8
ATOM      8  C   UNL     1      43.717  16.835  -3.252  1.00  0.00    -0.077 C 
ATOM      9  C   UNL     1      43.411  18.179  -3.859  1.00  0.00     0.039 C 
ATOM     10  C   UNL     1      42.712  16.137  -2.697  1.00  0.00     0.008 C 
ENDBRANCH   1   8
BRANCH   5  11
ATOM     11  C   UNL     1      46.669  12.774  -2.539  1.00  0.00    -0.077 C 
ATOM     12  C   UNL     1      45.720  11.922  -2.966  1.00  0.00     0.008 C 
ATOM     13  C   UNL     1      47.764  12.220  -1.658  1.00  0.00     0.039 C 
ENDBRANCH   5  11
BRANCH   4  14
ATOM     14  C   UNL     1      48.877  14.222  -4.123  1.00  0.00    -0.028 C 
ATOM     15  C   UNL     1      49.512  13.276  -4.829  1.00  0.00     0.004 C 
ENDBRANCH   4  14
TORSDOF 3
ENDMDL
