MODEL 1
REMARK VINA RESULT:    -5.043      0.000      0.000
REMARK INTER + INTRA:         -10.533
REMARK INTER:                  -9.170
REMARK INTRA:                  -1.362
REMARK UNBOUND:                -1.362
REMARK SMILES CCCCCCCCCCCCCCCC(=O)[O-]
REMARK SMILES IDX 9 1 10 2 11 3 12 4 13 5 14 6 15 7 16 8 17 9 18 10 8 11 7 12
REMARK SMILES IDX 6 13 5 14 4 15 3 16 2 17 1 18
REMARK H PARENT
REMARK Flexibility Score: inf
ROOT
ATOM      1  C   UNL     1      -3.208  10.766  -9.009  1.00  0.00     0.000 C 
ENDROOT
BRANCH   1   2
ATOM      2  C   UNL     1      -2.789  12.242  -8.879  1.00  0.00     0.000 C 
BRANCH   2   3
ATOM      3  C   UNL     1      -2.203  12.630  -7.509  1.00  0.00     0.000 C 
BRANCH   3   4
ATOM      4  C   UNL     1      -1.788  11.412  -6.667  1.00  0.00     0.000 C 
BRANCH   4   5
ATOM      5  C   UNL     1      -0.273  11.401  -6.363  1.00  0.00     0.000 C 
BRANCH   5   6
ATOM      6  C   UNL     1       0.607  11.510  -7.622  1.00  0.00     0.006 C 
BRANCH   6   7
ATOM      7  C   UNL     1       1.118  10.161  -8.147  1.00  0.00     0.053 C 
BRANCH   7   8
ATOM      8  C   UNL     1       2.613  10.131  -8.244  1.00  0.00     0.041 C 
ATOM      9  O   UNL     1       3.175   9.712  -9.290  1.00  0.00    -0.550 OA
ATOM     10  O   UNL     1       3.386  10.584  -7.183  1.00  0.00    -0.550 OA
ENDBRANCH   7   8
ENDBRANCH   6   7
ENDBRANCH   5   6
ENDBRANCH   4   5
ENDBRANCH   3   4
ENDBRANCH   2   3
ENDBRANCH   1   2
BRANCH   1  11
ATOM     11  C   UNL     1      -3.797  10.434 -10.392  1.00  0.00     0.000 C 
BRANCH  11  12
ATOM     12  C   UNL     1      -5.211  11.006 -10.588  1.00  0.00    -0.000 C 
BRANCH  12  13
ATOM     13  C   UNL     1      -6.182  10.568  -9.478  1.00  0.00    -0.000 C 
BRANCH  13  14
ATOM     14  C   UNL     1      -6.640   9.105  -9.624  1.00  0.00    -0.000 C 
BRANCH  14  15
ATOM     15  C   UNL     1      -6.019   8.118  -8.619  1.00  0.00    -0.000 C 
BRANCH  15  16
ATOM     16  C   UNL     1      -5.218   6.994  -9.299  1.00  0.00    -0.000 C 
BRANCH  16  17
ATOM     17  C   UNL     1      -5.693   6.721 -10.736  1.00  0.00    -0.003 C 
ATOM     18  C   UNL     1      -6.609   5.503 -10.836  1.00  0.00     0.004 C 
ENDBRANCH  16  17
ENDBRANCH  15  16
ENDBRANCH  14  15
ENDBRANCH  13  14
ENDBRANCH  12  13
ENDBRANCH  11  12
ENDBRANCH   1  11
TORSDOF 14
ENDMDL
MODEL 2
REMARK VINA RESULT:    -5.016      1.046      2.601
REMARK INTER + INTRA:         -10.484
REMARK INTER:                  -8.567
REMARK INTRA:                  -1.917
REMARK UNBOUND:                -1.362
REMARK SMILES CCCCCCCCCCCCCCCC(=O)[O-]
REMARK SMILES IDX 9 1 10 2 11 3 12 4 13 5 14 6 15 7 16 8 17 9 18 10 8 11 7 12
REMARK SMILES IDX 6 13 5 14 4 15 3 16 2 17 1 18
REMARK H PARENT
REMARK Flexibility Score: inf
ROOT
ATOM      1  C   UNL     1      -2.875  10.732  -6.637  1.00  0.00     0.000 C 
ENDROOT
BRANCH   1   2
ATOM      2  C   UNL     1      -2.168  10.643  -5.273  1.00  0.00     0.000 C 
BRANCH   2   3
ATOM      3  C   UNL     1      -1.324  11.877  -4.899  1.00  0.00     0.000 C 
BRANCH   3   4
ATOM      4  C   UNL     1       0.167  11.707  -5.233  1.00  0.00     0.000 C 
BRANCH   4   5
ATOM      5  C   UNL     1       0.602  12.586  -6.427  1.00  0.00     0.000 C 
BRANCH   5   6
ATOM      6  C   UNL     1       0.539  11.857  -7.782  1.00  0.00     0.006 C 
BRANCH   6   7
ATOM      7  C   UNL     1       0.969  10.384  -7.720  1.00  0.00     0.053 C 
BRANCH   7   8
ATOM      8  C   UNL     1       2.424  10.216  -8.035  1.00  0.00     0.041 C 
ATOM      9  O   UNL     1       3.301  10.601  -7.218  1.00  0.00    -0.550 OA
ATOM     10  O   UNL     1       2.811   9.616  -9.227  1.00  0.00    -0.550 OA
ENDBRANCH   7   8
ENDBRANCH   6   7
ENDBRANCH   5   6
ENDBRANCH   4   5
ENDBRANCH   3   4
ENDBRANCH   2   3
ENDBRANCH   1   2
BRANCH   1  11
ATOM     11  C   UNL     1      -3.298  12.168  -6.997  1.00  0.00     0.000 C 
BRANCH  11  12
ATOM     12  C   UNL     1      -3.275  12.430  -8.512  1.00  0.00    -0.000 C 
BRANCH  12  13
ATOM     13  C   UNL     1      -2.716  11.239  -9.308  1.00  0.00    -0.000 C 
BRANCH  13  14
ATOM     14  C   UNL     1      -3.689  10.728 -10.386  1.00  0.00    -0.000 C 
BRANCH  14  15
ATOM     15  C   UNL     1      -5.174  10.712  -9.979  1.00  0.00    -0.000 C 
BRANCH  15  16
ATOM     16  C   UNL     1      -5.741   9.287  -9.838  1.00  0.00    -0.000 C 
BRANCH  16  17
ATOM     17  C   UNL     1      -4.678   8.205 -10.081  1.00  0.00    -0.003 C 
ATOM     18  C   UNL     1      -5.162   7.097 -11.015  1.00  0.00     0.004 C 
ENDBRANCH  16  17
ENDBRANCH  15  16
ENDBRANCH  14  15
ENDBRANCH  13  14
ENDBRANCH  12  13
ENDBRANCH  11  12
ENDBRANCH   1  11
TORSDOF 14
ENDMDL
MODEL 3
REMARK VINA RESULT:    -4.907      3.230      6.827
REMARK INTER + INTRA:         -10.285
REMARK INTER:                  -8.869
REMARK INTRA:                  -1.416
REMARK UNBOUND:                -1.362
REMARK SMILES CCCCCCCCCCCCCCCC(=O)[O-]
REMARK SMILES IDX 9 1 10 2 11 3 12 4 13 5 14 6 15 7 16 8 17 9 18 10 8 11 7 12
REMARK SMILES IDX 6 13 5 14 4 15 3 16 2 17 1 18
REMARK H PARENT
REMARK Flexibility Score: inf
ROOT
ATOM      1  C   UNL     1      -4.407  12.998  -7.291  1.00  0.00     0.000 C 
ENDROOT
BRANCH   1   2
ATOM      2  C   UNL     1      -5.276  13.194  -8.546  1.00  0.00     0.000 C 
BRANCH   2   3
ATOM      3  C   UNL     1      -6.552  12.331  -8.592  1.00  0.00     0.000 C 
BRANCH   3   4
ATOM      4  C   UNL     1      -6.549  11.318  -9.748  1.00  0.00     0.000 C 
BRANCH   4   5
ATOM      5  C   UNL     1      -5.170  11.224 -10.439  1.00  0.00     0.000 C 
BRANCH   5   6
ATOM      6  C   UNL     1      -4.727   9.778 -10.731  1.00  0.00     0.006 C 
BRANCH   6   7
ATOM      7  C   UNL     1      -5.648   8.708 -10.127  1.00  0.00     0.053 C 
BRANCH   7   8
ATOM      8  C   UNL     1      -5.109   7.326 -10.340  1.00  0.00     0.041 C 
ATOM      9  O   UNL     1      -5.880   6.383 -10.654  1.00  0.00    -0.550 OA
ATOM     10  O   UNL     1      -3.747   7.085 -10.206  1.00  0.00    -0.550 OA
ENDBRANCH   7   8
ENDBRANCH   6   7
ENDBRANCH   5   6
ENDBRANCH   4   5
ENDBRANCH   3   4
ENDBRANCH   2   3
ENDBRANCH   1   2
BRANCH   1  11
ATOM     11  C   UNL     1      -4.505  11.573  -6.716  1.00  0.00     0.000 C 
BRANCH  11  12
ATOM     12  C   UNL     1      -3.204  10.772  -6.893  1.00  0.00    -0.000 C 
BRANCH  12  13
ATOM     13  C   UNL     1      -2.437  11.168  -8.165  1.00  0.00    -0.000 C 
BRANCH  13  14
ATOM     14  C   UNL     1      -0.943  10.802  -8.104  1.00  0.00    -0.000 C 
BRANCH  14  15
ATOM     15  C   UNL     1      -0.003  11.941  -7.665  1.00  0.00    -0.000 C 
BRANCH  15  16
ATOM     16  C   UNL     1       1.481  11.532  -7.677  1.00  0.00    -0.000 C 
BRANCH  16  17
ATOM     17  C   UNL     1       1.698  10.127  -8.260  1.00  0.00    -0.003 C 
ATOM     18  C   UNL     1       3.117   9.915  -8.785  1.00  0.00     0.004 C 
ENDBRANCH  16  17
ENDBRANCH  15  16
ENDBRANCH  14  15
ENDBRANCH  13  14
ENDBRANCH  12  13
ENDBRANCH  11  12
ENDBRANCH   1  11
TORSDOF 14
ENDMDL
MODEL 4
REMARK VINA RESULT:    -4.900      1.287      2.096
REMARK INTER + INTRA:         -10.272
REMARK INTER:                  -8.766
REMARK INTRA:                  -1.507
REMARK UNBOUND:                -1.362
REMARK SMILES CCCCCCCCCCCCCCCC(=O)[O-]
REMARK SMILES IDX 9 1 10 2 11 3 12 4 13 5 14 6 15 7 16 8 17 9 18 10 8 11 7 12
REMARK SMILES IDX 6 13 5 14 4 15 3 16 2 17 1 18
REMARK H PARENT
REMARK Flexibility Score: inf
ROOT
ATOM      1  C   UNL     1      -3.713  12.852  -6.929  1.00  0.00     0.000 C 
ENDROOT
BRANCH   1   2
ATOM      2  C   UNL     1      -2.978  12.907  -8.281  1.00  0.00     0.000 C 
BRANCH   2   3
ATOM      3  C   UNL     1      -2.247  11.609  -8.674  1.00  0.00     0.000 C 
BRANCH   3   4
ATOM      4  C   UNL     1      -1.878  10.738  -7.462  1.00  0.00     0.000 C 
BRANCH   4   5
ATOM      5  C   UNL     1      -0.588  11.225  -6.764  1.00  0.00     0.000 C 
BRANCH   5   6
ATOM      6  C   UNL     1       0.599  11.409  -7.728  1.00  0.00     0.006 C 
BRANCH   6   7
ATOM      7  C   UNL     1       1.239  10.093  -8.191  1.00  0.00     0.053 C 
BRANCH   7   8
ATOM      8  C   UNL     1       2.734  10.189  -8.244  1.00  0.00     0.041 C 
ATOM      9  O   UNL     1       3.371  10.723  -7.298  1.00  0.00    -0.550 OA
ATOM     10  O   UNL     1       3.424   9.673  -9.333  1.00  0.00    -0.550 OA
ENDBRANCH   7   8
ENDBRANCH   6   7
ENDBRANCH   5   6
ENDBRANCH   4   5
ENDBRANCH   3   4
ENDBRANCH   2   3
ENDBRANCH   1   2
BRANCH   1  11
ATOM     11  C   UNL     1      -5.237  12.701  -7.085  1.00  0.00     0.000 C 
BRANCH  11  12
ATOM     12  C   UNL     1      -5.707  12.901  -8.535  1.00  0.00    -0.000 C 
BRANCH  12  13
ATOM     13  C   UNL     1      -6.532  11.713  -9.056  1.00  0.00    -0.000 C 
BRANCH  13  14
ATOM     14  C   UNL     1      -6.117  11.268 -10.471  1.00  0.00    -0.000 C 
BRANCH  14  15
ATOM     15  C   UNL     1      -4.938  10.279 -10.530  1.00  0.00    -0.000 C 
BRANCH  15  16
ATOM     16  C   UNL     1      -5.034   9.167  -9.470  1.00  0.00    -0.000 C 
BRANCH  16  17
ATOM     17  C   UNL     1      -5.819   7.944  -9.971  1.00  0.00    -0.003 C 
ATOM     18  C   UNL     1      -5.052   7.133 -11.014  1.00  0.00     0.004 C 
ENDBRANCH  16  17
ENDBRANCH  15  16
ENDBRANCH  14  15
ENDBRANCH  13  14
ENDBRANCH  12  13
ENDBRANCH  11  12
ENDBRANCH   1  11
TORSDOF 14
ENDMDL
MODEL 5
REMARK VINA RESULT:    -4.879      1.806      3.344
REMARK INTER + INTRA:         -10.234
REMARK INTER:                  -8.382
REMARK INTRA:                  -1.852
REMARK UNBOUND:                -1.362
REMARK SMILES CCCCCCCCCCCCCCCC(=O)[O-]
REMARK SMILES IDX 9 1 10 2 11 3 12 4 13 5 14 6 15 7 16 8 17 9 18 10 8 11 7 12
REMARK SMILES IDX 6 13 5 14 4 15 3 16 2 17 1 18
REMARK H PARENT
REMARK Flexibility Score: inf
ROOT
ATOM      1  C   UNL     1      -3.423  11.703  -5.879  1.00  0.00     0.000 C 
ENDROOT
BRANCH   1   2
ATOM      2  C   UNL     1      -2.664  12.990  -5.508  1.00  0.00     0.000 C 
BRANCH   2   3
ATOM      3  C   UNL     1      -1.256  12.765  -4.923  1.00  0.00     0.000 C 
BRANCH   3   4
ATOM      4  C   UNL     1      -0.137  13.292  -5.836  1.00  0.00     0.000 C 
BRANCH   4   5
ATOM      5  C   UNL     1       0.854  12.180  -6.247  1.00  0.00     0.000 C 
BRANCH   5   6
ATOM      6  C   UNL     1       0.814  11.848  -7.751  1.00  0.00     0.006 C 
BRANCH   6   7
ATOM      7  C   UNL     1       1.071  10.368  -8.071  1.00  0.00     0.053 C 
BRANCH   7   8
ATOM      8  C   UNL     1       2.529  10.088  -8.276  1.00  0.00     0.041 C 
ATOM      9  O   UNL     1       3.363  10.365  -7.375  1.00  0.00    -0.550 OA
ATOM     10  O   UNL     1       2.963   9.504  -9.459  1.00  0.00    -0.550 OA
ENDBRANCH   7   8
ENDBRANCH   6   7
ENDBRANCH   5   6
ENDBRANCH   4   5
ENDBRANCH   3   4
ENDBRANCH   2   3
ENDBRANCH   1   2
BRANCH   1  11
ATOM     11  C   UNL     1      -2.801  10.970  -7.082  1.00  0.00     0.000 C 
BRANCH  11  12
ATOM     12  C   UNL     1      -2.677  11.868  -8.323  1.00  0.00    -0.000 C 
BRANCH  12  13
ATOM     13  C   UNL     1      -2.912  11.098  -9.634  1.00  0.00    -0.000 C 
BRANCH  13  14
ATOM     14  C   UNL     1      -3.791   9.848  -9.446  1.00  0.00    -0.000 C 
BRANCH  14  15
ATOM     15  C   UNL     1      -5.002   9.747 -10.392  1.00  0.00    -0.000 C 
BRANCH  15  16
ATOM     16  C   UNL     1      -5.870  11.019 -10.392  1.00  0.00    -0.000 C 
BRANCH  16  17
ATOM     17  C   UNL     1      -6.493  11.305  -9.016  1.00  0.00    -0.003 C 
ATOM     18  C   UNL     1      -6.262  12.741  -8.547  1.00  0.00     0.004 C 
ENDBRANCH  16  17
ENDBRANCH  15  16
ENDBRANCH  14  15
ENDBRANCH  13  14
ENDBRANCH  12  13
ENDBRANCH  11  12
ENDBRANCH   1  11
TORSDOF 14
ENDMDL
MODEL 6
REMARK VINA RESULT:    -4.841      2.500      3.838
REMARK INTER + INTRA:         -10.166
REMARK INTER:                  -8.279
REMARK INTRA:                  -1.886
REMARK UNBOUND:                -1.362
REMARK SMILES CCCCCCCCCCCCCCCC(=O)[O-]
REMARK SMILES IDX 9 1 10 2 11 3 12 4 13 5 14 6 15 7 16 8 17 9 18 10 8 11 7 12
REMARK SMILES IDX 6 13 5 14 4 15 3 16 2 17 1 18
REMARK H PARENT
REMARK Flexibility Score: inf
ROOT
ATOM      1  C   UNL     1      -3.070  10.765  -9.187  1.00  0.00     0.000 C 
ENDROOT
BRANCH   1   2
ATOM      2  C   UNL     1      -2.506  12.163  -8.871  1.00  0.00     0.000 C 
BRANCH   2   3
ATOM      3  C   UNL     1      -1.190  12.164  -8.070  1.00  0.00     0.000 C 
BRANCH   3   4
ATOM      4  C   UNL     1      -0.875  10.800  -7.433  1.00  0.00     0.000 C 
BRANCH   4   5
ATOM      5  C   UNL     1       0.590  10.369  -7.670  1.00  0.00     0.000 C 
BRANCH   5   6
ATOM      6  C   UNL     1       1.593  11.535  -7.596  1.00  0.00     0.006 C 
BRANCH   6   7
ATOM      7  C   UNL     1       2.461  11.533  -6.329  1.00  0.00     0.053 C 
BRANCH   7   8
ATOM      8  C   UNL     1       1.793  12.251  -5.195  1.00  0.00     0.041 C 
ATOM      9  O   UNL     1       1.190  11.604  -4.299  1.00  0.00    -0.550 OA
ATOM     10  O   UNL     1       1.851  13.636  -5.121  1.00  0.00    -0.550 OA
ENDBRANCH   7   8
ENDBRANCH   6   7
ENDBRANCH   5   6
ENDBRANCH   4   5
ENDBRANCH   3   4
ENDBRANCH   2   3
ENDBRANCH   1   2
BRANCH   1  11
ATOM     11  C   UNL     1      -3.994  10.760 -10.418  1.00  0.00     0.000 C 
BRANCH  11  12
ATOM     12  C   UNL     1      -5.325  10.034 -10.157  1.00  0.00    -0.000 C 
BRANCH  12  13
ATOM     13  C   UNL     1      -6.535  10.981 -10.223  1.00  0.00    -0.000 C 
BRANCH  13  14
ATOM     14  C   UNL     1      -6.889  11.600  -8.859  1.00  0.00    -0.000 C 
BRANCH  14  15
ATOM     15  C   UNL     1      -6.278  12.987  -8.587  1.00  0.00    -0.000 C 
BRANCH  15  16
ATOM     16  C   UNL     1      -5.570  13.074  -7.223  1.00  0.00    -0.000 C 
BRANCH  16  17
ATOM     17  C   UNL     1      -5.447  11.704  -6.537  1.00  0.00    -0.003 C 
ATOM     18  C   UNL     1      -4.266  11.627  -5.571  1.00  0.00     0.004 C 
ENDBRANCH  16  17
ENDBRANCH  15  16
ENDBRANCH  14  15
ENDBRANCH  13  14
ENDBRANCH  12  13
ENDBRANCH  11  12
ENDBRANCH   1  11
TORSDOF 14
ENDMDL
MODEL 7
REMARK VINA RESULT:    -4.823      1.175      1.815
REMARK INTER + INTRA:         -10.132
REMARK INTER:                  -9.102
REMARK INTRA:                  -1.030
REMARK UNBOUND:                -1.362
REMARK SMILES CCCCCCCCCCCCCCCC(=O)[O-]
REMARK SMILES IDX 9 1 10 2 11 3 12 4 13 5 14 6 15 7 16 8 17 9 18 10 8 11 7 12
REMARK SMILES IDX 6 13 5 14 4 15 3 16 2 17 1 18
REMARK H PARENT
REMARK Flexibility Score: inf
ROOT
ATOM      1  C   UNL     1      -6.221  12.512  -8.609  1.00  0.00     0.000 C 
ENDROOT
BRANCH   1   2
ATOM      2  C   UNL     1      -4.911  13.317  -8.533  1.00  0.00     0.000 C 
BRANCH   2   3
ATOM      3  C   UNL     1      -3.832  12.710  -7.616  1.00  0.00     0.000 C 
BRANCH   3   4
ATOM      4  C   UNL     1      -2.533  12.368  -8.364  1.00  0.00     0.000 C 
BRANCH   4   5
ATOM      5  C   UNL     1      -1.405  11.927  -7.405  1.00  0.00     0.000 C 
BRANCH   5   6
ATOM      6  C   UNL     1      -0.114  11.502  -8.129  1.00  0.00     0.006 C 
BRANCH   6   7
ATOM      7  C   UNL     1       0.621  10.330  -7.463  1.00  0.00     0.053 C 
BRANCH   7   8
ATOM      8  C   UNL     1       2.048  10.240  -7.912  1.00  0.00     0.041 C 
ATOM      9  O   UNL     1       2.342   9.646  -8.982  1.00  0.00    -0.550 OA
ATOM     10  O   UNL     1       3.052  10.828  -7.154  1.00  0.00    -0.550 OA
ENDBRANCH   7   8
ENDBRANCH   6   7
ENDBRANCH   5   6
ENDBRANCH   4   5
ENDBRANCH   3   4
ENDBRANCH   2   3
ENDBRANCH   1   2
BRANCH   1  11
ATOM     11  C   UNL     1      -5.983  10.999  -8.766  1.00  0.00     0.000 C 
BRANCH  11  12
ATOM     12  C   UNL     1      -5.878  10.565 -10.237  1.00  0.00    -0.000 C 
BRANCH  12  13
ATOM     13  C   UNL     1      -4.431  10.252 -10.657  1.00  0.00    -0.000 C 
BRANCH  13  14
ATOM     14  C   UNL     1      -3.839   9.042  -9.912  1.00  0.00    -0.000 C 
BRANCH  14  15
ATOM     15  C   UNL     1      -4.813   7.871  -9.679  1.00  0.00    -0.000 C 
BRANCH  15  16
ATOM     16  C   UNL     1      -5.076   7.048 -10.953  1.00  0.00    -0.000 C 
BRANCH  16  17
ATOM     17  C   UNL     1      -6.230   6.048 -10.778  1.00  0.00    -0.003 C 
ATOM     18  C   UNL     1      -6.371   5.092 -11.962  1.00  0.00     0.004 C 
ENDBRANCH  16  17
ENDBRANCH  15  16
ENDBRANCH  14  15
ENDBRANCH  13  14
ENDBRANCH  12  13
ENDBRANCH  11  12
ENDBRANCH   1  11
TORSDOF 14
ENDMDL
MODEL 8
REMARK VINA RESULT:    -4.812      2.078      2.582
REMARK INTER + INTRA:         -10.113
REMARK INTER:                  -8.832
REMARK INTRA:                  -1.281
REMARK UNBOUND:                -1.362
REMARK SMILES CCCCCCCCCCCCCCCC(=O)[O-]
REMARK SMILES IDX 9 1 10 2 11 3 12 4 13 5 14 6 15 7 16 8 17 9 18 10 8 11 7 12
REMARK SMILES IDX 6 13 5 14 4 15 3 16 2 17 1 18
REMARK H PARENT
REMARK Flexibility Score: inf
ROOT
ATOM      1  C   UNL     1      -3.065  11.100  -9.718  1.00  0.00     0.000 C 
ENDROOT
BRANCH   1   2
ATOM      2  C   UNL     1      -2.400  10.756  -8.373  1.00  0.00     0.000 C 
BRANCH   2   3
ATOM      3  C   UNL     1      -1.011  11.386  -8.158  1.00  0.00     0.000 C 
BRANCH   3   4
ATOM      4  C   UNL     1       0.011  10.398  -7.572  1.00  0.00     0.000 C 
BRANCH   4   5
ATOM      5  C   UNL     1       1.463  10.762  -7.956  1.00  0.00     0.000 C 
BRANCH   5   6
ATOM      6  C   UNL     1       2.319  11.216  -6.759  1.00  0.00     0.006 C 
BRANCH   6   7
ATOM      7  C   UNL     1       1.504  11.587  -5.512  1.00  0.00     0.053 C 
BRANCH   7   8
ATOM      8  C   UNL     1       1.358  13.071  -5.364  1.00  0.00     0.041 C 
ATOM      9  O   UNL     1       0.294  13.644  -5.715  1.00  0.00    -0.550 OA
ATOM     10  O   UNL     1       2.394  13.819  -4.820  1.00  0.00    -0.550 OA
ENDBRANCH   7   8
ENDBRANCH   6   7
ENDBRANCH   5   6
ENDBRANCH   4   5
ENDBRANCH   3   4
ENDBRANCH   2   3
ENDBRANCH   1   2
BRANCH   1  11
ATOM     11  C   UNL     1      -4.543  11.505  -9.565  1.00  0.00     0.000 C 
BRANCH  11  12
ATOM     12  C   UNL     1      -5.454  10.824 -10.600  1.00  0.00    -0.000 C 
BRANCH  12  13
ATOM     13  C   UNL     1      -6.855  10.521 -10.043  1.00  0.00    -0.000 C 
BRANCH  13  14
ATOM     14  C   UNL     1      -6.817   9.833  -8.666  1.00  0.00    -0.000 C 
BRANCH  14  15
ATOM     15  C   UNL     1      -6.188   8.427  -8.651  1.00  0.00    -0.000 C 
BRANCH  15  16
ATOM     16  C   UNL     1      -6.727   7.516  -9.768  1.00  0.00    -0.000 C 
BRANCH  16  17
ATOM     17  C   UNL     1      -5.605   6.923 -10.635  1.00  0.00    -0.003 C 
ATOM     18  C   UNL     1      -4.214   7.390 -10.207  1.00  0.00     0.004 C 
ENDBRANCH  16  17
ENDBRANCH  15  16
ENDBRANCH  14  15
ENDBRANCH  13  14
ENDBRANCH  12  13
ENDBRANCH  11  12
ENDBRANCH   1  11
TORSDOF 14
ENDMDL
MODEL 9
REMARK VINA RESULT:    -4.787      1.989      2.869
REMARK INTER + INTRA:         -10.068
REMARK INTER:                  -7.987
REMARK INTRA:                  -2.080
REMARK UNBOUND:                -1.362
REMARK SMILES CCCCCCCCCCCCCCCC(=O)[O-]
REMARK SMILES IDX 9 1 10 2 11 3 12 4 13 5 14 6 15 7 16 8 17 9 18 10 8 11 7 12
REMARK SMILES IDX 6 13 5 14 4 15 3 16 2 17 1 18
REMARK H PARENT
REMARK Flexibility Score: inf
ROOT
ATOM      1  C   UNL     1      -2.815  11.003  -9.156  1.00  0.00     0.000 C 
ENDROOT
BRANCH   1   2
ATOM      2  C   UNL     1      -3.174  12.389  -8.591  1.00  0.00     0.000 C 
BRANCH   2   3
ATOM      3  C   UNL     1      -2.440  12.769  -7.291  1.00  0.00     0.000 C 
BRANCH   3   4
ATOM      4  C   UNL     1      -1.639  11.601  -6.692  1.00  0.00     0.000 C 
BRANCH   4   5
ATOM      5  C   UNL     1      -0.140  11.940  -6.536  1.00  0.00     0.000 C 
BRANCH   5   6
ATOM      6  C   UNL     1       0.668  11.765  -7.836  1.00  0.00     0.006 C 
BRANCH   6   7
ATOM      7  C   UNL     1       1.133  10.325  -8.095  1.00  0.00     0.053 C 
BRANCH   7   8
ATOM      8  C   UNL     1       2.625  10.235  -8.208  1.00  0.00     0.041 C 
ATOM      9  O   UNL     1       3.363  10.707  -7.305  1.00  0.00    -0.550 OA
ATOM     10  O   UNL     1       3.200   9.612  -9.309  1.00  0.00    -0.550 OA
ENDBRANCH   7   8
ENDBRANCH   6   7
ENDBRANCH   5   6
ENDBRANCH   4   5
ENDBRANCH   3   4
ENDBRANCH   2   3
ENDBRANCH   1   2
BRANCH   1  11
ATOM     11  C   UNL     1      -4.056  10.155  -9.489  1.00  0.00     0.000 C 
BRANCH  11  12
ATOM     12  C   UNL     1      -4.806  10.664 -10.731  1.00  0.00    -0.000 C 
BRANCH  12  13
ATOM     13  C   UNL     1      -6.242  11.112 -10.410  1.00  0.00    -0.000 C 
BRANCH  13  14
ATOM     14  C   UNL     1      -6.664  10.785  -8.966  1.00  0.00    -0.000 C 
BRANCH  14  15
ATOM     15  C   UNL     1      -6.912  12.006  -8.060  1.00  0.00    -0.000 C 
BRANCH  15  16
ATOM     16  C   UNL     1      -6.246  11.873  -6.678  1.00  0.00    -0.000 C 
BRANCH  16  17
ATOM     17  C   UNL     1      -6.194  10.417  -6.190  1.00  0.00    -0.003 C 
ATOM     18  C   UNL     1      -4.781   9.961  -5.832  1.00  0.00     0.004 C 
ENDBRANCH  16  17
ENDBRANCH  15  16
ENDBRANCH  14  15
ENDBRANCH  13  14
ENDBRANCH  12  13
ENDBRANCH  11  12
ENDBRANCH   1  11
TORSDOF 14
ENDMDL
