MODEL 1
REMARK VINA RESULT:    -3.918      0.000      0.000
REMARK INTER + INTRA:          -6.103
REMARK INTER:                  -5.292
REMARK INTRA:                  -0.811
REMARK UNBOUND:                -0.811
REMARK SMILES CC(=O)CCC=C(C)CCC=C(C)C
REMARK SMILES IDX 7 1 6 2 8 3 9 4 10 5 11 6 13 7 12 8 14 9 5 10 4 11 2 12 3 13
REMARK SMILES IDX 1 14
REMARK H PARENT
REMARK Flexibility Score: inf
ROOT
ATOM      1  C   UNL     1      97.374   7.084  76.160  1.00  0.00    -0.077 C 
ATOM      2  C   UNL     1      98.284   7.328  77.131  1.00  0.00    -0.028 C 
ATOM      3  C   UNL     1      96.353   8.119  75.746  1.00  0.00     0.039 C 
ENDROOT
BRANCH   1   4
ATOM      4  C   UNL     1      97.368   5.732  75.482  1.00  0.00     0.034 C 
BRANCH   4   5
ATOM      5  C   UNL     1      97.189   4.610  76.511  1.00  0.00     0.032 C 
BRANCH   5   6
ATOM      6  C   UNL     1      98.130   3.467  76.222  1.00  0.00    -0.028 C 
ATOM      7  C   UNL     1      99.741   4.128  78.022  1.00  0.00     0.039 C 
ATOM      8  C   UNL     1      99.292   3.251  76.876  1.00  0.00    -0.080 C 
ATOM      9  C   UNL     1     100.151   2.087  76.451  1.00  0.00     0.039 C 
ENDBRANCH   5   6
ENDBRANCH   4   5
ENDBRANCH   1   4
BRANCH   2  10
ATOM     10  C   UNL     1      98.432   8.645  77.851  1.00  0.00     0.035 C 
BRANCH  10  11
ATOM     11  C   UNL     1      99.914   9.029  77.975  1.00  0.00     0.079 C 
BRANCH  11  12
ATOM     12  C   UNL     1     100.564   8.602  79.272  1.00  0.00     0.130 C 
ATOM     13  O   UNL     1     100.356   9.271  80.272  1.00  0.00    -0.300 OA
ATOM     14  C   UNL     1     101.449   7.390  79.385  1.00  0.00     0.087 C 
ENDBRANCH  11  12
ENDBRANCH  10  11
ENDBRANCH   2  10
TORSDOF 6
ENDMDL
MODEL 2
REMARK VINA RESULT:    -3.897      2.456      5.851
REMARK INTER + INTRA:          -6.076
REMARK INTER:                  -4.940
REMARK INTRA:                  -1.135
REMARK UNBOUND:                -0.811
REMARK SMILES CC(=O)CCC=C(C)CCC=C(C)C
REMARK SMILES IDX 7 1 6 2 8 3 9 4 10 5 11 6 13 7 12 8 14 9 5 10 4 11 2 12 3 13
REMARK SMILES IDX 1 14
REMARK H PARENT
REMARK Flexibility Score: inf
ROOT
ATOM      1  C   UNL     1     100.165   6.119  77.562  1.00  0.00    -0.077 C 
ATOM      2  C   UNL     1      98.940   6.619  77.281  1.00  0.00    -0.028 C 
ATOM      3  C   UNL     1     101.011   5.441  76.509  1.00  0.00     0.039 C 
ENDROOT
BRANCH   1   4
ATOM      4  C   UNL     1     100.696   6.226  78.975  1.00  0.00     0.034 C 
BRANCH   4   5
ATOM      5  C   UNL     1     101.798   7.287  79.062  1.00  0.00     0.032 C 
BRANCH   5   6
ATOM      6  C   UNL     1     101.228   8.613  79.502  1.00  0.00    -0.028 C 
ATOM      7  C   UNL     1     101.446   9.643  77.230  1.00  0.00     0.039 C 
ATOM      8  C   UNL     1     101.088   9.688  78.697  1.00  0.00    -0.080 C 
ATOM      9  C   UNL     1     100.538  10.962  79.288  1.00  0.00     0.039 C 
ENDBRANCH   5   6
ENDBRANCH   4   5
ENDBRANCH   1   4
BRANCH   2  10
ATOM     10  C   UNL     1      98.315   6.623  75.908  1.00  0.00     0.035 C 
BRANCH  10  11
ATOM     11  C   UNL     1      96.943   5.933  75.938  1.00  0.00     0.079 C 
BRANCH  11  12
ATOM     12  C   UNL     1      96.987   4.471  76.323  1.00  0.00     0.130 C 
ATOM     13  O   UNL     1      96.272   4.092  77.239  1.00  0.00    -0.300 OA
ATOM     14  C   UNL     1      97.863   3.466  75.628  1.00  0.00     0.087 C 
ENDBRANCH  11  12
ENDBRANCH  10  11
ENDBRANCH   2  10
TORSDOF 6
ENDMDL
MODEL 3
REMARK VINA RESULT:    -3.767      2.361      5.733
REMARK INTER + INTRA:          -5.900
REMARK INTER:                  -4.988
REMARK INTRA:                  -0.911
REMARK UNBOUND:                -0.811
REMARK SMILES CC(=O)CCC=C(C)CCC=C(C)C
REMARK SMILES IDX 7 1 6 2 8 3 9 4 10 5 11 6 13 7 12 8 14 9 5 10 4 11 2 12 3 13
REMARK SMILES IDX 1 14
REMARK H PARENT
REMARK Flexibility Score: inf
ROOT
ATOM      1  C   UNL     1     100.716   7.186  77.308  1.00  0.00    -0.077 C 
ATOM      2  C   UNL     1      99.902   6.106  77.277  1.00  0.00    -0.028 C 
ATOM      3  C   UNL     1     102.189   7.084  76.982  1.00  0.00     0.039 C 
ENDROOT
BRANCH   1   4
ATOM      4  C   UNL     1     100.141   8.530  77.698  1.00  0.00     0.034 C 
BRANCH   4   5
ATOM      5  C   UNL     1      98.765   8.362  78.351  1.00  0.00     0.032 C 
BRANCH   5   6
ATOM      6  C   UNL     1      97.804   9.411  77.848  1.00  0.00    -0.028 C 
ATOM      7  C   UNL     1      96.834   7.910  76.094  1.00  0.00     0.039 C 
ATOM      8  C   UNL     1      96.948   9.231  76.819  1.00  0.00    -0.080 C 
ATOM      9  C   UNL     1      96.072  10.385  76.401  1.00  0.00     0.039 C 
ENDBRANCH   5   6
ENDBRANCH   4   5
ENDBRANCH   1   4
BRANCH   2  10
ATOM     10  C   UNL     1     100.334   4.723  76.859  1.00  0.00     0.035 C 
BRANCH  10  11
ATOM     11  C   UNL     1      99.200   3.712  77.086  1.00  0.00     0.079 C 
BRANCH  11  12
ATOM     12  C   UNL     1      97.889   4.086  76.433  1.00  0.00     0.130 C 
ATOM     13  O   UNL     1      96.906   4.225  77.146  1.00  0.00    -0.300 OA
ATOM     14  C   UNL     1      97.741   4.299  74.952  1.00  0.00     0.087 C 
ENDBRANCH  11  12
ENDBRANCH  10  11
ENDBRANCH   2  10
TORSDOF 6
ENDMDL
MODEL 4
REMARK VINA RESULT:    -3.755      2.225      5.769
REMARK INTER + INTRA:          -5.883
REMARK INTER:                  -4.864
REMARK INTRA:                  -1.019
REMARK UNBOUND:                -0.811
REMARK SMILES CC(=O)CCC=C(C)CCC=C(C)C
REMARK SMILES IDX 7 1 6 2 8 3 9 4 10 5 11 6 13 7 12 8 14 9 5 10 4 11 2 12 3 13
REMARK SMILES IDX 1 14
REMARK H PARENT
REMARK Flexibility Score: inf
ROOT
ATOM      1  C   UNL     1     100.788   5.102  77.036  1.00  0.00    -0.077 C 
ATOM      2  C   UNL     1      99.640   4.655  77.596  1.00  0.00    -0.028 C 
ATOM      3  C   UNL     1     101.396   4.436  75.824  1.00  0.00     0.039 C 
ENDROOT
BRANCH   1   4
ATOM      4  C   UNL     1     101.492   6.291  77.653  1.00  0.00     0.034 C 
BRANCH   4   5
ATOM      5  C   UNL     1     100.890   6.627  79.022  1.00  0.00     0.032 C 
BRANCH   5   6
ATOM      6  C   UNL     1     100.746   8.119  79.190  1.00  0.00    -0.028 C 
ATOM      7  C   UNL     1      98.460   8.175  78.168  1.00  0.00     0.039 C 
ATOM      8  C   UNL     1      99.671   8.833  78.789  1.00  0.00    -0.080 C 
ATOM      9  C   UNL     1      99.685  10.327  78.987  1.00  0.00     0.039 C 
ENDBRANCH   5   6
ENDBRANCH   4   5
ENDBRANCH   1   4
BRANCH   2  10
ATOM     10  C   UNL     1      98.815   3.514  77.055  1.00  0.00     0.035 C 
BRANCH  10  11
ATOM     11  C   UNL     1      97.397   3.992  76.706  1.00  0.00     0.079 C 
BRANCH  11  12
ATOM     12  C   UNL     1      97.327   4.938  75.529  1.00  0.00     0.130 C 
ATOM     13  O   UNL     1      96.925   6.075  75.723  1.00  0.00    -0.300 OA
ATOM     14  C   UNL     1      97.736   4.545  74.136  1.00  0.00     0.087 C 
ENDBRANCH  11  12
ENDBRANCH  10  11
ENDBRANCH   2  10
TORSDOF 6
ENDMDL
MODEL 5
REMARK VINA RESULT:    -3.726      2.086      2.525
REMARK INTER + INTRA:          -5.844
REMARK INTER:                  -4.927
REMARK INTRA:                  -0.917
REMARK UNBOUND:                -0.811
REMARK SMILES CC(=O)CCC=C(C)CCC=C(C)C
REMARK SMILES IDX 7 1 6 2 8 3 9 4 10 5 11 6 13 7 12 8 14 9 5 10 4 11 2 12 3 13
REMARK SMILES IDX 1 14
REMARK H PARENT
REMARK Flexibility Score: inf
ROOT
ATOM      1  C   UNL     1      96.960   8.881  76.664  1.00  0.00    -0.077 C 
ATOM      2  C   UNL     1      97.976   8.569  77.501  1.00  0.00    -0.028 C 
ATOM      3  C   UNL     1      96.355  10.266  76.625  1.00  0.00     0.039 C 
ENDROOT
BRANCH   1   4
ATOM      4  C   UNL     1      96.402   7.809  75.754  1.00  0.00     0.034 C 
BRANCH   4   5
ATOM      5  C   UNL     1      97.284   6.556  75.788  1.00  0.00     0.032 C 
BRANCH   5   6
ATOM      6  C   UNL     1      98.124   6.461  74.540  1.00  0.00    -0.028 C 
ATOM      7  C   UNL     1     100.285   6.423  75.804  1.00  0.00     0.039 C 
ATOM      8  C   UNL     1      99.475   6.425  74.529  1.00  0.00    -0.080 C 
ATOM      9  C   UNL     1     100.182   6.370  73.199  1.00  0.00     0.039 C 
ENDBRANCH   5   6
ENDBRANCH   4   5
ENDBRANCH   1   4
BRANCH   2  10
ATOM     10  C   UNL     1      98.656   9.552  78.421  1.00  0.00     0.035 C 
BRANCH  10  11
ATOM     11  C   UNL     1     100.183   9.424  78.315  1.00  0.00     0.079 C 
BRANCH  11  12
ATOM     12  C   UNL     1     100.838   8.762  79.507  1.00  0.00     0.130 C 
ATOM     13  O   UNL     1     100.826   9.353  80.576  1.00  0.00    -0.300 OA
ATOM     14  C   UNL     1     101.498   7.412  79.436  1.00  0.00     0.087 C 
ENDBRANCH  11  12
ENDBRANCH  10  11
ENDBRANCH   2  10
TORSDOF 6
ENDMDL
MODEL 6
REMARK VINA RESULT:    -3.713      1.555      2.581
REMARK INTER + INTRA:          -5.826
REMARK INTER:                  -4.843
REMARK INTRA:                  -0.984
REMARK UNBOUND:                -0.811
REMARK SMILES CC(=O)CCC=C(C)CCC=C(C)C
REMARK SMILES IDX 7 1 6 2 8 3 9 4 10 5 11 6 13 7 12 8 14 9 5 10 4 11 2 12 3 13
REMARK SMILES IDX 1 14
REMARK H PARENT
REMARK Flexibility Score: inf
ROOT
ATOM      1  C   UNL     1      99.420   5.651  77.264  1.00  0.00    -0.077 C 
ATOM      2  C   UNL     1     100.429   5.814  78.151  1.00  0.00    -0.028 C 
ATOM      3  C   UNL     1      99.035   6.736  76.286  1.00  0.00     0.039 C 
ENDROOT
BRANCH   1   4
ATOM      4  C   UNL     1      98.644   4.351  77.265  1.00  0.00     0.034 C 
BRANCH   4   5
ATOM      5  C   UNL     1      99.182   3.398  76.192  1.00  0.00     0.032 C 
BRANCH   5   6
ATOM      6  C   UNL     1     100.148   2.408  76.794  1.00  0.00    -0.028 C 
ATOM      7  C   UNL     1     102.161   3.544  75.829  1.00  0.00     0.039 C 
ATOM      8  C   UNL     1     101.488   2.446  76.619  1.00  0.00    -0.080 C 
ATOM      9  C   UNL     1     102.326   1.364  77.251  1.00  0.00     0.039 C 
ENDBRANCH   5   6
ENDBRANCH   4   5
ENDBRANCH   1   4
BRANCH   2  10
ATOM     10  C   UNL     1     101.312   7.035  78.223  1.00  0.00     0.035 C 
BRANCH  10  11
ATOM     11  C   UNL     1     101.572   7.427  79.686  1.00  0.00     0.079 C 
BRANCH  11  12
ATOM     12  C   UNL     1     100.891   8.704  80.121  1.00  0.00     0.130 C 
ATOM     13  O   UNL     1     101.167   9.162  81.220  1.00  0.00    -0.300 OA
ATOM     14  C   UNL     1      99.896   9.437  79.263  1.00  0.00     0.087 C 
ENDBRANCH  11  12
ENDBRANCH  10  11
ENDBRANCH   2  10
TORSDOF 6
ENDMDL
MODEL 7
REMARK VINA RESULT:    -3.688      1.811      2.691
REMARK INTER + INTRA:          -5.793
REMARK INTER:                  -4.684
REMARK INTRA:                  -1.109
REMARK UNBOUND:                -0.811
REMARK SMILES CC(=O)CCC=C(C)CCC=C(C)C
REMARK SMILES IDX 7 1 6 2 8 3 9 4 10 5 11 6 13 7 12 8 14 9 5 10 4 11 2 12 3 13
REMARK SMILES IDX 1 14
REMARK H PARENT
REMARK Flexibility Score: inf
ROOT
ATOM      1  C   UNL     1     100.500   6.933  77.297  1.00  0.00    -0.077 C 
ATOM      2  C   UNL     1     100.330   7.129  78.625  1.00  0.00    -0.028 C 
ATOM      3  C   UNL     1     101.839   7.133  76.626  1.00  0.00     0.039 C 
ENDROOT
BRANCH   1   4
ATOM      4  C   UNL     1      99.310   6.521  76.457  1.00  0.00     0.034 C 
BRANCH   4   5
ATOM      5  C   UNL     1      98.711   5.208  76.973  1.00  0.00     0.032 C 
BRANCH   5   6
ATOM      6  C   UNL     1      99.620   4.046  76.658  1.00  0.00    -0.028 C 
ATOM      7  C   UNL     1     100.076   3.541  79.068  1.00  0.00     0.039 C 
ATOM      8  C   UNL     1     100.261   3.304  77.588  1.00  0.00    -0.080 C 
ATOM      9  C   UNL     1     101.171   2.196  77.121  1.00  0.00     0.039 C 
ENDBRANCH   5   6
ENDBRANCH   4   5
ENDBRANCH   1   4
BRANCH   2  10
ATOM     10  C   UNL     1     101.438   7.492  79.582  1.00  0.00     0.035 C 
BRANCH  10  11
ATOM     11  C   UNL     1     101.080   8.764  80.366  1.00  0.00     0.079 C 
BRANCH  11  12
ATOM     12  C   UNL     1     100.777   9.966  79.500  1.00  0.00     0.130 C 
ATOM     13  O   UNL     1      99.618  10.343  79.418  1.00  0.00    -0.300 OA
ATOM     14  C   UNL     1     101.836  10.720  78.744  1.00  0.00     0.087 C 
ENDBRANCH  11  12
ENDBRANCH  10  11
ENDBRANCH   2  10
TORSDOF 6
ENDMDL
MODEL 8
REMARK VINA RESULT:    -3.673      2.787      5.028
REMARK INTER + INTRA:          -5.773
REMARK INTER:                  -4.293
REMARK INTRA:                  -1.480
REMARK UNBOUND:                -0.811
REMARK SMILES CC(=O)CCC=C(C)CCC=C(C)C
REMARK SMILES IDX 7 1 6 2 8 3 9 4 10 5 11 6 13 7 12 8 14 9 5 10 4 11 2 12 3 13
REMARK SMILES IDX 1 14
REMARK H PARENT
REMARK Flexibility Score: inf
ROOT
ATOM      1  C   UNL     1      97.502   4.726  75.964  1.00  0.00    -0.077 C 
ATOM      2  C   UNL     1      98.377   4.081  75.159  1.00  0.00    -0.028 C 
ATOM      3  C   UNL     1      96.694   3.995  77.012  1.00  0.00     0.039 C 
ENDROOT
BRANCH   1   4
ATOM      4  C   UNL     1      97.312   6.218  75.798  1.00  0.00     0.034 C 
BRANCH   4   5
ATOM      5  C   UNL     1      98.663   6.942  75.822  1.00  0.00     0.032 C 
BRANCH   5   6
ATOM      6  C   UNL     1      99.225   6.978  77.221  1.00  0.00    -0.028 C 
ATOM      7  C   UNL     1     101.410   5.961  76.542  1.00  0.00     0.039 C 
ATOM      8  C   UNL     1     100.447   6.518  77.565  1.00  0.00    -0.080 C 
ATOM      9  C   UNL     1     100.859   6.584  79.014  1.00  0.00     0.039 C 
ENDBRANCH   5   6
ENDBRANCH   4   5
ENDBRANCH   1   4
BRANCH   2  10
ATOM     10  C   UNL     1      98.697   2.610  75.251  1.00  0.00     0.035 C 
BRANCH  10  11
ATOM     11  C   UNL     1     100.136   2.400  75.746  1.00  0.00     0.079 C 
BRANCH  11  12
ATOM     12  C   UNL     1     100.242   1.954  77.187  1.00  0.00     0.130 C 
ATOM     13  O   UNL     1     100.381   0.762  77.415  1.00  0.00    -0.300 OA
ATOM     14  C   UNL     1     100.191   2.909  78.348  1.00  0.00     0.087 C 
ENDBRANCH  11  12
ENDBRANCH  10  11
ENDBRANCH   2  10
TORSDOF 6
ENDMDL
MODEL 9
REMARK VINA RESULT:    -3.666      5.133      6.815
REMARK INTER + INTRA:          -5.763
REMARK INTER:                  -4.794
REMARK INTRA:                  -0.969
REMARK UNBOUND:                -0.811
REMARK SMILES CC(=O)CCC=C(C)CCC=C(C)C
REMARK SMILES IDX 7 1 6 2 8 3 9 4 10 5 11 6 13 7 12 8 14 9 5 10 4 11 2 12 3 13
REMARK SMILES IDX 1 14
REMARK H PARENT
REMARK Flexibility Score: inf
ROOT
ATOM      1  C   UNL     1      98.195   7.376  70.965  1.00  0.00    -0.077 C 
ATOM      2  C   UNL     1      97.788   6.970  72.189  1.00  0.00    -0.028 C 
ATOM      3  C   UNL     1      99.605   7.137  70.474  1.00  0.00     0.039 C 
ENDROOT
BRANCH   1   4
ATOM      4  C   UNL     1      97.218   8.106  70.069  1.00  0.00     0.034 C 
BRANCH   4   5
ATOM      5  C   UNL     1      96.034   7.203  69.708  1.00  0.00     0.032 C 
BRANCH   5   6
ATOM      6  C   UNL     1      96.488   6.044  68.855  1.00  0.00    -0.028 C 
ATOM      7  C   UNL     1      95.877   4.330  70.577  1.00  0.00     0.039 C 
ATOM      8  C   UNL     1      96.447   4.750  69.242  1.00  0.00    -0.080 C 
ATOM      9  C   UNL     1      96.972   3.700  68.295  1.00  0.00     0.039 C 
ENDBRANCH   5   6
ENDBRANCH   4   5
ENDBRANCH   1   4
BRANCH   2  10
ATOM     10  C   UNL     1      98.642   6.192  73.158  1.00  0.00     0.035 C 
BRANCH  10  11
ATOM     11  C   UNL     1      98.075   6.296  74.582  1.00  0.00     0.079 C 
BRANCH  11  12
ATOM     12  C   UNL     1      97.551   4.993  75.143  1.00  0.00     0.130 C 
ATOM     13  O   UNL     1      96.775   5.039  76.085  1.00  0.00    -0.300 OA
ATOM     14  C   UNL     1      97.937   3.648  74.591  1.00  0.00     0.087 C 
ENDBRANCH  11  12
ENDBRANCH  10  11
ENDBRANCH   2  10
TORSDOF 6
ENDMDL
