MODEL 1
REMARK VINA RESULT:    -4.439      0.000      0.000
REMARK INTER + INTRA:          -8.584
REMARK INTER:                  -7.034
REMARK INTRA:                  -1.550
REMARK UNBOUND:                -1.550
REMARK SMILES CCCCCCCCCCCC(=O)[O-]
REMARK SMILES IDX 7 1 8 2 9 3 10 4 11 5 12 6 13 7 14 8 6 9 5 10 4 11 3 12 2 13
REMARK SMILES IDX 1 14
REMARK H PARENT
REMARK Flexibility Score: inf
ROOT
ATOM      1  C   UNL     1      62.631  29.045  12.843  1.00  0.00     0.000 C 
ENDROOT
BRANCH   1   2
ATOM      2  C   UNL     1      61.256  28.706  13.448  1.00  0.00     0.000 C 
BRANCH   2   3
ATOM      3  C   UNL     1      60.171  28.483  12.381  1.00  0.00     0.000 C 
BRANCH   3   4
ATOM      4  C   UNL     1      59.956  29.720  11.492  1.00  0.00     0.006 C 
BRANCH   4   5
ATOM      5  C   UNL     1      59.771  29.360  10.012  1.00  0.00     0.053 C 
BRANCH   5   6
ATOM      6  C   UNL     1      61.061  28.868   9.432  1.00  0.00     0.041 C 
ATOM      7  O   UNL     1      61.128  27.718   8.924  1.00  0.00    -0.550 OA
ATOM      8  O   UNL     1      62.174  29.699   9.407  1.00  0.00    -0.550 OA
ENDBRANCH   5   6
ENDBRANCH   4   5
ENDBRANCH   3   4
ENDBRANCH   2   3
ENDBRANCH   1   2
BRANCH   1   9
ATOM      9  C   UNL     1      63.293  30.321  13.398  1.00  0.00     0.000 C 
BRANCH   9  10
ATOM     10  C   UNL     1      62.842  31.597  12.672  1.00  0.00    -0.000 C 
BRANCH  10  11
ATOM     11  C   UNL     1      62.205  32.592  13.654  1.00  0.00    -0.000 C 
BRANCH  11  12
ATOM     12  C   UNL     1      60.701  32.785  13.409  1.00  0.00    -0.000 C 
BRANCH  12  13
ATOM     13  C   UNL     1      59.835  32.029  14.428  1.00  0.00    -0.003 C 
ATOM     14  C   UNL     1      60.638  31.680  15.678  1.00  0.00     0.004 C 
ENDBRANCH  12  13
ENDBRANCH  11  12
ENDBRANCH  10  11
ENDBRANCH   9  10
ENDBRANCH   1   9
TORSDOF 10
ENDMDL
MODEL 2
REMARK VINA RESULT:    -4.378      2.702      5.041
REMARK INTER + INTRA:          -8.487
REMARK INTER:                  -7.124
REMARK INTRA:                  -1.363
REMARK UNBOUND:                -1.550
REMARK SMILES CCCCCCCCCCCC(=O)[O-]
REMARK SMILES IDX 7 1 8 2 9 3 10 4 11 5 12 6 13 7 14 8 6 9 5 10 4 11 3 12 2 13
REMARK SMILES IDX 1 14
REMARK H PARENT
REMARK Flexibility Score: inf
ROOT
ATOM      1  C   UNL     1      63.600  29.700  13.081  1.00  0.00     0.000 C 
ENDROOT
BRANCH   1   2
ATOM      2  C   UNL     1      63.248  30.771  12.031  1.00  0.00     0.000 C 
BRANCH   2   3
ATOM      3  C   UNL     1      63.581  32.198  12.497  1.00  0.00     0.000 C 
BRANCH   3   4
ATOM      4  C   UNL     1      62.645  32.686  13.615  1.00  0.00     0.006 C 
BRANCH   4   5
ATOM      5  C   UNL     1      61.171  32.696  13.190  1.00  0.00     0.053 C 
BRANCH   5   6
ATOM      6  C   UNL     1      60.284  32.839  14.387  1.00  0.00     0.041 C 
ATOM      7  O   UNL     1      60.496  33.755  15.225  1.00  0.00    -0.550 OA
ATOM      8  O   UNL     1      59.196  31.992  14.552  1.00  0.00    -0.550 OA
ENDBRANCH   5   6
ENDBRANCH   4   5
ENDBRANCH   3   4
ENDBRANCH   2   3
ENDBRANCH   1   2
BRANCH   1   9
ATOM      9  C   UNL     1      62.528  28.615  13.292  1.00  0.00     0.000 C 
BRANCH   9  10
ATOM     10  C   UNL     1      61.189  29.179  13.788  1.00  0.00    -0.000 C 
BRANCH  10  11
ATOM     11  C   UNL     1      60.032  28.716  12.891  1.00  0.00    -0.000 C 
BRANCH  11  12
ATOM     12  C   UNL     1      59.787  29.661  11.704  1.00  0.00    -0.000 C 
BRANCH  12  13
ATOM     13  C   UNL     1      59.745  28.921  10.359  1.00  0.00    -0.003 C 
ATOM     14  C   UNL     1      61.131  28.415   9.967  1.00  0.00     0.004 C 
ENDBRANCH  12  13
ENDBRANCH  11  12
ENDBRANCH  10  11
ENDBRANCH   9  10
ENDBRANCH   1   9
TORSDOF 10
ENDMDL
MODEL 3
REMARK VINA RESULT:    -4.327     12.705     14.082
REMARK INTER + INTRA:          -8.407
REMARK INTER:                  -6.969
REMARK INTRA:                  -1.438
REMARK UNBOUND:                -1.550
REMARK SMILES CCCCCCCCCCCC(=O)[O-]
REMARK SMILES IDX 7 1 8 2 9 3 10 4 11 5 12 6 13 7 14 8 6 9 5 10 4 11 3 12 2 13
REMARK SMILES IDX 1 14
REMARK H PARENT
REMARK Flexibility Score: inf
ROOT
ATOM      1  C   UNL     1      63.369  30.101  25.011  1.00  0.00     0.000 C 
ENDROOT
BRANCH   1   2
ATOM      2  C   UNL     1      64.097  29.799  26.335  1.00  0.00     0.000 C 
BRANCH   2   3
ATOM      3  C   UNL     1      65.409  29.021  26.132  1.00  0.00     0.000 C 
BRANCH   3   4
ATOM      4  C   UNL     1      65.362  28.098  24.903  1.00  0.00     0.006 C 
BRANCH   4   5
ATOM      5  C   UNL     1      64.878  26.683  25.245  1.00  0.00     0.053 C 
BRANCH   5   6
ATOM      6  C   UNL     1      64.572  25.921  23.994  1.00  0.00     0.041 C 
ATOM      7  O   UNL     1      65.434  25.833  23.080  1.00  0.00    -0.550 OA
ATOM      8  O   UNL     1      63.355  25.266  23.858  1.00  0.00    -0.550 OA
ENDBRANCH   5   6
ENDBRANCH   4   5
ENDBRANCH   3   4
ENDBRANCH   2   3
ENDBRANCH   1   2
BRANCH   1   9
ATOM      9  C   UNL     1      61.873  29.738  24.991  1.00  0.00     0.000 C 
BRANCH   9  10
ATOM     10  C   UNL     1      61.615  28.269  24.629  1.00  0.00    -0.000 C 
BRANCH  10  11
ATOM     11  C   UNL     1      60.792  27.570  25.721  1.00  0.00    -0.000 C 
BRANCH  11  12
ATOM     12  C   UNL     1      61.649  27.129  26.918  1.00  0.00    -0.000 C 
BRANCH  12  13
ATOM     13  C   UNL     1      60.986  27.444  28.267  1.00  0.00    -0.003 C 
ATOM     14  C   UNL     1      61.262  28.884  28.691  1.00  0.00     0.004 C 
ENDBRANCH  12  13
ENDBRANCH  11  12
ENDBRANCH  10  11
ENDBRANCH   9  10
ENDBRANCH   1   9
TORSDOF 10
ENDMDL
MODEL 4
REMARK VINA RESULT:    -4.291     13.019     14.528
REMARK INTER + INTRA:          -8.349
REMARK INTER:                  -6.722
REMARK INTRA:                  -1.628
REMARK UNBOUND:                -1.550
REMARK SMILES CCCCCCCCCCCC(=O)[O-]
REMARK SMILES IDX 7 1 8 2 9 3 10 4 11 5 12 6 13 7 14 8 6 9 5 10 4 11 3 12 2 13
REMARK SMILES IDX 1 14
REMARK H PARENT
REMARK Flexibility Score: inf
ROOT
ATOM      1  C   UNL     1      63.612  30.288  26.522  1.00  0.00     0.000 C 
ENDROOT
BRANCH   1   2
ATOM      2  C   UNL     1      65.087  29.979  26.840  1.00  0.00     0.000 C 
BRANCH   2   3
ATOM      3  C   UNL     1      65.689  28.910  25.911  1.00  0.00     0.000 C 
BRANCH   3   4
ATOM      4  C   UNL     1      64.616  28.167  25.098  1.00  0.00     0.006 C 
BRANCH   4   5
ATOM      5  C   UNL     1      64.585  26.662  25.397  1.00  0.00     0.053 C 
BRANCH   5   6
ATOM      6  C   UNL     1      64.437  25.882  24.128  1.00  0.00     0.041 C 
ATOM      7  O   UNL     1      63.307  25.449  23.779  1.00  0.00    -0.550 OA
ATOM      8  O   UNL     1      65.538  25.675  23.307  1.00  0.00    -0.550 OA
ENDBRANCH   5   6
ENDBRANCH   4   5
ENDBRANCH   3   4
ENDBRANCH   2   3
ENDBRANCH   1   2
BRANCH   1   9
ATOM      9  C   UNL     1      62.646  30.156  27.714  1.00  0.00     0.000 C 
BRANCH   9  10
ATOM     10  C   UNL     1      63.027  29.020  28.675  1.00  0.00    -0.000 C 
BRANCH  10  11
ATOM     11  C   UNL     1      62.372  27.697  28.249  1.00  0.00    -0.000 C 
BRANCH  11  12
ATOM     12  C   UNL     1      61.035  27.905  27.522  1.00  0.00    -0.000 C 
BRANCH  12  13
ATOM     13  C   UNL     1      60.959  27.136  26.195  1.00  0.00    -0.003 C 
ATOM     14  C   UNL     1      60.930  28.093  25.006  1.00  0.00     0.004 C 
ENDBRANCH  12  13
ENDBRANCH  11  12
ENDBRANCH  10  11
ENDBRANCH   9  10
ENDBRANCH   1   9
TORSDOF 10
ENDMDL
MODEL 5
REMARK VINA RESULT:    -4.270      2.859      4.879
REMARK INTER + INTRA:          -8.316
REMARK INTER:                  -6.913
REMARK INTRA:                  -1.404
REMARK UNBOUND:                -1.550
REMARK SMILES CCCCCCCCCCCC(=O)[O-]
REMARK SMILES IDX 7 1 8 2 9 3 10 4 11 5 12 6 13 7 14 8 6 9 5 10 4 11 3 12 2 13
REMARK SMILES IDX 1 14
REMARK H PARENT
REMARK Flexibility Score: inf
ROOT
ATOM      1  C   UNL     1      63.964  30.229  10.305  1.00  0.00     0.000 C 
ENDROOT
BRANCH   1   2
ATOM      2  C   UNL     1      63.830  30.382  11.832  1.00  0.00     0.000 C 
BRANCH   2   3
ATOM      3  C   UNL     1      63.248  31.743  12.249  1.00  0.00     0.000 C 
BRANCH   3   4
ATOM      4  C   UNL     1      62.177  31.614  13.345  1.00  0.00     0.006 C 
BRANCH   4   5
ATOM      5  C   UNL     1      60.932  32.465  13.058  1.00  0.00     0.053 C 
BRANCH   5   6
ATOM      6  C   UNL     1      60.143  32.672  14.313  1.00  0.00     0.041 C 
ATOM      7  O   UNL     1      59.143  31.948  14.559  1.00  0.00    -0.550 OA
ATOM      8  O   UNL     1      60.542  33.633  15.234  1.00  0.00    -0.550 OA
ENDBRANCH   5   6
ENDBRANCH   4   5
ENDBRANCH   3   4
ENDBRANCH   2   3
ENDBRANCH   1   2
BRANCH   1   9
ATOM      9  C   UNL     1      63.274  28.988   9.710  1.00  0.00     0.000 C 
BRANCH   9  10
ATOM     10  C   UNL     1      61.841  29.266   9.232  1.00  0.00    -0.000 C 
BRANCH  10  11
ATOM     11  C   UNL     1      60.816  28.555  10.128  1.00  0.00    -0.000 C 
BRANCH  11  12
ATOM     12  C   UNL     1      59.964  29.536  10.948  1.00  0.00    -0.000 C 
BRANCH  12  13
ATOM     13  C   UNL     1      59.620  28.995  12.343  1.00  0.00    -0.003 C 
ATOM     14  C   UNL     1      60.801  28.238  12.945  1.00  0.00     0.004 C 
ENDBRANCH  12  13
ENDBRANCH  11  12
ENDBRANCH  10  11
ENDBRANCH   9  10
ENDBRANCH   1   9
TORSDOF 10
ENDMDL
MODEL 6
REMARK VINA RESULT:    -4.227     12.836     14.604
REMARK INTER + INTRA:          -8.249
REMARK INTER:                  -6.988
REMARK INTRA:                  -1.261
REMARK UNBOUND:                -1.550
REMARK SMILES CCCCCCCCCCCC(=O)[O-]
REMARK SMILES IDX 7 1 8 2 9 3 10 4 11 5 12 6 13 7 14 8 6 9 5 10 4 11 3 12 2 13
REMARK SMILES IDX 1 14
REMARK H PARENT
REMARK Flexibility Score: inf
ROOT
ATOM      1  C   UNL     1      60.728  27.898  25.871  1.00  0.00     0.000 C 
ENDROOT
BRANCH   1   2
ATOM      2  C   UNL     1      61.645  28.371  24.727  1.00  0.00     0.000 C 
BRANCH   2   3
ATOM      3  C   UNL     1      62.941  29.028  25.232  1.00  0.00     0.000 C 
BRANCH   3   4
ATOM      4  C   UNL     1      64.198  28.429  24.579  1.00  0.00     0.006 C 
BRANCH   4   5
ATOM      5  C   UNL     1      64.620  27.100  25.220  1.00  0.00     0.053 C 
BRANCH   5   6
ATOM      6  C   UNL     1      64.479  25.980  24.236  1.00  0.00     0.041 C 
ATOM      7  O   UNL     1      63.372  25.398  24.094  1.00  0.00    -0.550 OA
ATOM      8  O   UNL     1      65.558  25.613  23.442  1.00  0.00    -0.550 OA
ENDBRANCH   5   6
ENDBRANCH   4   5
ENDBRANCH   3   4
ENDBRANCH   2   3
ENDBRANCH   1   2
BRANCH   1   9
ATOM      9  C   UNL     1      61.407  27.005  26.926  1.00  0.00     0.000 C 
BRANCH   9  10
ATOM     10  C   UNL     1      60.837  27.202  28.338  1.00  0.00    -0.000 C 
BRANCH  10  11
ATOM     11  C   UNL     1      60.958  28.668  28.780  1.00  0.00    -0.000 C 
BRANCH  11  12
ATOM     12  C   UNL     1      62.416  29.103  28.998  1.00  0.00    -0.000 C 
BRANCH  12  13
ATOM     13  C   UNL     1      62.659  30.568  28.606  1.00  0.00    -0.003 C 
ATOM     14  C   UNL     1      64.134  30.815  28.299  1.00  0.00     0.004 C 
ENDBRANCH  12  13
ENDBRANCH  11  12
ENDBRANCH  10  11
ENDBRANCH   9  10
ENDBRANCH   1   9
TORSDOF 10
ENDMDL
MODEL 7
REMARK VINA RESULT:    -4.154      4.234      6.433
REMARK INTER + INTRA:          -8.134
REMARK INTER:                  -7.074
REMARK INTRA:                  -1.059
REMARK UNBOUND:                -1.550
REMARK SMILES CCCCCCCCCCCC(=O)[O-]
REMARK SMILES IDX 7 1 8 2 9 3 10 4 11 5 12 6 13 7 14 8 6 9 5 10 4 11 3 12 2 13
REMARK SMILES IDX 1 14
REMARK H PARENT
REMARK Flexibility Score: inf
ROOT
ATOM      1  C   UNL     1      62.438  32.572  13.418  1.00  0.00     0.000 C 
ENDROOT
BRANCH   1   2
ATOM      2  C   UNL     1      60.909  32.754  13.402  1.00  0.00     0.000 C 
BRANCH   2   3
ATOM      3  C   UNL     1      60.293  32.764  14.811  1.00  0.00     0.000 C 
BRANCH   3   4
ATOM      4  C   UNL     1      60.978  33.773  15.747  1.00  0.00     0.006 C 
BRANCH   4   5
ATOM      5  C   UNL     1      61.598  33.108  16.982  1.00  0.00     0.053 C 
BRANCH   5   6
ATOM      6  C   UNL     1      61.833  34.123  18.057  1.00  0.00     0.041 C 
ATOM      7  O   UNL     1      62.761  34.966  17.940  1.00  0.00    -0.550 OA
ATOM      8  O   UNL     1      60.996  34.169  19.165  1.00  0.00    -0.550 OA
ENDBRANCH   5   6
ENDBRANCH   4   5
ENDBRANCH   3   4
ENDBRANCH   2   3
ENDBRANCH   1   2
BRANCH   1   9
ATOM      9  C   UNL     1      62.961  31.364  12.618  1.00  0.00     0.000 C 
BRANCH   9  10
ATOM     10  C   UNL     1      63.353  30.176  13.509  1.00  0.00    -0.000 C 
BRANCH  10  11
ATOM     11  C   UNL     1      62.491  28.944  13.194  1.00  0.00    -0.000 C 
BRANCH  11  12
ATOM     12  C   UNL     1      61.069  29.054  13.764  1.00  0.00    -0.000 C 
BRANCH  12  13
ATOM     13  C   UNL     1      59.997  28.577  12.773  1.00  0.00    -0.003 C 
ATOM     14  C   UNL     1      59.802  29.588  11.646  1.00  0.00     0.004 C 
ENDBRANCH  12  13
ENDBRANCH  11  12
ENDBRANCH  10  11
ENDBRANCH   9  10
ENDBRANCH   1   9
TORSDOF 10
ENDMDL
MODEL 8
REMARK VINA RESULT:    -4.138      1.289      2.574
REMARK INTER + INTRA:          -8.107
REMARK INTER:                  -6.743
REMARK INTRA:                  -1.365
REMARK UNBOUND:                -1.550
REMARK SMILES CCCCCCCCCCCC(=O)[O-]
REMARK SMILES IDX 7 1 8 2 9 3 10 4 11 5 12 6 13 7 14 8 6 9 5 10 4 11 3 12 2 13
REMARK SMILES IDX 1 14
REMARK H PARENT
REMARK Flexibility Score: inf
ROOT
ATOM      1  C   UNL     1      61.133  28.580  12.860  1.00  0.00     0.000 C 
ENDROOT
BRANCH   1   2
ATOM      2  C   UNL     1      62.501  29.287  12.883  1.00  0.00     0.000 C 
BRANCH   2   3
ATOM      3  C   UNL     1      63.324  29.041  11.607  1.00  0.00     0.000 C 
BRANCH   3   4
ATOM      4  C   UNL     1      63.139  30.155  10.563  1.00  0.00     0.006 C 
BRANCH   4   5
ATOM      5  C   UNL     1      62.752  29.612   9.181  1.00  0.00     0.053 C 
BRANCH   5   6
ATOM      6  C   UNL     1      61.320  29.175   9.176  1.00  0.00     0.041 C 
ATOM      7  O   UNL     1      60.397  30.032   9.183  1.00  0.00    -0.550 OA
ATOM      8  O   UNL     1      61.006  27.824   9.114  1.00  0.00    -0.550 OA
ENDBRANCH   5   6
ENDBRANCH   4   5
ENDBRANCH   3   4
ENDBRANCH   2   3
ENDBRANCH   1   2
BRANCH   1   9
ATOM      9  C   UNL     1      59.913  29.511  12.981  1.00  0.00     0.000 C 
BRANCH   9  10
ATOM     10  C   UNL     1      60.215  30.957  12.559  1.00  0.00    -0.000 C 
BRANCH  10  11
ATOM     11  C   UNL     1      59.849  31.943  13.678  1.00  0.00    -0.000 C 
BRANCH  11  12
ATOM     12  C   UNL     1      60.872  33.081  13.822  1.00  0.00    -0.000 C 
BRANCH  12  13
ATOM     13  C   UNL     1      62.195  32.611  14.443  1.00  0.00    -0.003 C 
ATOM     14  C   UNL     1      63.355  32.792  13.466  1.00  0.00     0.004 C 
ENDBRANCH  12  13
ENDBRANCH  11  12
ENDBRANCH  10  11
ENDBRANCH   9  10
ENDBRANCH   1   9
TORSDOF 10
ENDMDL
MODEL 9
REMARK VINA RESULT:    -4.071     13.039     14.602
REMARK INTER + INTRA:          -8.001
REMARK INTER:                  -6.983
REMARK INTRA:                  -1.018
REMARK UNBOUND:                -1.550
REMARK SMILES CCCCCCCCCCCC(=O)[O-]
REMARK SMILES IDX 7 1 8 2 9 3 10 4 11 5 12 6 13 7 14 8 6 9 5 10 4 11 3 12 2 13
REMARK SMILES IDX 1 14
REMARK H PARENT
REMARK Flexibility Score: inf
ROOT
ATOM      1  C   UNL     1      63.601  29.838  24.529  1.00  0.00     0.000 C 
ENDROOT
BRANCH   1   2
ATOM      2  C   UNL     1      62.130  29.671  24.954  1.00  0.00     0.000 C 
BRANCH   2   3
ATOM      3  C   UNL     1      61.595  28.249  24.713  1.00  0.00     0.000 C 
BRANCH   3   4
ATOM      4  C   UNL     1      61.962  27.282  25.850  1.00  0.00     0.006 C 
BRANCH   4   5
ATOM      5  C   UNL     1      60.837  27.127  26.881  1.00  0.00     0.053 C 
BRANCH   5   6
ATOM      6  C   UNL     1      61.274  27.656  28.212  1.00  0.00     0.041 C 
ATOM      7  O   UNL     1      62.218  27.101  28.834  1.00  0.00    -0.550 OA
ATOM      8  O   UNL     1      60.672  28.790  28.742  1.00  0.00    -0.550 OA
ENDBRANCH   5   6
ENDBRANCH   4   5
ENDBRANCH   3   4
ENDBRANCH   2   3
ENDBRANCH   1   2
BRANCH   1   9
ATOM      9  C   UNL     1      64.609  29.930  25.689  1.00  0.00     0.000 C 
BRANCH   9  10
ATOM     10  C   UNL     1      65.580  28.741  25.737  1.00  0.00    -0.000 C 
BRANCH  10  11
ATOM     11  C   UNL     1      65.559  27.960  24.415  1.00  0.00    -0.000 C 
BRANCH  11  12
ATOM     12  C   UNL     1      65.239  26.469  24.613  1.00  0.00    -0.000 C 
BRANCH  12  13
ATOM     13  C   UNL     1      65.314  25.671  23.304  1.00  0.00    -0.003 C 
ATOM     14  C   UNL     1      66.059  26.453  22.226  1.00  0.00     0.004 C 
ENDBRANCH  12  13
ENDBRANCH  11  12
ENDBRANCH  10  11
ENDBRANCH   9  10
ENDBRANCH   1   9
TORSDOF 10
ENDMDL
