MODEL 1
REMARK VINA RESULT:    -5.487      0.000      0.000
REMARK INTER + INTRA:          -8.087
REMARK INTER:                  -7.732
REMARK INTRA:                  -0.355
REMARK UNBOUND:                -0.355
REMARK SMILES CCCCCCCCC(=O)[O-]
REMARK SMILES IDX 6 1 7 2 8 3 9 4 10 5 11 6 5 7 4 8 3 9 2 10 1 11
REMARK H PARENT
REMARK Flexibility Score: inf
ROOT
ATOM      1  C   UNL     1      15.904  72.777  72.549  1.00  0.00     0.000 C 
ENDROOT
BRANCH   1   2
ATOM      2  C   UNL     1      17.056  71.906  72.030  1.00  0.00     0.006 C 
BRANCH   2   3
ATOM      3  C   UNL     1      18.335  72.731  71.863  1.00  0.00     0.053 C 
BRANCH   3   4
ATOM      4  C   UNL     1      19.508  71.998  72.432  1.00  0.00     0.041 C 
ATOM      5  O   UNL     1      20.058  71.075  71.776  1.00  0.00    -0.550 OA
ATOM      6  O   UNL     1      20.024  72.366  73.668  1.00  0.00    -0.550 OA
ENDBRANCH   3   4
ENDBRANCH   2   3
ENDBRANCH   1   2
BRANCH   1   7
ATOM      7  C   UNL     1      14.559  72.056  72.401  1.00  0.00     0.000 C 
BRANCH   7   8
ATOM      8  C   UNL     1      14.748  70.534  72.386  1.00  0.00    -0.000 C 
BRANCH   8   9
ATOM      9  C   UNL     1      14.059  69.883  73.595  1.00  0.00    -0.000 C 
BRANCH   9  10
ATOM     10  C   UNL     1      14.613  70.395  74.935  1.00  0.00    -0.003 C 
ATOM     11  C   UNL     1      13.933  69.748  76.142  1.00  0.00     0.004 C 
ENDBRANCH   9  10
ENDBRANCH   8   9
ENDBRANCH   7   8
ENDBRANCH   1   7
TORSDOF 7
ENDMDL
MODEL 2
REMARK VINA RESULT:    -5.443      1.050      1.292
REMARK INTER + INTRA:          -8.025
REMARK INTER:                  -7.602
REMARK INTRA:                  -0.423
REMARK UNBOUND:                -0.355
REMARK SMILES CCCCCCCCC(=O)[O-]
REMARK SMILES IDX 6 1 7 2 8 3 9 4 10 5 11 6 5 7 4 8 3 9 2 10 1 11
REMARK H PARENT
REMARK Flexibility Score: inf
ROOT
ATOM      1  C   UNL     1      16.515  72.822  72.205  1.00  0.00     0.000 C 
ENDROOT
BRANCH   1   2
ATOM      2  C   UNL     1      17.563  71.702  72.210  1.00  0.00     0.006 C 
BRANCH   2   3
ATOM      3  C   UNL     1      18.929  72.230  72.657  1.00  0.00     0.053 C 
BRANCH   3   4
ATOM      4  C   UNL     1      19.858  72.334  71.489  1.00  0.00     0.041 C 
ATOM      5  O   UNL     1      19.966  73.418  70.859  1.00  0.00    -0.550 OA
ATOM      6  O   UNL     1      20.641  71.245  71.125  1.00  0.00    -0.550 OA
ENDBRANCH   3   4
ENDBRANCH   2   3
ENDBRANCH   1   2
BRANCH   1   7
ATOM      7  C   UNL     1      15.108  72.260  72.438  1.00  0.00     0.000 C 
BRANCH   7   8
ATOM      8  C   UNL     1      15.092  70.734  72.287  1.00  0.00    -0.000 C 
BRANCH   8   9
ATOM      9  C   UNL     1      14.262  70.081  73.402  1.00  0.00    -0.000 C 
BRANCH   9  10
ATOM     10  C   UNL     1      14.680  70.555  74.804  1.00  0.00    -0.003 C 
ATOM     11  C   UNL     1      13.931  69.830  75.922  1.00  0.00     0.004 C 
ENDBRANCH   9  10
ENDBRANCH   8   9
ENDBRANCH   7   8
ENDBRANCH   1   7
TORSDOF 7
ENDMDL
MODEL 3
REMARK VINA RESULT:    -5.401      1.543      2.183
REMARK INTER + INTRA:          -7.966
REMARK INTER:                  -7.655
REMARK INTRA:                  -0.311
REMARK UNBOUND:                -0.355
REMARK SMILES CCCCCCCCC(=O)[O-]
REMARK SMILES IDX 6 1 7 2 8 3 9 4 10 5 11 6 5 7 4 8 3 9 2 10 1 11
REMARK H PARENT
REMARK Flexibility Score: inf
ROOT
ATOM      1  C   UNL     1      18.028  71.599  73.296  1.00  0.00     0.000 C 
ENDROOT
BRANCH   1   2
ATOM      2  C   UNL     1      19.483  71.691  72.822  1.00  0.00     0.006 C 
BRANCH   2   3
ATOM      3  C   UNL     1      19.680  70.939  71.503  1.00  0.00     0.053 C 
BRANCH   3   4
ATOM      4  C   UNL     1      20.751  69.904  71.646  1.00  0.00     0.041 C 
ATOM      5  O   UNL     1      20.715  68.855  70.953  1.00  0.00    -0.550 OA
ATOM      6  O   UNL     1      21.816  70.121  72.511  1.00  0.00    -0.550 OA
ENDBRANCH   3   4
ENDBRANCH   2   3
ENDBRANCH   1   2
BRANCH   1   7
ATOM      7  C   UNL     1      17.055  71.875  72.144  1.00  0.00     0.000 C 
BRANCH   7   8
ATOM      8  C   UNL     1      15.749  71.092  72.325  1.00  0.00    -0.000 C 
BRANCH   8   9
ATOM      9  C   UNL     1      15.360  71.007  73.809  1.00  0.00    -0.000 C 
BRANCH   9  10
ATOM     10  C   UNL     1      14.208  70.021  74.061  1.00  0.00    -0.003 C 
ATOM     11  C   UNL     1      13.957  69.772  75.548  1.00  0.00     0.004 C 
ENDBRANCH   9  10
ENDBRANCH   8   9
ENDBRANCH   7   8
ENDBRANCH   1   7
TORSDOF 7
ENDMDL
MODEL 4
REMARK VINA RESULT:    -5.390      5.202      6.548
REMARK INTER + INTRA:          -7.951
REMARK INTER:                  -7.237
REMARK INTRA:                  -0.713
REMARK UNBOUND:                -0.355
REMARK SMILES CCCCCCCCC(=O)[O-]
REMARK SMILES IDX 6 1 7 2 8 3 9 4 10 5 11 6 5 7 4 8 3 9 2 10 1 11
REMARK H PARENT
REMARK Flexibility Score: inf
ROOT
ATOM      1  C   UNL     1      12.035  72.907  73.165  1.00  0.00     0.000 C 
ENDROOT
BRANCH   1   2
ATOM      2  C   UNL     1      10.936  71.862  72.935  1.00  0.00     0.006 C 
BRANCH   2   3
ATOM      3  C   UNL     1      11.123  71.154  71.590  1.00  0.00     0.053 C 
BRANCH   3   4
ATOM      4  C   UNL     1       9.874  70.431  71.201  1.00  0.00     0.041 C 
ATOM      5  O   UNL     1       8.769  71.033  71.195  1.00  0.00    -0.550 OA
ATOM      6  O   UNL     1       9.936  69.103  70.798  1.00  0.00    -0.550 OA
ENDBRANCH   3   4
ENDBRANCH   2   3
ENDBRANCH   1   2
BRANCH   1   7
ATOM      7  C   UNL     1      13.172  72.742  72.149  1.00  0.00     0.000 C 
BRANCH   7   8
ATOM      8  C   UNL     1      14.510  72.492  72.854  1.00  0.00    -0.000 C 
BRANCH   8   9
ATOM      9  C   UNL     1      15.127  71.159  72.405  1.00  0.00    -0.000 C 
BRANCH   9  10
ATOM     10  C   UNL     1      14.325  69.943  72.897  1.00  0.00    -0.003 C 
ATOM     11  C   UNL     1      14.130  69.936  74.413  1.00  0.00     0.004 C 
ENDBRANCH   9  10
ENDBRANCH   8   9
ENDBRANCH   7   8
ENDBRANCH   1   7
TORSDOF 7
ENDMDL
MODEL 5
REMARK VINA RESULT:    -5.377      5.700      6.857
REMARK INTER + INTRA:          -7.932
REMARK INTER:                  -7.263
REMARK INTRA:                  -0.670
REMARK UNBOUND:                -0.355
REMARK SMILES CCCCCCCCC(=O)[O-]
REMARK SMILES IDX 6 1 7 2 8 3 9 4 10 5 11 6 5 7 4 8 3 9 2 10 1 11
REMARK H PARENT
REMARK Flexibility Score: inf
ROOT
ATOM      1  C   UNL     1      12.009  72.937  73.176  1.00  0.00     0.000 C 
ENDROOT
BRANCH   1   2
ATOM      2  C   UNL     1      11.030  71.920  73.775  1.00  0.00     0.006 C 
BRANCH   2   3
ATOM      3  C   UNL     1      10.805  72.188  75.266  1.00  0.00     0.053 C 
BRANCH   3   4
ATOM      4  C   UNL     1       9.351  72.084  75.602  1.00  0.00     0.041 C 
ATOM      5  O   UNL     1       8.548  71.558  74.788  1.00  0.00    -0.550 OA
ATOM      6  O   UNL     1       8.890  72.525  76.836  1.00  0.00    -0.550 OA
ENDBRANCH   3   4
ENDBRANCH   2   3
ENDBRANCH   1   2
BRANCH   1   7
ATOM      7  C   UNL     1      13.373  72.293  72.901  1.00  0.00     0.000 C 
BRANCH   7   8
ATOM      8  C   UNL     1      13.212  70.850  72.410  1.00  0.00    -0.000 C 
BRANCH   8   9
ATOM      9  C   UNL     1      14.090  69.890  73.228  1.00  0.00    -0.000 C 
BRANCH   9  10
ATOM     10  C   UNL     1      14.545  70.501  74.564  1.00  0.00    -0.003 C 
ATOM     11  C   UNL     1      13.963  69.772  75.775  1.00  0.00     0.004 C 
ENDBRANCH   9  10
ENDBRANCH   8   9
ENDBRANCH   7   8
ENDBRANCH   1   7
TORSDOF 7
ENDMDL
MODEL 6
REMARK VINA RESULT:    -5.105      2.494      3.627
REMARK INTER + INTRA:          -7.549
REMARK INTER:                  -7.115
REMARK INTRA:                  -0.433
REMARK UNBOUND:                -0.355
REMARK SMILES CCCCCCCCC(=O)[O-]
REMARK SMILES IDX 6 1 7 2 8 3 9 4 10 5 11 6 5 7 4 8 3 9 2 10 1 11
REMARK H PARENT
REMARK Flexibility Score: inf
ROOT
ATOM      1  C   UNL     1      18.864  71.426  71.729  1.00  0.00     0.000 C 
ENDROOT
BRANCH   1   2
ATOM      2  C   UNL     1      20.354  71.354  71.372  1.00  0.00     0.006 C 
BRANCH   2   3
ATOM      3  C   UNL     1      20.846  69.904  71.359  1.00  0.00     0.053 C 
BRANCH   3   4
ATOM      4  C   UNL     1      20.538  69.259  70.045  1.00  0.00     0.041 C 
ATOM      5  O   UNL     1      19.941  68.152  70.006  1.00  0.00    -0.550 OA
ATOM      6  O   UNL     1      20.869  69.904  68.860  1.00  0.00    -0.550 OA
ENDBRANCH   3   4
ENDBRANCH   2   3
ENDBRANCH   1   2
BRANCH   1   7
ATOM      7  C   UNL     1      18.349  72.869  71.653  1.00  0.00     0.000 C 
BRANCH   7   8
ATOM      8  C   UNL     1      16.902  72.964  72.152  1.00  0.00    -0.000 C 
BRANCH   8   9
ATOM      9  C   UNL     1      16.223  71.587  72.135  1.00  0.00    -0.000 C 
BRANCH   9  10
ATOM     10  C   UNL     1      15.542  71.249  73.472  1.00  0.00    -0.003 C 
ATOM     11  C   UNL     1      16.377  71.664  74.683  1.00  0.00     0.004 C 
ENDBRANCH   9  10
ENDBRANCH   8   9
ENDBRANCH   7   8
ENDBRANCH   1   7
TORSDOF 7
ENDMDL
MODEL 7
REMARK VINA RESULT:    -5.041      2.298      3.124
REMARK INTER + INTRA:          -7.459
REMARK INTER:                  -7.137
REMARK INTRA:                  -0.322
REMARK UNBOUND:                -0.355
REMARK SMILES CCCCCCCCC(=O)[O-]
REMARK SMILES IDX 6 1 7 2 8 3 9 4 10 5 11 6 5 7 4 8 3 9 2 10 1 11
REMARK H PARENT
REMARK Flexibility Score: inf
ROOT
ATOM      1  C   UNL     1      18.091  71.444  73.913  1.00  0.00     0.000 C 
ENDROOT
BRANCH   1   2
ATOM      2  C   UNL     1      19.578  71.740  74.145  1.00  0.00     0.006 C 
BRANCH   2   3
ATOM      3  C   UNL     1      20.420  70.469  74.001  1.00  0.00     0.053 C 
BRANCH   3   4
ATOM      4  C   UNL     1      21.130  70.163  75.281  1.00  0.00     0.041 C 
ATOM      5  O   UNL     1      20.484  70.068  76.357  1.00  0.00    -0.550 OA
ATOM      6  O   UNL     1      22.501  69.935  75.279  1.00  0.00    -0.550 OA
ENDBRANCH   3   4
ENDBRANCH   2   3
ENDBRANCH   1   2
BRANCH   1   7
ATOM      7  C   UNL     1      17.565  72.196  72.685  1.00  0.00     0.000 C 
BRANCH   7   8
ATOM      8  C   UNL     1      16.393  71.447  72.041  1.00  0.00    -0.000 C 
BRANCH   8   9
ATOM      9  C   UNL     1      15.141  71.518  72.928  1.00  0.00    -0.000 C 
BRANCH   9  10
ATOM     10  C   UNL     1      14.462  70.150  73.100  1.00  0.00    -0.003 C 
ATOM     11  C   UNL     1      14.155  69.821  74.561  1.00  0.00     0.004 C 
ENDBRANCH   9  10
ENDBRANCH   8   9
ENDBRANCH   7   8
ENDBRANCH   1   7
TORSDOF 7
ENDMDL
MODEL 8
REMARK VINA RESULT:    -4.984      3.245      5.625
REMARK INTER + INTRA:          -7.378
REMARK INTER:                  -7.122
REMARK INTRA:                  -0.256
REMARK UNBOUND:                -0.355
REMARK SMILES CCCCCCCCC(=O)[O-]
REMARK SMILES IDX 6 1 7 2 8 3 9 4 10 5 11 6 5 7 4 8 3 9 2 10 1 11
REMARK H PARENT
REMARK Flexibility Score: inf
ROOT
ATOM      1  C   UNL     1      17.227  71.621  72.831  1.00  0.00     0.000 C 
ENDROOT
BRANCH   1   2
ATOM      2  C   UNL     1      15.903  71.927  72.119  1.00  0.00     0.006 C 
BRANCH   2   3
ATOM      3  C   UNL     1      14.719  71.788  73.079  1.00  0.00     0.053 C 
BRANCH   3   4
ATOM      4  C   UNL     1      14.440  70.346  73.361  1.00  0.00     0.041 C 
ATOM      5  O   UNL     1      14.238  69.542  72.415  1.00  0.00    -0.550 OA
ATOM      6  O   UNL     1      14.450  69.880  74.670  1.00  0.00    -0.550 OA
ENDBRANCH   3   4
ENDBRANCH   2   3
ENDBRANCH   1   2
BRANCH   1   7
ATOM      7  C   UNL     1      18.421  72.134  72.017  1.00  0.00     0.000 C 
BRANCH   7   8
ATOM      8  C   UNL     1      19.630  71.202  72.165  1.00  0.00    -0.000 C 
BRANCH   8   9
ATOM      9  C   UNL     1      20.138  70.739  70.792  1.00  0.00    -0.000 C 
BRANCH   9  10
ATOM     10  C   UNL     1      20.470  69.238  70.761  1.00  0.00    -0.003 C 
ATOM     11  C   UNL     1      20.192  68.598  69.401  1.00  0.00     0.004 C 
ENDBRANCH   9  10
ENDBRANCH   8   9
ENDBRANCH   7   8
ENDBRANCH   1   7
TORSDOF 7
ENDMDL
MODEL 9
REMARK VINA RESULT:    -4.894      2.104      3.406
REMARK INTER + INTRA:          -7.251
REMARK INTER:                  -7.002
REMARK INTRA:                  -0.249
REMARK UNBOUND:                -0.355
REMARK SMILES CCCCCCCCC(=O)[O-]
REMARK SMILES IDX 6 1 7 2 8 3 9 4 10 5 11 6 5 7 4 8 3 9 2 10 1 11
REMARK H PARENT
REMARK Flexibility Score: inf
ROOT
ATOM      1  C   UNL     1      19.168  71.665  71.819  1.00  0.00     0.000 C 
ENDROOT
BRANCH   1   2
ATOM      2  C   UNL     1      20.420  72.136  72.569  1.00  0.00     0.006 C 
BRANCH   2   3
ATOM      3  C   UNL     1      21.621  71.243  72.248  1.00  0.00     0.053 C 
BRANCH   3   4
ATOM      4  C   UNL     1      22.874  71.827  72.819  1.00  0.00     0.041 C 
ATOM      5  O   UNL     1      23.093  73.063  72.734  1.00  0.00    -0.550 OA
ATOM      6  O   UNL     1      23.779  71.012  73.487  1.00  0.00    -0.550 OA
ENDBRANCH   3   4
ENDBRANCH   2   3
ENDBRANCH   1   2
BRANCH   1   7
ATOM      7  C   UNL     1      17.908  71.867  72.669  1.00  0.00     0.000 C 
BRANCH   7   8
ATOM      8  C   UNL     1      16.890  72.756  71.943  1.00  0.00    -0.000 C 
BRANCH   8   9
ATOM      9  C   UNL     1      15.453  72.350  72.300  1.00  0.00    -0.000 C 
BRANCH   9  10
ATOM     10  C   UNL     1      15.392  71.042  73.107  1.00  0.00    -0.003 C 
ATOM     11  C   UNL     1      14.450  70.009  72.491  1.00  0.00     0.004 C 
ENDBRANCH   9  10
ENDBRANCH   8   9
ENDBRANCH   7   8
ENDBRANCH   1   7
TORSDOF 7
ENDMDL
