MODEL 1
REMARK VINA RESULT:    26.130      0.000      0.000
REMARK INTER + INTRA:          48.639
REMARK INTER:                  42.933
REMARK INTRA:                   5.706
REMARK UNBOUND:                 5.706
REMARK SMILES C[C@H]1O[C@@H](OC[C@H]2O[C@H](Oc3c(-c4ccc(O)c(O)c4)oc4cc(O)cc(O)c4c3=O)[C@H](O)[C@H](O)[C@H]2O)[C@H](O)[C@@H](O)[C@@H]1O
REMARK SMILES IDX 7 1 36 2 34 3 32 4 9 5 8 6 6 7 5 8 4 9 1 10 2 11 42 12 3 13
REMARK SMILES IDX 40 14 38 15 43 16 41 18 39 20 37 22 35 24 10 26 11 27 12 28
REMARK SMILES IDX 30 29 21 30 29 31 31 32 22 33 27 34 23 35 26 36 24 37 13 38
REMARK SMILES IDX 20 39 14 40 18 41 15 42 16 43 19 44 17 46 28 48 25 50 33 52
REMARK H PARENT 43 17 41 19 39 21 37 23 35 25 19 45 17 47 28 49 25 51 33 53
REMARK Flexibility Score: inf
ROOT
ATOM      1  C   UNL     1      -7.890  -0.603   6.903  1.00  0.00     0.180 C 
ATOM      2  C   UNL     1      -8.966   0.072   6.031  1.00  0.00     0.177 C 
ATOM      3  C   UNL     1      -9.060  -0.613   4.661  1.00  0.00     0.180 C 
ATOM      4  C   UNL     1      -9.184  -2.143   4.792  1.00  0.00     0.214 C 
ATOM      5  C   UNL     1      -8.268  -2.720   5.905  1.00  0.00     0.339 C 
ATOM      6  O   UNL     1      -8.265  -1.954   7.104  1.00  0.00    -0.332 OA
ENDROOT
BRANCH   1   7
ATOM      7  C   UNL     1      -7.667   0.111   8.261  1.00  0.00     0.198 C 
BRANCH   7   8
ATOM      8  O   UNL     1      -8.840   0.125   9.053  1.00  0.00    -0.347 OA
BRANCH   8   9
ATOM      9  C   UNL     1      -8.601  -0.026  10.469  1.00  0.00     0.281 C 
ATOM     10  C   UNL     1      -5.016  -0.765  11.234  1.00  0.00     0.041 C 
ATOM     11  C   UNL     1      -6.536  -0.965  11.340  1.00  0.00     0.150 C 
ATOM     12  C   UNL     1      -6.946  -2.415  10.866  1.00  0.00     0.174 C 
ATOM     13  O   UNL     1      -7.188   0.125  10.676  1.00  0.00    -0.344 OA
ATOM     14  C   UNL     1      -8.434  -2.538  10.500  1.00  0.00     0.179 C 
ATOM     15  C   UNL     1      -9.233  -1.346  11.000  1.00  0.00     0.202 C 
BRANCH  12  16
ATOM     16  O   UNL     1      -6.615  -3.341  11.899  1.00  0.00    -0.388 OA
ATOM     17  H   UNL     1      -7.425  -3.453  12.487  1.00  0.00     0.211 HD
ENDBRANCH  12  16
BRANCH  14  18
ATOM     18  O   UNL     1      -8.526  -2.560   9.105  1.00  0.00    -0.387 OA
ATOM     19  H   UNL     1      -9.482  -2.694   8.839  1.00  0.00     0.211 HD
ENDBRANCH  14  18
BRANCH  15  20
ATOM     20  O   UNL     1      -9.254  -1.357  12.415  1.00  0.00    -0.385 OA
ATOM     21  H   UNL     1      -9.888  -0.624  12.739  1.00  0.00     0.211 HD
ENDBRANCH  15  20
ENDBRANCH   8   9
ENDBRANCH   7   8
ENDBRANCH   1   7
BRANCH   2  22
ATOM     22  O   UNL     1     -10.231   0.119   6.659  1.00  0.00    -0.387 OA
ATOM     23  H   UNL     1     -10.626   1.012   6.500  1.00  0.00     0.211 HD
ENDBRANCH   2  22
BRANCH   3  24
ATOM     24  O   UNL     1      -7.949  -0.234   3.850  1.00  0.00    -0.387 OA
ATOM     25  H   UNL     1      -7.807  -0.965   3.199  1.00  0.00     0.211 HD
ENDBRANCH   3  24
BRANCH   5  26
ATOM     26  O   UNL     1      -6.920  -2.969   5.462  1.00  0.00    -0.454 OA
BRANCH  26  27
ATOM     27  C   UNL     1      -5.929  -3.488   6.313  1.00  0.00     0.214 A 
ATOM     28  C   UNL     1      -5.653  -4.860   6.325  1.00  0.00     0.180 A 
ATOM     29  C   UNL     1      -5.343  -2.673   7.297  1.00  0.00     0.239 A 
ATOM     30  O   UNL     1      -5.012  -5.413   7.350  1.00  0.00    -0.452 OA
ATOM     31  C   UNL     1      -4.658  -3.293   8.372  1.00  0.00     0.111 A 
ATOM     32  O   UNL     1      -5.461  -1.428   7.240  1.00  0.00    -0.285 OA
ATOM     33  C   UNL     1      -4.556  -4.700   8.368  1.00  0.00     0.146 A 
ATOM     34  C   UNL     1      -4.130  -2.565   9.469  1.00  0.00     0.134 A 
ATOM     35  C   UNL     1      -4.003  -5.371   9.466  1.00  0.00     0.094 A 
ATOM     36  C   UNL     1      -3.587  -3.258  10.557  1.00  0.00     0.093 A 
ATOM     37  C   UNL     1      -3.540  -4.649  10.565  1.00  0.00     0.123 A 
BRANCH  28  38
ATOM     38  C   UNL     1      -6.170  -5.796   5.288  1.00  0.00     0.025 A 
ATOM     39  C   UNL     1      -6.838  -6.979   5.674  1.00  0.00     0.062 A 
ATOM     40  C   UNL     1      -6.036  -5.521   3.929  1.00  0.00     0.016 A 
ATOM     41  C   UNL     1      -7.318  -7.866   4.698  1.00  0.00     0.158 A 
ATOM     42  C   UNL     1      -6.504  -6.399   2.955  1.00  0.00     0.051 A 
ATOM     43  C   UNL     1      -7.147  -7.587   3.330  1.00  0.00     0.157 A 
BRANCH  41  44
ATOM     44  O   UNL     1      -7.950  -9.036   5.116  1.00  0.00    -0.504 OA
ATOM     45  H   UNL     1      -8.868  -9.296   4.803  1.00  0.00     0.293 HD
ENDBRANCH  41  44
BRANCH  43  46
ATOM     46  O   UNL     1      -7.614  -8.485   2.373  1.00  0.00    -0.504 OA
ATOM     47  H   UNL     1      -7.993  -9.383   2.641  1.00  0.00     0.293 HD
ENDBRANCH  43  46
ENDBRANCH  28  38
BRANCH  34  48
ATOM     48  O   UNL     1      -4.155  -1.169   9.520  1.00  0.00    -0.507 OA
ATOM     49  H   UNL     1      -4.358  -0.615   8.696  1.00  0.00     0.293 HD
ENDBRANCH  34  48
BRANCH  37  50
ATOM     50  O   UNL     1      -3.058  -5.311  11.686  1.00  0.00    -0.508 OA
ATOM     51  H   UNL     1      -2.175  -5.808  11.676  1.00  0.00     0.293 HD
ENDBRANCH  37  50
ENDBRANCH  26  27
ENDBRANCH   5  26
BRANCH   4  52
ATOM     52  O   UNL     1      -8.899  -2.722   3.545  1.00  0.00    -0.384 OA
ATOM     53  H   UNL     1      -9.035  -3.709   3.637  1.00  0.00     0.211 HD
ENDBRANCH   4  52
TORSDOF 16
ENDMDL
MODEL 2
REMARK VINA RESULT:    27.656      2.541      7.359
REMARK INTER + INTRA:          51.147
REMARK INTER:                  45.839
REMARK INTRA:                   5.308
REMARK UNBOUND:                 5.706
REMARK SMILES C[C@H]1O[C@@H](OC[C@H]2O[C@H](Oc3c(-c4ccc(O)c(O)c4)oc4cc(O)cc(O)c4c3=O)[C@H](O)[C@H](O)[C@H]2O)[C@H](O)[C@@H](O)[C@@H]1O
REMARK SMILES IDX 7 1 36 2 34 3 32 4 9 5 8 6 6 7 5 8 4 9 1 10 2 11 42 12 3 13
REMARK SMILES IDX 40 14 38 15 43 16 41 18 39 20 37 22 35 24 10 26 11 27 12 28
REMARK SMILES IDX 30 29 21 30 29 31 31 32 22 33 27 34 23 35 26 36 24 37 13 38
REMARK SMILES IDX 20 39 14 40 18 41 15 42 16 43 19 44 17 46 28 48 25 50 33 52
REMARK H PARENT 43 17 41 19 39 21 37 23 35 25 19 45 17 47 28 49 25 51 33 53
REMARK Flexibility Score: inf
ROOT
ATOM      1  C   UNL     1      -5.072  -2.282   8.463  1.00  0.00     0.180 C 
ATOM      2  C   UNL     1      -5.529  -3.714   8.122  1.00  0.00     0.177 C 
ATOM      3  C   UNL     1      -6.821  -3.686   7.294  1.00  0.00     0.180 C 
ATOM      4  C   UNL     1      -6.712  -2.727   6.094  1.00  0.00     0.214 C 
ATOM      5  C   UNL     1      -5.972  -1.409   6.452  1.00  0.00     0.339 C 
ATOM      6  O   UNL     1      -4.811  -1.600   7.250  1.00  0.00    -0.332 OA
ENDROOT
BRANCH   1   7
ATOM      7  C   UNL     1      -3.832  -2.242   9.393  1.00  0.00     0.198 C 
BRANCH   7   8
ATOM      8  O   UNL     1      -4.084  -2.856  10.643  1.00  0.00    -0.347 OA
BRANCH   8   9
ATOM      9  C   UNL     1      -3.216  -3.970  10.942  1.00  0.00     0.281 C 
ATOM     10  C   UNL     1      -3.753  -6.853   8.622  1.00  0.00     0.041 C 
ATOM     11  C   UNL     1      -3.568  -6.178   9.990  1.00  0.00     0.150 C 
ATOM     12  C   UNL     1      -4.829  -6.420  10.910  1.00  0.00     0.174 C 
ATOM     13  O   UNL     1      -3.193  -4.811   9.778  1.00  0.00    -0.344 OA
ATOM     14  C   UNL     1      -4.934  -5.421  12.073  1.00  0.00     0.179 C 
ATOM     15  C   UNL     1      -3.636  -4.658  12.275  1.00  0.00     0.202 C 
BRANCH  12  16
ATOM     16  O   UNL     1      -4.778  -7.755  11.409  1.00  0.00    -0.388 OA
ATOM     17  H   UNL     1      -4.495  -7.714  12.376  1.00  0.00     0.211 HD
ENDBRANCH  12  16
BRANCH  14  18
ATOM     18  O   UNL     1      -5.930  -4.495  11.748  1.00  0.00    -0.387 OA
ATOM     19  H   UNL     1      -6.008  -3.820  12.484  1.00  0.00     0.211 HD
ENDBRANCH  14  18
BRANCH  15  20
ATOM     20  O   UNL     1      -2.631  -5.552  12.715  1.00  0.00    -0.385 OA
ATOM     21  H   UNL     1      -1.724  -5.085  12.645  1.00  0.00     0.211 HD
ENDBRANCH  15  20
ENDBRANCH   8   9
ENDBRANCH   7   8
ENDBRANCH   1   7
BRANCH   2  22
ATOM     22  O   UNL     1      -4.528  -4.469   7.470  1.00  0.00    -0.387 OA
ATOM     23  H   UNL     1      -4.714  -4.460   6.499  1.00  0.00     0.211 HD
ENDBRANCH   2  22
BRANCH   3  24
ATOM     24  O   UNL     1      -7.930  -3.369   8.133  1.00  0.00    -0.387 OA
ATOM     25  H   UNL     1      -8.535  -2.792   7.604  1.00  0.00     0.211 HD
ENDBRANCH   3  24
BRANCH   5  26
ATOM     26  O   UNL     1      -6.832  -0.414   7.040  1.00  0.00    -0.454 OA
BRANCH  26  27
ATOM     27  C   UNL     1      -8.233  -0.465   6.927  1.00  0.00     0.214 A 
ATOM     28  C   UNL     1      -9.031  -0.583   8.069  1.00  0.00     0.180 A 
ATOM     29  C   UNL     1      -8.836  -0.595   5.664  1.00  0.00     0.239 A 
ATOM     30  O   UNL     1     -10.291  -0.999   7.974  1.00  0.00    -0.452 OA
ATOM     31  C   UNL     1     -10.182  -1.032   5.598  1.00  0.00     0.111 A 
ATOM     32  O   UNL     1      -8.180  -0.366   4.623  1.00  0.00    -0.285 OA
ATOM     33  C   UNL     1     -10.864  -1.262   6.811  1.00  0.00     0.146 A 
ATOM     34  C   UNL     1     -10.844  -1.300   4.371  1.00  0.00     0.134 A 
ATOM     35  C   UNL     1     -12.152  -1.814   6.804  1.00  0.00     0.094 A 
ATOM     36  C   UNL     1     -12.128  -1.856   4.390  1.00  0.00     0.093 A 
ATOM     37  C   UNL     1     -12.770  -2.129   5.595  1.00  0.00     0.123 A 
BRANCH  28  38
ATOM     38  C   UNL     1      -8.502  -0.395   9.448  1.00  0.00     0.025 A 
ATOM     39  C   UNL     1      -7.107  -0.362   9.671  1.00  0.00     0.062 A 
ATOM     40  C   UNL     1      -9.353  -0.220  10.537  1.00  0.00     0.016 A 
ATOM     41  C   UNL     1      -6.607  -0.192  10.971  1.00  0.00     0.158 A 
ATOM     42  C   UNL     1      -8.864  -0.058  11.830  1.00  0.00     0.051 A 
ATOM     43  C   UNL     1      -7.482  -0.047  12.063  1.00  0.00     0.157 A 
BRANCH  41  44
ATOM     44  O   UNL     1      -5.225  -0.190  11.158  1.00  0.00    -0.504 OA
ATOM     45  H   UNL     1      -4.733  -0.960  11.572  1.00  0.00     0.293 HD
ENDBRANCH  41  44
BRANCH  43  46
ATOM     46  O   UNL     1      -6.971   0.103  13.350  1.00  0.00    -0.504 OA
ATOM     47  H   UNL     1      -6.026  -0.178  13.572  1.00  0.00     0.293 HD
ENDBRANCH  43  46
ENDBRANCH  28  38
BRANCH  34  48
ATOM     48  O   UNL     1     -10.248  -1.053   3.132  1.00  0.00    -0.507 OA
ATOM     49  H   UNL     1     -10.767  -1.155   2.268  1.00  0.00     0.293 HD
ENDBRANCH  34  48
BRANCH  37  50
ATOM     50  O   UNL     1     -14.015  -2.743   5.583  1.00  0.00    -0.508 OA
ATOM     51  H   UNL     1     -14.746  -2.484   6.235  1.00  0.00     0.293 HD
ENDBRANCH  37  50
ENDBRANCH  26  27
ENDBRANCH   5  26
BRANCH   4  52
ATOM     52  O   UNL     1      -8.006  -2.470   5.610  1.00  0.00    -0.384 OA
ATOM     53  H   UNL     1      -8.632  -2.534   6.388  1.00  0.00     0.211 HD
ENDBRANCH   4  52
TORSDOF 16
ENDMDL
MODEL 3
REMARK VINA RESULT:    27.956      1.900      4.796
REMARK INTER + INTRA:          51.639
REMARK INTER:                  49.632
REMARK INTRA:                   2.008
REMARK UNBOUND:                 5.706
REMARK SMILES C[C@H]1O[C@@H](OC[C@H]2O[C@H](Oc3c(-c4ccc(O)c(O)c4)oc4cc(O)cc(O)c4c3=O)[C@H](O)[C@H](O)[C@H]2O)[C@H](O)[C@@H](O)[C@@H]1O
REMARK SMILES IDX 7 1 36 2 34 3 32 4 9 5 8 6 6 7 5 8 4 9 1 10 2 11 42 12 3 13
REMARK SMILES IDX 40 14 38 15 43 16 41 18 39 20 37 22 35 24 10 26 11 27 12 28
REMARK SMILES IDX 30 29 21 30 29 31 31 32 22 33 27 34 23 35 26 36 24 37 13 38
REMARK SMILES IDX 20 39 14 40 18 41 15 42 16 43 19 44 17 46 28 48 25 50 33 52
REMARK H PARENT 43 17 41 19 39 21 37 23 35 25 19 45 17 47 28 49 25 51 33 53
REMARK Flexibility Score: inf
ROOT
ATOM      1  C   UNL     1      -6.694  -0.892   7.671  1.00  0.00     0.180 C 
ATOM      2  C   UNL     1      -7.954  -1.136   8.525  1.00  0.00     0.177 C 
ATOM      3  C   UNL     1      -7.695  -2.229   9.571  1.00  0.00     0.180 C 
ATOM      4  C   UNL     1      -6.402  -1.967  10.366  1.00  0.00     0.214 C 
ATOM      5  C   UNL     1      -5.248  -1.440   9.468  1.00  0.00     0.339 C 
ATOM      6  O   UNL     1      -5.656  -0.453   8.529  1.00  0.00    -0.332 OA
ENDROOT
BRANCH   1   7
ATOM      7  C   UNL     1      -6.922   0.124   6.522  1.00  0.00     0.198 C 
BRANCH   7   8
ATOM      8  O   UNL     1      -7.659  -0.440   5.453  1.00  0.00    -0.347 OA
BRANCH   8   9
ATOM      9  C   UNL     1      -8.976   0.125   5.280  1.00  0.00     0.281 C 
ATOM     10  C   UNL     1     -11.262  -0.700   8.122  1.00  0.00     0.041 C 
ATOM     11  C   UNL     1     -10.868  -0.559   6.643  1.00  0.00     0.150 C 
ATOM     12  C   UNL     1     -10.950  -1.953   5.904  1.00  0.00     0.174 C 
ATOM     13  O   UNL     1      -9.609   0.122   6.569  1.00  0.00    -0.344 OA
ATOM     14  C   UNL     1     -10.147  -1.996   4.595  1.00  0.00     0.179 C 
ATOM     15  C   UNL     1      -9.746  -0.603   4.138  1.00  0.00     0.202 C 
BRANCH  12  16
ATOM     16  O   UNL     1     -12.322  -2.252   5.651  1.00  0.00    -0.388 OA
ATOM     17  H   UNL     1     -12.845  -1.394   5.719  1.00  0.00     0.211 HD
ENDBRANCH  12  16
BRANCH  14  18
ATOM     18  O   UNL     1      -8.976  -2.721   4.840  1.00  0.00    -0.387 OA
ATOM     19  H   UNL     1      -8.739  -2.646   5.811  1.00  0.00     0.211 HD
ENDBRANCH  14  18
BRANCH  15  20
ATOM     20  O   UNL     1     -10.905   0.122   3.774  1.00  0.00    -0.385 OA
ATOM     21  H   UNL     1     -11.047   0.874   4.451  1.00  0.00     0.211 HD
ENDBRANCH  15  20
ENDBRANCH   8   9
ENDBRANCH   7   8
ENDBRANCH   1   7
BRANCH   2  22
ATOM     22  O   UNL     1      -8.439   0.042   9.137  1.00  0.00    -0.387 OA
ATOM     23  H   UNL     1      -7.684   0.493   9.588  1.00  0.00     0.211 HD
ENDBRANCH   2  22
BRANCH   3  24
ATOM     24  O   UNL     1      -7.687  -3.510   8.944  1.00  0.00    -0.387 OA
ATOM     25  H   UNL     1      -7.740  -4.184   9.666  1.00  0.00     0.211 HD
ENDBRANCH   3  24
BRANCH   5  26
ATOM     26  O   UNL     1      -4.513  -2.490   8.811  1.00  0.00    -0.454 OA
BRANCH  26  27
ATOM     27  C   UNL     1      -4.087  -3.649   9.485  1.00  0.00     0.214 A 
ATOM     28  C   UNL     1      -4.462  -4.914   9.022  1.00  0.00     0.180 A 
ATOM     29  C   UNL     1      -3.448  -3.547  10.733  1.00  0.00     0.239 A 
ATOM     30  O   UNL     1      -4.395  -5.975   9.822  1.00  0.00    -0.452 OA
ATOM     31  C   UNL     1      -3.385  -4.698  11.558  1.00  0.00     0.111 A 
ATOM     32  O   UNL     1      -2.982  -2.450  11.118  1.00  0.00    -0.285 OA
ATOM     33  C   UNL     1      -3.921  -5.902  11.057  1.00  0.00     0.146 A 
ATOM     34  C   UNL     1      -2.861  -4.670  12.876  1.00  0.00     0.134 A 
ATOM     35  C   UNL     1      -4.000  -7.036  11.875  1.00  0.00     0.094 A 
ATOM     36  C   UNL     1      -2.955  -5.814  13.677  1.00  0.00     0.093 A 
ATOM     37  C   UNL     1      -3.536  -6.982  13.189  1.00  0.00     0.123 A 
BRANCH  28  38
ATOM     38  C   UNL     1      -5.082  -5.135   7.686  1.00  0.00     0.025 A 
ATOM     39  C   UNL     1      -5.619  -4.044   6.968  1.00  0.00     0.062 A 
ATOM     40  C   UNL     1      -5.123  -6.400   7.104  1.00  0.00     0.016 A 
ATOM     41  C   UNL     1      -6.211  -4.252   5.712  1.00  0.00     0.158 A 
ATOM     42  C   UNL     1      -5.714  -6.615   5.862  1.00  0.00     0.051 A 
ATOM     43  C   UNL     1      -6.270  -5.541   5.153  1.00  0.00     0.157 A 
BRANCH  41  44
ATOM     44  O   UNL     1      -6.753  -3.156   5.042  1.00  0.00    -0.504 OA
ATOM     45  H   UNL     1      -6.185  -2.471   4.579  1.00  0.00     0.293 HD
ENDBRANCH  41  44
BRANCH  43  46
ATOM     46  O   UNL     1      -6.876  -5.735   3.914  1.00  0.00    -0.504 OA
ATOM     47  H   UNL     1      -6.544  -5.254   3.089  1.00  0.00     0.293 HD
ENDBRANCH  43  46
ENDBRANCH  28  38
BRANCH  34  48
ATOM     48  O   UNL     1      -2.274  -3.527  13.423  1.00  0.00    -0.507 OA
ATOM     49  H   UNL     1      -2.730  -2.624  13.372  1.00  0.00     0.293 HD
ENDBRANCH  34  48
BRANCH  37  50
ATOM     50  O   UNL     1      -3.676  -8.079  14.028  1.00  0.00    -0.508 OA
ATOM     51  H   UNL     1      -3.749  -7.978  15.033  1.00  0.00     0.293 HD
ENDBRANCH  37  50
ENDBRANCH  26  27
ENDBRANCH   5  26
BRANCH   4  52
ATOM     52  O   UNL     1      -6.035  -3.153  11.024  1.00  0.00    -0.384 OA
ATOM     53  H   UNL     1      -6.432  -3.117  11.942  1.00  0.00     0.211 HD
ENDBRANCH   4  52
TORSDOF 16
ENDMDL
