MODEL 1
REMARK VINA RESULT:    -4.428      0.000      0.000
REMARK INTER + INTRA:         -10.256
REMARK INTER:                  -8.052
REMARK INTRA:                  -2.204
REMARK UNBOUND:                -2.204
REMARK SMILES CCCCCC=CCC=CCCCCCCCC(=O)[O-]
REMARK SMILES IDX 11 1 12 2 13 3 14 4 15 5 16 6 17 7 18 8 19 9 20 10 10 11
REMARK SMILES IDX 9 12 8 13 7 14 6 15 5 16 4 17 3 18 2 19 1 20
REMARK H PARENT
REMARK Flexibility Score: inf
ROOT
ATOM      1  C   UNL     1     101.421  90.026  80.505  1.00  0.00     0.027 C 
ENDROOT
BRANCH   1   2
ATOM      2  C   UNL     1     101.348  91.483  80.033  1.00  0.00     0.004 C 
BRANCH   2   3
ATOM      3  C   UNL     1     102.409  92.348  80.722  1.00  0.00     0.000 C 
BRANCH   3   4
ATOM      4  C   UNL     1     103.190  91.531  81.756  1.00  0.00     0.000 C 
BRANCH   4   5
ATOM      5  C   UNL     1     104.238  92.398  82.465  1.00  0.00     0.000 C 
BRANCH   5   6
ATOM      6  C   UNL     1     103.837  92.660  83.925  1.00  0.00     0.006 C 
BRANCH   6   7
ATOM      7  C   UNL     1     103.231  91.420  84.593  1.00  0.00     0.053 C 
BRANCH   7   8
ATOM      8  C   UNL     1     104.126  90.869  85.661  1.00  0.00     0.041 C 
ATOM      9  O   UNL     1     104.794  89.823  85.448  1.00  0.00    -0.550 OA
ATOM     10  O   UNL     1     104.246  91.526  86.878  1.00  0.00    -0.550 OA
ENDBRANCH   7   8
ENDBRANCH   6   7
ENDBRANCH   5   6
ENDBRANCH   4   5
ENDBRANCH   3   4
ENDBRANCH   2   3
ENDBRANCH   1   2
BRANCH   1  11
ATOM     11  C   UNL     1     100.043  89.483  80.766  1.00  0.00    -0.031 C 
ATOM     12  C   UNL     1      99.001  89.797  79.980  1.00  0.00    -0.027 C 
BRANCH  12  13
ATOM     13  C   UNL     1      97.653  89.165  80.176  1.00  0.00     0.054 C 
BRANCH  13  14
ATOM     14  C   UNL     1      97.308  89.149  81.638  1.00  0.00    -0.027 C 
ATOM     15  C   UNL     1      96.919  90.262  82.279  1.00  0.00    -0.031 C 
BRANCH  15  16
ATOM     16  C   UNL     1      96.702  90.278  83.768  1.00  0.00     0.027 C 
BRANCH  16  17
ATOM     17  C   UNL     1      97.632  91.281  84.471  1.00  0.00     0.004 C 
BRANCH  17  18
ATOM     18  C   UNL     1      99.065  91.226  83.922  1.00  0.00     0.000 C 
BRANCH  18  19
ATOM     19  C   UNL     1      99.383  92.471  83.085  1.00  0.00    -0.003 C 
ATOM     20  C   UNL     1     100.187  93.488  83.890  1.00  0.00     0.004 C 
ENDBRANCH  18  19
ENDBRANCH  17  18
ENDBRANCH  16  17
ENDBRANCH  15  16
ENDBRANCH  13  14
ENDBRANCH  12  13
ENDBRANCH   1  11
TORSDOF 14
ENDMDL
MODEL 2
REMARK VINA RESULT:    -4.304      3.892      7.514
REMARK INTER + INTRA:         -10.029
REMARK INTER:                  -9.045
REMARK INTRA:                  -0.985
REMARK UNBOUND:                -2.204
REMARK SMILES CCCCCC=CCC=CCCCCCCCC(=O)[O-]
REMARK SMILES IDX 11 1 12 2 13 3 14 4 15 5 16 6 17 7 18 8 19 9 20 10 10 11
REMARK SMILES IDX 9 12 8 13 7 14 6 15 5 16 4 17 3 18 2 19 1 20
REMARK H PARENT
REMARK Flexibility Score: inf
ROOT
ATOM      1  C   UNL     1     101.197  89.430  80.723  1.00  0.00     0.027 C 
ENDROOT
BRANCH   1   2
ATOM      2  C   UNL     1     100.665  90.806  80.304  1.00  0.00     0.004 C 
BRANCH   2   3
ATOM      3  C   UNL     1      99.169  90.751  79.978  1.00  0.00     0.000 C 
BRANCH   3   4
ATOM      4  C   UNL     1      98.625  89.329  80.149  1.00  0.00     0.000 C 
BRANCH   4   5
ATOM      5  C   UNL     1      97.681  89.241  81.354  1.00  0.00     0.000 C 
BRANCH   5   6
ATOM      6  C   UNL     1      97.436  90.630  81.962  1.00  0.00     0.006 C 
BRANCH   6   7
ATOM      7  C   UNL     1      96.026  90.766  82.551  1.00  0.00     0.053 C 
BRANCH   7   8
ATOM      8  C   UNL     1      96.042  90.721  84.049  1.00  0.00     0.041 C 
ATOM      9  O   UNL     1      97.131  90.582  84.665  1.00  0.00    -0.550 OA
ATOM     10  O   UNL     1      94.860  90.862  84.763  1.00  0.00    -0.550 OA
ENDBRANCH   7   8
ENDBRANCH   6   7
ENDBRANCH   5   6
ENDBRANCH   4   5
ENDBRANCH   3   4
ENDBRANCH   2   3
ENDBRANCH   1   2
BRANCH   1  11
ATOM     11  C   UNL     1     102.259  89.571  81.778  1.00  0.00    -0.031 C 
ATOM     12  C   UNL     1     102.401  90.701  82.489  1.00  0.00    -0.027 C 
BRANCH  12  13
ATOM     13  C   UNL     1     103.387  90.798  83.618  1.00  0.00     0.054 C 
BRANCH  13  14
ATOM     14  C   UNL     1     104.222  89.550  83.670  1.00  0.00    -0.027 C 
ATOM     15  C   UNL     1     105.036  89.293  84.705  1.00  0.00    -0.031 C 
BRANCH  15  16
ATOM     16  C   UNL     1     105.972  88.114  84.697  1.00  0.00     0.027 C 
BRANCH  16  17
ATOM     17  C   UNL     1     106.077  87.457  86.083  1.00  0.00     0.004 C 
BRANCH  17  18
ATOM     18  C   UNL     1     107.120  86.329  86.112  1.00  0.00     0.000 C 
BRANCH  18  19
ATOM     19  C   UNL     1     107.057  85.555  87.434  1.00  0.00    -0.003 C 
ATOM     20  C   UNL     1     105.661  85.619  88.046  1.00  0.00     0.004 C 
ENDBRANCH  18  19
ENDBRANCH  17  18
ENDBRANCH  16  17
ENDBRANCH  15  16
ENDBRANCH  13  14
ENDBRANCH  12  13
ENDBRANCH   1  11
TORSDOF 14
ENDMDL
MODEL 3
REMARK VINA RESULT:    -4.256      3.211      6.491
REMARK INTER + INTRA:          -9.942
REMARK INTER:                  -8.047
REMARK INTRA:                  -1.895
REMARK UNBOUND:                -2.204
REMARK SMILES CCCCCC=CCC=CCCCCCCCC(=O)[O-]
REMARK SMILES IDX 11 1 12 2 13 3 14 4 15 5 16 6 17 7 18 8 19 9 20 10 10 11
REMARK SMILES IDX 9 12 8 13 7 14 6 15 5 16 4 17 3 18 2 19 1 20
REMARK H PARENT
REMARK Flexibility Score: inf
ROOT
ATOM      1  C   UNL     1      99.562  91.755  80.131  1.00  0.00     0.027 C 
ENDROOT
BRANCH   1   2
ATOM      2  C   UNL     1      99.631  90.323  80.677  1.00  0.00     0.004 C 
BRANCH   2   3
ATOM      3  C   UNL     1      98.734  89.375  79.875  1.00  0.00     0.000 C 
BRANCH   3   4
ATOM      4  C   UNL     1      97.297  89.406  80.405  1.00  0.00     0.000 C 
BRANCH   4   5
ATOM      5  C   UNL     1      97.273  89.359  81.938  1.00  0.00     0.000 C 
BRANCH   5   6
ATOM      6  C   UNL     1      96.460  90.531  82.509  1.00  0.00     0.006 C 
BRANCH   6   7
ATOM      7  C   UNL     1      96.823  90.831  83.969  1.00  0.00     0.053 C 
BRANCH   7   8
ATOM      8  C   UNL     1      95.761  90.359  84.915  1.00  0.00     0.041 C 
ATOM      9  O   UNL     1      96.079  89.723  85.955  1.00  0.00    -0.550 OA
ATOM     10  O   UNL     1      94.426  90.647  84.666  1.00  0.00    -0.550 OA
ENDBRANCH   7   8
ENDBRANCH   6   7
ENDBRANCH   5   6
ENDBRANCH   4   5
ENDBRANCH   3   4
ENDBRANCH   2   3
ENDBRANCH   1   2
BRANCH   1  11
ATOM     11  C   UNL     1     100.555  92.639  80.832  1.00  0.00    -0.031 C 
ATOM     12  C   UNL     1     101.560  93.233  80.170  1.00  0.00    -0.027 C 
BRANCH  12  13
ATOM     13  C   UNL     1     102.481  94.205  80.851  1.00  0.00     0.054 C 
BRANCH  13  14
ATOM     14  C   UNL     1     102.824  93.701  82.224  1.00  0.00    -0.027 C 
ATOM     15  C   UNL     1     103.953  93.016  82.459  1.00  0.00    -0.031 C 
BRANCH  15  16
ATOM     16  C   UNL     1     104.234  92.396  83.801  1.00  0.00     0.027 C 
BRANCH  16  17
ATOM     17  C   UNL     1     104.021  90.873  83.784  1.00  0.00     0.004 C 
BRANCH  17  18
ATOM     18  C   UNL     1     102.668  90.484  83.171  1.00  0.00     0.000 C 
BRANCH  18  19
ATOM     19  C   UNL     1     102.835  89.369  82.131  1.00  0.00    -0.003 C 
ATOM     20  C   UNL     1     103.266  89.932  80.781  1.00  0.00     0.004 C 
ENDBRANCH  18  19
ENDBRANCH  17  18
ENDBRANCH  16  17
ENDBRANCH  15  16
ENDBRANCH  13  14
ENDBRANCH  12  13
ENDBRANCH   1  11
TORSDOF 14
ENDMDL
MODEL 4
REMARK VINA RESULT:    -4.206      3.121      6.163
REMARK INTER + INTRA:          -9.852
REMARK INTER:                  -7.963
REMARK INTRA:                  -1.889
REMARK UNBOUND:                -2.204
REMARK SMILES CCCCCC=CCC=CCCCCCCCC(=O)[O-]
REMARK SMILES IDX 11 1 12 2 13 3 14 4 15 5 16 6 17 7 18 8 19 9 20 10 10 11
REMARK SMILES IDX 9 12 8 13 7 14 6 15 5 16 4 17 3 18 2 19 1 20
REMARK H PARENT
REMARK Flexibility Score: inf
ROOT
ATOM      1  C   UNL     1     101.996  90.459  79.924  1.00  0.00     0.027 C 
ENDROOT
BRANCH   1   2
ATOM      2  C   UNL     1     100.861  89.475  80.233  1.00  0.00     0.004 C 
BRANCH   2   3
ATOM      3  C   UNL     1      99.575  90.209  80.626  1.00  0.00     0.000 C 
BRANCH   3   4
ATOM      4  C   UNL     1      98.339  89.431  80.164  1.00  0.00     0.000 C 
BRANCH   4   5
ATOM      5  C   UNL     1      97.487  88.988  81.359  1.00  0.00     0.000 C 
BRANCH   5   6
ATOM      6  C   UNL     1      96.838  90.198  82.048  1.00  0.00     0.006 C 
BRANCH   6   7
ATOM      7  C   UNL     1      97.295  90.352  83.504  1.00  0.00     0.053 C 
BRANCH   7   8
ATOM      8  C   UNL     1      96.134  90.421  84.449  1.00  0.00     0.041 C 
ATOM      9  O   UNL     1      94.997  90.761  84.028  1.00  0.00    -0.550 OA
ATOM     10  O   UNL     1      96.301  90.082  85.785  1.00  0.00    -0.550 OA
ENDBRANCH   7   8
ENDBRANCH   6   7
ENDBRANCH   5   6
ENDBRANCH   4   5
ENDBRANCH   3   4
ENDBRANCH   2   3
ENDBRANCH   1   2
BRANCH   1  11
ATOM     11  C   UNL     1     103.084  90.355  80.956  1.00  0.00    -0.031 C 
ATOM     12  C   UNL     1     103.084  89.386  81.885  1.00  0.00    -0.027 C 
BRANCH  12  13
ATOM     13  C   UNL     1     104.231  89.218  82.841  1.00  0.00     0.054 C 
BRANCH  13  14
ATOM     14  C   UNL     1     104.305  90.406  83.758  1.00  0.00    -0.027 C 
ATOM     15  C   UNL     1     104.220  90.270  85.090  1.00  0.00    -0.031 C 
BRANCH  15  16
ATOM     16  C   UNL     1     104.159  91.467  86.000  1.00  0.00     0.027 C 
BRANCH  16  17
ATOM     17  C   UNL     1     103.816  92.754  85.234  1.00  0.00     0.004 C 
BRANCH  17  18
ATOM     18  C   UNL     1     102.318  93.088  85.302  1.00  0.00     0.000 C 
BRANCH  18  19
ATOM     19  C   UNL     1     101.653  92.922  83.931  1.00  0.00    -0.003 C 
ATOM     20  C   UNL     1     100.822  91.644  83.870  1.00  0.00     0.004 C 
ENDBRANCH  18  19
ENDBRANCH  17  18
ENDBRANCH  16  17
ENDBRANCH  15  16
ENDBRANCH  13  14
ENDBRANCH  12  13
ENDBRANCH   1  11
TORSDOF 14
ENDMDL
MODEL 5
REMARK VINA RESULT:    -4.161      1.909      3.232
REMARK INTER + INTRA:          -9.770
REMARK INTER:                  -7.612
REMARK INTRA:                  -2.158
REMARK UNBOUND:                -2.204
REMARK SMILES CCCCCC=CCC=CCCCCCCCC(=O)[O-]
REMARK SMILES IDX 11 1 12 2 13 3 14 4 15 5 16 6 17 7 18 8 19 9 20 10 10 11
REMARK SMILES IDX 9 12 8 13 7 14 6 15 5 16 4 17 3 18 2 19 1 20
REMARK H PARENT
REMARK Flexibility Score: inf
ROOT
ATOM      1  C   UNL     1     102.134  93.802  80.534  1.00  0.00     0.027 C 
ENDROOT
BRANCH   1   2
ATOM      2  C   UNL     1     101.249  94.089  81.753  1.00  0.00     0.004 C 
BRANCH   2   3
ATOM      3  C   UNL     1     102.027  93.919  83.062  1.00  0.00     0.000 C 
BRANCH   3   4
ATOM      4  C   UNL     1     103.535  93.871  82.797  1.00  0.00     0.000 C 
BRANCH   4   5
ATOM      5  C   UNL     1     104.194  92.718  83.563  1.00  0.00     0.000 C 
BRANCH   5   6
ATOM      6  C   UNL     1     103.835  91.364  82.931  1.00  0.00     0.006 C 
BRANCH   6   7
ATOM      7  C   UNL     1     104.649  91.082  81.662  1.00  0.00     0.053 C 
BRANCH   7   8
ATOM      8  C   UNL     1     104.502  89.661  81.211  1.00  0.00     0.041 C 
ATOM      9  O   UNL     1     103.905  89.399  80.134  1.00  0.00    -0.550 OA
ATOM     10  O   UNL     1     105.050  88.630  81.961  1.00  0.00    -0.550 OA
ENDBRANCH   7   8
ENDBRANCH   6   7
ENDBRANCH   5   6
ENDBRANCH   4   5
ENDBRANCH   3   4
ENDBRANCH   2   3
ENDBRANCH   1   2
BRANCH   1  11
ATOM     11  C   UNL     1     101.788  92.470  79.928  1.00  0.00    -0.031 C 
ATOM     12  C   UNL     1     100.951  91.615  80.537  1.00  0.00    -0.027 C 
BRANCH  12  13
ATOM     13  C   UNL     1     100.519  90.337  79.876  1.00  0.00     0.054 C 
BRANCH  13  14
ATOM     14  C   UNL     1      99.455  89.673  80.703  1.00  0.00    -0.027 C 
ATOM     15  C   UNL     1      98.162  90.010  80.584  1.00  0.00    -0.031 C 
BRANCH  15  16
ATOM     16  C   UNL     1      97.113  89.444  81.503  1.00  0.00     0.027 C 
BRANCH  16  17
ATOM     17  C   UNL     1      96.513  90.522  82.421  1.00  0.00     0.004 C 
BRANCH  17  18
ATOM     18  C   UNL     1      96.729  90.203  83.908  1.00  0.00     0.000 C 
BRANCH  18  19
ATOM     19  C   UNL     1      97.541  91.307  84.595  1.00  0.00    -0.003 C 
ATOM     20  C   UNL     1      98.891  91.508  83.912  1.00  0.00     0.004 C 
ENDBRANCH  18  19
ENDBRANCH  17  18
ENDBRANCH  16  17
ENDBRANCH  15  16
ENDBRANCH  13  14
ENDBRANCH  12  13
ENDBRANCH   1  11
TORSDOF 14
ENDMDL
MODEL 6
REMARK VINA RESULT:    -4.146      2.497      5.228
REMARK INTER + INTRA:          -9.743
REMARK INTER:                  -7.090
REMARK INTRA:                  -2.653
REMARK UNBOUND:                -2.204
REMARK SMILES CCCCCC=CCC=CCCCCCCCC(=O)[O-]
REMARK SMILES IDX 11 1 12 2 13 3 14 4 15 5 16 6 17 7 18 8 19 9 20 10 10 11
REMARK SMILES IDX 9 12 8 13 7 14 6 15 5 16 4 17 3 18 2 19 1 20
REMARK H PARENT
REMARK Flexibility Score: inf
ROOT
ATOM      1  C   UNL     1      97.329  89.149  81.404  1.00  0.00     0.027 C 
ENDROOT
BRANCH   1   2
ATOM      2  C   UNL     1      96.761  90.478  81.917  1.00  0.00     0.004 C 
BRANCH   2   3
ATOM      3  C   UNL     1      96.661  90.492  83.445  1.00  0.00     0.000 C 
BRANCH   3   4
ATOM      4  C   UNL     1      97.253  91.784  84.019  1.00  0.00     0.000 C 
BRANCH   4   5
ATOM      5  C   UNL     1      98.561  91.506  84.769  1.00  0.00     0.000 C 
BRANCH   5   6
ATOM      6  C   UNL     1      99.758  91.515  83.806  1.00  0.00     0.006 C 
BRANCH   6   7
ATOM      7  C   UNL     1     100.211  92.938  83.456  1.00  0.00     0.053 C 
BRANCH   7   8
ATOM      8  C   UNL     1     100.241  93.166  81.976  1.00  0.00     0.041 C 
ATOM      9  O   UNL     1     101.336  93.373  81.390  1.00  0.00    -0.550 OA
ATOM     10  O   UNL     1      99.065  93.119  81.239  1.00  0.00    -0.550 OA
ENDBRANCH   7   8
ENDBRANCH   6   7
ENDBRANCH   5   6
ENDBRANCH   4   5
ENDBRANCH   3   4
ENDBRANCH   2   3
ENDBRANCH   1   2
BRANCH   1  11
ATOM     11  C   UNL     1      98.807  89.263  81.158  1.00  0.00    -0.031 C 
ATOM     12  C   UNL     1      99.296  89.901  80.082  1.00  0.00    -0.027 C 
BRANCH  12  13
ATOM     13  C   UNL     1     100.771  90.111  79.899  1.00  0.00     0.054 C 
BRANCH  13  14
ATOM     14  C   UNL     1     101.499  89.716  81.152  1.00  0.00    -0.027 C 
ATOM     15  C   UNL     1     102.822  89.900  81.284  1.00  0.00    -0.031 C 
BRANCH  15  16
ATOM     16  C   UNL     1     103.573  89.384  82.481  1.00  0.00     0.027 C 
BRANCH  16  17
ATOM     17  C   UNL     1     103.414  90.307  83.699  1.00  0.00     0.004 C 
BRANCH  17  18
ATOM     18  C   UNL     1     103.798  91.760  83.381  1.00  0.00     0.000 C 
BRANCH  18  19
ATOM     19  C   UNL     1     104.172  92.524  84.657  1.00  0.00    -0.003 C 
ATOM     20  C   UNL     1     103.130  92.313  85.752  1.00  0.00     0.004 C 
ENDBRANCH  18  19
ENDBRANCH  17  18
ENDBRANCH  16  17
ENDBRANCH  15  16
ENDBRANCH  13  14
ENDBRANCH  12  13
ENDBRANCH   1  11
TORSDOF 14
ENDMDL
MODEL 7
REMARK VINA RESULT:    -4.136      3.013      6.164
REMARK INTER + INTRA:          -9.724
REMARK INTER:                  -7.618
REMARK INTRA:                  -2.106
REMARK UNBOUND:                -2.204
REMARK SMILES CCCCCC=CCC=CCCCCCCCC(=O)[O-]
REMARK SMILES IDX 11 1 12 2 13 3 14 4 15 5 16 6 17 7 18 8 19 9 20 10 10 11
REMARK SMILES IDX 9 12 8 13 7 14 6 15 5 16 4 17 3 18 2 19 1 20
REMARK H PARENT
REMARK Flexibility Score: inf
ROOT
ATOM      1  C   UNL     1      99.001  90.809  80.069  1.00  0.00     0.027 C 
ENDROOT
BRANCH   1   2
ATOM      2  C   UNL     1      98.572  89.373  80.394  1.00  0.00     0.004 C 
BRANCH   2   3
ATOM      3  C   UNL     1      97.155  89.331  80.975  1.00  0.00     0.000 C 
BRANCH   3   4
ATOM      4  C   UNL     1      97.142  89.845  82.418  1.00  0.00     0.000 C 
BRANCH   4   5
ATOM      5  C   UNL     1      96.068  90.923  82.610  1.00  0.00     0.000 C 
BRANCH   5   6
ATOM      6  C   UNL     1      95.477  90.863  84.026  1.00  0.00     0.006 C 
BRANCH   6   7
ATOM      7  C   UNL     1      96.524  90.475  85.078  1.00  0.00     0.053 C 
BRANCH   7   8
ATOM      8  C   UNL     1      95.903  90.224  86.417  1.00  0.00     0.041 C 
ATOM      9  O   UNL     1      94.894  90.884  86.779  1.00  0.00    -0.550 OA
ATOM     10  O   UNL     1      96.418  89.241  87.253  1.00  0.00    -0.550 OA
ENDBRANCH   7   8
ENDBRANCH   6   7
ENDBRANCH   5   6
ENDBRANCH   4   5
ENDBRANCH   3   4
ENDBRANCH   2   3
ENDBRANCH   1   2
BRANCH   1  11
ATOM     11  C   UNL     1     100.500  90.927  80.063  1.00  0.00    -0.031 C 
ATOM     12  C   UNL     1     101.286  89.947  80.537  1.00  0.00    -0.027 C 
BRANCH  12  13
ATOM     13  C   UNL     1     102.782  90.019  80.426  1.00  0.00     0.054 C 
BRANCH  13  14
ATOM     14  C   UNL     1     103.285  91.237  81.148  1.00  0.00    -0.027 C 
ATOM     15  C   UNL     1     103.817  91.154  82.377  1.00  0.00    -0.031 C 
BRANCH  15  16
ATOM     16  C   UNL     1     104.198  92.385  83.155  1.00  0.00     0.027 C 
BRANCH  16  17
ATOM     17  C   UNL     1     103.108  93.467  83.085  1.00  0.00     0.004 C 
BRANCH  17  18
ATOM     18  C   UNL     1     101.961  93.199  84.072  1.00  0.00     0.000 C 
BRANCH  18  19
ATOM     19  C   UNL     1     100.665  92.853  83.328  1.00  0.00    -0.003 C 
ATOM     20  C   UNL     1     100.139  91.482  83.742  1.00  0.00     0.004 C 
ENDBRANCH  18  19
ENDBRANCH  17  18
ENDBRANCH  16  17
ENDBRANCH  15  16
ENDBRANCH  13  14
ENDBRANCH  12  13
ENDBRANCH   1  11
TORSDOF 14
ENDMDL
MODEL 8
REMARK VINA RESULT:    -4.062      2.027      4.757
REMARK INTER + INTRA:          -9.589
REMARK INTER:                  -7.064
REMARK INTRA:                  -2.526
REMARK UNBOUND:                -2.204
REMARK SMILES CCCCCC=CCC=CCCCCCCCC(=O)[O-]
REMARK SMILES IDX 11 1 12 2 13 3 14 4 15 5 16 6 17 7 18 8 19 9 20 10 10 11
REMARK SMILES IDX 9 12 8 13 7 14 6 15 5 16 4 17 3 18 2 19 1 20
REMARK H PARENT
REMARK Flexibility Score: inf
ROOT
ATOM      1  C   UNL     1     101.515  94.047  84.434  1.00  0.00     0.027 C 
ENDROOT
BRANCH   1   2
ATOM      2  C   UNL     1     102.993  94.169  84.825  1.00  0.00     0.004 C 
BRANCH   2   3
ATOM      3  C   UNL     1     103.377  93.139  85.892  1.00  0.00     0.000 C 
BRANCH   3   4
ATOM      4  C   UNL     1     104.276  92.049  85.301  1.00  0.00     0.000 C 
BRANCH   4   5
ATOM      5  C   UNL     1     103.521  90.721  85.171  1.00  0.00     0.000 C 
BRANCH   5   6
ATOM      6  C   UNL     1     102.937  90.557  83.760  1.00  0.00     0.006 C 
BRANCH   6   7
ATOM      7  C   UNL     1     103.981  90.813  82.666  1.00  0.00     0.053 C 
BRANCH   7   8
ATOM      8  C   UNL     1     104.265  89.578  81.867  1.00  0.00     0.041 C 
ATOM      9  O   UNL     1     103.788  89.452  80.709  1.00  0.00    -0.550 OA
ATOM     10  O   UNL     1     105.080  88.582  82.388  1.00  0.00    -0.550 OA
ENDBRANCH   7   8
ENDBRANCH   6   7
ENDBRANCH   5   6
ENDBRANCH   4   5
ENDBRANCH   3   4
ENDBRANCH   2   3
ENDBRANCH   1   2
BRANCH   1  11
ATOM     11  C   UNL     1     101.370  93.884  82.947  1.00  0.00    -0.031 C 
ATOM     12  C   UNL     1     102.372  94.180  82.104  1.00  0.00    -0.027 C 
BRANCH  12  13
ATOM     13  C   UNL     1     102.263  93.909  80.631  1.00  0.00     0.054 C 
BRANCH  13  14
ATOM     14  C   UNL     1     101.932  92.461  80.406  1.00  0.00    -0.027 C 
ATOM     15  C   UNL     1     100.721  92.077  79.973  1.00  0.00    -0.031 C 
BRANCH  15  16
ATOM     16  C   UNL     1     100.345  90.624  79.875  1.00  0.00     0.027 C 
BRANCH  16  17
ATOM     17  C   UNL     1     100.239  89.964  81.260  1.00  0.00     0.004 C 
BRANCH  17  18
ATOM     18  C   UNL     1      99.186  90.646  82.147  1.00  0.00     0.000 C 
BRANCH  18  19
ATOM     19  C   UNL     1      97.772  90.407  81.606  1.00  0.00    -0.003 C 
ATOM     20  C   UNL     1      97.503  88.919  81.398  1.00  0.00     0.004 C 
ENDBRANCH  18  19
ENDBRANCH  17  18
ENDBRANCH  16  17
ENDBRANCH  15  16
ENDBRANCH  13  14
ENDBRANCH  12  13
ENDBRANCH   1  11
TORSDOF 14
ENDMDL
MODEL 9
REMARK VINA RESULT:    -4.056      1.615      3.784
REMARK INTER + INTRA:          -9.580
REMARK INTER:                  -7.366
REMARK INTRA:                  -2.214
REMARK UNBOUND:                -2.204
REMARK SMILES CCCCCC=CCC=CCCCCCCCC(=O)[O-]
REMARK SMILES IDX 11 1 12 2 13 3 14 4 15 5 16 6 17 7 18 8 19 9 20 10 10 11
REMARK SMILES IDX 9 12 8 13 7 14 6 15 5 16 4 17 3 18 2 19 1 20
REMARK H PARENT
REMARK Flexibility Score: inf
ROOT
ATOM      1  C   UNL     1      97.121  89.208  80.324  1.00  0.00     0.027 C 
ENDROOT
BRANCH   1   2
ATOM      2  C   UNL     1      98.579  89.391  79.885  1.00  0.00     0.004 C 
BRANCH   2   3
ATOM      3  C   UNL     1      99.054  90.831  80.108  1.00  0.00     0.000 C 
BRANCH   3   4
ATOM      4  C   UNL     1     100.582  90.916  80.047  1.00  0.00     0.000 C 
BRANCH   4   5
ATOM      5  C   UNL     1     101.217  89.523  80.143  1.00  0.00     0.000 C 
BRANCH   5   6
ATOM      6  C   UNL     1     101.962  89.350  81.475  1.00  0.00     0.006 C 
BRANCH   6   7
ATOM      7  C   UNL     1     103.376  89.943  81.431  1.00  0.00     0.053 C 
BRANCH   7   8
ATOM      8  C   UNL     1     104.163  89.596  82.658  1.00  0.00     0.041 C 
ATOM      9  O   UNL     1     104.933  88.600  82.653  1.00  0.00    -0.550 OA
ATOM     10  O   UNL     1     104.070  90.389  83.794  1.00  0.00    -0.550 OA
ENDBRANCH   7   8
ENDBRANCH   6   7
ENDBRANCH   5   6
ENDBRANCH   4   5
ENDBRANCH   3   4
ENDBRANCH   2   3
ENDBRANCH   1   2
BRANCH   1  11
ATOM     11  C   UNL     1      96.791  90.127  81.467  1.00  0.00    -0.031 C 
ATOM     12  C   UNL     1      97.112  89.820  82.734  1.00  0.00    -0.027 C 
BRANCH  12  13
ATOM     13  C   UNL     1      96.883  90.790  83.857  1.00  0.00     0.054 C 
BRANCH  13  14
ATOM     14  C   UNL     1      97.936  91.862  83.824  1.00  0.00    -0.027 C 
ATOM     15  C   UNL     1      99.229  91.582  84.044  1.00  0.00    -0.031 C 
BRANCH  15  16
ATOM     16  C   UNL     1     100.264  92.670  84.144  1.00  0.00     0.027 C 
BRANCH  16  17
ATOM     17  C   UNL     1     101.324  92.557  83.036  1.00  0.00     0.004 C 
BRANCH  17  18
ATOM     18  C   UNL     1     101.345  93.794  82.125  1.00  0.00     0.000 C 
BRANCH  18  19
ATOM     19  C   UNL     1     102.691  93.923  81.403  1.00  0.00    -0.003 C 
ATOM     20  C   UNL     1     103.849  93.538  82.319  1.00  0.00     0.004 C 
ENDBRANCH  18  19
ENDBRANCH  17  18
ENDBRANCH  16  17
ENDBRANCH  15  16
ENDBRANCH  13  14
ENDBRANCH  12  13
ENDBRANCH   1  11
TORSDOF 14
ENDMDL
