MODEL 1
REMARK VINA RESULT:    -3.974      0.000      0.000
REMARK INTER + INTRA:          -4.476
REMARK INTER:                  -4.555
REMARK INTRA:                   0.079
REMARK UNBOUND:                 0.079
REMARK SMILES CC(C)[C@@H]([NH3+])C(=O)[O-]
REMARK SMILES IDX 4 1 5 2 6 6 7 7 8 8 2 9 1 10 3 11
REMARK H PARENT 5 3 5 4 5 5
REMARK Flexibility Score: inf
ROOT
ATOM      1  C   UNL     1      23.598   5.567  15.350  1.00  0.00     0.230 C 
ENDROOT
BRANCH   1   2
ATOM      2  N   UNL     1      23.719   4.142  15.004  1.00  0.00    -0.350 N 
ATOM      3  H   UNL     1      23.408   3.548  15.808  1.00  0.00     0.345 HD
ATOM      4  H   UNL     1      23.100   3.912  14.194  1.00  0.00     0.345 HD
ATOM      5  H   UNL     1      24.710   3.901  14.768  1.00  0.00     0.345 HD
ENDBRANCH   1   2
BRANCH   1   6
ATOM      6  C   UNL     1      24.382   6.393  14.361  1.00  0.00     0.099 C 
ATOM      7  O   UNL     1      24.340   6.124  13.131  1.00  0.00    -0.544 OA
ATOM      8  O   UNL     1      25.149   7.462  14.803  1.00  0.00    -0.544 OA
ENDBRANCH   1   6
BRANCH   1   9
ATOM      9  C   UNL     1      22.109   6.027  15.403  1.00  0.00     0.047 C 
ATOM     10  C   UNL     1      21.998   7.562  15.356  1.00  0.00     0.014 C 
ATOM     11  C   UNL     1      21.394   5.510  16.663  1.00  0.00     0.014 C 
ENDBRANCH   1   9
TORSDOF 3
ENDMDL
MODEL 2
REMARK VINA RESULT:    -3.974      1.939      2.339
REMARK INTER + INTRA:          -4.476
REMARK INTER:                  -4.429
REMARK INTRA:                  -0.047
REMARK UNBOUND:                 0.079
REMARK SMILES CC(C)[C@@H]([NH3+])C(=O)[O-]
REMARK SMILES IDX 4 1 5 2 6 6 7 7 8 8 2 9 1 10 3 11
REMARK H PARENT 5 3 5 4 5 5
REMARK Flexibility Score: inf
ROOT
ATOM      1  C   UNL     1      23.672   5.928  14.577  1.00  0.00     0.230 C 
ENDROOT
BRANCH   1   2
ATOM      2  N   UNL     1      24.432   6.873  13.743  1.00  0.00    -0.350 N 
ATOM      3  H   UNL     1      25.197   6.370  13.236  1.00  0.00     0.345 HD
ATOM      4  H   UNL     1      23.810   7.298  13.020  1.00  0.00     0.345 HD
ATOM      5  H   UNL     1      24.854   7.629  14.332  1.00  0.00     0.345 HD
ENDBRANCH   1   2
BRANCH   1   6
ATOM      6  C   UNL     1      24.630   5.016  15.303  1.00  0.00     0.099 C 
ATOM      7  O   UNL     1      24.308   3.825  15.556  1.00  0.00    -0.544 OA
ATOM      8  O   UNL     1      25.878   5.485  15.689  1.00  0.00    -0.544 OA
ENDBRANCH   1   6
BRANCH   1   9
ATOM      9  C   UNL     1      22.735   6.665  15.583  1.00  0.00     0.047 C 
ATOM     10  C   UNL     1      21.401   5.915  15.754  1.00  0.00     0.014 C 
ATOM     11  C   UNL     1      22.447   8.110  15.145  1.00  0.00     0.014 C 
ENDBRANCH   1   9
TORSDOF 3
ENDMDL
MODEL 3
REMARK VINA RESULT:    -3.971      2.749      3.365
REMARK INTER + INTRA:          -4.473
REMARK INTER:                  -4.541
REMARK INTRA:                   0.069
REMARK UNBOUND:                 0.079
REMARK SMILES CC(C)[C@@H]([NH3+])C(=O)[O-]
REMARK SMILES IDX 4 1 5 2 6 6 7 7 8 8 2 9 1 10 3 11
REMARK H PARENT 5 3 5 4 5 5
REMARK Flexibility Score: inf
ROOT
ATOM      1  C   UNL     1      23.790   8.057  15.391  1.00  0.00     0.230 C 
ENDROOT
BRANCH   1   2
ATOM      2  N   UNL     1      25.036   8.460  14.719  1.00  0.00    -0.350 N 
ATOM      3  H   UNL     1      25.863   8.097  15.248  1.00  0.00     0.345 HD
ATOM      4  H   UNL     1      25.079   8.048  13.760  1.00  0.00     0.345 HD
ATOM      5  H   UNL     1      25.102   9.503  14.658  1.00  0.00     0.345 HD
ENDBRANCH   1   2
BRANCH   1   6
ATOM      6  C   UNL     1      22.849   9.235  15.453  1.00  0.00     0.099 C 
ATOM      7  O   UNL     1      21.723   9.182  14.889  1.00  0.00    -0.544 OA
ATOM      8  O   UNL     1      23.218  10.383  16.141  1.00  0.00    -0.544 OA
ENDBRANCH   1   6
BRANCH   1   9
ATOM      9  C   UNL     1      23.115   6.842  14.684  1.00  0.00     0.047 C 
ATOM     10  C   UNL     1      22.203   6.068  15.654  1.00  0.00     0.014 C 
ATOM     11  C   UNL     1      24.153   5.875  14.090  1.00  0.00     0.014 C 
ENDBRANCH   1   9
TORSDOF 3
ENDMDL
MODEL 4
REMARK VINA RESULT:    -3.634      2.176      3.044
REMARK INTER + INTRA:          -4.086
REMARK INTER:                  -4.041
REMARK INTRA:                  -0.046
REMARK UNBOUND:                 0.079
REMARK SMILES CC(C)[C@@H]([NH3+])C(=O)[O-]
REMARK SMILES IDX 4 1 5 2 6 6 7 7 8 8 2 9 1 10 3 11
REMARK H PARENT 5 3 5 4 5 5
REMARK Flexibility Score: inf
ROOT
ATOM      1  C   UNL     1      22.367   6.854  15.056  1.00  0.00     0.230 C 
ENDROOT
BRANCH   1   2
ATOM      2  N   UNL     1      21.553   6.333  16.166  1.00  0.00    -0.350 N 
ATOM      3  H   UNL     1      21.105   5.428  15.890  1.00  0.00     0.345 HD
ATOM      4  H   UNL     1      22.157   6.136  16.996  1.00  0.00     0.345 HD
ATOM      5  H   UNL     1      20.805   7.016  16.430  1.00  0.00     0.345 HD
ENDBRANCH   1   2
BRANCH   1   6
ATOM      6  C   UNL     1      22.473   8.355  15.173  1.00  0.00     0.099 C 
ATOM      7  O   UNL     1      23.568   8.894  15.485  1.00  0.00    -0.544 OA
ATOM      8  O   UNL     1      21.362   9.151  14.928  1.00  0.00    -0.544 OA
ENDBRANCH   1   6
BRANCH   1   9
ATOM      9  C   UNL     1      23.780   6.198  15.013  1.00  0.00     0.047 C 
ATOM     10  C   UNL     1      24.290   6.065  13.567  1.00  0.00     0.014 C 
ATOM     11  C   UNL     1      23.789   4.811  15.678  1.00  0.00     0.014 C 
ENDBRANCH   1   9
TORSDOF 3
ENDMDL
MODEL 5
REMARK VINA RESULT:    -3.606      2.251      3.078
REMARK INTER + INTRA:          -4.054
REMARK INTER:                  -4.051
REMARK INTRA:                  -0.003
REMARK UNBOUND:                 0.079
REMARK SMILES CC(C)[C@@H]([NH3+])C(=O)[O-]
REMARK SMILES IDX 4 1 5 2 6 6 7 7 8 8 2 9 1 10 3 11
REMARK H PARENT 5 3 5 4 5 5
REMARK Flexibility Score: inf
ROOT
ATOM      1  C   UNL     1      24.594   6.628  14.657  1.00  0.00     0.230 C 
ENDROOT
BRANCH   1   2
ATOM      2  N   UNL     1      24.406   6.144  13.281  1.00  0.00    -0.350 N 
ATOM      3  H   UNL     1      25.080   6.620  12.636  1.00  0.00     0.345 HD
ATOM      4  H   UNL     1      24.601   5.119  13.228  1.00  0.00     0.345 HD
ATOM      5  H   UNL     1      23.431   6.334  12.951  1.00  0.00     0.345 HD
ENDBRANCH   1   2
BRANCH   1   6
ATOM      6  C   UNL     1      23.447   7.533  15.033  1.00  0.00     0.099 C 
ATOM      7  O   UNL     1      23.621   8.777  15.128  1.00  0.00    -0.544 OA
ATOM      8  O   UNL     1      22.188   6.997  15.268  1.00  0.00    -0.544 OA
ENDBRANCH   1   6
BRANCH   1   9
ATOM      9  C   UNL     1      24.730   5.452  15.673  1.00  0.00     0.047 C 
ATOM     10  C   UNL     1      26.208   5.156  15.988  1.00  0.00     0.014 C 
ATOM     11  C   UNL     1      24.059   4.169  15.157  1.00  0.00     0.014 C 
ENDBRANCH   1   9
TORSDOF 3
ENDMDL
MODEL 6
REMARK VINA RESULT:    -3.572      2.158      2.864
REMARK INTER + INTRA:          -4.015
REMARK INTER:                  -4.008
REMARK INTRA:                  -0.007
REMARK UNBOUND:                 0.079
REMARK SMILES CC(C)[C@@H]([NH3+])C(=O)[O-]
REMARK SMILES IDX 4 1 5 2 6 6 7 7 8 8 2 9 1 10 3 11
REMARK H PARENT 5 3 5 4 5 5
REMARK Flexibility Score: inf
ROOT
ATOM      1  C   UNL     1      23.994   4.686  15.798  1.00  0.00     0.230 C 
ENDROOT
BRANCH   1   2
ATOM      2  N   UNL     1      24.017   3.629  14.775  1.00  0.00    -0.350 N 
ATOM      3  H   UNL     1      24.853   3.744  14.156  1.00  0.00     0.345 HD
ATOM      4  H   UNL     1      24.094   2.690  15.226  1.00  0.00     0.345 HD
ATOM      5  H   UNL     1      23.152   3.665  14.186  1.00  0.00     0.345 HD
ENDBRANCH   1   2
BRANCH   1   6
ATOM      6  C   UNL     1      25.278   4.646  16.590  1.00  0.00     0.099 C 
ATOM      7  O   UNL     1      26.360   5.027  16.070  1.00  0.00    -0.544 OA
ATOM      8  O   UNL     1      25.270   4.195  17.904  1.00  0.00    -0.544 OA
ENDBRANCH   1   6
BRANCH   1   9
ATOM      9  C   UNL     1      23.771   6.096  15.172  1.00  0.00     0.047 C 
ATOM     10  C   UNL     1      22.299   6.532  15.290  1.00  0.00     0.014 C 
ATOM     11  C   UNL     1      24.191   6.140  13.693  1.00  0.00     0.014 C 
ENDBRANCH   1   9
TORSDOF 3
ENDMDL
MODEL 7
REMARK VINA RESULT:    -3.508      2.044      2.773
REMARK INTER + INTRA:          -3.941
REMARK INTER:                  -4.023
REMARK INTRA:                   0.082
REMARK UNBOUND:                 0.079
REMARK SMILES CC(C)[C@@H]([NH3+])C(=O)[O-]
REMARK SMILES IDX 4 1 5 2 6 6 7 7 8 8 2 9 1 10 3 11
REMARK H PARENT 5 3 5 4 5 5
REMARK Flexibility Score: inf
ROOT
ATOM      1  C   UNL     1      23.283   6.848  15.370  1.00  0.00     0.230 C 
ENDROOT
BRANCH   1   2
ATOM      2  N   UNL     1      21.817   6.731  15.336  1.00  0.00    -0.350 N 
ATOM      3  H   UNL     1      21.528   6.045  14.600  1.00  0.00     0.345 HD
ATOM      4  H   UNL     1      21.461   6.371  16.250  1.00  0.00     0.345 HD
ATOM      5  H   UNL     1      21.376   7.658  15.127  1.00  0.00     0.345 HD
ENDBRANCH   1   2
BRANCH   1   6
ATOM      6  C   UNL     1      23.896   5.733  14.557  1.00  0.00     0.099 C 
ATOM      7  O   UNL     1      24.226   5.926  13.357  1.00  0.00    -0.544 OA
ATOM      8  O   UNL     1      24.105   4.488  15.135  1.00  0.00    -0.544 OA
ENDBRANCH   1   6
BRANCH   1   9
ATOM      9  C   UNL     1      23.768   8.239  14.858  1.00  0.00     0.047 C 
ATOM     10  C   UNL     1      25.280   8.421  15.084  1.00  0.00     0.014 C 
ATOM     11  C   UNL     1      23.015   9.394  15.540  1.00  0.00     0.014 C 
ENDBRANCH   1   9
TORSDOF 3
ENDMDL
MODEL 8
REMARK VINA RESULT:    -3.500      2.367      2.979
REMARK INTER + INTRA:          -3.932
REMARK INTER:                  -3.914
REMARK INTRA:                  -0.018
REMARK UNBOUND:                 0.079
REMARK SMILES CC(C)[C@@H]([NH3+])C(=O)[O-]
REMARK SMILES IDX 4 1 5 2 6 6 7 7 8 8 2 9 1 10 3 11
REMARK H PARENT 5 3 5 4 5 5
REMARK Flexibility Score: inf
ROOT
ATOM      1  C   UNL     1      23.178   7.159  14.619  1.00  0.00     0.230 C 
ENDROOT
BRANCH   1   2
ATOM      2  N   UNL     1      24.624   7.260  14.364  1.00  0.00    -0.350 N 
ATOM      3  H   UNL     1      25.047   7.997  14.975  1.00  0.00     0.345 HD
ATOM      4  H   UNL     1      25.096   6.357  14.597  1.00  0.00     0.345 HD
ATOM      5  H   UNL     1      24.807   7.504  13.362  1.00  0.00     0.345 HD
ENDBRANCH   1   2
BRANCH   1   6
ATOM      6  C   UNL     1      22.879   5.849  15.303  1.00  0.00     0.099 C 
ATOM      7  O   UNL     1      21.732   5.623  15.774  1.00  0.00    -0.544 OA
ATOM      8  O   UNL     1      23.867   4.879  15.409  1.00  0.00    -0.544 OA
ENDBRANCH   1   6
BRANCH   1   9
ATOM      9  C   UNL     1      22.652   8.360  15.463  1.00  0.00     0.047 C 
ATOM     10  C   UNL     1      21.335   8.911  14.888  1.00  0.00     0.014 C 
ATOM     11  C   UNL     1      23.682   9.500  15.542  1.00  0.00     0.014 C 
ENDBRANCH   1   9
TORSDOF 3
ENDMDL
MODEL 9
REMARK VINA RESULT:    -3.283      1.679      2.600
REMARK INTER + INTRA:          -3.684
REMARK INTER:                  -3.921
REMARK INTRA:                   0.238
REMARK UNBOUND:                 0.079
REMARK SMILES CC(C)[C@@H]([NH3+])C(=O)[O-]
REMARK SMILES IDX 4 1 5 2 6 6 7 7 8 8 2 9 1 10 3 11
REMARK H PARENT 5 3 5 4 5 5
REMARK Flexibility Score: inf
ROOT
ATOM      1  C   UNL     1      23.361   5.182  15.113  1.00  0.00     0.230 C 
ENDROOT
BRANCH   1   2
ATOM      2  N   UNL     1      22.300   5.772  15.945  1.00  0.00    -0.350 N 
ATOM      3  H   UNL     1      22.055   5.124  16.729  1.00  0.00     0.345 HD
ATOM      4  H   UNL     1      22.633   6.665  16.375  1.00  0.00     0.345 HD
ATOM      5  H   UNL     1      21.441   5.955  15.375  1.00  0.00     0.345 HD
ENDBRANCH   1   2
BRANCH   1   6
ATOM      6  C   UNL     1      24.016   6.264  14.291  1.00  0.00     0.099 C 
ATOM      7  O   UNL     1      24.401   6.027  13.115  1.00  0.00    -0.544 OA
ATOM      8  O   UNL     1      24.190   7.534  14.826  1.00  0.00    -0.544 OA
ENDBRANCH   1   6
BRANCH   1   9
ATOM      9  C   UNL     1      24.416   4.420  15.971  1.00  0.00     0.047 C 
ATOM     10  C   UNL     1      23.988   4.348  17.448  1.00  0.00     0.014 C 
ATOM     11  C   UNL     1      25.806   5.072  15.882  1.00  0.00     0.014 C 
ENDBRANCH   1   9
TORSDOF 3
ENDMDL
