MODEL 1
REMARK VINA RESULT:    -7.356      0.000      0.000
REMARK INTER + INTRA:          -9.439
REMARK INTER:                  -9.076
REMARK INTRA:                  -0.363
REMARK UNBOUND:                -0.363
REMARK SMILES O=c1c(O)c(-c2cc(O)c(O)c(O)c2)oc2cc(O)cc(O)c12
REMARK SMILES IDX 5 1 3 2 2 3 1 4 23 5 21 6 20 7 18 8 17 9 16 10 15 11 6 12
REMARK SMILES IDX 7 13 8 14 14 15 10 16 12 17 9 18 11 20 13 22 4 24 22 26
REMARK SMILES IDX 19 28
REMARK H PARENT 9 19 11 21 13 23 4 25 22 27 19 29
REMARK Flexibility Score: inf
ROOT
ATOM      1  C   UNL     1      37.129  46.362 162.982  1.00  0.00     0.180 A 
ATOM      2  C   UNL     1      36.331  45.379 163.600  1.00  0.00     0.208 A 
ATOM      3  C   UNL     1      36.409  45.220 164.992  1.00  0.00     0.238 A 
ATOM      4  O   UNL     1      35.708  44.336 165.556  1.00  0.00    -0.285 OA
ATOM      5  C   UNL     1      37.264  46.053 165.742  1.00  0.00     0.111 A 
ATOM      6  C   UNL     1      37.399  45.960 167.150  1.00  0.00     0.134 A 
ATOM      7  C   UNL     1      38.264  46.834 167.825  1.00  0.00     0.093 A 
ATOM      8  C   UNL     1      38.996  47.797 167.122  1.00  0.00     0.123 A 
ATOM      9  C   UNL     1      38.867  47.891 165.734  1.00  0.00     0.094 A 
ATOM     10  C   UNL     1      38.011  47.029 165.043  1.00  0.00     0.146 A 
ATOM     11  O   UNL     1      37.912  47.139 163.723  1.00  0.00    -0.452 OA
ENDROOT
BRANCH   1  12
ATOM     12  C   UNL     1      37.115  46.577 161.517  1.00  0.00     0.029 A 
ATOM     13  C   UNL     1      38.031  45.929 160.675  1.00  0.00     0.062 A 
ATOM     14  C   UNL     1      38.017  46.164 159.294  1.00  0.00     0.162 A 
ATOM     15  C   UNL     1      36.209  47.492 160.963  1.00  0.00     0.062 A 
ATOM     16  C   UNL     1      37.094  47.061 158.738  1.00  0.00     0.200 A 
ATOM     17  C   UNL     1      36.183  47.737 159.585  1.00  0.00     0.162 A 
BRANCH  14  18
ATOM     18  O   UNL     1      38.925  45.509 158.463  1.00  0.00    -0.504 OA
ATOM     19  H   UNL     1      39.280  44.587 158.686  1.00  0.00     0.293 HD
ENDBRANCH  14  18
BRANCH  16  20
ATOM     20  O   UNL     1      37.118  47.254 157.355  1.00  0.00    -0.502 OA
ATOM     21  H   UNL     1      37.962  47.299 156.804  1.00  0.00     0.293 HD
ENDBRANCH  16  20
BRANCH  17  22
ATOM     22  O   UNL     1      35.243  48.653 159.105  1.00  0.00    -0.504 OA
ATOM     23  H   UNL     1      34.264  48.638 159.349  1.00  0.00     0.293 HD
ENDBRANCH  17  22
ENDBRANCH   1  12
BRANCH   2  24
ATOM     24  O   UNL     1      35.456  44.599 162.841  1.00  0.00    -0.502 OA
ATOM     25  H   UNL     1      34.456  44.761 162.826  1.00  0.00     0.293 HD
ENDBRANCH   2  24
BRANCH   6  26
ATOM     26  O   UNL     1      36.681  45.010 167.877  1.00  0.00    -0.507 OA
ATOM     27  H   UNL     1      37.147  44.285 168.412  1.00  0.00     0.293 HD
ENDBRANCH   6  26
BRANCH   8  28
ATOM     28  O   UNL     1      39.856  48.665 167.792  1.00  0.00    -0.508 OA
ATOM     29  H   UNL     1      39.505  49.363 168.437  1.00  0.00     0.293 HD
ENDBRANCH   8  28
TORSDOF 7
ENDMDL
MODEL 2
REMARK VINA RESULT:    -7.324      0.083      1.761
REMARK INTER + INTRA:          -9.400
REMARK INTER:                  -9.042
REMARK INTRA:                  -0.358
REMARK UNBOUND:                -0.363
REMARK SMILES O=c1c(O)c(-c2cc(O)c(O)c(O)c2)oc2cc(O)cc(O)c12
REMARK SMILES IDX 5 1 3 2 2 3 1 4 23 5 21 6 20 7 18 8 17 9 16 10 15 11 6 12
REMARK SMILES IDX 7 13 8 14 14 15 10 16 12 17 9 18 11 20 13 22 4 24 22 26
REMARK SMILES IDX 19 28
REMARK H PARENT 9 19 11 21 13 23 4 25 22 27 19 29
REMARK Flexibility Score: inf
ROOT
ATOM      1  C   UNL     1      37.136  46.415 162.955  1.00  0.00     0.180 A 
ATOM      2  C   UNL     1      36.352  45.401 163.538  1.00  0.00     0.208 A 
ATOM      3  C   UNL     1      36.422  45.204 164.926  1.00  0.00     0.238 A 
ATOM      4  O   UNL     1      35.733  44.291 165.458  1.00  0.00    -0.285 OA
ATOM      5  C   UNL     1      37.253  46.032 165.707  1.00  0.00     0.111 A 
ATOM      6  C   UNL     1      37.377  45.902 167.112  1.00  0.00     0.134 A 
ATOM      7  C   UNL     1      38.220  46.773 167.819  1.00  0.00     0.093 A 
ATOM      8  C   UNL     1      38.939  47.769 167.150  1.00  0.00     0.123 A 
ATOM      9  C   UNL     1      38.820  47.900 165.765  1.00  0.00     0.094 A 
ATOM     10  C   UNL     1      37.988  47.042 165.042  1.00  0.00     0.146 A 
ATOM     11  O   UNL     1      37.898  47.186 163.725  1.00  0.00    -0.452 OA
ENDROOT
BRANCH   1  12
ATOM     12  C   UNL     1      37.132  46.672 161.496  1.00  0.00     0.029 A 
ATOM     13  C   UNL     1      36.194  47.535 160.909  1.00  0.00     0.062 A 
ATOM     14  C   UNL     1      36.192  47.746 159.524  1.00  0.00     0.162 A 
ATOM     15  C   UNL     1      38.043  45.994 160.675  1.00  0.00     0.062 A 
ATOM     16  C   UNL     1      37.120  47.086 158.706  1.00  0.00     0.200 A 
ATOM     17  C   UNL     1      38.053  46.195 159.289  1.00  0.00     0.162 A 
BRANCH  14  18
ATOM     18  O   UNL     1      35.263  48.612 158.950  1.00  0.00    -0.504 OA
ATOM     19  H   UNL     1      34.276  48.554 159.169  1.00  0.00     0.293 HD
ENDBRANCH  14  18
BRANCH  16  20
ATOM     20  O   UNL     1      37.079  47.337 157.333  1.00  0.00    -0.502 OA
ATOM     21  H   UNL     1      37.897  47.481 156.759  1.00  0.00     0.293 HD
ENDBRANCH  16  20
BRANCH  17  22
ATOM     22  O   UNL     1      38.998  45.493 158.537  1.00  0.00    -0.504 OA
ATOM     23  H   UNL     1      39.113  45.594 157.539  1.00  0.00     0.293 HD
ENDBRANCH  17  22
ENDBRANCH   1  12
BRANCH   2  24
ATOM     24  O   UNL     1      35.500  44.625 162.749  1.00  0.00    -0.502 OA
ATOM     25  H   UNL     1      35.471  44.705 161.740  1.00  0.00     0.293 HD
ENDBRANCH   2  24
BRANCH   6  26
ATOM     26  O   UNL     1      36.671  44.918 167.806  1.00  0.00    -0.507 OA
ATOM     27  H   UNL     1      35.763  45.105 168.217  1.00  0.00     0.293 HD
ENDBRANCH   6  26
BRANCH   8  28
ATOM     28  O   UNL     1      39.775  48.634 167.853  1.00  0.00    -0.508 OA
ATOM     29  H   UNL     1      40.760  48.713 167.631  1.00  0.00     0.293 HD
ENDBRANCH   8  28
TORSDOF 7
ENDMDL
MODEL 3
REMARK VINA RESULT:    -7.307      1.715      2.974
REMARK INTER + INTRA:          -9.379
REMARK INTER:                  -9.036
REMARK INTRA:                  -0.343
REMARK UNBOUND:                -0.363
REMARK SMILES O=c1c(O)c(-c2cc(O)c(O)c(O)c2)oc2cc(O)cc(O)c12
REMARK SMILES IDX 5 1 3 2 2 3 1 4 23 5 21 6 20 7 18 8 17 9 16 10 15 11 6 12
REMARK SMILES IDX 7 13 8 14 14 15 10 16 12 17 9 18 11 20 13 22 4 24 22 26
REMARK SMILES IDX 19 28
REMARK H PARENT 9 19 11 21 13 23 4 25 22 27 19 29
REMARK Flexibility Score: inf
ROOT
ATOM      1  C   UNL     1      36.868  45.384 161.067  1.00  0.00     0.180 A 
ATOM      2  C   UNL     1      35.668  44.794 161.511  1.00  0.00     0.208 A 
ATOM      3  C   UNL     1      35.351  44.848 162.877  1.00  0.00     0.238 A 
ATOM      4  O   UNL     1      34.285  44.314 163.288  1.00  0.00    -0.285 OA
ATOM      5  C   UNL     1      36.223  45.505 163.769  1.00  0.00     0.111 A 
ATOM      6  C   UNL     1      35.975  45.608 165.160  1.00  0.00     0.134 A 
ATOM      7  C   UNL     1      36.887  46.286 165.981  1.00  0.00     0.093 A 
ATOM      8  C   UNL     1      38.041  46.863 165.440  1.00  0.00     0.123 A 
ATOM      9  C   UNL     1      38.290  46.764 164.069  1.00  0.00     0.094 A 
ATOM     10  C   UNL     1      37.394  46.090 163.235  1.00  0.00     0.146 A 
ATOM     11  O   UNL     1      37.658  46.007 161.936  1.00  0.00    -0.452 OA
ENDROOT
BRANCH   1  12
ATOM     12  C   UNL     1      37.280  45.351 159.645  1.00  0.00     0.029 A 
ATOM     13  C   UNL     1      37.001  46.419 158.779  1.00  0.00     0.062 A 
ATOM     14  C   UNL     1      37.379  46.359 157.431  1.00  0.00     0.162 A 
ATOM     15  C   UNL     1      37.911  44.208 159.137  1.00  0.00     0.062 A 
ATOM     16  C   UNL     1      38.032  45.224 156.930  1.00  0.00     0.200 A 
ATOM     17  C   UNL     1      38.295  44.133 157.793  1.00  0.00     0.162 A 
BRANCH  14  18
ATOM     18  O   UNL     1      37.106  47.427 156.579  1.00  0.00    -0.504 OA
ATOM     19  H   UNL     1      37.620  48.298 156.637  1.00  0.00     0.293 HD
ENDBRANCH  14  18
BRANCH  16  20
ATOM     20  O   UNL     1      38.394  45.218 155.580  1.00  0.00    -0.502 OA
ATOM     21  H   UNL     1      37.909  44.693 154.867  1.00  0.00     0.293 HD
ENDBRANCH  16  20
BRANCH  17  22
ATOM     22  O   UNL     1      38.930  42.966 157.361  1.00  0.00    -0.504 OA
ATOM     23  H   UNL     1      39.597  42.932 156.605  1.00  0.00     0.293 HD
ENDBRANCH  17  22
ENDBRANCH   1  12
BRANCH   2  24
ATOM     24  O   UNL     1      34.797  44.192 160.599  1.00  0.00    -0.502 OA
ATOM     25  H   UNL     1      33.929  43.755 160.884  1.00  0.00     0.293 HD
ENDBRANCH   2  24
BRANCH   6  26
ATOM     26  O   UNL     1      34.832  45.043 165.729  1.00  0.00    -0.507 OA
ATOM     27  H   UNL     1      34.176  44.500 165.178  1.00  0.00     0.293 HD
ENDBRANCH   6  26
BRANCH   8  28
ATOM     28  O   UNL     1      38.948  47.538 166.255  1.00  0.00    -0.508 OA
ATOM     29  H   UNL     1      39.936  47.317 166.241  1.00  0.00     0.293 HD
ENDBRANCH   8  28
TORSDOF 7
ENDMDL
MODEL 4
REMARK VINA RESULT:    -7.283      1.211      7.133
REMARK INTER + INTRA:          -9.349
REMARK INTER:                  -9.011
REMARK INTRA:                  -0.337
REMARK UNBOUND:                -0.363
REMARK SMILES O=c1c(O)c(-c2cc(O)c(O)c(O)c2)oc2cc(O)cc(O)c12
REMARK SMILES IDX 5 1 3 2 2 3 1 4 23 5 21 6 20 7 18 8 17 9 16 10 15 11 6 12
REMARK SMILES IDX 7 13 8 14 14 15 10 16 12 17 9 18 11 20 13 22 4 24 22 26
REMARK SMILES IDX 19 28
REMARK H PARENT 9 19 11 21 13 23 4 25 22 27 19 29
REMARK Flexibility Score: inf
ROOT
ATOM      1  C   UNL     1      37.243  47.174 163.567  1.00  0.00     0.180 A 
ATOM      2  C   UNL     1      36.231  48.061 163.148  1.00  0.00     0.208 A 
ATOM      3  C   UNL     1      35.948  48.168 161.778  1.00  0.00     0.238 A 
ATOM      4  O   UNL     1      35.052  48.967 161.390  1.00  0.00    -0.285 OA
ATOM      5  C   UNL     1      36.662  47.377 160.855  1.00  0.00     0.111 A 
ATOM      6  C   UNL     1      36.435  47.421 159.457  1.00  0.00     0.134 A 
ATOM      7  C   UNL     1      37.182  46.594 158.604  1.00  0.00     0.093 A 
ATOM      8  C   UNL     1      38.149  45.725 159.121  1.00  0.00     0.123 A 
ATOM      9  C   UNL     1      38.377  45.679 160.498  1.00  0.00     0.094 A 
ATOM     10  C   UNL     1      37.644  46.495 161.364  1.00  0.00     0.146 A 
ATOM     11  O   UNL     1      37.885  46.434 162.669  1.00  0.00    -0.452 OA
ENDROOT
BRANCH   1  12
ATOM     12  C   UNL     1      37.612  47.020 164.992  1.00  0.00     0.029 A 
ATOM     13  C   UNL     1      37.082  45.984 165.777  1.00  0.00     0.062 A 
ATOM     14  C   UNL     1      37.426  45.870 167.130  1.00  0.00     0.162 A 
ATOM     15  C   UNL     1      38.461  47.961 165.590  1.00  0.00     0.062 A 
ATOM     16  C   UNL     1      38.295  46.798 167.720  1.00  0.00     0.200 A 
ATOM     17  C   UNL     1      38.814  47.860 166.941  1.00  0.00     0.162 A 
BRANCH  14  18
ATOM     18  O   UNL     1      36.902  44.832 167.900  1.00  0.00    -0.504 OA
ATOM     19  H   UNL     1      37.115  43.862 167.699  1.00  0.00     0.293 HD
ENDBRANCH  14  18
BRANCH  16  20
ATOM     20  O   UNL     1      38.611  46.634 169.071  1.00  0.00    -0.502 OA
ATOM     21  H   UNL     1      39.517  46.346 169.409  1.00  0.00     0.293 HD
ENDBRANCH  16  20
BRANCH  17  22
ATOM     22  O   UNL     1      39.675  48.828 167.463  1.00  0.00    -0.504 OA
ATOM     23  H   UNL     1      39.670  49.128 168.427  1.00  0.00     0.293 HD
ENDBRANCH  17  22
ENDBRANCH   1  12
BRANCH   2  24
ATOM     24  O   UNL     1      35.505  48.798 164.087  1.00  0.00    -0.502 OA
ATOM     25  H   UNL     1      34.695  49.351 163.834  1.00  0.00     0.293 HD
ENDBRANCH   2  24
BRANCH   6  26
ATOM     26  O   UNL     1      35.477  48.277 158.913  1.00  0.00    -0.507 OA
ATOM     27  H   UNL     1      35.158  48.180 157.955  1.00  0.00     0.293 HD
ENDBRANCH   6  26
BRANCH   8  28
ATOM     28  O   UNL     1      38.890  44.904 158.275  1.00  0.00    -0.508 OA
ATOM     29  H   UNL     1      38.662  44.813 157.292  1.00  0.00     0.293 HD
ENDBRANCH   8  28
TORSDOF 7
ENDMDL
MODEL 5
REMARK VINA RESULT:    -7.271      1.209      7.155
REMARK INTER + INTRA:          -9.334
REMARK INTER:                  -8.982
REMARK INTRA:                  -0.352
REMARK UNBOUND:                -0.363
REMARK SMILES O=c1c(O)c(-c2cc(O)c(O)c(O)c2)oc2cc(O)cc(O)c12
REMARK SMILES IDX 5 1 3 2 2 3 1 4 23 5 21 6 20 7 18 8 17 9 16 10 15 11 6 12
REMARK SMILES IDX 7 13 8 14 14 15 10 16 12 17 9 18 11 20 13 22 4 24 22 26
REMARK SMILES IDX 19 28
REMARK H PARENT 9 19 11 21 13 23 4 25 22 27 19 29
REMARK Flexibility Score: inf
ROOT
ATOM      1  C   UNL     1      37.273  47.249 163.505  1.00  0.00     0.180 A 
ATOM      2  C   UNL     1      36.285  48.156 163.072  1.00  0.00     0.208 A 
ATOM      3  C   UNL     1      35.998  48.242 161.701  1.00  0.00     0.238 A 
ATOM      4  O   UNL     1      35.124  49.058 161.300  1.00  0.00    -0.285 OA
ATOM      5  C   UNL     1      36.684  47.410 160.792  1.00  0.00     0.111 A 
ATOM      6  C   UNL     1      36.451  47.432 159.395  1.00  0.00     0.134 A 
ATOM      7  C   UNL     1      37.168  46.565 158.556  1.00  0.00     0.093 A 
ATOM      8  C   UNL     1      38.112  45.680 159.087  1.00  0.00     0.123 A 
ATOM      9  C   UNL     1      38.346  45.656 160.464  1.00  0.00     0.094 A 
ATOM     10  C   UNL     1      37.642  46.512 161.315  1.00  0.00     0.146 A 
ATOM     11  O   UNL     1      37.888  46.471 162.620  1.00  0.00    -0.452 OA
ENDROOT
BRANCH   1  12
ATOM     12  C   UNL     1      37.645  47.115 164.932  1.00  0.00     0.029 A 
ATOM     13  C   UNL     1      38.538  48.009 165.541  1.00  0.00     0.062 A 
ATOM     14  C   UNL     1      38.896  47.851 166.886  1.00  0.00     0.162 A 
ATOM     15  C   UNL     1      37.143  46.039 165.677  1.00  0.00     0.062 A 
ATOM     16  C   UNL     1      38.374  46.788 167.637  1.00  0.00     0.200 A 
ATOM     17  C   UNL     1      37.491  45.868 167.022  1.00  0.00     0.162 A 
BRANCH  14  18
ATOM     18  O   UNL     1      39.777  48.749 167.487  1.00  0.00    -0.504 OA
ATOM     19  H   UNL     1      40.780  48.669 167.368  1.00  0.00     0.293 HD
ENDBRANCH  14  18
BRANCH  16  20
ATOM     20  O   UNL     1      38.757  46.680 168.976  1.00  0.00    -0.502 OA
ATOM     21  H   UNL     1      39.220  47.413 169.493  1.00  0.00     0.293 HD
ENDBRANCH  16  20
BRANCH  17  22
ATOM     22  O   UNL     1      36.941  44.779 167.703  1.00  0.00    -0.504 OA
ATOM     23  H   UNL     1      35.950  44.614 167.799  1.00  0.00     0.293 HD
ENDBRANCH  17  22
ENDBRANCH   1  12
BRANCH   2  24
ATOM     24  O   UNL     1      35.586  48.934 163.998  1.00  0.00    -0.502 OA
ATOM     25  H   UNL     1      35.813  48.939 164.985  1.00  0.00     0.293 HD
ENDBRANCH   2  24
BRANCH   6  26
ATOM     26  O   UNL     1      35.514  48.304 158.837  1.00  0.00    -0.507 OA
ATOM     27  H   UNL     1      34.641  47.968 158.445  1.00  0.00     0.293 HD
ENDBRANCH   6  26
BRANCH   8  28
ATOM     28  O   UNL     1      38.825  44.819 158.255  1.00  0.00    -0.508 OA
ATOM     29  H   UNL     1      39.033  45.064 157.294  1.00  0.00     0.293 HD
ENDBRANCH   8  28
TORSDOF 7
ENDMDL
MODEL 6
REMARK VINA RESULT:    -7.255      1.620      7.393
REMARK INTER + INTRA:          -9.315
REMARK INTER:                  -8.956
REMARK INTRA:                  -0.359
REMARK UNBOUND:                -0.363
REMARK SMILES O=c1c(O)c(-c2cc(O)c(O)c(O)c2)oc2cc(O)cc(O)c12
REMARK SMILES IDX 5 1 3 2 2 3 1 4 23 5 21 6 20 7 18 8 17 9 16 10 15 11 6 12
REMARK SMILES IDX 7 13 8 14 14 15 10 16 12 17 9 18 11 20 13 22 4 24 22 26
REMARK SMILES IDX 19 28
REMARK H PARENT 9 19 11 21 13 23 4 25 22 27 19 29
REMARK Flexibility Score: inf
ROOT
ATOM      1  C   UNL     1      37.217  46.279 161.579  1.00  0.00     0.180 A 
ATOM      2  C   UNL     1      36.733  47.449 160.963  1.00  0.00     0.208 A 
ATOM      3  C   UNL     1      36.813  47.564 159.567  1.00  0.00     0.238 A 
ATOM      4  O   UNL     1      36.394  48.612 159.005  1.00  0.00    -0.285 OA
ATOM      5  C   UNL     1      37.355  46.504 158.811  1.00  0.00     0.111 A 
ATOM      6  C   UNL     1      37.468  46.537 157.399  1.00  0.00     0.134 A 
ATOM      7  C   UNL     1      38.010  45.437 156.718  1.00  0.00     0.093 A 
ATOM      8  C   UNL     1      38.439  44.306 157.420  1.00  0.00     0.123 A 
ATOM      9  C   UNL     1      38.330  44.268 158.812  1.00  0.00     0.094 A 
ATOM     10  C   UNL     1      37.795  45.355 159.509  1.00  0.00     0.146 A 
ATOM     11  O   UNL     1      37.707  45.295 160.833  1.00  0.00    -0.452 OA
ENDROOT
BRANCH   1  12
ATOM     12  C   UNL     1      37.184  46.093 163.048  1.00  0.00     0.029 A 
ATOM     13  C   UNL     1      38.293  46.404 163.849  1.00  0.00     0.062 A 
ATOM     14  C   UNL     1      38.249  46.198 165.234  1.00  0.00     0.162 A 
ATOM     15  C   UNL     1      36.044  45.539 163.647  1.00  0.00     0.062 A 
ATOM     16  C   UNL     1      37.100  45.667 165.835  1.00  0.00     0.200 A 
ATOM     17  C   UNL     1      35.985  45.328 165.030  1.00  0.00     0.162 A 
BRANCH  14  18
ATOM     18  O   UNL     1      39.353  46.518 166.024  1.00  0.00    -0.504 OA
ATOM     19  H   UNL     1      39.276  47.151 166.812  1.00  0.00     0.293 HD
ENDBRANCH  14  18
BRANCH  16  20
ATOM     20  O   UNL     1      37.106  45.488 167.220  1.00  0.00    -0.502 OA
ATOM     21  H   UNL     1      36.734  44.675 167.688  1.00  0.00     0.293 HD
ENDBRANCH  16  20
BRANCH  17  22
ATOM     22  O   UNL     1      34.812  44.784 165.556  1.00  0.00    -0.504 OA
ATOM     23  H   UNL     1      34.773  43.917 166.072  1.00  0.00     0.293 HD
ENDBRANCH  17  22
ENDBRANCH   1  12
BRANCH   2  24
ATOM     24  O   UNL     1      36.157  48.465 161.730  1.00  0.00    -0.502 OA
ATOM     25  H   UNL     1      36.711  49.153 162.225  1.00  0.00     0.293 HD
ENDBRANCH   2  24
BRANCH   6  26
ATOM     26  O   UNL     1      37.047  47.652 156.672  1.00  0.00    -0.507 OA
ATOM     27  H   UNL     1      36.069  47.912 156.615  1.00  0.00     0.293 HD
ENDBRANCH   6  26
BRANCH   8  28
ATOM     28  O   UNL     1      38.977  43.212 156.745  1.00  0.00    -0.508 OA
ATOM     29  H   UNL     1      38.447  42.713 156.040  1.00  0.00     0.293 HD
ENDBRANCH   8  28
TORSDOF 7
ENDMDL
MODEL 7
REMARK VINA RESULT:    -7.254      1.611      7.489
REMARK INTER + INTRA:          -9.313
REMARK INTER:                  -8.961
REMARK INTRA:                  -0.353
REMARK UNBOUND:                -0.363
REMARK SMILES O=c1c(O)c(-c2cc(O)c(O)c(O)c2)oc2cc(O)cc(O)c12
REMARK SMILES IDX 5 1 3 2 2 3 1 4 23 5 21 6 20 7 18 8 17 9 16 10 15 11 6 12
REMARK SMILES IDX 7 13 8 14 14 15 10 16 12 17 9 18 11 20 13 22 4 24 22 26
REMARK SMILES IDX 19 28
REMARK H PARENT 9 19 11 21 13 23 4 25 22 27 19 29
REMARK Flexibility Score: inf
ROOT
ATOM      1  C   UNL     1      37.216  46.272 161.573  1.00  0.00     0.180 A 
ATOM      2  C   UNL     1      36.719  47.439 160.961  1.00  0.00     0.208 A 
ATOM      3  C   UNL     1      36.790  47.556 159.565  1.00  0.00     0.238 A 
ATOM      4  O   UNL     1      36.359  48.602 159.007  1.00  0.00    -0.285 OA
ATOM      5  C   UNL     1      37.335  46.501 158.804  1.00  0.00     0.111 A 
ATOM      6  C   UNL     1      37.439  46.537 157.392  1.00  0.00     0.134 A 
ATOM      7  C   UNL     1      37.984  45.442 156.706  1.00  0.00     0.093 A 
ATOM      8  C   UNL     1      38.427  44.313 157.404  1.00  0.00     0.123 A 
ATOM      9  C   UNL     1      38.327  44.273 158.796  1.00  0.00     0.094 A 
ATOM     10  C   UNL     1      37.787  45.355 159.498  1.00  0.00     0.146 A 
ATOM     11  O   UNL     1      37.709  45.292 160.822  1.00  0.00    -0.452 OA
ENDROOT
BRANCH   1  12
ATOM     12  C   UNL     1      37.193  46.083 163.041  1.00  0.00     0.029 A 
ATOM     13  C   UNL     1      36.058  45.583 163.697  1.00  0.00     0.062 A 
ATOM     14  C   UNL     1      36.049  45.435 165.090  1.00  0.00     0.162 A 
ATOM     15  C   UNL     1      38.306  46.467 163.803  1.00  0.00     0.062 A 
ATOM     16  C   UNL     1      37.172  45.796 165.847  1.00  0.00     0.200 A 
ATOM     17  C   UNL     1      38.312  46.324 165.195  1.00  0.00     0.162 A 
BRANCH  14  18
ATOM     18  O   UNL     1      34.920  44.928 165.732  1.00  0.00    -0.504 OA
ATOM     19  H   UNL     1      34.780  43.932 165.855  1.00  0.00     0.293 HD
ENDBRANCH  14  18
BRANCH  16  20
ATOM     20  O   UNL     1      37.113  45.621 167.232  1.00  0.00    -0.502 OA
ATOM     21  H   UNL     1      36.805  44.772 167.683  1.00  0.00     0.293 HD
ENDBRANCH  16  20
BRANCH  17  22
ATOM     22  O   UNL     1      39.461  46.717 165.885  1.00  0.00    -0.504 OA
ATOM     23  H   UNL     1      40.153  47.352 165.515  1.00  0.00     0.293 HD
ENDBRANCH  17  22
ENDBRANCH   1  12
BRANCH   2  24
ATOM     24  O   UNL     1      36.140  48.450 161.734  1.00  0.00    -0.502 OA
ATOM     25  H   UNL     1      35.196  48.779 161.577  1.00  0.00     0.293 HD
ENDBRANCH   2  24
BRANCH   6  26
ATOM     26  O   UNL     1      37.005  47.649 156.669  1.00  0.00    -0.507 OA
ATOM     27  H   UNL     1      37.659  48.307 156.260  1.00  0.00     0.293 HD
ENDBRANCH   6  26
BRANCH   8  28
ATOM     28  O   UNL     1      38.968  43.224 156.723  1.00  0.00    -0.508 OA
ATOM     29  H   UNL     1      38.763  42.272 157.001  1.00  0.00     0.293 HD
ENDBRANCH   8  28
TORSDOF 7
ENDMDL
MODEL 8
REMARK VINA RESULT:    -7.009      3.032      5.164
REMARK INTER + INTRA:          -9.011
REMARK INTER:                  -8.871
REMARK INTRA:                  -0.140
REMARK UNBOUND:                -0.363
REMARK SMILES O=c1c(O)c(-c2cc(O)c(O)c(O)c2)oc2cc(O)cc(O)c12
REMARK SMILES IDX 5 1 3 2 2 3 1 4 23 5 21 6 20 7 18 8 17 9 16 10 15 11 6 12
REMARK SMILES IDX 7 13 8 14 14 15 10 16 12 17 9 18 11 20 13 22 4 24 22 26
REMARK SMILES IDX 19 28
REMARK H PARENT 9 19 11 21 13 23 4 25 22 27 19 29
REMARK Flexibility Score: inf
ROOT
ATOM      1  C   UNL     1      37.209  47.300 159.519  1.00  0.00     0.180 A 
ATOM      2  C   UNL     1      37.228  48.708 159.490  1.00  0.00     0.208 A 
ATOM      3  C   UNL     1      36.735  49.416 160.596  1.00  0.00     0.238 A 
ATOM      4  O   UNL     1      36.736  50.677 160.577  1.00  0.00    -0.285 OA
ATOM      5  C   UNL     1      36.250  48.710 161.716  1.00  0.00     0.111 A 
ATOM      6  C   UNL     1      35.739  49.347 162.873  1.00  0.00     0.134 A 
ATOM      7  C   UNL     1      35.285  48.573 163.951  1.00  0.00     0.093 A 
ATOM      8  C   UNL     1      35.332  47.176 163.894  1.00  0.00     0.123 A 
ATOM      9  C   UNL     1      35.834  46.543 162.755  1.00  0.00     0.094 A 
ATOM     10  C   UNL     1      36.290  47.297 161.670  1.00  0.00     0.146 A 
ATOM     11  O   UNL     1      36.758  46.668 160.598  1.00  0.00    -0.452 OA
ENDROOT
BRANCH   1  12
ATOM     12  C   UNL     1      37.694  46.484 158.383  1.00  0.00     0.029 A 
ATOM     13  C   UNL     1      37.153  46.627 157.096  1.00  0.00     0.062 A 
ATOM     14  C   UNL     1      37.610  45.829 156.040  1.00  0.00     0.162 A 
ATOM     15  C   UNL     1      38.673  45.505 158.606  1.00  0.00     0.062 A 
ATOM     16  C   UNL     1      38.606  44.867 156.259  1.00  0.00     0.200 A 
ATOM     17  C   UNL     1      39.140  44.700 157.560  1.00  0.00     0.162 A 
BRANCH  14  18
ATOM     18  O   UNL     1      37.074  45.984 154.762  1.00  0.00    -0.504 OA
ATOM     19  H   UNL     1      37.659  46.190 153.962  1.00  0.00     0.293 HD
ENDBRANCH  14  18
BRANCH  16  20
ATOM     20  O   UNL     1      39.032  44.102 155.170  1.00  0.00    -0.502 OA
ATOM     21  H   UNL     1      39.892  44.262 154.668  1.00  0.00     0.293 HD
ENDBRANCH  16  20
BRANCH  17  22
ATOM     22  O   UNL     1      40.125  43.755 157.856  1.00  0.00    -0.504 OA
ATOM     23  H   UNL     1      40.756  43.824 158.640  1.00  0.00     0.293 HD
ENDBRANCH  17  22
ENDBRANCH   1  12
BRANCH   2  24
ATOM     24  O   UNL     1      37.758  49.385 158.388  1.00  0.00    -0.502 OA
ATOM     25  H   UNL     1      37.334  49.343 157.469  1.00  0.00     0.293 HD
ENDBRANCH   2  24
BRANCH   6  26
ATOM     26  O   UNL     1      35.682  50.739 162.959  1.00  0.00    -0.507 OA
ATOM     27  H   UNL     1      35.695  51.219 163.852  1.00  0.00     0.293 HD
ENDBRANCH   6  26
BRANCH   8  28
ATOM     28  O   UNL     1      34.881  46.406 164.965  1.00  0.00    -0.508 OA
ATOM     29  H   UNL     1      33.984  46.582 165.402  1.00  0.00     0.293 HD
ENDBRANCH   8  28
TORSDOF 7
ENDMDL
MODEL 9
REMARK VINA RESULT:    -6.948      1.253      2.448
REMARK INTER + INTRA:          -8.936
REMARK INTER:                  -8.688
REMARK INTRA:                  -0.248
REMARK UNBOUND:                -0.363
REMARK SMILES O=c1c(O)c(-c2cc(O)c(O)c(O)c2)oc2cc(O)cc(O)c12
REMARK SMILES IDX 5 1 3 2 2 3 1 4 23 5 21 6 20 7 18 8 17 9 16 10 15 11 6 12
REMARK SMILES IDX 7 13 8 14 14 15 10 16 12 17 9 18 11 20 13 22 4 24 22 26
REMARK SMILES IDX 19 28
REMARK H PARENT 9 19 11 21 13 23 4 25 22 27 19 29
REMARK Flexibility Score: inf
ROOT
ATOM      1  C   UNL     1      36.644  46.723 161.452  1.00  0.00     0.180 A 
ATOM      2  C   UNL     1      35.990  45.545 161.862  1.00  0.00     0.208 A 
ATOM      3  C   UNL     1      36.008  45.198 163.222  1.00  0.00     0.238 A 
ATOM      4  O   UNL     1      35.436  44.139 163.600  1.00  0.00    -0.285 OA
ATOM      5  C   UNL     1      36.659  46.040 164.147  1.00  0.00     0.111 A 
ATOM      6  C   UNL     1      36.719  45.765 165.536  1.00  0.00     0.134 A 
ATOM      7  C   UNL     1      37.378  46.659 166.394  1.00  0.00     0.093 A 
ATOM      8  C   UNL     1      37.975  47.820 165.891  1.00  0.00     0.123 A 
ATOM      9  C   UNL     1      37.919  48.094 164.523  1.00  0.00     0.094 A 
ATOM     10  C   UNL     1      37.268  47.216 163.652  1.00  0.00     0.146 A 
ATOM     11  O   UNL     1      37.234  47.500 162.355  1.00  0.00    -0.452 OA
ENDROOT
BRANCH   1  12
ATOM     12  C   UNL     1      36.684  47.145 160.033  1.00  0.00     0.029 A 
ATOM     13  C   UNL     1      35.937  48.241 159.575  1.00  0.00     0.062 A 
ATOM     14  C   UNL     1      35.971  48.610 158.224  1.00  0.00     0.162 A 
ATOM     15  C   UNL     1      37.437  46.402 159.114  1.00  0.00     0.062 A 
ATOM     16  C   UNL     1      36.744  47.880 157.311  1.00  0.00     0.200 A 
ATOM     17  C   UNL     1      37.481  46.758 157.761  1.00  0.00     0.162 A 
BRANCH  14  18
ATOM     18  O   UNL     1      35.233  49.706 157.780  1.00  0.00    -0.504 OA
ATOM     19  H   UNL     1      34.238  49.783 157.954  1.00  0.00     0.293 HD
ENDBRANCH  14  18
BRANCH  16  20
ATOM     20  O   UNL     1      36.748  48.295 155.976  1.00  0.00    -0.502 OA
ATOM     21  H   UNL     1      36.923  47.682 155.194  1.00  0.00     0.293 HD
ENDBRANCH  16  20
BRANCH  17  22
ATOM     22  O   UNL     1      38.262  45.977 156.907  1.00  0.00    -0.504 OA
ATOM     23  H   UNL     1      38.178  44.975 156.823  1.00  0.00     0.293 HD
ENDBRANCH  17  22
ENDBRANCH   1  12
BRANCH   2  24
ATOM     24  O   UNL     1      35.311  44.753 160.933  1.00  0.00    -0.502 OA
ATOM     25  H   UNL     1      34.829  45.145 160.134  1.00  0.00     0.293 HD
ENDBRANCH   2  24
BRANCH   6  26
ATOM     26  O   UNL     1      36.132  44.615 166.066  1.00  0.00    -0.507 OA
ATOM     27  H   UNL     1      36.676  43.923 166.569  1.00  0.00     0.293 HD
ENDBRANCH   6  26
BRANCH   8  28
ATOM     28  O   UNL     1      38.629  48.708 166.743  1.00  0.00    -0.508 OA
ATOM     29  H   UNL     1      39.569  49.032 166.548  1.00  0.00     0.293 HD
ENDBRANCH   8  28
TORSDOF 7
ENDMDL
