MODEL 1
REMARK VINA RESULT:    -5.287      0.000      0.000
REMARK INTER + INTRA:          -5.807
REMARK INTER:                  -5.596
REMARK INTRA:                  -0.211
REMARK UNBOUND:                -0.211
REMARK SMILES CC1=CC[C@@H]2[C@H]3[C@@H](C(C)C)CC[C@]2(C)[C@@H]13
REMARK SMILES IDX 1 1 2 2 3 3 4 4 5 5 6 6 15 7 13 8 12 9 11 10 7 11 14 12 8 13
REMARK SMILES IDX 9 14 10 15
REMARK H PARENT
REMARK Flexibility Score: inf
ROOT
ATOM      1  C   UNL     1     144.973 143.597 131.384  1.00  0.00     0.039 C 
ATOM      2  C   UNL     1     143.867 142.940 132.155  1.00  0.00    -0.073 C 
ATOM      3  C   UNL     1     143.436 141.682 131.873  1.00  0.00    -0.027 C 
ATOM      4  C   UNL     1     142.301 141.087 132.709  1.00  0.00     0.031 C 
ATOM      5  C   UNL     1     141.799 142.122 133.769  1.00  0.00     0.003 C 
ATOM      6  C   UNL     1     141.622 143.476 133.046  1.00  0.00     0.004 C 
ATOM      7  C   UNL     1     143.139 143.691 133.271  1.00  0.00     0.024 C 
ATOM      8  C   UNL     1     142.978 142.786 134.520  1.00  0.00    -0.022 C 
ATOM      9  C   UNL     1     142.415 143.600 135.726  1.00  0.00     0.008 C 
ATOM     10  C   UNL     1     141.467 144.748 135.283  1.00  0.00     0.005 C 
ATOM     11  C   UNL     1     140.792 144.488 133.895  1.00  0.00    -0.005 C 
ATOM     12  C   UNL     1     144.169 141.900 134.958  1.00  0.00     0.012 C 
ENDROOT
BRANCH  11  13
ATOM     13  C   UNL     1     139.264 144.117 133.933  1.00  0.00    -0.014 C 
ATOM     14  C   UNL     1     138.903 143.421 135.254  1.00  0.00     0.007 C 
ATOM     15  C   UNL     1     138.754 143.258 132.757  1.00  0.00     0.007 C 
ENDBRANCH  11  13
TORSDOF 1
ENDMDL
MODEL 2
REMARK VINA RESULT:    -5.286      1.451      3.056
REMARK INTER + INTRA:          -5.806
REMARK INTER:                  -5.515
REMARK INTRA:                  -0.291
REMARK UNBOUND:                -0.211
REMARK SMILES CC1=CC[C@@H]2[C@H]3[C@@H](C(C)C)CC[C@]2(C)[C@@H]13
REMARK SMILES IDX 1 1 2 2 3 3 4 4 5 5 6 6 15 7 13 8 12 9 11 10 7 11 14 12 8 13
REMARK SMILES IDX 9 14 10 15
REMARK H PARENT
REMARK Flexibility Score: inf
ROOT
ATOM      1  C   UNL     1     144.018 139.707 132.781  1.00  0.00     0.039 C 
ATOM      2  C   UNL     1     143.714 141.160 132.985  1.00  0.00    -0.073 C 
ATOM      3  C   UNL     1     144.070 141.822 134.117  1.00  0.00    -0.027 C 
ATOM      4  C   UNL     1     143.719 143.307 134.244  1.00  0.00     0.031 C 
ATOM      5  C   UNL     1     142.934 143.795 132.983  1.00  0.00     0.003 C 
ATOM      6  C   UNL     1     141.839 142.748 132.684  1.00  0.00     0.004 C 
ATOM      7  C   UNL     1     142.935 141.951 131.932  1.00  0.00     0.024 C 
ATOM      8  C   UNL     1     143.610 143.322 131.673  1.00  0.00    -0.022 C 
ATOM      9  C   UNL     1     142.939 144.051 130.467  1.00  0.00     0.008 C 
ATOM     10  C   UNL     1     141.428 143.720 130.333  1.00  0.00     0.005 C 
ATOM     11  C   UNL     1     140.769 143.287 131.685  1.00  0.00    -0.005 C 
ATOM     12  C   UNL     1     145.152 143.387 131.570  1.00  0.00     0.012 C 
ENDROOT
BRANCH  11  13
ATOM     13  C   UNL     1     139.814 144.343 132.353  1.00  0.00    -0.014 C 
ATOM     14  C   UNL     1     139.253 143.810 133.680  1.00  0.00     0.007 C 
ATOM     15  C   UNL     1     138.645 144.839 131.477  1.00  0.00     0.007 C 
ENDBRANCH  11  13
TORSDOF 1
ENDMDL
MODEL 3
REMARK VINA RESULT:    -5.278      2.415      4.289
REMARK INTER + INTRA:          -5.797
REMARK INTER:                  -5.586
REMARK INTRA:                  -0.211
REMARK UNBOUND:                -0.211
REMARK SMILES CC1=CC[C@@H]2[C@H]3[C@@H](C(C)C)CC[C@]2(C)[C@@H]13
REMARK SMILES IDX 1 1 2 2 3 3 4 4 5 5 6 6 15 7 13 8 12 9 11 10 7 11 14 12 8 13
REMARK SMILES IDX 9 14 10 15
REMARK H PARENT
REMARK Flexibility Score: inf
ROOT
ATOM      1  C   UNL     1     143.593 137.264 131.379  1.00  0.00     0.039 C 
ATOM      2  C   UNL     1     142.929 138.363 132.153  1.00  0.00    -0.073 C 
ATOM      3  C   UNL     1     141.668 138.784 131.874  1.00  0.00    -0.027 C 
ATOM      4  C   UNL     1     141.065 139.914 132.714  1.00  0.00     0.031 C 
ATOM      5  C   UNL     1     142.098 140.422 133.772  1.00  0.00     0.003 C 
ATOM      6  C   UNL     1     143.449 140.611 133.046  1.00  0.00     0.004 C 
ATOM      7  C   UNL     1     143.677 139.095 133.269  1.00  0.00     0.024 C 
ATOM      8  C   UNL     1     142.773 139.247 134.519  1.00  0.00    -0.022 C 
ATOM      9  C   UNL     1     143.586 139.815 135.724  1.00  0.00     0.008 C 
ATOM     10  C   UNL     1     144.725 140.772 135.280  1.00  0.00     0.005 C 
ATOM     11  C   UNL     1     144.457 141.448 133.894  1.00  0.00    -0.005 C 
ATOM     12  C   UNL     1     141.899 138.049 134.958  1.00  0.00     0.012 C 
ENDROOT
BRANCH  11  13
ATOM     13  C   UNL     1     144.073 142.973 133.935  1.00  0.00    -0.014 C 
ATOM     14  C   UNL     1     143.382 143.327 135.260  1.00  0.00     0.007 C 
ATOM     15  C   UNL     1     143.204 143.476 132.765  1.00  0.00     0.007 C 
ENDBRANCH  11  13
TORSDOF 1
ENDMDL
MODEL 4
REMARK VINA RESULT:    -5.272      2.485      4.845
REMARK INTER + INTRA:          -5.792
REMARK INTER:                  -5.501
REMARK INTRA:                  -0.290
REMARK UNBOUND:                -0.211
REMARK SMILES CC1=CC[C@@H]2[C@H]3[C@@H](C(C)C)CC[C@]2(C)[C@@H]13
REMARK SMILES IDX 1 1 2 2 3 3 4 4 5 5 6 6 15 7 13 8 12 9 11 10 7 11 14 12 8 13
REMARK SMILES IDX 9 14 10 15
REMARK H PARENT
REMARK Flexibility Score: inf
ROOT
ATOM      1  C   UNL     1     142.403 144.029 133.036  1.00  0.00     0.039 C 
ATOM      2  C   UNL     1     140.947 143.696 133.163  1.00  0.00    -0.073 C 
ATOM      3  C   UNL     1     140.224 144.022 134.267  1.00  0.00    -0.027 C 
ATOM      4  C   UNL     1     138.741 143.644 134.316  1.00  0.00     0.031 C 
ATOM      5  C   UNL     1     138.329 142.873 133.019  1.00  0.00     0.003 C 
ATOM      6  C   UNL     1     139.409 141.801 132.754  1.00  0.00     0.004 C 
ATOM      7  C   UNL     1     140.222 142.922 132.061  1.00  0.00     0.024 C 
ATOM      8  C   UNL     1     138.853 143.578 131.746  1.00  0.00    -0.022 C 
ATOM      9  C   UNL     1     138.196 142.917 130.494  1.00  0.00     0.008 C 
ATOM     10  C   UNL     1     138.560 141.414 130.351  1.00  0.00     0.005 C 
ATOM     11  C   UNL     1     138.938 140.739 131.712  1.00  0.00    -0.005 C 
ATOM     12  C   UNL     1     138.766 145.121 131.665  1.00  0.00     0.012 C 
ENDROOT
BRANCH  11  13
ATOM     13  C   UNL     1     137.868 139.755 132.312  1.00  0.00    -0.014 C 
ATOM     14  C   UNL     1     138.370 139.138 133.627  1.00  0.00     0.007 C 
ATOM     15  C   UNL     1     137.396 138.625 131.374  1.00  0.00     0.007 C 
ENDBRANCH  11  13
TORSDOF 1
ENDMDL
MODEL 5
REMARK VINA RESULT:    -5.261      3.901      6.520
REMARK INTER + INTRA:          -5.780
REMARK INTER:                  -5.496
REMARK INTRA:                  -0.284
REMARK UNBOUND:                -0.211
REMARK SMILES CC1=CC[C@@H]2[C@H]3[C@@H](C(C)C)CC[C@]2(C)[C@@H]13
REMARK SMILES IDX 1 1 2 2 3 3 4 4 5 5 6 6 15 7 13 8 12 9 11 10 7 11 14 12 8 13
REMARK SMILES IDX 9 14 10 15
REMARK H PARENT
REMARK Flexibility Score: inf
ROOT
ATOM      1  C   UNL     1     138.112 142.433 132.783  1.00  0.00     0.039 C 
ATOM      2  C   UNL     1     138.480 140.993 132.977  1.00  0.00    -0.073 C 
ATOM      3  C   UNL     1     138.132 140.300 134.093  1.00  0.00    -0.027 C 
ATOM      4  C   UNL     1     138.549 138.832 134.211  1.00  0.00     0.031 C 
ATOM      5  C   UNL     1     139.382 138.397 132.961  1.00  0.00     0.003 C 
ATOM      6  C   UNL     1     140.433 139.499 132.697  1.00  0.00     0.004 C 
ATOM      7  C   UNL     1     139.317 140.252 131.932  1.00  0.00     0.024 C 
ATOM      8  C   UNL     1     138.713 138.854 131.643  1.00  0.00    -0.022 C 
ATOM      9  C   UNL     1     139.442 138.173 130.442  1.00  0.00     0.008 C 
ATOM     10  C   UNL     1     140.938 138.576 130.344  1.00  0.00     0.005 C 
ATOM     11  C   UNL     1     141.548 139.022 131.715  1.00  0.00    -0.005 C 
ATOM     12  C   UNL     1     137.178 138.719 131.506  1.00  0.00     0.012 C 
ENDROOT
BRANCH  11  13
ATOM     13  C   UNL     1     142.537 138.004 132.391  1.00  0.00    -0.014 C 
ATOM     14  C   UNL     1     143.233 138.641 133.604  1.00  0.00     0.007 C 
ATOM     15  C   UNL     1     143.606 137.391 131.463  1.00  0.00     0.007 C 
ENDBRANCH  11  13
TORSDOF 1
ENDMDL
MODEL 6
REMARK VINA RESULT:    -5.260      3.596      6.069
REMARK INTER + INTRA:          -5.779
REMARK INTER:                  -5.570
REMARK INTRA:                  -0.209
REMARK UNBOUND:                -0.211
REMARK SMILES CC1=CC[C@@H]2[C@H]3[C@@H](C(C)C)CC[C@]2(C)[C@@H]13
REMARK SMILES IDX 1 1 2 2 3 3 4 4 5 5 6 6 15 7 13 8 12 9 11 10 7 11 14 12 8 13
REMARK SMILES IDX 9 14 10 15
REMARK H PARENT
REMARK Flexibility Score: inf
ROOT
ATOM      1  C   UNL     1     137.213 138.735 131.361  1.00  0.00     0.039 C 
ATOM      2  C   UNL     1     138.327 139.369 132.138  1.00  0.00    -0.073 C 
ATOM      3  C   UNL     1     138.800 140.608 131.846  1.00  0.00    -0.027 C 
ATOM      4  C   UNL     1     139.942 141.181 132.690  1.00  0.00     0.031 C 
ATOM      5  C   UNL     1     140.397 140.145 133.770  1.00  0.00     0.003 C 
ATOM      6  C   UNL     1     140.543 138.777 133.067  1.00  0.00     0.004 C 
ATOM      7  C   UNL     1     139.017 138.611 133.274  1.00  0.00     0.024 C 
ATOM      8  C   UNL     1     139.189 139.527 134.513  1.00  0.00    -0.022 C 
ATOM      9  C   UNL     1     139.711 138.712 135.737  1.00  0.00     0.008 C 
ATOM     10  C   UNL     1     140.629 137.531 135.322  1.00  0.00     0.005 C 
ATOM     11  C   UNL     1     141.331 137.751 133.941  1.00  0.00    -0.005 C 
ATOM     12  C   UNL     1     138.020 140.454 134.923  1.00  0.00     0.012 C 
ENDROOT
BRANCH  11  13
ATOM     13  C   UNL     1     142.869 138.077 133.994  1.00  0.00    -0.014 C 
ATOM     14  C   UNL     1     143.231 138.787 135.308  1.00  0.00     0.007 C 
ATOM     15  C   UNL     1     143.421 138.898 132.811  1.00  0.00     0.007 C 
ENDBRANCH  11  13
TORSDOF 1
ENDMDL
MODEL 7
REMARK VINA RESULT:    -5.253      2.831      5.429
REMARK INTER + INTRA:          -5.772
REMARK INTER:                  -5.481
REMARK INTRA:                  -0.291
REMARK UNBOUND:                -0.211
REMARK SMILES CC1=CC[C@@H]2[C@H]3[C@@H](C(C)C)CC[C@]2(C)[C@@H]13
REMARK SMILES IDX 1 1 2 2 3 3 4 4 5 5 6 6 15 7 13 8 12 9 11 10 7 11 14 12 8 13
REMARK SMILES IDX 9 14 10 15
REMARK H PARENT
REMARK Flexibility Score: inf
ROOT
ATOM      1  C   UNL     1     139.656 138.163 132.613  1.00  0.00     0.039 C 
ATOM      2  C   UNL     1     141.108 138.450 132.849  1.00  0.00    -0.073 C 
ATOM      3  C   UNL     1     141.747 138.063 133.985  1.00  0.00    -0.027 C 
ATOM      4  C   UNL     1     143.232 138.398 134.146  1.00  0.00     0.031 C 
ATOM      5  C   UNL     1     143.749 139.206 132.911  1.00  0.00     0.003 C 
ATOM      6  C   UNL     1     142.716 140.317 132.618  1.00  0.00     0.004 C 
ATOM      7  C   UNL     1     141.924 139.245 131.829  1.00  0.00     0.024 C 
ATOM      8  C   UNL     1     143.294 138.564 131.578  1.00  0.00    -0.022 C 
ATOM      9  C   UNL     1     144.049 139.255 130.400  1.00  0.00     0.008 C 
ATOM     10  C   UNL     1     143.733 140.772 130.294  1.00  0.00     0.005 C 
ATOM     11  C   UNL     1     143.282 141.404 131.653  1.00  0.00    -0.005 C 
ATOM     12  C   UNL     1     143.347 137.024 131.442  1.00  0.00     0.012 C 
ENDROOT
BRANCH  11  13
ATOM     13  C   UNL     1     144.334 142.335 132.361  1.00  0.00    -0.014 C 
ATOM     14  C   UNL     1     143.798 142.836 133.711  1.00  0.00     0.007 C 
ATOM     15  C   UNL     1     144.823 143.542 131.535  1.00  0.00     0.007 C 
ENDBRANCH  11  13
TORSDOF 1
ENDMDL
MODEL 8
REMARK VINA RESULT:    -5.243      3.714      5.394
REMARK INTER + INTRA:          -5.761
REMARK INTER:                  -5.482
REMARK INTRA:                  -0.279
REMARK UNBOUND:                -0.211
REMARK SMILES CC1=CC[C@@H]2[C@H]3[C@@H](C(C)C)CC[C@]2(C)[C@@H]13
REMARK SMILES IDX 1 1 2 2 3 3 4 4 5 5 6 6 15 7 13 8 12 9 11 10 7 11 14 12 8 13
REMARK SMILES IDX 9 14 10 15
REMARK H PARENT
REMARK Flexibility Score: inf
ROOT
ATOM      1  C   UNL     1     140.591 136.832 137.350  1.00  0.00     0.039 C 
ATOM      2  C   UNL     1     140.853 137.807 136.243  1.00  0.00    -0.073 C 
ATOM      3  C   UNL     1     142.108 138.225 135.929  1.00  0.00    -0.027 C 
ATOM      4  C   UNL     1     142.287 139.224 134.783  1.00  0.00     0.031 C 
ATOM      5  C   UNL     1     140.899 139.626 134.184  1.00  0.00     0.003 C 
ATOM      6  C   UNL     1     139.958 139.942 135.368  1.00  0.00     0.004 C 
ATOM      7  C   UNL     1     139.697 138.417 135.448  1.00  0.00     0.024 C 
ATOM      8  C   UNL     1     140.008 138.388 133.929  1.00  0.00    -0.022 C 
ATOM      9  C   UNL     1     138.760 138.825 133.100  1.00  0.00     0.008 C 
ATOM     10  C   UNL     1     137.878 139.861 133.847  1.00  0.00     0.005 C 
ATOM     11  C   UNL     1     138.671 140.695 134.908  1.00  0.00    -0.005 C 
ATOM     12  C   UNL     1     140.657 137.120 133.325  1.00  0.00     0.012 C 
ENDROOT
BRANCH  11  13
ATOM     13  C   UNL     1     138.966 142.192 134.525  1.00  0.00    -0.014 C 
ATOM     14  C   UNL     1     138.689 143.125 135.713  1.00  0.00     0.007 C 
ATOM     15  C   UNL     1     138.223 142.725 133.283  1.00  0.00     0.007 C 
ENDBRANCH  11  13
TORSDOF 1
ENDMDL
MODEL 9
REMARK VINA RESULT:    -5.229      2.421      4.266
REMARK INTER + INTRA:          -5.746
REMARK INTER:                  -5.536
REMARK INTRA:                  -0.210
REMARK UNBOUND:                -0.211
REMARK SMILES CC1=CC[C@@H]2[C@H]3[C@@H](C(C)C)CC[C@]2(C)[C@@H]13
REMARK SMILES IDX 1 1 2 2 3 3 4 4 5 5 6 6 15 7 13 8 12 9 11 10 7 11 14 12 8 13
REMARK SMILES IDX 9 14 10 15
REMARK H PARENT
REMARK Flexibility Score: inf
ROOT
ATOM      1  C   UNL     1     138.711 145.073 131.375  1.00  0.00     0.039 C 
ATOM      2  C   UNL     1     139.360 143.937 132.105  1.00  0.00    -0.073 C 
ATOM      3  C   UNL     1     140.616 143.509 131.809  1.00  0.00    -0.027 C 
ATOM      4  C   UNL     1     141.203 142.340 132.605  1.00  0.00     0.031 C 
ATOM      5  C   UNL     1     140.163 141.806 133.643  1.00  0.00     0.003 C 
ATOM      6  C   UNL     1     138.810 141.663 132.912  1.00  0.00     0.004 C 
ATOM      7  C   UNL     1     138.603 143.172 133.193  1.00  0.00     0.024 C 
ATOM      8  C   UNL     1     139.505 142.960 134.436  1.00  0.00    -0.022 C 
ATOM      9  C   UNL     1     138.685 142.358 135.619  1.00  0.00     0.008 C 
ATOM     10  C   UNL     1     137.533 141.434 135.140  1.00  0.00     0.005 C 
ATOM     11  C   UNL     1     137.791 140.808 133.729  1.00  0.00    -0.005 C 
ATOM     12  C   UNL     1     140.396 144.129 134.919  1.00  0.00     0.012 C 
ENDROOT
BRANCH  11  13
ATOM     13  C   UNL     1     138.154 139.278 133.711  1.00  0.00    -0.014 C 
ATOM     14  C   UNL     1     138.858 138.868 135.013  1.00  0.00     0.007 C 
ATOM     15  C   UNL     1     139.001 138.804 132.512  1.00  0.00     0.007 C 
ENDBRANCH  11  13
TORSDOF 1
ENDMDL
