MODEL 1
REMARK VINA RESULT:    19.124      0.000      0.000
REMARK INTER + INTRA:          32.658
REMARK INTER:                  31.422
REMARK INTRA:                   1.236
REMARK UNBOUND:                 1.236
REMARK SMILES COc1ccc([C@@H]2CC(=O)c3c(O)cc(O[C@H]4O[C@@H](CO[C@H]5O[C@@H](C)[C@@H](O)[C@@H](O)[C@@H]5O)[C@@H](O)[C@H](O)[C@H]4O)cc3O2)cc1O
REMARK SMILES IDX 19 1 32 2 34 3 36 4 17 5 18 6 20 7 21 8 22 9 25 10 24 11
REMARK SMILES IDX 26 12 23 13 28 14 30 15 27 16 29 18 31 20 33 22 35 24 16 26
REMARK SMILES IDX 15 27 14 28 38 29 12 30 39 31 11 32 40 33 9 34 7 35 10 36
REMARK SMILES IDX 8 37 13 38 6 40 41 41 5 42 42 43 4 44 3 45 43 46 2 48 1 49
REMARK SMILES IDX 37 50
REMARK H PARENT 27 17 29 19 31 21 33 23 35 25 13 39 43 47 37 51
REMARK Flexibility Score: inf
ROOT
ATOM      1  C   UNL     1      29.324  -3.023  43.040  1.00  0.00     0.180 C 
ATOM      2  C   UNL     1      28.036  -2.166  43.014  1.00  0.00     0.177 C 
ATOM      3  C   UNL     1      28.378  -0.668  43.034  1.00  0.00     0.180 C 
ATOM      4  C   UNL     1      29.338  -0.369  41.877  1.00  0.00     0.214 C 
ATOM      5  C   UNL     1      30.563  -1.309  41.906  1.00  0.00     0.339 C 
ATOM      6  O   UNL     1      30.203  -2.690  41.966  1.00  0.00    -0.332 OA
ENDROOT
BRANCH   1   7
ATOM      7  C   UNL     1      30.061  -3.070  44.399  1.00  0.00     0.198 C 
BRANCH   7   8
ATOM      8  O   UNL     1      29.174  -3.421  45.446  1.00  0.00    -0.347 OA
BRANCH   8   9
ATOM      9  C   UNL     1      29.257  -2.472  46.504  1.00  0.00     0.281 C 
ATOM     10  C   UNL     1      26.224  -2.804  45.698  1.00  0.00     0.041 C 
ATOM     11  C   UNL     1      26.915  -2.052  46.846  1.00  0.00     0.150 C 
ATOM     12  C   UNL     1      26.929  -2.819  48.196  1.00  0.00     0.174 C 
ATOM     13  O   UNL     1      28.187  -1.530  46.471  1.00  0.00    -0.344 OA
ATOM     14  C   UNL     1      28.072  -3.841  48.274  1.00  0.00     0.179 C 
ATOM     15  C   UNL     1      29.391  -3.180  47.862  1.00  0.00     0.202 C 
BRANCH  12  16
ATOM     16  O   UNL     1      25.702  -3.463  48.437  1.00  0.00    -0.388 OA
ATOM     17  H   UNL     1      25.113  -3.247  47.668  1.00  0.00     0.211 HD
ENDBRANCH  12  16
BRANCH  14  18
ATOM     18  O   UNL     1      27.799  -4.955  47.456  1.00  0.00    -0.387 OA
ATOM     19  H   UNL     1      27.863  -4.645  46.517  1.00  0.00     0.211 HD
ENDBRANCH  14  18
BRANCH  15  20
ATOM     20  O   UNL     1      29.781  -2.239  48.831  1.00  0.00    -0.385 OA
ATOM     21  H   UNL     1      30.058  -2.749  49.634  1.00  0.00     0.211 HD
ENDBRANCH  15  20
ENDBRANCH   8   9
ENDBRANCH   7   8
ENDBRANCH   1   7
BRANCH   2  22
ATOM     22  O   UNL     1      27.198  -2.504  44.092  1.00  0.00    -0.387 OA
ATOM     23  H   UNL     1      27.680  -3.176  44.640  1.00  0.00     0.211 HD
ENDBRANCH   2  22
BRANCH   3  24
ATOM     24  O   UNL     1      27.212   0.100  42.872  1.00  0.00    -0.387 OA
ATOM     25  H   UNL     1      26.963   0.442  43.771  1.00  0.00     0.211 HD
ENDBRANCH   3  24
BRANCH   5  26
ATOM     26  O   UNL     1      31.452  -0.961  42.972  1.00  0.00    -0.462 OA
BRANCH  26  27
ATOM     27  C   UNL     1      32.852  -0.982  42.871  1.00  0.00     0.130 A 
ATOM     28  C   UNL     1      33.568   0.157  43.249  1.00  0.00     0.093 A 
ATOM     29  C   UNL     1      33.551  -2.108  42.407  1.00  0.00     0.094 A 
ATOM     30  C   UNL     1      34.968   0.164  43.246  1.00  0.00     0.133 A 
ATOM     31  C   UNL     1      34.948  -2.111  42.378  1.00  0.00     0.138 A 
ATOM     32  C   UNL     1      35.673  -0.995  42.839  1.00  0.00     0.102 A 
ATOM     33  O   UNL     1      35.609  -3.246  41.884  1.00  0.00    -0.484 OA
ATOM     34  C   UNL     1      37.147  -1.119  42.856  1.00  0.00     0.174 C 
ATOM     35  C   UNL     1      37.028  -3.442  41.943  1.00  0.00     0.211 C 
ATOM     36  O   UNL     1      37.856  -0.458  43.659  1.00  0.00    -0.294 OA
ATOM     37  C   UNL     1      37.795  -2.106  41.936  1.00  0.00     0.131 C 
BRANCH  30  38
ATOM     38  O   UNL     1      35.604   1.348  43.634  1.00  0.00    -0.507 OA
ATOM     39  H   UNL     1      36.246   1.418  44.404  1.00  0.00     0.293 HD
ENDBRANCH  30  38
BRANCH  35  40
ATOM     40  C   UNL     1      37.398  -4.303  43.135  1.00  0.00    -0.003 A 
ATOM     41  C   UNL     1      36.427  -4.596  44.106  1.00  0.00     0.057 A 
ATOM     42  C   UNL     1      38.692  -4.828  43.288  1.00  0.00     0.011 A 
ATOM     43  C   UNL     1      36.748  -5.373  45.226  1.00  0.00     0.158 A 
ATOM     44  C   UNL     1      39.015  -5.607  44.402  1.00  0.00     0.051 A 
ATOM     45  C   UNL     1      38.046  -5.883  45.383  1.00  0.00     0.160 A 
BRANCH  43  46
ATOM     46  O   UNL     1      35.780  -5.642  46.192  1.00  0.00    -0.504 OA
ATOM     47  H   UNL     1      36.018  -6.079  47.076  1.00  0.00     0.293 HD
ENDBRANCH  43  46
BRANCH  45  48
ATOM     48  O   UNL     1      38.329  -6.654  46.522  1.00  0.00    -0.493 OA
ATOM     49  C   UNL     1      38.936  -7.940  46.491  1.00  0.00     0.278 C 
ENDBRANCH  45  48
ENDBRANCH  35  40
ENDBRANCH  26  27
ENDBRANCH   5  26
BRANCH   4  50
ATOM     50  O   UNL     1      29.749   0.973  41.945  1.00  0.00    -0.384 OA
ATOM     51  H   UNL     1      29.385   1.341  42.794  1.00  0.00     0.211 HD
ENDBRANCH   4  50
TORSDOF 15
ENDMDL
MODEL 2
REMARK VINA RESULT:    20.667      0.948      1.602
REMARK INTER + INTRA:          35.193
REMARK INTER:                  35.899
REMARK INTRA:                  -0.706
REMARK UNBOUND:                 1.236
REMARK SMILES COc1ccc([C@@H]2CC(=O)c3c(O)cc(O[C@H]4O[C@@H](CO[C@H]5O[C@@H](C)[C@@H](O)[C@@H](O)[C@@H]5O)[C@@H](O)[C@H](O)[C@H]4O)cc3O2)cc1O
REMARK SMILES IDX 19 1 32 2 34 3 36 4 17 5 18 6 20 7 21 8 22 9 25 10 24 11
REMARK SMILES IDX 26 12 23 13 28 14 30 15 27 16 29 18 31 20 33 22 35 24 16 26
REMARK SMILES IDX 15 27 14 28 38 29 12 30 39 31 11 32 40 33 9 34 7 35 10 36
REMARK SMILES IDX 8 37 13 38 6 40 41 41 5 42 42 43 4 44 3 45 43 46 2 48 1 49
REMARK SMILES IDX 37 50
REMARK H PARENT 27 17 29 19 31 21 33 23 35 25 13 39 43 47 37 51
REMARK Flexibility Score: inf
ROOT
ATOM      1  C   UNL     1      28.964  -2.820  44.131  1.00  0.00     0.180 C 
ATOM      2  C   UNL     1      27.713  -1.949  43.865  1.00  0.00     0.177 C 
ATOM      3  C   UNL     1      28.119  -0.532  43.429  1.00  0.00     0.180 C 
ATOM      4  C   UNL     1      29.059  -0.641  42.223  1.00  0.00     0.214 C 
ATOM      5  C   UNL     1      30.244  -1.587  42.518  1.00  0.00     0.339 C 
ATOM      6  O   UNL     1      29.827  -2.867  42.995  1.00  0.00    -0.332 OA
ENDROOT
BRANCH   1   7
ATOM      7  C   UNL     1      29.735  -2.493  45.431  1.00  0.00     0.198 C 
BRANCH   7   8
ATOM      8  O   UNL     1      28.868  -2.503  46.551  1.00  0.00    -0.347 OA
BRANCH   8   9
ATOM      9  C   UNL     1      28.635  -3.838  46.984  1.00  0.00     0.281 C 
ATOM     10  C   UNL     1      28.873  -1.991  49.532  1.00  0.00     0.041 C 
ATOM     11  C   UNL     1      28.484  -3.466  49.354  1.00  0.00     0.150 C 
ATOM     12  C   UNL     1      26.953  -3.728  49.343  1.00  0.00     0.174 C 
ATOM     13  O   UNL     1      29.179  -4.090  48.278  1.00  0.00    -0.344 OA
ATOM     14  C   UNL     1      26.328  -3.472  47.965  1.00  0.00     0.179 C 
ATOM     15  C   UNL     1      27.141  -4.191  46.882  1.00  0.00     0.202 C 
BRANCH  12  16
ATOM     16  O   UNL     1      26.290  -2.954  50.313  1.00  0.00    -0.388 OA
ATOM     17  H   UNL     1      26.089  -2.080  49.888  1.00  0.00     0.211 HD
ENDBRANCH  12  16
BRANCH  14  18
ATOM     18  O   UNL     1      26.260  -2.091  47.697  1.00  0.00    -0.387 OA
ATOM     19  H   UNL     1      26.018  -1.644  48.549  1.00  0.00     0.211 HD
ENDBRANCH  14  18
BRANCH  15  20
ATOM     20  O   UNL     1      26.991  -5.583  47.013  1.00  0.00    -0.385 OA
ATOM     21  H   UNL     1      27.838  -5.930  47.390  1.00  0.00     0.211 HD
ENDBRANCH  15  20
ENDBRANCH   8   9
ENDBRANCH   7   8
ENDBRANCH   1   7
BRANCH   2  22
ATOM     22  O   UNL     1      26.891  -1.907  45.005  1.00  0.00    -0.387 OA
ATOM     23  H   UNL     1      25.950  -1.931  44.691  1.00  0.00     0.211 HD
ENDBRANCH   2  22
BRANCH   3  24
ATOM     24  O   UNL     1      26.982   0.208  43.059  1.00  0.00    -0.387 OA
ATOM     25  H   UNL     1      26.851   0.904  43.755  1.00  0.00     0.211 HD
ENDBRANCH   3  24
BRANCH   5  26
ATOM     26  O   UNL     1      31.175  -0.978  43.418  1.00  0.00    -0.462 OA
BRANCH  26  27
ATOM     27  C   UNL     1      32.564  -0.951  43.217  1.00  0.00     0.130 A 
ATOM     28  C   UNL     1      33.272   0.194  43.592  1.00  0.00     0.093 A 
ATOM     29  C   UNL     1      33.260  -2.034  42.657  1.00  0.00     0.094 A 
ATOM     30  C   UNL     1      34.668   0.246  43.491  1.00  0.00     0.133 A 
ATOM     31  C   UNL     1      34.651  -1.991  42.528  1.00  0.00     0.138 A 
ATOM     32  C   UNL     1      35.375  -0.873  42.984  1.00  0.00     0.102 A 
ATOM     33  O   UNL     1      35.307  -3.084  41.940  1.00  0.00    -0.484 OA
ATOM     34  C   UNL     1      36.849  -0.950  42.892  1.00  0.00     0.174 C 
ATOM     35  C   UNL     1      36.732  -3.237  41.890  1.00  0.00     0.211 C 
ATOM     36  O   UNL     1      37.595  -0.301  43.671  1.00  0.00    -0.294 OA
ATOM     37  C   UNL     1      37.457  -1.878  41.886  1.00  0.00     0.131 C 
BRANCH  30  38
ATOM     38  O   UNL     1      35.296   1.432  43.883  1.00  0.00    -0.507 OA
ATOM     39  H   UNL     1      35.027   1.977  44.684  1.00  0.00     0.293 HD
ENDBRANCH  30  38
BRANCH  35  40
ATOM     40  C   UNL     1      37.211  -4.134  43.015  1.00  0.00    -0.003 A 
ATOM     41  C   UNL     1      36.283  -4.646  43.937  1.00  0.00     0.057 A 
ATOM     42  C   UNL     1      38.567  -4.477  43.153  1.00  0.00     0.011 A 
ATOM     43  C   UNL     1      36.704  -5.461  44.995  1.00  0.00     0.158 A 
ATOM     44  C   UNL     1      38.988  -5.293  44.205  1.00  0.00     0.051 A 
ATOM     45  C   UNL     1      38.060  -5.789  45.138  1.00  0.00     0.160 A 
BRANCH  43  46
ATOM     46  O   UNL     1      35.775  -5.948  45.913  1.00  0.00    -0.504 OA
ATOM     47  H   UNL     1      36.066  -6.419  46.764  1.00  0.00     0.293 HD
ENDBRANCH  43  46
BRANCH  45  48
ATOM     48  O   UNL     1      38.441  -6.605  46.216  1.00  0.00    -0.493 OA
ATOM     49  C   UNL     1      37.643  -7.655  46.749  1.00  0.00     0.278 C 
ENDBRANCH  45  48
ENDBRANCH  35  40
ENDBRANCH  26  27
ENDBRANCH   5  26
BRANCH   4  50
ATOM     50  O   UNL     1      29.528   0.639  41.879  1.00  0.00    -0.384 OA
ATOM     51  H   UNL     1      28.994   1.291  42.405  1.00  0.00     0.211 HD
ENDBRANCH   4  50
TORSDOF 15
ENDMDL
