MODEL 1
REMARK VINA RESULT:    -3.101      0.000      0.000
REMARK INTER + INTRA:          -4.271
REMARK INTER:                  -3.826
REMARK INTRA:                  -0.445
REMARK UNBOUND:                -0.445
REMARK SMILES CCCCC=CC(C)=O
REMARK SMILES IDX 4 1 3 2 2 3 1 4 5 5 6 6 7 7 9 8 8 9
REMARK H PARENT
REMARK Flexibility Score: inf
ROOT
ATOM      1  C   UNL     1       6.000 -29.664  16.834  1.00  0.00     0.027 C 
ENDROOT
BRANCH   1   2
ATOM      2  C   UNL     1       6.564 -29.461  18.253  1.00  0.00     0.004 C 
BRANCH   2   3
ATOM      3  C   UNL     1       8.032 -29.895  18.411  1.00  0.00    -0.003 C 
ATOM      4  C   UNL     1       8.968 -28.728  18.728  1.00  0.00     0.004 C 
ENDBRANCH   2   3
ENDBRANCH   1   2
BRANCH   1   5
ATOM      5  C   UNL     1       6.404 -30.985  16.232  1.00  0.00    -0.023 C 
ATOM      6  C   UNL     1       7.239 -31.158  15.194  1.00  0.00     0.042 C 
BRANCH   6   7
ATOM      7  C   UNL     1       7.880 -30.090  14.393  1.00  0.00     0.152 C 
ATOM      8  O   UNL     1       7.375 -29.677  13.317  1.00  0.00    -0.295 OA
ATOM      9  C   UNL     1       9.201 -29.543  14.831  1.00  0.00     0.093 C 
ENDBRANCH   6   7
ENDBRANCH   1   5
TORSDOF 4
ENDMDL
MODEL 2
REMARK VINA RESULT:    -3.093      2.023      3.842
REMARK INTER + INTRA:          -4.260
REMARK INTER:                  -3.888
REMARK INTRA:                  -0.373
REMARK UNBOUND:                -0.445
REMARK SMILES CCCCC=CC(C)=O
REMARK SMILES IDX 4 1 3 2 2 3 1 4 5 5 6 6 7 7 9 8 8 9
REMARK H PARENT
REMARK Flexibility Score: inf
ROOT
ATOM      1  C   UNL     1       7.168 -30.122  15.181  1.00  0.00     0.027 C 
ENDROOT
BRANCH   1   2
ATOM      2  C   UNL     1       8.289 -29.884  14.153  1.00  0.00     0.004 C 
BRANCH   2   3
ATOM      3  C   UNL     1       9.639 -29.492  14.779  1.00  0.00    -0.003 C 
ATOM      4  C   UNL     1      10.749 -29.313  13.742  1.00  0.00     0.004 C 
ENDBRANCH   2   3
ENDBRANCH   1   2
BRANCH   1   5
ATOM      5  C   UNL     1       7.507 -31.207  16.170  1.00  0.00    -0.023 C 
ATOM      6  C   UNL     1       7.667 -31.048  17.494  1.00  0.00     0.042 C 
BRANCH   6   7
ATOM      7  C   UNL     1       7.605 -29.771  18.240  1.00  0.00     0.152 C 
ATOM      8  O   UNL     1       6.508 -29.217  18.513  1.00  0.00    -0.295 OA
ATOM      9  C   UNL     1       8.878 -29.079  18.610  1.00  0.00     0.093 C 
ENDBRANCH   6   7
ENDBRANCH   1   5
TORSDOF 4
ENDMDL
MODEL 3
REMARK VINA RESULT:    -3.074      1.809      2.392
REMARK INTER + INTRA:          -4.237
REMARK INTER:                  -3.871
REMARK INTRA:                  -0.367
REMARK UNBOUND:                -0.445
REMARK SMILES CCCCC=CC(C)=O
REMARK SMILES IDX 4 1 3 2 2 3 1 4 5 5 6 6 7 7 9 8 8 9
REMARK H PARENT
REMARK Flexibility Score: inf
ROOT
ATOM      1  C   UNL     1       8.384 -29.559  15.867  1.00  0.00     0.027 C 
ENDROOT
BRANCH   1   2
ATOM      2  C   UNL     1       8.161 -29.895  17.354  1.00  0.00     0.004 C 
BRANCH   2   3
ATOM      3  C   UNL     1       8.998 -29.040  18.321  1.00  0.00    -0.003 C 
ATOM      4  C   UNL     1      10.059 -28.199  17.610  1.00  0.00     0.004 C 
ENDBRANCH   2   3
ENDBRANCH   1   2
BRANCH   1   5
ATOM      5  C   UNL     1       8.916 -30.729  15.081  1.00  0.00    -0.023 C 
ATOM      6  C   UNL     1       9.770 -30.663  14.047  1.00  0.00     0.042 C 
BRANCH   6   7
ATOM      7  C   UNL     1      10.311 -29.430  13.430  1.00  0.00     0.152 C 
ATOM      8  O   UNL     1       9.836 -28.963  12.362  1.00  0.00    -0.295 OA
ATOM      9  C   UNL     1      11.501 -28.768  14.045  1.00  0.00     0.093 C 
ENDBRANCH   6   7
ENDBRANCH   1   5
TORSDOF 4
ENDMDL
MODEL 4
REMARK VINA RESULT:    -2.955      1.939      2.434
REMARK INTER + INTRA:          -4.090
REMARK INTER:                  -3.835
REMARK INTRA:                  -0.255
REMARK UNBOUND:                -0.445
REMARK SMILES CCCCC=CC(C)=O
REMARK SMILES IDX 4 1 3 2 2 3 1 4 5 5 6 6 7 7 9 8 8 9
REMARK H PARENT
REMARK Flexibility Score: inf
ROOT
ATOM      1  C   UNL     1       8.310 -29.566  15.835  1.00  0.00     0.027 C 
ENDROOT
BRANCH   1   2
ATOM      2  C   UNL     1       7.207 -29.892  16.859  1.00  0.00     0.004 C 
BRANCH   2   3
ATOM      3  C   UNL     1       7.696 -29.921  18.318  1.00  0.00    -0.003 C 
ATOM      4  C   UNL     1       8.964 -29.096  18.539  1.00  0.00     0.004 C 
ENDBRANCH   2   3
ENDBRANCH   1   2
BRANCH   1   5
ATOM      5  C   UNL     1       8.848 -30.797  15.152  1.00  0.00    -0.023 C 
ATOM      6  C   UNL     1       9.699 -30.815  14.113  1.00  0.00     0.042 C 
BRANCH   6   7
ATOM      7  C   UNL     1      10.230 -29.637  13.390  1.00  0.00     0.152 C 
ATOM      8  O   UNL     1      11.228 -28.997  13.812  1.00  0.00    -0.295 OA
ATOM      9  C   UNL     1       9.517 -29.146  12.171  1.00  0.00     0.093 C 
ENDBRANCH   6   7
ENDBRANCH   1   5
TORSDOF 4
ENDMDL
MODEL 5
REMARK VINA RESULT:    -2.916      2.543      4.265
REMARK INTER + INTRA:          -4.043
REMARK INTER:                  -3.723
REMARK INTRA:                  -0.320
REMARK UNBOUND:                -0.445
REMARK SMILES CCCCC=CC(C)=O
REMARK SMILES IDX 4 1 3 2 2 3 1 4 5 5 6 6 7 7 9 8 8 9
REMARK H PARENT
REMARK Flexibility Score: inf
ROOT
ATOM      1  C   UNL     1       8.131 -31.258  16.731  1.00  0.00     0.027 C 
ENDROOT
BRANCH   1   2
ATOM      2  C   UNL     1       8.357 -30.804  15.277  1.00  0.00     0.004 C 
BRANCH   2   3
ATOM      3  C   UNL     1       7.194 -29.987  14.689  1.00  0.00    -0.003 C 
ATOM      4  C   UNL     1       7.175 -29.991  13.160  1.00  0.00     0.004 C 
ENDBRANCH   2   3
ENDBRANCH   1   2
BRANCH   1   5
ATOM      5  C   UNL     1       7.234 -30.322  17.499  1.00  0.00    -0.023 C 
ATOM      6  C   UNL     1       7.635 -29.313  18.289  1.00  0.00     0.042 C 
BRANCH   6   7
ATOM      7  C   UNL     1       9.034 -28.955  18.617  1.00  0.00     0.152 C 
ATOM      8  O   UNL     1       9.510 -29.134  19.769  1.00  0.00    -0.295 OA
ATOM      9  C   UNL     1       9.880 -28.292  17.578  1.00  0.00     0.093 C 
ENDBRANCH   6   7
ENDBRANCH   1   5
TORSDOF 4
ENDMDL
MODEL 6
REMARK VINA RESULT:    -2.895      2.325      4.181
REMARK INTER + INTRA:          -4.017
REMARK INTER:                  -3.718
REMARK INTRA:                  -0.299
REMARK UNBOUND:                -0.445
REMARK SMILES CCCCC=CC(C)=O
REMARK SMILES IDX 4 1 3 2 2 3 1 4 5 5 6 6 7 7 9 8 8 9
REMARK H PARENT
REMARK Flexibility Score: inf
ROOT
ATOM      1  C   UNL     1       8.821 -29.623  15.150  1.00  0.00     0.027 C 
ENDROOT
BRANCH   1   2
ATOM      2  C   UNL     1       9.544 -30.686  14.303  1.00  0.00     0.004 C 
BRANCH   2   3
ATOM      3  C   UNL     1      10.648 -30.119  13.394  1.00  0.00    -0.003 C 
ATOM      4  C   UNL     1      11.318 -28.873  13.974  1.00  0.00     0.004 C 
ENDBRANCH   2   3
ENDBRANCH   1   2
BRANCH   1   5
ATOM      5  C   UNL     1       7.333 -29.847  15.216  1.00  0.00    -0.023 C 
ATOM      6  C   UNL     1       6.670 -30.462  16.209  1.00  0.00     0.042 C 
BRANCH   6   7
ATOM      7  C   UNL     1       7.268 -31.096  17.406  1.00  0.00     0.152 C 
ATOM      8  O   UNL     1       7.583 -30.424  18.422  1.00  0.00    -0.295 OA
ATOM      9  C   UNL     1       7.580 -32.558  17.378  1.00  0.00     0.093 C 
ENDBRANCH   6   7
ENDBRANCH   1   5
TORSDOF 4
ENDMDL
MODEL 7
REMARK VINA RESULT:    -2.840      2.127      4.447
REMARK INTER + INTRA:          -3.949
REMARK INTER:                  -3.700
REMARK INTRA:                  -0.249
REMARK UNBOUND:                -0.445
REMARK SMILES CCCCC=CC(C)=O
REMARK SMILES IDX 4 1 3 2 2 3 1 4 5 5 6 6 7 7 9 8 8 9
REMARK H PARENT
REMARK Flexibility Score: inf
ROOT
ATOM      1  C   UNL     1       8.646 -29.709  15.075  1.00  0.00     0.027 C 
ENDROOT
BRANCH   1   2
ATOM      2  C   UNL     1       8.391 -30.038  13.593  1.00  0.00     0.004 C 
BRANCH   2   3
ATOM      3  C   UNL     1       6.930 -29.845  13.150  1.00  0.00    -0.003 C 
ATOM      4  C   UNL     1       6.278 -31.140  12.664  1.00  0.00     0.004 C 
ENDBRANCH   2   3
ENDBRANCH   1   2
BRANCH   1   5
ATOM      5  C   UNL     1       8.426 -30.894  15.979  1.00  0.00    -0.023 C 
ATOM      6  C   UNL     1       8.099 -30.846  17.281  1.00  0.00     0.042 C 
BRANCH   6   7
ATOM      7  C   UNL     1       7.952 -29.625  18.106  1.00  0.00     0.152 C 
ATOM      8  O   UNL     1       6.826 -29.104  18.320  1.00  0.00    -0.295 OA
ATOM      9  C   UNL     1       9.177 -28.947  18.631  1.00  0.00     0.093 C 
ENDBRANCH   6   7
ENDBRANCH   1   5
TORSDOF 4
ENDMDL
MODEL 8
REMARK VINA RESULT:    -2.784      1.970      2.596
REMARK INTER + INTRA:          -3.880
REMARK INTER:                  -3.258
REMARK INTRA:                  -0.622
REMARK UNBOUND:                -0.445
REMARK SMILES CCCCC=CC(C)=O
REMARK SMILES IDX 4 1 3 2 2 3 1 4 5 5 6 6 7 7 9 8 8 9
REMARK H PARENT
REMARK Flexibility Score: inf
ROOT
ATOM      1  C   UNL     1       6.495 -29.855  15.831  1.00  0.00     0.027 C 
ENDROOT
BRANCH   1   2
ATOM      2  C   UNL     1       5.988 -29.542  17.251  1.00  0.00     0.004 C 
BRANCH   2   3
ATOM      3  C   UNL     1       7.065 -29.665  18.343  1.00  0.00    -0.003 C 
ATOM      4  C   UNL     1       8.488 -29.611  17.786  1.00  0.00     0.004 C 
ENDBRANCH   2   3
ENDBRANCH   1   2
BRANCH   1   5
ATOM      5  C   UNL     1       5.875 -31.102  15.256  1.00  0.00    -0.023 C 
ATOM      6  C   UNL     1       6.321 -32.357  15.428  1.00  0.00     0.042 C 
BRANCH   6   7
ATOM      7  C   UNL     1       7.541 -32.765  16.162  1.00  0.00     0.152 C 
ATOM      8  O   UNL     1       8.680 -32.717  15.628  1.00  0.00    -0.295 OA
ATOM      9  C   UNL     1       7.409 -33.322  17.543  1.00  0.00     0.093 C 
ENDBRANCH   6   7
ENDBRANCH   1   5
TORSDOF 4
ENDMDL
MODEL 9
REMARK VINA RESULT:    -2.783      1.436      2.358
REMARK INTER + INTRA:          -3.879
REMARK INTER:                  -3.578
REMARK INTRA:                  -0.300
REMARK UNBOUND:                -0.445
REMARK SMILES CCCCC=CC(C)=O
REMARK SMILES IDX 4 1 3 2 2 3 1 4 5 5 6 6 7 7 9 8 8 9
REMARK H PARENT
REMARK Flexibility Score: inf
ROOT
ATOM      1  C   UNL     1       8.466 -30.575  15.906  1.00  0.00     0.027 C 
ENDROOT
BRANCH   1   2
ATOM      2  C   UNL     1       7.424 -29.824  16.755  1.00  0.00     0.004 C 
BRANCH   2   3
ATOM      3  C   UNL     1       7.710 -29.852  18.267  1.00  0.00    -0.003 C 
ATOM      4  C   UNL     1       8.952 -29.049  18.654  1.00  0.00     0.004 C 
ENDBRANCH   2   3
ENDBRANCH   1   2
BRANCH   1   5
ATOM      5  C   UNL     1       9.300 -29.649  15.059  1.00  0.00    -0.023 C 
ATOM      6  C   UNL     1       9.206 -29.497  13.728  1.00  0.00     0.042 C 
BRANCH   6   7
ATOM      7  C   UNL     1       8.313 -30.249  12.817  1.00  0.00     0.152 C 
ATOM      8  O   UNL     1       8.712 -31.264  12.189  1.00  0.00    -0.295 OA
ATOM      9  C   UNL     1       6.925 -29.747  12.576  1.00  0.00     0.093 C 
ENDBRANCH   6   7
ENDBRANCH   1   5
TORSDOF 4
ENDMDL
