MODEL 1
REMARK VINA RESULT:    -5.845      0.000      0.000
REMARK INTER + INTRA:          -7.910
REMARK INTER:                  -7.383
REMARK INTRA:                  -0.527
REMARK UNBOUND:                -0.527
REMARK SMILES O=C(C=Cc1ccc(O)cc1)c1ccc(O)cc1O
REMARK SMILES IDX 4 1 3 2 5 3 6 4 7 5 8 6 11 7 10 8 9 9 2 11 1 12 12 13 18 14
REMARK SMILES IDX 13 15 17 16 14 17 15 18 19 19 16 21
REMARK H PARENT 9 10 19 20 16 22
REMARK Flexibility Score: inf
ROOT
ATOM      1  C   UNL     1      79.656  14.567   6.618  1.00  0.00     0.012 C 
ATOM      2  C   UNL     1      79.837  15.329   5.530  1.00  0.00     0.053 C 
ENDROOT
BRANCH   1   3
ATOM      3  C   UNL     1      80.283  14.840   7.935  1.00  0.00    -0.025 A 
ATOM      4  C   UNL     1      81.040  13.875   8.633  1.00  0.00     0.012 A 
ATOM      5  C   UNL     1      81.619  14.188   9.867  1.00  0.00     0.047 A 
ATOM      6  C   UNL     1      81.463  15.462  10.417  1.00  0.00     0.115 A 
ATOM      7  C   UNL     1      80.146  16.123   8.490  1.00  0.00     0.012 A 
ATOM      8  C   UNL     1      80.726  16.431   9.724  1.00  0.00     0.047 A 
BRANCH   6   9
ATOM      9  O   UNL     1      82.044  15.757  11.648  1.00  0.00    -0.508 OA
ATOM     10  H   UNL     1      81.524  15.674  12.514  1.00  0.00     0.293 HD
ENDBRANCH   6   9
ENDBRANCH   1   3
BRANCH   2  11
ATOM     11  C   UNL     1      79.198  15.037   4.230  1.00  0.00     0.189 C 
ATOM     12  O   UNL     1      78.747  13.876   4.036  1.00  0.00    -0.289 OA
BRANCH  11  13
ATOM     13  C   UNL     1      79.041  16.055   3.162  1.00  0.00     0.064 A 
ATOM     14  C   UNL     1      77.925  16.030   2.301  1.00  0.00     0.130 A 
ATOM     15  C   UNL     1      79.987  17.086   3.027  1.00  0.00     0.020 A 
ATOM     16  C   UNL     1      77.779  17.018   1.315  1.00  0.00     0.093 A 
ATOM     17  C   UNL     1      79.837  18.065   2.041  1.00  0.00     0.047 A 
ATOM     18  C   UNL     1      78.731  18.031   1.182  1.00  0.00     0.119 A 
BRANCH  14  19
ATOM     19  O   UNL     1      76.970  15.019   2.416  1.00  0.00    -0.507 OA
ATOM     20  H   UNL     1      76.750  14.404   1.641  1.00  0.00     0.293 HD
ENDBRANCH  14  19
BRANCH  18  21
ATOM     21  O   UNL     1      78.570  19.002   0.196  1.00  0.00    -0.508 OA
ATOM     22  H   UNL     1      78.986  18.899  -0.723  1.00  0.00     0.293 HD
ENDBRANCH  18  21
ENDBRANCH  11  13
ENDBRANCH   2  11
TORSDOF 6
ENDMDL
MODEL 2
REMARK VINA RESULT:    -5.727      0.378      1.171
REMARK INTER + INTRA:          -7.761
REMARK INTER:                  -7.361
REMARK INTRA:                  -0.400
REMARK UNBOUND:                -0.527
REMARK SMILES O=C(C=Cc1ccc(O)cc1)c1ccc(O)cc1O
REMARK SMILES IDX 4 1 3 2 5 3 6 4 7 5 8 6 11 7 10 8 9 9 2 11 1 12 12 13 18 14
REMARK SMILES IDX 13 15 17 16 14 17 15 18 19 19 16 21
REMARK H PARENT 9 10 19 20 16 22
REMARK Flexibility Score: inf
ROOT
ATOM      1  C   UNL     1      79.729  14.604   6.961  1.00  0.00     0.012 C 
ATOM      2  C   UNL     1      79.844  15.333   5.842  1.00  0.00     0.053 C 
ENDROOT
BRANCH   1   3
ATOM      3  C   UNL     1      80.460  14.896   8.218  1.00  0.00    -0.025 A 
ATOM      4  C   UNL     1      80.384  16.144   8.871  1.00  0.00     0.012 A 
ATOM      5  C   UNL     1      81.086  16.364  10.060  1.00  0.00     0.047 A 
ATOM      6  C   UNL     1      81.863  15.347  10.620  1.00  0.00     0.115 A 
ATOM      7  C   UNL     1      81.232  13.875   8.798  1.00  0.00     0.012 A 
ATOM      8  C   UNL     1      81.932  14.100   9.987  1.00  0.00     0.047 A 
BRANCH   6   9
ATOM      9  O   UNL     1      82.557  15.583  11.805  1.00  0.00    -0.508 OA
ATOM     10  H   UNL     1      83.400  15.069  12.036  1.00  0.00     0.293 HD
ENDBRANCH   6   9
ENDBRANCH   1   3
BRANCH   2  11
ATOM     11  C   UNL     1      79.101  15.023   4.601  1.00  0.00     0.189 C 
ATOM     12  O   UNL     1      78.496  13.919   4.531  1.00  0.00    -0.289 OA
BRANCH  11  13
ATOM     13  C   UNL     1      79.017  15.962   3.456  1.00  0.00     0.064 A 
ATOM     14  C   UNL     1      77.978  15.852   2.509  1.00  0.00     0.130 A 
ATOM     15  C   UNL     1      79.951  17.005   3.329  1.00  0.00     0.020 A 
ATOM     16  C   UNL     1      77.898  16.767   1.449  1.00  0.00     0.093 A 
ATOM     17  C   UNL     1      79.866  17.910   2.269  1.00  0.00     0.047 A 
ATOM     18  C   UNL     1      78.839  17.792   1.325  1.00  0.00     0.119 A 
BRANCH  14  19
ATOM     19  O   UNL     1      77.036  14.828   2.614  1.00  0.00    -0.507 OA
ATOM     20  H   UNL     1      76.722  14.483   3.514  1.00  0.00     0.293 HD
ENDBRANCH  14  19
BRANCH  18  21
ATOM     21  O   UNL     1      78.744  18.690   0.264  1.00  0.00    -0.508 OA
ATOM     22  H   UNL     1      79.541  19.233  -0.044  1.00  0.00     0.293 HD
ENDBRANCH  18  21
ENDBRANCH  11  13
ENDBRANCH   2  11
TORSDOF 6
ENDMDL
MODEL 3
REMARK VINA RESULT:    -4.336      1.506      7.776
REMARK INTER + INTRA:          -6.004
REMARK INTER:                  -5.697
REMARK INTRA:                  -0.307
REMARK UNBOUND:                -0.527
REMARK SMILES O=C(C=Cc1ccc(O)cc1)c1ccc(O)cc1O
REMARK SMILES IDX 4 1 3 2 5 3 6 4 7 5 8 6 11 7 10 8 9 9 2 11 1 12 12 13 18 14
REMARK SMILES IDX 13 15 17 16 14 17 15 18 19 19 16 21
REMARK H PARENT 9 10 19 20 16 22
REMARK Flexibility Score: inf
ROOT
ATOM      1  C   UNL     1      79.118  15.461   4.930  1.00  0.00     0.012 C 
ATOM      2  C   UNL     1      79.681  15.738   6.115  1.00  0.00     0.053 C 
ENDROOT
BRANCH   1   3
ATOM      3  C   UNL     1      79.142  16.382   3.767  1.00  0.00    -0.025 A 
ATOM      4  C   UNL     1      80.041  17.465   3.672  1.00  0.00     0.012 A 
ATOM      5  C   UNL     1      80.029  18.297   2.548  1.00  0.00     0.047 A 
ATOM      6  C   UNL     1      79.133  18.059   1.503  1.00  0.00     0.115 A 
ATOM      7  C   UNL     1      78.256  16.142   2.703  1.00  0.00     0.012 A 
ATOM      8  C   UNL     1      78.247  16.977   1.582  1.00  0.00     0.047 A 
BRANCH   6   9
ATOM      9  O   UNL     1      79.132  18.898   0.391  1.00  0.00    -0.508 OA
ATOM     10  H   UNL     1      79.344  18.548  -0.537  1.00  0.00     0.293 HD
ENDBRANCH   6   9
ENDBRANCH   1   3
BRANCH   2  11
ATOM     11  C   UNL     1      79.645  14.801   7.259  1.00  0.00     0.189 C 
ATOM     12  O   UNL     1      78.790  13.875   7.243  1.00  0.00    -0.289 OA
BRANCH  11  13
ATOM     13  C   UNL     1      80.587  14.890   8.402  1.00  0.00     0.064 A 
ATOM     14  C   UNL     1      80.512  15.962   9.316  1.00  0.00     0.130 A 
ATOM     15  C   UNL     1      81.538  13.877   8.612  1.00  0.00     0.020 A 
ATOM     16  C   UNL     1      81.392  16.014  10.407  1.00  0.00     0.093 A 
ATOM     17  C   UNL     1      82.413  13.937   9.700  1.00  0.00     0.047 A 
ATOM     18  C   UNL     1      82.342  15.008  10.599  1.00  0.00     0.119 A 
BRANCH  14  19
ATOM     19  O   UNL     1      79.574  16.978   9.132  1.00  0.00    -0.507 OA
ATOM     20  H   UNL     1      79.002  17.319   9.896  1.00  0.00     0.293 HD
ENDBRANCH  14  19
BRANCH  18  21
ATOM     21  O   UNL     1      83.209  15.078  11.688  1.00  0.00    -0.508 OA
ATOM     22  H   UNL     1      83.013  15.674  12.484  1.00  0.00     0.293 HD
ENDBRANCH  18  21
ENDBRANCH  11  13
ENDBRANCH   2  11
TORSDOF 6
ENDMDL
MODEL 4
REMARK VINA RESULT:    -3.660      1.463      2.123
REMARK INTER + INTRA:          -5.150
REMARK INTER:                  -4.931
REMARK INTRA:                  -0.219
REMARK UNBOUND:                -0.527
REMARK SMILES O=C(C=Cc1ccc(O)cc1)c1ccc(O)cc1O
REMARK SMILES IDX 4 1 3 2 5 3 6 4 7 5 8 6 11 7 10 8 9 9 2 11 1 12 12 13 18 14
REMARK SMILES IDX 13 15 17 16 14 17 15 18 19 19 16 21
REMARK H PARENT 9 10 19 20 16 22
REMARK Flexibility Score: inf
ROOT
ATOM      1  C   UNL     1      79.581  15.296   5.007  1.00  0.00     0.012 C 
ATOM      2  C   UNL     1      80.296  14.742   4.018  1.00  0.00     0.053 C 
ENDROOT
BRANCH   1   3
ATOM      3  C   UNL     1      79.941  15.201   6.443  1.00  0.00    -0.025 A 
ATOM      4  C   UNL     1      80.336  13.990   7.051  1.00  0.00     0.012 A 
ATOM      5  C   UNL     1      80.675  13.957   8.407  1.00  0.00     0.047 A 
ATOM      6  C   UNL     1      80.635  15.124   9.173  1.00  0.00     0.115 A 
ATOM      7  C   UNL     1      79.919  16.372   7.220  1.00  0.00     0.012 A 
ATOM      8  C   UNL     1      80.259  16.334   8.575  1.00  0.00     0.047 A 
BRANCH   6   9
ATOM      9  O   UNL     1      80.974  15.074  10.524  1.00  0.00    -0.508 OA
ATOM     10  H   UNL     1      80.297  15.282  11.248  1.00  0.00     0.293 HD
ENDBRANCH   6   9
ENDBRANCH   1   3
BRANCH   2  11
ATOM     11  C   UNL     1      79.918  14.853   2.593  1.00  0.00     0.189 C 
ATOM     12  O   UNL     1      80.157  13.875   1.836  1.00  0.00    -0.289 OA
BRANCH  11  13
ATOM     13  C   UNL     1      79.247  16.051   2.029  1.00  0.00     0.064 A 
ATOM     14  C   UNL     1      79.830  17.328   2.154  1.00  0.00     0.130 A 
ATOM     15  C   UNL     1      78.039  15.915   1.323  1.00  0.00     0.020 A 
ATOM     16  C   UNL     1      79.195  18.446   1.589  1.00  0.00     0.093 A 
ATOM     17  C   UNL     1      77.412  17.032   0.766  1.00  0.00     0.047 A 
ATOM     18  C   UNL     1      77.989  18.301   0.900  1.00  0.00     0.119 A 
BRANCH  14  19
ATOM     19  O   UNL     1      81.030  17.490   2.848  1.00  0.00    -0.507 OA
ATOM     20  H   UNL     1      81.906  17.132   2.487  1.00  0.00     0.293 HD
ENDBRANCH  14  19
BRANCH  18  21
ATOM     21  O   UNL     1      77.373  19.422   0.348  1.00  0.00    -0.508 OA
ATOM     22  H   UNL     1      77.823  19.974  -0.373  1.00  0.00     0.293 HD
ENDBRANCH  18  21
ENDBRANCH  11  13
ENDBRANCH   2  11
TORSDOF 6
ENDMDL
MODEL 5
REMARK VINA RESULT:    -3.135      2.377      7.948
REMARK INTER + INTRA:          -4.487
REMARK INTER:                  -3.896
REMARK INTRA:                  -0.591
REMARK UNBOUND:                -0.527
REMARK SMILES O=C(C=Cc1ccc(O)cc1)c1ccc(O)cc1O
REMARK SMILES IDX 4 1 3 2 5 3 6 4 7 5 8 6 11 7 10 8 9 9 2 11 1 12 12 13 18 14
REMARK SMILES IDX 13 15 17 16 14 17 15 18 19 19 16 21
REMARK H PARENT 9 10 19 20 16 22
REMARK Flexibility Score: inf
ROOT
ATOM      1  C   UNL     1      79.147  15.169   5.721  1.00  0.00     0.012 C 
ATOM      2  C   UNL     1      79.735  14.434   6.677  1.00  0.00     0.053 C 
ENDROOT
BRANCH   1   3
ATOM      3  C   UNL     1      79.241  14.870   4.271  1.00  0.00    -0.025 A 
ATOM      4  C   UNL     1      78.166  15.072   3.380  1.00  0.00     0.012 A 
ATOM      5  C   UNL     1      78.311  14.783   2.020  1.00  0.00     0.047 A 
ATOM      6  C   UNL     1      79.525  14.299   1.526  1.00  0.00     0.115 A 
ATOM      7  C   UNL     1      80.463  14.397   3.761  1.00  0.00     0.012 A 
ATOM      8  C   UNL     1      80.603  14.109   2.401  1.00  0.00     0.047 A 
BRANCH   6   9
ATOM      9  O   UNL     1      79.652  14.015   0.168  1.00  0.00    -0.508 OA
ATOM     10  H   UNL     1      79.942  14.723  -0.496  1.00  0.00     0.293 HD
ENDBRANCH   6   9
ENDBRANCH   1   3
BRANCH   2  11
ATOM     11  C   UNL     1      79.624  14.753   8.116  1.00  0.00     0.189 C 
ATOM     12  O   UNL     1      78.476  14.970   8.591  1.00  0.00    -0.289 OA
BRANCH  11  13
ATOM     13  C   UNL     1      80.796  14.798   9.024  1.00  0.00     0.064 A 
ATOM     14  C   UNL     1      80.855  15.733  10.078  1.00  0.00     0.130 A 
ATOM     15  C   UNL     1      81.845  13.875   8.868  1.00  0.00     0.020 A 
ATOM     16  C   UNL     1      81.959  15.742  10.945  1.00  0.00     0.093 A 
ATOM     17  C   UNL     1      82.942  13.893   9.733  1.00  0.00     0.047 A 
ATOM     18  C   UNL     1      83.001  14.829  10.773  1.00  0.00     0.119 A 
BRANCH  14  19
ATOM     19  O   UNL     1      79.826  16.658  10.257  1.00  0.00    -0.507 OA
ATOM     20  H   UNL     1      79.278  16.687  11.108  1.00  0.00     0.293 HD
ENDBRANCH  14  19
BRANCH  18  21
ATOM     21  O   UNL     1      84.090  14.855  11.642  1.00  0.00    -0.508 OA
ATOM     22  H   UNL     1      84.652  15.690  11.763  1.00  0.00     0.293 HD
ENDBRANCH  18  21
ENDBRANCH  11  13
ENDBRANCH   2  11
TORSDOF 6
ENDMDL
