MODEL 1
REMARK VINA RESULT:    -4.638      0.000      0.000
REMARK INTER + INTRA:          -5.575
REMARK INTER:                  -5.452
REMARK INTRA:                  -0.123
REMARK UNBOUND:                -0.123
REMARK SMILES O=C([O-])C=Cc1ccc(O)c(O)c1
REMARK SMILES IDX 6 1 13 2 7 3 11 4 8 5 9 6 5 7 4 8 2 9 1 10 3 11 12 12 10 14
REMARK H PARENT 12 13 10 15
REMARK Flexibility Score: inf
ROOT
ATOM      1  C   UNL     1      35.441 -30.456  10.293  1.00  0.00    -0.022 A 
ATOM      2  C   UNL     1      34.512 -31.199  11.049  1.00  0.00     0.058 A 
ATOM      3  C   UNL     1      35.674 -29.113  10.634  1.00  0.00     0.012 A 
ATOM      4  C   UNL     1      33.813 -30.599  12.107  1.00  0.00     0.157 A 
ATOM      5  C   UNL     1      34.977 -28.516  11.687  1.00  0.00     0.051 A 
ATOM      6  C   UNL     1      34.043 -29.255  12.423  1.00  0.00     0.157 A 
ENDROOT
BRANCH   1   7
ATOM      7  C   UNL     1      36.215 -31.048   9.172  1.00  0.00     0.010 C 
ATOM      8  C   UNL     1      35.869 -32.184   8.549  1.00  0.00     0.025 C 
BRANCH   8   9
ATOM      9  C   UNL     1      36.654 -32.736   7.432  1.00  0.00     0.064 C 
ATOM     10  O   UNL     1      37.903 -32.882   7.521  1.00  0.00    -0.545 OA
ATOM     11  O   UNL     1      36.008 -33.103   6.259  1.00  0.00    -0.545 OA
ENDBRANCH   8   9
ENDBRANCH   1   7
BRANCH   4  12
ATOM     12  O   UNL     1      32.891 -31.333  12.850  1.00  0.00    -0.504 OA
ATOM     13  H   UNL     1      32.927 -31.360  13.862  1.00  0.00     0.293 HD
ENDBRANCH   4  12
BRANCH   6  14
ATOM     14  O   UNL     1      33.344 -28.661  13.473  1.00  0.00    -0.504 OA
ATOM     15  H   UNL     1      33.734 -28.610  14.407  1.00  0.00     0.293 HD
ENDBRANCH   6  14
TORSDOF 4
ENDMDL
MODEL 2
REMARK VINA RESULT:    -4.015      1.652      2.778
REMARK INTER + INTRA:          -4.842
REMARK INTER:                  -4.719
REMARK INTRA:                  -0.124
REMARK UNBOUND:                -0.123
REMARK SMILES O=C([O-])C=Cc1ccc(O)c(O)c1
REMARK SMILES IDX 6 1 13 2 7 3 11 4 8 5 9 6 5 7 4 8 2 9 1 10 3 11 12 12 10 14
REMARK H PARENT 12 13 10 15
REMARK Flexibility Score: inf
ROOT
ATOM      1  C   UNL     1      36.029 -31.828   8.863  1.00  0.00    -0.022 A 
ATOM      2  C   UNL     1      35.985 -30.498   9.325  1.00  0.00     0.058 A 
ATOM      3  C   UNL     1      35.398 -32.831   9.618  1.00  0.00     0.012 A 
ATOM      4  C   UNL     1      35.343 -30.185  10.534  1.00  0.00     0.157 A 
ATOM      5  C   UNL     1      34.761 -32.519  10.822  1.00  0.00     0.051 A 
ATOM      6  C   UNL     1      34.735 -31.198  11.284  1.00  0.00     0.157 A 
ENDROOT
BRANCH   1   7
ATOM      7  C   UNL     1      36.684 -32.209   7.585  1.00  0.00     0.010 C 
ATOM      8  C   UNL     1      36.148 -31.979   6.378  1.00  0.00     0.025 C 
BRANCH   8   9
ATOM      9  C   UNL     1      36.832 -32.359   5.131  1.00  0.00     0.064 C 
ATOM     10  O   UNL     1      38.019 -32.003   4.902  1.00  0.00    -0.545 OA
ATOM     11  O   UNL     1      36.158 -33.125   4.189  1.00  0.00    -0.545 OA
ENDBRANCH   8   9
ENDBRANCH   1   7
BRANCH   4  12
ATOM     12  O   UNL     1      35.304 -28.869  10.991  1.00  0.00    -0.504 OA
ATOM     13  H   UNL     1      35.713 -28.605  11.880  1.00  0.00     0.293 HD
ENDBRANCH   4  12
BRANCH   6  14
ATOM     14  O   UNL     1      34.101 -30.883  12.485  1.00  0.00    -0.504 OA
ATOM     15  H   UNL     1      34.300 -30.021  12.980  1.00  0.00     0.293 HD
ENDBRANCH   6  14
TORSDOF 4
ENDMDL
MODEL 3
REMARK VINA RESULT:    -3.786      1.123      2.176
REMARK INTER + INTRA:          -4.573
REMARK INTER:                  -4.429
REMARK INTRA:                  -0.144
REMARK UNBOUND:                -0.123
REMARK SMILES O=C([O-])C=Cc1ccc(O)c(O)c1
REMARK SMILES IDX 6 1 13 2 7 3 11 4 8 5 9 6 5 7 4 8 2 9 1 10 3 11 12 12 10 14
REMARK H PARENT 12 13 10 15
REMARK Flexibility Score: inf
ROOT
ATOM      1  C   UNL     1      35.575 -31.020   9.751  1.00  0.00    -0.022 A 
ATOM      2  C   UNL     1      35.538 -29.693  10.225  1.00  0.00     0.058 A 
ATOM      3  C   UNL     1      34.886 -32.015  10.464  1.00  0.00     0.012 A 
ATOM      4  C   UNL     1      34.846 -29.377  11.404  1.00  0.00     0.157 A 
ATOM      5  C   UNL     1      34.198 -31.699  11.639  1.00  0.00     0.051 A 
ATOM      6  C   UNL     1      34.179 -30.382  12.113  1.00  0.00     0.157 A 
ENDROOT
BRANCH   1   7
ATOM      7  C   UNL     1      36.283 -31.403   8.503  1.00  0.00     0.010 C 
ATOM      8  C   UNL     1      35.783 -32.257   7.597  1.00  0.00     0.025 C 
BRANCH   8   9
ATOM      9  C   UNL     1      36.508 -32.605   6.364  1.00  0.00     0.064 C 
ATOM     10  O   UNL     1      35.913 -33.124   5.381  1.00  0.00    -0.545 OA
ATOM     11  O   UNL     1      37.871 -32.355   6.280  1.00  0.00    -0.545 OA
ENDBRANCH   8   9
ENDBRANCH   1   7
BRANCH   4  12
ATOM     12  O   UNL     1      34.814 -28.065  11.873  1.00  0.00    -0.504 OA
ATOM     13  H   UNL     1      35.625 -27.461  11.814  1.00  0.00     0.293 HD
ENDBRANCH   4  12
BRANCH   6  14
ATOM     14  O   UNL     1      33.495 -30.065  13.285  1.00  0.00    -0.504 OA
ATOM     15  H   UNL     1      32.976 -30.765  13.803  1.00  0.00     0.293 HD
ENDBRANCH   6  14
TORSDOF 4
ENDMDL
MODEL 4
REMARK VINA RESULT:    -3.654      1.150      5.806
REMARK INTER + INTRA:          -4.418
REMARK INTER:                  -4.286
REMARK INTRA:                  -0.131
REMARK UNBOUND:                -0.123
REMARK SMILES O=C([O-])C=Cc1ccc(O)c(O)c1
REMARK SMILES IDX 6 1 13 2 7 3 11 4 8 5 9 6 5 7 4 8 2 9 1 10 3 11 12 12 10 14
REMARK H PARENT 12 13 10 15
REMARK Flexibility Score: inf
ROOT
ATOM      1  C   UNL     1      35.453 -31.266  10.072  1.00  0.00    -0.022 A 
ATOM      2  C   UNL     1      34.681 -31.888   9.070  1.00  0.00     0.058 A 
ATOM      3  C   UNL     1      36.852 -31.252   9.940  1.00  0.00     0.012 A 
ATOM      4  C   UNL     1      35.301 -32.506   7.973  1.00  0.00     0.157 A 
ATOM      5  C   UNL     1      37.469 -31.868   8.848  1.00  0.00     0.051 A 
ATOM      6  C   UNL     1      36.697 -32.499   7.865  1.00  0.00     0.157 A 
ENDROOT
BRANCH   1   7
ATOM      7  C   UNL     1      34.845 -30.588  11.244  1.00  0.00     0.010 C 
ATOM      8  C   UNL     1      34.597 -29.271  11.295  1.00  0.00     0.025 C 
BRANCH   8   9
ATOM      9  C   UNL     1      33.980 -28.634  12.471  1.00  0.00     0.064 C 
ATOM     10  O   UNL     1      33.550 -27.450  12.422  1.00  0.00    -0.545 OA
ATOM     11  O   UNL     1      33.869 -29.350  13.655  1.00  0.00    -0.545 OA
ENDBRANCH   8   9
ENDBRANCH   1   7
BRANCH   4  12
ATOM     12  O   UNL     1      34.536 -33.124   6.986  1.00  0.00    -0.504 OA
ATOM     13  H   UNL     1      34.492 -34.133   6.904  1.00  0.00     0.293 HD
ENDBRANCH   4  12
BRANCH   6  14
ATOM     14  O   UNL     1      37.309 -33.116   6.776  1.00  0.00    -0.504 OA
ATOM     15  H   UNL     1      36.849 -33.180   5.875  1.00  0.00     0.293 HD
ENDBRANCH   6  14
TORSDOF 4
ENDMDL
MODEL 5
REMARK VINA RESULT:    -3.606      2.214      6.694
REMARK INTER + INTRA:          -4.362
REMARK INTER:                  -4.235
REMARK INTRA:                  -0.127
REMARK UNBOUND:                -0.123
REMARK SMILES O=C([O-])C=Cc1ccc(O)c(O)c1
REMARK SMILES IDX 6 1 13 2 7 3 11 4 8 5 9 6 5 7 4 8 2 9 1 10 3 11 12 12 10 14
REMARK H PARENT 12 13 10 15
REMARK Flexibility Score: inf
ROOT
ATOM      1  C   UNL     1      35.548 -32.712   7.387  1.00  0.00    -0.022 A 
ATOM      2  C   UNL     1      36.817 -32.341   6.900  1.00  0.00     0.058 A 
ATOM      3  C   UNL     1      34.562 -33.117   6.472  1.00  0.00     0.012 A 
ATOM      4  C   UNL     1      37.082 -32.350   5.522  1.00  0.00     0.157 A 
ATOM      5  C   UNL     1      34.825 -33.124   5.100  1.00  0.00     0.051 A 
ATOM      6  C   UNL     1      36.083 -32.738   4.621  1.00  0.00     0.157 A 
ENDROOT
BRANCH   1   7
ATOM      7  C   UNL     1      35.223 -32.732   8.836  1.00  0.00     0.010 C 
ATOM      8  C   UNL     1      35.055 -31.626   9.575  1.00  0.00     0.025 C 
BRANCH   8   9
ATOM      9  C   UNL     1      34.720 -31.683  11.008  1.00  0.00     0.064 C 
ATOM     10  O   UNL     1      34.479 -32.780  11.579  1.00  0.00    -0.545 OA
ATOM     11  O   UNL     1      34.670 -30.507  11.744  1.00  0.00    -0.545 OA
ENDBRANCH   8   9
ENDBRANCH   1   7
BRANCH   4  12
ATOM     12  O   UNL     1      38.336 -31.978   5.042  1.00  0.00    -0.504 OA
ATOM     13  H   UNL     1      39.103 -31.769   5.669  1.00  0.00     0.293 HD
ENDBRANCH   4  12
BRANCH   6  14
ATOM     14  O   UNL     1      36.348 -32.743   3.253  1.00  0.00    -0.504 OA
ATOM     15  H   UNL     1      37.269 -32.523   2.891  1.00  0.00     0.293 HD
ENDBRANCH   6  14
TORSDOF 4
ENDMDL
MODEL 6
REMARK VINA RESULT:    -2.921     19.960     21.291
REMARK INTER + INTRA:          -3.556
REMARK INTER:                  -3.424
REMARK INTRA:                  -0.132
REMARK UNBOUND:                -0.123
REMARK SMILES O=C([O-])C=Cc1ccc(O)c(O)c1
REMARK SMILES IDX 6 1 13 2 7 3 11 4 8 5 9 6 5 7 4 8 2 9 1 10 3 11 12 12 10 14
REMARK H PARENT 12 13 10 15
REMARK Flexibility Score: inf
ROOT
ATOM      1  C   UNL     1      21.476 -15.294   5.627  1.00  0.00    -0.022 A 
ATOM      2  C   UNL     1      22.371 -15.870   6.551  1.00  0.00     0.058 A 
ATOM      3  C   UNL     1      21.324 -13.897   5.611  1.00  0.00     0.012 A 
ATOM      4  C   UNL     1      23.076 -15.064   7.458  1.00  0.00     0.157 A 
ATOM      5  C   UNL     1      22.026 -13.095   6.515  1.00  0.00     0.051 A 
ATOM      6  C   UNL     1      22.899 -13.676   7.442  1.00  0.00     0.157 A 
ENDROOT
BRANCH   1   7
ATOM      7  C   UNL     1      20.717 -16.102   4.639  1.00  0.00     0.010 C 
ATOM      8  C   UNL     1      20.989 -16.119   3.326  1.00  0.00     0.025 C 
BRANCH   8   9
ATOM      9  C   UNL     1      20.222 -16.943   2.377  1.00  0.00     0.064 C 
ATOM     10  O   UNL     1      19.875 -16.492   1.253  1.00  0.00    -0.545 OA
ATOM     11  O   UNL     1      19.875 -18.241   2.726  1.00  0.00    -0.545 OA
ENDBRANCH   8   9
ENDBRANCH   1   7
BRANCH   4  12
ATOM     12  O   UNL     1      23.956 -15.636   8.374  1.00  0.00    -0.504 OA
ATOM     13  H   UNL     1      24.732 -15.113   8.762  1.00  0.00     0.293 HD
ENDBRANCH   4  12
BRANCH   6  14
ATOM     14  O   UNL     1      23.600 -12.879   8.345  1.00  0.00    -0.504 OA
ATOM     15  H   UNL     1      23.123 -12.354   9.070  1.00  0.00     0.293 HD
ENDBRANCH   6  14
TORSDOF 4
ENDMDL
MODEL 7
REMARK VINA RESULT:    -2.899      1.835      5.969
REMARK INTER + INTRA:          -3.531
REMARK INTER:                  -3.408
REMARK INTRA:                  -0.122
REMARK UNBOUND:                -0.123
REMARK SMILES O=C([O-])C=Cc1ccc(O)c(O)c1
REMARK SMILES IDX 6 1 13 2 7 3 11 4 8 5 9 6 5 7 4 8 2 9 1 10 3 11 12 12 10 14
REMARK H PARENT 12 13 10 15
REMARK Flexibility Score: inf
ROOT
ATOM      1  C   UNL     1      36.250 -30.891  10.062  1.00  0.00    -0.022 A 
ATOM      2  C   UNL     1      37.538 -30.875  10.634  1.00  0.00     0.058 A 
ATOM      3  C   UNL     1      36.022 -31.684   8.925  1.00  0.00     0.012 A 
ATOM      4  C   UNL     1      38.581 -31.618  10.061  1.00  0.00     0.157 A 
ATOM      5  C   UNL     1      37.061 -32.424   8.354  1.00  0.00     0.051 A 
ATOM      6  C   UNL     1      38.343 -32.390   8.917  1.00  0.00     0.157 A 
ENDROOT
BRANCH   1   7
ATOM      7  C   UNL     1      35.111 -30.132  10.637  1.00  0.00     0.010 C 
ATOM      8  C   UNL     1      35.254 -29.126  11.512  1.00  0.00     0.025 C 
BRANCH   8   9
ATOM      9  C   UNL     1      34.101 -28.387  12.052  1.00  0.00     0.064 C 
ATOM     10  O   UNL     1      33.516 -27.500  11.374  1.00  0.00    -0.545 OA
ATOM     11  O   UNL     1      33.648 -28.672  13.333  1.00  0.00    -0.545 OA
ENDBRANCH   8   9
ENDBRANCH   1   7
BRANCH   4  12
ATOM     12  O   UNL     1      39.855 -31.597  10.625  1.00  0.00    -0.504 OA
ATOM     13  H   UNL     1      40.157 -30.840  11.226  1.00  0.00     0.293 HD
ENDBRANCH   4  12
BRANCH   6  14
ATOM     14  O   UNL     1      39.382 -33.125   8.350  1.00  0.00    -0.504 OA
ATOM     15  H   UNL     1      39.776 -33.934   8.816  1.00  0.00     0.293 HD
ENDBRANCH   6  14
TORSDOF 4
ENDMDL
MODEL 8
REMARK VINA RESULT:    -2.766     21.157     22.364
REMARK INTER + INTRA:          -3.374
REMARK INTER:                  -3.237
REMARK INTRA:                  -0.137
REMARK UNBOUND:                -0.123
REMARK SMILES O=C([O-])C=Cc1ccc(O)c(O)c1
REMARK SMILES IDX 6 1 13 2 7 3 11 4 8 5 9 6 5 7 4 8 2 9 1 10 3 11 12 12 10 14
REMARK H PARENT 12 13 10 15
REMARK Flexibility Score: inf
ROOT
ATOM      1  C   UNL     1      20.229 -16.728   2.864  1.00  0.00    -0.022 A 
ATOM      2  C   UNL     1      20.621 -16.355   1.563  1.00  0.00     0.058 A 
ATOM      3  C   UNL     1      19.875 -18.066   3.108  1.00  0.00     0.012 A 
ATOM      4  C   UNL     1      20.632 -17.298   0.524  1.00  0.00     0.157 A 
ATOM      5  C   UNL     1      19.886 -19.004   2.073  1.00  0.00     0.051 A 
ATOM      6  C   UNL     1      20.260 -18.623   0.779  1.00  0.00     0.157 A 
ENDROOT
BRANCH   1   7
ATOM      7  C   UNL     1      20.212 -15.772   3.999  1.00  0.00     0.010 C 
ATOM      8  C   UNL     1      20.997 -15.888   5.081  1.00  0.00     0.025 C 
BRANCH   8   9
ATOM      9  C   UNL     1      20.962 -14.913   6.183  1.00  0.00     0.064 C 
ATOM     10  O   UNL     1      19.896 -14.672   6.810  1.00  0.00    -0.545 OA
ATOM     11  O   UNL     1      22.126 -14.245   6.539  1.00  0.00    -0.545 OA
ENDBRANCH   8   9
ENDBRANCH   1   7
BRANCH   4  12
ATOM     12  O   UNL     1      21.016 -16.925  -0.763  1.00  0.00    -0.504 OA
ATOM     13  H   UNL     1      20.975 -17.576  -1.538  1.00  0.00     0.293 HD
ENDBRANCH   4  12
BRANCH   6  14
ATOM     14  O   UNL     1      20.270 -19.556  -0.256  1.00  0.00    -0.504 OA
ATOM     15  H   UNL     1      19.416 -19.835  -0.727  1.00  0.00     0.293 HD
ENDBRANCH   6  14
TORSDOF 4
ENDMDL
MODEL 9
REMARK VINA RESULT:    -2.744     21.053     21.794
REMARK INTER + INTRA:          -3.348
REMARK INTER:                  -3.202
REMARK INTRA:                  -0.145
REMARK UNBOUND:                -0.123
REMARK SMILES O=C([O-])C=Cc1ccc(O)c(O)c1
REMARK SMILES IDX 6 1 13 2 7 3 11 4 8 5 9 6 5 7 4 8 2 9 1 10 3 11 12 12 10 14
REMARK H PARENT 12 13 10 15
REMARK Flexibility Score: inf
ROOT
ATOM      1  C   UNL     1      20.267 -16.488   3.447  1.00  0.00    -0.022 A 
ATOM      2  C   UNL     1      20.364 -16.406   4.851  1.00  0.00     0.058 A 
ATOM      3  C   UNL     1      20.566 -15.351   2.679  1.00  0.00     0.012 A 
ATOM      4  C   UNL     1      20.727 -15.201   5.471  1.00  0.00     0.157 A 
ATOM      5  C   UNL     1      20.927 -14.151   3.297  1.00  0.00     0.051 A 
ATOM      6  C   UNL     1      21.005 -14.071   4.692  1.00  0.00     0.157 A 
ENDROOT
BRANCH   1   7
ATOM      7  C   UNL     1      19.899 -17.743   2.744  1.00  0.00     0.010 C 
ATOM      8  C   UNL     1      20.429 -18.120   1.571  1.00  0.00     0.025 C 
BRANCH   8   9
ATOM      9  C   UNL     1      20.049 -19.379   0.908  1.00  0.00     0.064 C 
ATOM     10  O   UNL     1      19.878 -19.434  -0.340  1.00  0.00    -0.545 OA
ATOM     11  O   UNL     1      19.876 -20.526   1.670  1.00  0.00    -0.545 OA
ENDBRANCH   8   9
ENDBRANCH   1   7
BRANCH   4  12
ATOM     12  O   UNL     1      20.818 -15.120   6.859  1.00  0.00    -0.504 OA
ATOM     13  H   UNL     1      20.676 -15.933   7.448  1.00  0.00     0.293 HD
ENDBRANCH   4  12
BRANCH   6  14
ATOM     14  O   UNL     1      21.363 -12.875   5.312  1.00  0.00    -0.504 OA
ATOM     15  H   UNL     1      22.051 -12.848   6.056  1.00  0.00     0.293 HD
ENDBRANCH   6  14
TORSDOF 4
ENDMDL
