MODEL 1
REMARK VINA RESULT:    -3.791      0.000      0.000
REMARK INTER + INTRA:          -4.348
REMARK INTER:                  -4.124
REMARK INTRA:                  -0.224
REMARK UNBOUND:                -0.224
REMARK SMILES O=C([O-])c1ccccc1O
REMARK SMILES IDX 4 1 9 2 5 3 8 4 6 5 7 6 2 7 1 8 3 9 10 10
REMARK H PARENT 10 11
REMARK Flexibility Score: inf
ROOT
ATOM      1  C   UNL     1       6.453   0.309  32.013  1.00  0.00     0.039 A 
ATOM      2  C   UNL     1       6.333   0.590  30.628  1.00  0.00     0.124 A 
ATOM      3  C   UNL     1       5.316  -0.126  32.719  1.00  0.00     0.014 A 
ATOM      4  C   UNL     1       5.111   0.372  29.979  1.00  0.00     0.047 A 
ATOM      5  C   UNL     1       4.099  -0.319  32.061  1.00  0.00     0.001 A 
ATOM      6  C   UNL     1       3.999  -0.080  30.691  1.00  0.00     0.004 A 
ENDROOT
BRANCH   1   7
ATOM      7  C   UNL     1       7.737   0.419  32.737  1.00  0.00     0.075 C 
ATOM      8  O   UNL     1       8.257  -0.601  33.264  1.00  0.00    -0.545 OA
ATOM      9  O   UNL     1       8.422   1.627  32.789  1.00  0.00    -0.545 OA
ENDBRANCH   1   7
BRANCH   2  10
ATOM     10  O   UNL     1       7.384   1.118  29.875  1.00  0.00    -0.507 OA
ATOM     11  H   UNL     1       8.334   1.180  30.213  1.00  0.00     0.293 HD
ENDBRANCH   2  10
TORSDOF 2
ENDMDL
MODEL 2
REMARK VINA RESULT:    -3.732      7.065      8.260
REMARK INTER + INTRA:          -4.283
REMARK INTER:                  -4.092
REMARK INTRA:                  -0.191
REMARK UNBOUND:                -0.224
REMARK SMILES O=C([O-])c1ccccc1O
REMARK SMILES IDX 4 1 9 2 5 3 8 4 6 5 7 6 2 7 1 8 3 9 10 10
REMARK H PARENT 10 11
REMARK Flexibility Score: inf
ROOT
ATOM      1  C   UNL     1       2.502  -5.351  35.650  1.00  0.00     0.039 A 
ATOM      2  C   UNL     1       2.609  -4.282  34.724  1.00  0.00     0.124 A 
ATOM      3  C   UNL     1       3.534  -5.544  36.587  1.00  0.00     0.014 A 
ATOM      4  C   UNL     1       3.699  -3.405  34.799  1.00  0.00     0.047 A 
ATOM      5  C   UNL     1       4.625  -4.673  36.635  1.00  0.00     0.001 A 
ATOM      6  C   UNL     1       4.703  -3.600  35.749  1.00  0.00     0.004 A 
ENDROOT
BRANCH   1   7
ATOM      7  C   UNL     1       1.330  -6.250  35.692  1.00  0.00     0.075 C 
ATOM      8  O   UNL     1       1.200  -7.078  36.633  1.00  0.00    -0.545 OA
ATOM      9  O   UNL     1       0.322  -6.150  34.740  1.00  0.00    -0.545 OA
ENDBRANCH   1   7
BRANCH   2  10
ATOM     10  O   UNL     1       1.681  -4.079  33.701  1.00  0.00    -0.507 OA
ATOM     11  H   UNL     1       1.193  -3.205  33.557  1.00  0.00     0.293 HD
ENDBRANCH   2  10
TORSDOF 2
ENDMDL
MODEL 3
REMARK VINA RESULT:    -3.594      6.495      7.570
REMARK INTER + INTRA:          -4.133
REMARK INTER:                  -3.896
REMARK INTRA:                  -0.237
REMARK UNBOUND:                -0.224
REMARK SMILES O=C([O-])c1ccccc1O
REMARK SMILES IDX 4 1 9 2 5 3 8 4 6 5 7 6 2 7 1 8 3 9 10 10
REMARK H PARENT 10 11
REMARK Flexibility Score: inf
ROOT
ATOM      1  C   UNL     1       3.047  -4.800  35.459  1.00  0.00     0.039 A 
ATOM      2  C   UNL     1       1.914  -4.863  34.608  1.00  0.00     0.124 A 
ATOM      3  C   UNL     1       3.158  -5.727  36.513  1.00  0.00     0.014 A 
ATOM      4  C   UNL     1       0.965  -5.876  34.790  1.00  0.00     0.047 A 
ATOM      5  C   UNL     1       2.191  -6.718  36.694  1.00  0.00     0.001 A 
ATOM      6  C   UNL     1       1.102  -6.799  35.828  1.00  0.00     0.004 A 
ENDROOT
BRANCH   1   7
ATOM      7  C   UNL     1       4.138  -3.822  35.260  1.00  0.00     0.075 C 
ATOM      8  O   UNL     1       4.376  -3.365  34.111  1.00  0.00    -0.545 OA
ATOM      9  O   UNL     1       4.866  -3.340  36.341  1.00  0.00    -0.545 OA
ENDBRANCH   1   7
BRANCH   2  10
ATOM     10  O   UNL     1       1.678  -3.924  33.603  1.00  0.00    -0.507 OA
ATOM     11  H   UNL     1       1.839  -2.932  33.717  1.00  0.00     0.293 HD
ENDBRANCH   2  10
TORSDOF 2
ENDMDL
MODEL 4
REMARK VINA RESULT:    -3.592      5.393      6.509
REMARK INTER + INTRA:          -4.131
REMARK INTER:                  -3.912
REMARK INTRA:                  -0.219
REMARK UNBOUND:                -0.224
REMARK SMILES O=C([O-])c1ccccc1O
REMARK SMILES IDX 4 1 9 2 5 3 8 4 6 5 7 6 2 7 1 8 3 9 10 10
REMARK H PARENT 10 11
REMARK Flexibility Score: inf
ROOT
ATOM      1  C   UNL     1       3.965  -3.643  34.712  1.00  0.00     0.039 A 
ATOM      2  C   UNL     1       2.705  -4.279  34.577  1.00  0.00     0.124 A 
ATOM      3  C   UNL     1       4.796  -4.001  35.791  1.00  0.00     0.014 A 
ATOM      4  C   UNL     1       2.338  -5.290  35.475  1.00  0.00     0.047 A 
ATOM      5  C   UNL     1       4.406  -4.996  36.690  1.00  0.00     0.001 A 
ATOM      6  C   UNL     1       3.184  -5.646  36.527  1.00  0.00     0.004 A 
ENDROOT
BRANCH   1   7
ATOM      7  C   UNL     1       4.458  -2.642  33.741  1.00  0.00     0.075 C 
ATOM      8  O   UNL     1       5.690  -2.399  33.652  1.00  0.00    -0.545 OA
ATOM      9  O   UNL     1       3.581  -2.008  32.868  1.00  0.00    -0.545 OA
ENDBRANCH   1   7
BRANCH   2  10
ATOM     10  O   UNL     1       1.781  -3.915  33.596  1.00  0.00    -0.507 OA
ATOM     11  H   UNL     1       1.312  -4.581  32.998  1.00  0.00     0.293 HD
ENDBRANCH   2  10
TORSDOF 2
ENDMDL
MODEL 5
REMARK VINA RESULT:    -3.508     15.894     16.861
REMARK INTER + INTRA:          -4.039
REMARK INTER:                  -3.803
REMARK INTRA:                  -0.236
REMARK UNBOUND:                -0.224
REMARK SMILES O=C([O-])c1ccccc1O
REMARK SMILES IDX 4 1 9 2 5 3 8 4 6 5 7 6 2 7 1 8 3 9 10 10
REMARK H PARENT 10 11
REMARK Flexibility Score: inf
ROOT
ATOM      1  C   UNL     1      -0.677   4.084  46.593  1.00  0.00     0.039 A 
ATOM      2  C   UNL     1      -0.018   4.680  45.488  1.00  0.00     0.124 A 
ATOM      3  C   UNL     1      -1.521   4.879  47.391  1.00  0.00     0.014 A 
ATOM      4  C   UNL     1      -0.268   6.022  45.173  1.00  0.00     0.047 A 
ATOM      5  C   UNL     1      -1.742   6.222  47.076  1.00  0.00     0.001 A 
ATOM      6  C   UNL     1      -1.124   6.790  45.963  1.00  0.00     0.004 A 
ENDROOT
BRANCH   1   7
ATOM      7  C   UNL     1      -0.539   2.649  46.920  1.00  0.00     0.075 C 
ATOM      8  O   UNL     1      -1.493   2.028  47.461  1.00  0.00    -0.545 OA
ATOM      9  O   UNL     1       0.611   1.948  46.575  1.00  0.00    -0.545 OA
ENDBRANCH   1   7
BRANCH   2  10
ATOM     10  O   UNL     1       0.910   3.991  44.705  1.00  0.00    -0.507 OA
ATOM     11  H   UNL     1       0.727   3.694  43.756  1.00  0.00     0.293 HD
ENDBRANCH   2  10
TORSDOF 2
ENDMDL
MODEL 6
REMARK VINA RESULT:    -3.497     17.912     18.713
REMARK INTER + INTRA:          -4.028
REMARK INTER:                  -3.823
REMARK INTRA:                  -0.205
REMARK UNBOUND:                -0.224
REMARK SMILES O=C([O-])c1ccccc1O
REMARK SMILES IDX 4 1 9 2 5 3 8 4 6 5 7 6 2 7 1 8 3 9 10 10
REMARK H PARENT 10 11
REMARK Flexibility Score: inf
ROOT
ATOM      1  C   UNL     1      -8.204  -0.546  43.153  1.00  0.00     0.039 A 
ATOM      2  C   UNL     1      -8.627   0.306  42.100  1.00  0.00     0.124 A 
ATOM      3  C   UNL     1      -8.204  -0.050  44.470  1.00  0.00     0.014 A 
ATOM      4  C   UNL     1      -9.095   1.593  42.396  1.00  0.00     0.047 A 
ATOM      5  C   UNL     1      -8.653   1.243  44.745  1.00  0.00     0.001 A 
ATOM      6  C   UNL     1      -9.107   2.060  43.711  1.00  0.00     0.004 A 
ENDROOT
BRANCH   1   7
ATOM      7  C   UNL     1      -7.796  -1.949  42.924  1.00  0.00     0.075 C 
ATOM      8  O   UNL     1      -6.762  -2.206  42.252  1.00  0.00    -0.545 OA
ATOM      9  O   UNL     1      -8.503  -2.997  43.501  1.00  0.00    -0.545 OA
ENDBRANCH   1   7
BRANCH   2  10
ATOM     10  O   UNL     1      -8.566  -0.072  40.758  1.00  0.00    -0.507 OA
ATOM     11  H   UNL     1      -9.239  -0.686  40.321  1.00  0.00     0.293 HD
ENDBRANCH   2  10
TORSDOF 2
ENDMDL
MODEL 7
REMARK VINA RESULT:    -3.422      3.174      3.911
REMARK INTER + INTRA:          -3.946
REMARK INTER:                  -3.700
REMARK INTRA:                  -0.246
REMARK UNBOUND:                -0.224
REMARK SMILES O=C([O-])c1ccccc1O
REMARK SMILES IDX 4 1 9 2 5 3 8 4 6 5 7 6 2 7 1 8 3 9 10 10
REMARK H PARENT 10 11
REMARK Flexibility Score: inf
ROOT
ATOM      1  C   UNL     1       5.226  -1.863  33.055  1.00  0.00     0.039 A 
ATOM      2  C   UNL     1       4.066  -1.333  32.434  1.00  0.00     0.124 A 
ATOM      3  C   UNL     1       6.471  -1.260  32.797  1.00  0.00     0.014 A 
ATOM      4  C   UNL     1       4.170  -0.190  31.632  1.00  0.00     0.047 A 
ATOM      5  C   UNL     1       6.561  -0.134  31.977  1.00  0.00     0.001 A 
ATOM      6  C   UNL     1       5.411   0.407  31.404  1.00  0.00     0.004 A 
ENDROOT
BRANCH   1   7
ATOM      7  C   UNL     1       5.173  -3.004  33.995  1.00  0.00     0.075 C 
ATOM      8  O   UNL     1       6.039  -3.916  33.933  1.00  0.00    -0.545 OA
ATOM      9  O   UNL     1       4.213  -3.054  34.999  1.00  0.00    -0.545 OA
ENDBRANCH   1   7
BRANCH   2  10
ATOM     10  O   UNL     1       2.809  -1.928  32.558  1.00  0.00    -0.507 OA
ATOM     11  H   UNL     1       2.661  -2.833  32.985  1.00  0.00     0.293 HD
ENDBRANCH   2  10
TORSDOF 2
ENDMDL
MODEL 8
REMARK VINA RESULT:    -3.371     16.273     17.235
REMARK INTER + INTRA:          -3.891
REMARK INTER:                  -3.680
REMARK INTRA:                  -0.211
REMARK UNBOUND:                -0.224
REMARK SMILES O=C([O-])c1ccccc1O
REMARK SMILES IDX 4 1 9 2 5 3 8 4 6 5 7 6 2 7 1 8 3 9 10 10
REMARK H PARENT 10 11
REMARK Flexibility Score: inf
ROOT
ATOM      1  C   UNL     1      -0.579   6.606  45.794  1.00  0.00     0.039 A 
ATOM      2  C   UNL     1       0.655   7.278  45.992  1.00  0.00     0.124 A 
ATOM      3  C   UNL     1      -1.778   7.292  46.064  1.00  0.00     0.014 A 
ATOM      4  C   UNL     1       0.656   8.622  46.388  1.00  0.00     0.047 A 
ATOM      5  C   UNL     1      -1.758   8.625  46.479  1.00  0.00     0.001 A 
ATOM      6  C   UNL     1      -0.543   9.292  46.631  1.00  0.00     0.004 A 
ENDROOT
BRANCH   1   7
ATOM      7  C   UNL     1      -0.655   5.222  45.279  1.00  0.00     0.075 C 
ATOM      8  O   UNL     1      -1.770   4.646  45.175  1.00  0.00    -0.545 OA
ATOM      9  O   UNL     1       0.487   4.564  44.838  1.00  0.00    -0.545 OA
ENDBRANCH   1   7
BRANCH   2  10
ATOM     10  O   UNL     1       1.889   6.643  45.842  1.00  0.00    -0.507 OA
ATOM     11  H   UNL     1       2.106   5.746  46.253  1.00  0.00     0.293 HD
ENDBRANCH   2  10
TORSDOF 2
ENDMDL
MODEL 9
REMARK VINA RESULT:    -3.340     16.563     17.553
REMARK INTER + INTRA:          -3.857
REMARK INTER:                  -3.607
REMARK INTRA:                  -0.250
REMARK UNBOUND:                -0.224
REMARK SMILES O=C([O-])c1ccccc1O
REMARK SMILES IDX 4 1 9 2 5 3 8 4 6 5 7 6 2 7 1 8 3 9 10 10
REMARK H PARENT 10 11
REMARK Flexibility Score: inf
ROOT
ATOM      1  C   UNL     1      -1.064   7.156  45.995  1.00  0.00     0.039 A 
ATOM      2  C   UNL     1       0.347   7.304  46.010  1.00  0.00     0.124 A 
ATOM      3  C   UNL     1      -1.615   5.935  45.565  1.00  0.00     0.014 A 
ATOM      4  C   UNL     1       1.161   6.219  45.659  1.00  0.00     0.047 A 
ATOM      5  C   UNL     1      -0.789   4.871  45.197  1.00  0.00     0.001 A 
ATOM      6  C   UNL     1       0.597   5.009  45.254  1.00  0.00     0.004 A 
ENDROOT
BRANCH   1   7
ATOM      7  C   UNL     1      -1.978   8.225  46.451  1.00  0.00     0.075 C 
ATOM      8  O   UNL     1      -2.864   7.976  47.312  1.00  0.00    -0.545 OA
ATOM      9  O   UNL     1      -1.832   9.529  45.993  1.00  0.00    -0.545 OA
ENDBRANCH   1   7
BRANCH   2  10
ATOM     10  O   UNL     1       0.973   8.510  46.328  1.00  0.00    -0.507 OA
ATOM     11  H   UNL     1       0.692   9.095  47.103  1.00  0.00     0.293 HD
ENDBRANCH   2  10
TORSDOF 2
ENDMDL
