MODEL 1
REMARK VINA RESULT:    -3.074      0.000      0.000
REMARK INTER + INTRA:          -3.074
REMARK INTER:                  -3.074
REMARK INTRA:                   0.000
REMARK UNBOUND:                 0.000
REMARK SMILES CC(C)=C1CC[C@@H](C)CC1=O
REMARK SMILES IDX 8 1 7 2 6 3 5 4 4 5 2 6 1 7 3 8 10 9 11 10 9 11
REMARK H PARENT
REMARK Flexibility Score: inf
ROOT
ATOM      1  C   UNL     1     170.948 170.932 151.535  1.00  0.00     0.008 C 
ATOM      2  C   UNL     1     170.312 170.586 150.183  1.00  0.00    -0.006 C 
ATOM      3  C   UNL     1     171.363 170.002 149.225  1.00  0.00     0.008 C 
ATOM      4  C   UNL     1     170.723 169.555 147.903  1.00  0.00     0.039 C 
ATOM      5  C   UNL     1     169.889 170.654 147.258  1.00  0.00    -0.006 C 
ATOM      6  C   UNL     1     169.774 170.752 145.901  1.00  0.00    -0.070 C 
ATOM      7  C   UNL     1     168.995 171.870 145.247  1.00  0.00     0.039 C 
ATOM      8  C   UNL     1     170.456 169.764 144.983  1.00  0.00     0.039 C 
ATOM      9  C   UNL     1     169.122 171.529 148.192  1.00  0.00     0.159 C 
ATOM     10  O   UNL     1     168.010 172.024 147.863  1.00  0.00    -0.295 OA
ATOM     11  C   UNL     1     169.666 171.832 149.558  1.00  0.00     0.084 C 
ENDROOT
TORSDOF 0
ENDMDL
MODEL 2
REMARK VINA RESULT:    -3.060     23.509     23.937
REMARK INTER + INTRA:          -3.060
REMARK INTER:                  -3.060
REMARK INTRA:                   0.000
REMARK UNBOUND:                 0.000
REMARK SMILES CC(C)=C1CC[C@@H](C)CC1=O
REMARK SMILES IDX 8 1 7 2 6 3 5 4 4 5 2 6 1 7 3 8 10 9 11 10 9 11
REMARK H PARENT
REMARK Flexibility Score: inf
ROOT
ATOM      1  C   UNL     1     153.033 152.998 151.446  1.00  0.00     0.008 C 
ATOM      2  C   UNL     1     153.681 153.358 150.103  1.00  0.00    -0.006 C 
ATOM      3  C   UNL     1     152.637 153.949 149.141  1.00  0.00     0.008 C 
ATOM      4  C   UNL     1     153.287 154.409 147.829  1.00  0.00     0.039 C 
ATOM      5  C   UNL     1     154.130 153.319 147.182  1.00  0.00    -0.006 C 
ATOM      6  C   UNL     1     154.257 153.233 145.824  1.00  0.00    -0.070 C 
ATOM      7  C   UNL     1     155.044 152.123 145.167  1.00  0.00     0.039 C 
ATOM      8  C   UNL     1     153.581 154.229 144.910  1.00  0.00     0.039 C 
ATOM      9  C   UNL     1     154.890 152.436 148.114  1.00  0.00     0.159 C 
ATOM     10  O   UNL     1     156.006 151.947 147.790  1.00  0.00    -0.295 OA
ATOM     11  C   UNL     1     154.335 152.120 149.473  1.00  0.00     0.084 C 
ENDROOT
TORSDOF 0
ENDMDL
MODEL 3
REMARK VINA RESULT:    -2.948      1.729      4.677
REMARK INTER + INTRA:          -2.948
REMARK INTER:                  -2.948
REMARK INTRA:                   0.000
REMARK UNBOUND:                 0.000
REMARK SMILES CC(C)=C1CC[C@@H](C)CC1=O
REMARK SMILES IDX 8 1 7 2 6 3 5 4 4 5 2 6 1 7 3 8 10 9 11 10 9 11
REMARK H PARENT
REMARK Flexibility Score: inf
ROOT
ATOM      1  C   UNL     1     168.752 171.066 143.701  1.00  0.00     0.008 C 
ATOM      2  C   UNL     1     168.962 170.768 145.190  1.00  0.00    -0.006 C 
ATOM      3  C   UNL     1     169.344 172.048 145.950  1.00  0.00     0.008 C 
ATOM      4  C   UNL     1     169.457 171.788 147.458  1.00  0.00     0.039 C 
ATOM      5  C   UNL     1     170.379 170.620 147.781  1.00  0.00    -0.006 C 
ATOM      6  C   UNL     1     171.117 170.595 148.930  1.00  0.00    -0.070 C 
ATOM      7  C   UNL     1     172.076 169.468 149.236  1.00  0.00     0.039 C 
ATOM      8  C   UNL     1     171.035 171.718 149.938  1.00  0.00     0.039 C 
ATOM      9  C   UNL     1     170.334 169.468 146.833  1.00  0.00     0.159 C 
ATOM     10  O   UNL     1     170.524 168.286 147.228  1.00  0.00    -0.295 OA
ATOM     11  C   UNL     1     170.052 169.702 145.377  1.00  0.00     0.084 C 
ENDROOT
TORSDOF 0
ENDMDL
MODEL 4
REMARK VINA RESULT:    -2.939      1.447      4.507
REMARK INTER + INTRA:          -2.939
REMARK INTER:                  -2.939
REMARK INTRA:                   0.000
REMARK UNBOUND:                 0.000
REMARK SMILES CC(C)=C1CC[C@@H](C)CC1=O
REMARK SMILES IDX 8 1 7 2 6 3 5 4 4 5 2 6 1 7 3 8 10 9 11 10 9 11
REMARK H PARENT
REMARK Flexibility Score: inf
ROOT
ATOM      1  C   UNL     1     169.818 170.650 146.233  1.00  0.00     0.008 C 
ATOM      2  C   UNL     1     169.892 171.103 147.696  1.00  0.00    -0.006 C 
ATOM      3  C   UNL     1     170.937 170.280 148.466  1.00  0.00     0.008 C 
ATOM      4  C   UNL     1     171.098 170.788 149.905  1.00  0.00     0.039 C 
ATOM      5  C   UNL     1     169.768 170.882 150.642  1.00  0.00    -0.006 C 
ATOM      6  C   UNL     1     169.689 170.677 151.990  1.00  0.00    -0.070 C 
ATOM      7  C   UNL     1     168.369 170.712 152.724  1.00  0.00     0.039 C 
ATOM      8  C   UNL     1     170.921 170.368 152.809  1.00  0.00     0.039 C 
ATOM      9  C   UNL     1     168.597 171.321 149.828  1.00  0.00     0.159 C 
ATOM     10  O   UNL     1     167.660 171.994 150.338  1.00  0.00    -0.295 OA
ATOM     11  C   UNL     1     168.518 170.970 148.371  1.00  0.00     0.084 C 
ENDROOT
TORSDOF 0
ENDMDL
MODEL 5
REMARK VINA RESULT:    -2.932     23.393     24.090
REMARK INTER + INTRA:          -2.932
REMARK INTER:                  -2.932
REMARK INTRA:                   0.000
REMARK UNBOUND:                 0.000
REMARK SMILES CC(C)=C1CC[C@@H](C)CC1=O
REMARK SMILES IDX 8 1 7 2 6 3 5 4 4 5 2 6 1 7 3 8 10 9 11 10 9 11
REMARK H PARENT
REMARK Flexibility Score: inf
ROOT
ATOM      1  C   UNL     1     154.182 153.374 146.280  1.00  0.00     0.008 C 
ATOM      2  C   UNL     1     154.108 152.914 147.741  1.00  0.00    -0.006 C 
ATOM      3  C   UNL     1     153.042 153.713 148.507  1.00  0.00     0.008 C 
ATOM      4  C   UNL     1     152.883 153.197 149.943  1.00  0.00     0.039 C 
ATOM      5  C   UNL     1     154.209 153.128 150.688  1.00  0.00    -0.006 C 
ATOM      6  C   UNL     1     154.276 153.329 152.037  1.00  0.00    -0.070 C 
ATOM      7  C   UNL     1     155.593 153.318 152.779  1.00  0.00     0.039 C 
ATOM      8  C   UNL     1     153.033 153.610 152.850  1.00  0.00     0.039 C 
ATOM      9  C   UNL     1     155.395 152.716 149.880  1.00  0.00     0.159 C 
ATOM     10  O   UNL     1     156.342 152.060 150.393  1.00  0.00    -0.295 OA
ATOM     11  C   UNL     1     155.475 153.073 148.424  1.00  0.00     0.084 C 
ENDROOT
TORSDOF 0
ENDMDL
MODEL 6
REMARK VINA RESULT:    -2.879      3.516      6.515
REMARK INTER + INTRA:          -2.879
REMARK INTER:                  -2.879
REMARK INTRA:                   0.000
REMARK UNBOUND:                 0.000
REMARK SMILES CC(C)=C1CC[C@@H](C)CC1=O
REMARK SMILES IDX 8 1 7 2 6 3 5 4 4 5 2 6 1 7 3 8 10 9 11 10 9 11
REMARK H PARENT
REMARK Flexibility Score: inf
ROOT
ATOM      1  C   UNL     1     166.874 170.186 140.161  1.00  0.00     0.008 C 
ATOM      2  C   UNL     1     167.064 170.996 141.449  1.00  0.00    -0.006 C 
ATOM      3  C   UNL     1     168.522 170.913 141.930  1.00  0.00     0.008 C 
ATOM      4  C   UNL     1     168.754 171.801 143.160  1.00  0.00     0.039 C 
ATOM      5  C   UNL     1     167.754 171.526 144.275  1.00  0.00    -0.006 C 
ATOM      6  C   UNL     1     168.099 171.670 145.588  1.00  0.00    -0.070 C 
ATOM      7  C   UNL     1     167.132 171.347 146.705  1.00  0.00     0.039 C 
ATOM      8  C   UNL     1     169.483 172.125 145.990  1.00  0.00     0.039 C 
ATOM      9  C   UNL     1     166.361 171.210 143.842  1.00  0.00     0.159 C 
ATOM     10  O   UNL     1     165.366 171.543 144.542  1.00  0.00    -0.295 OA
ATOM     11  C   UNL     1     166.119 170.488 142.548  1.00  0.00     0.084 C 
ENDROOT
TORSDOF 0
ENDMDL
MODEL 7
REMARK VINA RESULT:    -2.854     22.987     23.470
REMARK INTER + INTRA:          -2.854
REMARK INTER:                  -2.854
REMARK INTRA:                   0.000
REMARK UNBOUND:                 0.000
REMARK SMILES CC(C)=C1CC[C@@H](C)CC1=O
REMARK SMILES IDX 8 1 7 2 6 3 5 4 4 5 2 6 1 7 3 8 10 9 11 10 9 11
REMARK H PARENT
REMARK Flexibility Score: inf
ROOT
ATOM      1  C   UNL     1     153.179 153.086 150.787  1.00  0.00     0.008 C 
ATOM      2  C   UNL     1     154.098 152.428 149.751  1.00  0.00    -0.006 C 
ATOM      3  C   UNL     1     155.574 152.621 150.137  1.00  0.00     0.008 C 
ATOM      4  C   UNL     1     156.505 151.881 149.166  1.00  0.00     0.039 C 
ATOM      5  C   UNL     1     156.229 152.236 147.710  1.00  0.00    -0.006 C 
ATOM      6  C   UNL     1     157.232 152.249 146.783  1.00  0.00    -0.070 C 
ATOM      7  C   UNL     1     156.982 152.653 145.348  1.00  0.00     0.039 C 
ATOM      8  C   UNL     1     158.652 151.896 147.158  1.00  0.00     0.039 C 
ATOM      9  C   UNL     1     154.798 152.448 147.346  1.00  0.00     0.159 C 
ATOM     10  O   UNL     1     154.362 152.153 146.200  1.00  0.00    -0.295 OA
ATOM     11  C   UNL     1     153.840 153.014 148.354  1.00  0.00     0.084 C 
ENDROOT
TORSDOF 0
ENDMDL
MODEL 8
REMARK VINA RESULT:    -2.841      2.035      3.043
REMARK INTER + INTRA:          -2.841
REMARK INTER:                  -2.841
REMARK INTRA:                   0.000
REMARK UNBOUND:                 0.000
REMARK SMILES CC(C)=C1CC[C@@H](C)CC1=O
REMARK SMILES IDX 8 1 7 2 6 3 5 4 4 5 2 6 1 7 3 8 10 9 11 10 9 11
REMARK H PARENT
REMARK Flexibility Score: inf
ROOT
ATOM      1  C   UNL     1     170.933 170.943 150.438  1.00  0.00     0.008 C 
ATOM      2  C   UNL     1     169.947 171.600 149.466  1.00  0.00    -0.006 C 
ATOM      3  C   UNL     1     168.499 171.384 149.936  1.00  0.00     0.008 C 
ATOM      4  C   UNL     1     167.503 172.122 149.030  1.00  0.00     0.039 C 
ATOM      5  C   UNL     1     167.697 171.788 147.557  1.00  0.00    -0.006 C 
ATOM      6  C   UNL     1     166.642 171.772 146.689  1.00  0.00    -0.070 C 
ATOM      7  C   UNL     1     166.812 171.389 145.237  1.00  0.00     0.039 C 
ATOM      8  C   UNL     1     165.242 172.103 147.152  1.00  0.00     0.039 C 
ATOM      9  C   UNL     1     169.107 171.600 147.107  1.00  0.00     0.159 C 
ATOM     10  O   UNL     1     169.471 171.913 145.941  1.00  0.00    -0.295 OA
ATOM     11  C   UNL     1     170.129 171.034 148.050  1.00  0.00     0.084 C 
ENDROOT
TORSDOF 0
ENDMDL
MODEL 9
REMARK VINA RESULT:    -0.259     23.231     23.899
REMARK INTER + INTRA:          -0.259
REMARK INTER:                  -0.259
REMARK INTRA:                   0.000
REMARK UNBOUND:                 0.000
REMARK SMILES CC(C)=C1CC[C@@H](C)CC1=O
REMARK SMILES IDX 8 1 7 2 6 3 5 4 4 5 2 6 1 7 3 8 10 9 11 10 9 11
REMARK H PARENT
REMARK Flexibility Score: inf
ROOT
ATOM      1  C   UNL     1     155.736 152.485 144.044  1.00  0.00     0.008 C 
ATOM      2  C   UNL     1     155.393 153.029 145.436  1.00  0.00    -0.006 C 
ATOM      3  C   UNL     1     155.144 151.875 146.421  1.00  0.00     0.008 C 
ATOM      4  C   UNL     1     154.899 152.399 147.842  1.00  0.00     0.039 C 
ATOM      5  C   UNL     1     153.807 153.458 147.893  1.00  0.00    -0.006 C 
ATOM      6  C   UNL     1     153.000 153.593 148.988  1.00  0.00    -0.070 C 
ATOM      7  C   UNL     1     151.877 154.603 149.029  1.00  0.00     0.039 C 
ATOM      8  C   UNL     1     153.172 152.708 150.201  1.00  0.00     0.039 C 
ATOM      9  C   UNL     1     153.752 154.401 146.738  1.00  0.00     0.159 C 
ATOM     10  O   UNL     1     153.376 155.596 146.883  1.00  0.00    -0.295 OA
ATOM     11  C   UNL     1     154.156 153.937 145.368  1.00  0.00     0.084 C 
ENDROOT
TORSDOF 0
ENDMDL
