MODEL 1
REMARK VINA RESULT:    -2.997      0.000      0.000
REMARK INTER + INTRA:          -3.364
REMARK INTER:                  -3.347
REMARK INTRA:                  -0.017
REMARK UNBOUND:                -0.017
REMARK SMILES CCCC(=O)[O-]
REMARK SMILES IDX 3 1 4 2 5 3 6 4 2 5 1 6
REMARK H PARENT
REMARK Flexibility Score: inf
ROOT
ATOM      1  C   UNL     1     -25.498 -25.703 -18.624  1.00  0.00     0.052 C 
ENDROOT
BRANCH   1   2
ATOM      2  C   UNL     1     -26.690 -24.857 -18.297  1.00  0.00     0.041 C 
ATOM      3  O   UNL     1     -27.853 -25.330 -18.406  1.00  0.00    -0.550 OA
ATOM      4  O   UNL     1     -26.516 -23.557 -17.839  1.00  0.00    -0.550 OA
ENDBRANCH   1   2
BRANCH   1   5
ATOM      5  C   UNL     1     -24.279 -25.319 -17.774  1.00  0.00     0.003 C 
ATOM      6  C   UNL     1     -22.965 -25.467 -18.541  1.00  0.00     0.004 C 
ENDBRANCH   1   5
TORSDOF 2
ENDMDL
MODEL 2
REMARK VINA RESULT:    -2.951     12.763     13.852
REMARK INTER + INTRA:          -3.313
REMARK INTER:                  -3.297
REMARK INTRA:                  -0.016
REMARK UNBOUND:                -0.017
REMARK SMILES CCCC(=O)[O-]
REMARK SMILES IDX 3 1 4 2 5 3 6 4 2 5 1 6
REMARK H PARENT
REMARK Flexibility Score: inf
ROOT
ATOM      1  C   UNL     1     -12.812 -27.641 -17.311  1.00  0.00     0.052 C 
ENDROOT
BRANCH   1   2
ATOM      2  C   UNL     1     -11.385 -27.193 -17.254  1.00  0.00     0.041 C 
ATOM      3  O   UNL     1     -10.819 -26.742 -18.284  1.00  0.00    -0.550 OA
ATOM      4  O   UNL     1     -10.688 -27.241 -16.052  1.00  0.00    -0.550 OA
ENDBRANCH   1   2
BRANCH   1   5
ATOM      5  C   UNL     1     -13.667 -26.704 -18.175  1.00  0.00     0.003 C 
ATOM      6  C   UNL     1     -14.842 -27.429 -18.833  1.00  0.00     0.004 C 
ENDBRANCH   1   5
TORSDOF 2
ENDMDL
MODEL 3
REMARK VINA RESULT:    -2.937     11.944     13.054
REMARK INTER + INTRA:          -3.298
REMARK INTER:                  -3.286
REMARK INTRA:                  -0.011
REMARK UNBOUND:                -0.017
REMARK SMILES CCCC(=O)[O-]
REMARK SMILES IDX 3 1 4 2 5 3 6 4 2 5 1 6
REMARK H PARENT
REMARK Flexibility Score: inf
ROOT
ATOM      1  C   UNL     1     -12.852 -27.069 -17.846  1.00  0.00     0.052 C 
ENDROOT
BRANCH   1   2
ATOM      2  C   UNL     1     -13.935 -28.090 -18.014  1.00  0.00     0.041 C 
ATOM      3  O   UNL     1     -14.123 -28.966 -17.129  1.00  0.00    -0.550 OA
ATOM      4  O   UNL     1     -14.759 -28.053 -19.133  1.00  0.00    -0.550 OA
ENDBRANCH   1   2
BRANCH   1   5
ATOM      5  C   UNL     1     -11.797 -27.521 -16.828  1.00  0.00     0.003 C 
ATOM      6  C   UNL     1     -10.415 -26.939 -17.125  1.00  0.00     0.004 C 
ENDBRANCH   1   5
TORSDOF 2
ENDMDL
MODEL 4
REMARK VINA RESULT:    -2.897     11.660     13.035
REMARK INTER + INTRA:          -3.253
REMARK INTER:                  -3.237
REMARK INTRA:                  -0.016
REMARK UNBOUND:                -0.017
REMARK SMILES CCCC(=O)[O-]
REMARK SMILES IDX 3 1 4 2 5 3 6 4 2 5 1 6
REMARK H PARENT
REMARK Flexibility Score: inf
ROOT
ATOM      1  C   UNL     1     -13.373 -26.538 -18.275  1.00  0.00     0.052 C 
ENDROOT
BRANCH   1   2
ATOM      2  C   UNL     1     -12.225 -27.247 -17.625  1.00  0.00     0.041 C 
ATOM      3  O   UNL     1     -12.436 -28.190 -16.818  1.00  0.00    -0.550 OA
ATOM      4  O   UNL     1     -10.919 -26.887 -17.937  1.00  0.00    -0.550 OA
ENDBRANCH   1   2
BRANCH   1   5
ATOM      5  C   UNL     1     -14.498 -27.509 -18.655  1.00  0.00     0.003 C 
ATOM      6  C   UNL     1     -15.872 -26.837 -18.658  1.00  0.00     0.004 C 
ENDBRANCH   1   5
TORSDOF 2
ENDMDL
MODEL 5
REMARK VINA RESULT:    -2.878      2.182      3.398
REMARK INTER + INTRA:          -3.232
REMARK INTER:                  -3.220
REMARK INTRA:                  -0.012
REMARK UNBOUND:                -0.017
REMARK SMILES CCCC(=O)[O-]
REMARK SMILES IDX 3 1 4 2 5 3 6 4 2 5 1 6
REMARK H PARENT
REMARK Flexibility Score: inf
ROOT
ATOM      1  C   UNL     1     -25.502 -25.672 -18.532  1.00  0.00     0.052 C 
ENDROOT
BRANCH   1   2
ATOM      2  C   UNL     1     -24.152 -25.321 -17.988  1.00  0.00     0.041 C 
ATOM      3  O   UNL     1     -23.121 -25.486 -18.692  1.00  0.00    -0.550 OA
ATOM      4  O   UNL     1     -24.035 -24.779 -16.713  1.00  0.00    -0.550 OA
ENDBRANCH   1   2
BRANCH   1   5
ATOM      5  C   UNL     1     -26.540 -24.586 -18.218  1.00  0.00     0.003 C 
ATOM      6  C   UNL     1     -27.965 -25.139 -18.175  1.00  0.00     0.004 C 
ENDBRANCH   1   5
TORSDOF 2
ENDMDL
MODEL 6
REMARK VINA RESULT:    -2.634     11.331     11.555
REMARK INTER + INTRA:          -2.959
REMARK INTER:                  -2.938
REMARK INTRA:                  -0.021
REMARK UNBOUND:                -0.017
REMARK SMILES CCCC(=O)[O-]
REMARK SMILES IDX 3 1 4 2 5 3 6 4 2 5 1 6
REMARK H PARENT
REMARK Flexibility Score: inf
ROOT
ATOM      1  C   UNL     1     -26.343 -21.649 -28.502  1.00  0.00     0.052 C 
ENDROOT
BRANCH   1   2
ATOM      2  C   UNL     1     -27.626 -20.878 -28.515  1.00  0.00     0.041 C 
ATOM      3  O   UNL     1     -27.946 -20.161 -27.530  1.00  0.00    -0.550 OA
ATOM      4  O   UNL     1     -28.454 -20.924 -29.631  1.00  0.00    -0.550 OA
ENDBRANCH   1   2
BRANCH   1   5
ATOM      5  C   UNL     1     -26.229 -22.584 -29.714  1.00  0.00     0.003 C 
ATOM      6  C   UNL     1     -24.844 -22.535 -30.359  1.00  0.00     0.004 C 
ENDBRANCH   1   5
TORSDOF 2
ENDMDL
MODEL 7
REMARK VINA RESULT:    -2.626     18.269     18.822
REMARK INTER + INTRA:          -2.950
REMARK INTER:                  -2.922
REMARK INTRA:                  -0.027
REMARK UNBOUND:                -0.017
REMARK SMILES CCCC(=O)[O-]
REMARK SMILES IDX 3 1 4 2 5 3 6 4 2 5 1 6
REMARK H PARENT
REMARK Flexibility Score: inf
ROOT
ATOM      1  C   UNL     1     -12.439 -34.314 -25.646  1.00  0.00     0.052 C 
ENDROOT
BRANCH   1   2
ATOM      2  C   UNL     1     -11.171 -35.054 -25.354  1.00  0.00     0.041 C 
ATOM      3  O   UNL     1     -10.432 -35.445 -26.296  1.00  0.00    -0.550 OA
ATOM      4  O   UNL     1     -10.787 -35.284 -24.038  1.00  0.00    -0.550 OA
ENDBRANCH   1   2
BRANCH   1   5
ATOM      5  C   UNL     1     -12.577 -33.993 -27.141  1.00  0.00     0.003 C 
ATOM      6  C   UNL     1     -13.935 -34.413 -27.703  1.00  0.00     0.004 C 
ENDBRANCH   1   5
TORSDOF 2
ENDMDL
MODEL 8
REMARK VINA RESULT:    -2.557      1.578      2.071
REMARK INTER + INTRA:          -2.873
REMARK INTER:                  -2.863
REMARK INTRA:                  -0.010
REMARK UNBOUND:                -0.017
REMARK SMILES CCCC(=O)[O-]
REMARK SMILES IDX 3 1 4 2 5 3 6 4 2 5 1 6
REMARK H PARENT
REMARK Flexibility Score: inf
ROOT
ATOM      1  C   UNL     1     -23.320 -25.326 -17.605  1.00  0.00     0.052 C 
ENDROOT
BRANCH   1   2
ATOM      2  C   UNL     1     -24.755 -24.914 -17.729  1.00  0.00     0.041 C 
ATOM      3  O   UNL     1     -25.498 -25.453 -18.591  1.00  0.00    -0.550 OA
ATOM      4  O   UNL     1     -25.280 -23.958 -16.869  1.00  0.00    -0.550 OA
ENDBRANCH   1   2
BRANCH   1   5
ATOM      5  C   UNL     1     -22.682 -25.580 -18.978  1.00  0.00     0.003 C 
ATOM      6  C   UNL     1     -21.299 -26.223 -18.866  1.00  0.00     0.004 C 
ENDBRANCH   1   5
TORSDOF 2
ENDMDL
MODEL 9
REMARK VINA RESULT:    -2.548     18.115     18.634
REMARK INTER + INTRA:          -2.863
REMARK INTER:                  -2.829
REMARK INTRA:                  -0.034
REMARK UNBOUND:                -0.017
REMARK SMILES CCCC(=O)[O-]
REMARK SMILES IDX 3 1 4 2 5 3 6 4 2 5 1 6
REMARK H PARENT
REMARK Flexibility Score: inf
ROOT
ATOM      1  C   UNL     1     -11.164 -35.503 -23.810  1.00  0.00     0.052 C 
ENDROOT
BRANCH   1   2
ATOM      2  C   UNL     1     -11.919 -36.496 -22.982  1.00  0.00     0.041 C 
ATOM      3  O   UNL     1     -11.947 -36.385 -21.728  1.00  0.00    -0.550 OA
ATOM      4  O   UNL     1     -12.620 -37.526 -23.597  1.00  0.00    -0.550 OA
ENDBRANCH   1   2
BRANCH   1   5
ATOM      5  C   UNL     1     -11.516 -35.622 -25.299  1.00  0.00     0.003 C 
ATOM      6  C   UNL     1     -12.342 -34.436 -25.799  1.00  0.00     0.004 C 
ENDBRANCH   1   5
TORSDOF 2
ENDMDL
