MODEL 1
REMARK VINA RESULT:    -6.664      0.000      0.000
REMARK INTER + INTRA:          -6.664
REMARK INTER:                  -6.664
REMARK INTRA:                   0.000
REMARK UNBOUND:                 0.000
REMARK SMILES C=C1CCC[C@@]2(C)CC(=O)C(=C(C)C)C[C@H]12
REMARK SMILES IDX 13 1 12 2 11 3 15 4 16 5 2 6 1 7 3 8 4 9 5 10 6 11 8 12 9 13
REMARK SMILES IDX 10 14 7 15 14 16
REMARK H PARENT
REMARK Flexibility Score: inf
ROOT
ATOM      1  C   UNL     1       8.385  17.644  60.291  1.00  0.00     0.039 C 
ATOM      2  C   UNL     1       9.798  18.174  60.221  1.00  0.00    -0.070 C 
ATOM      3  C   UNL     1      10.545  18.084  59.081  1.00  0.00    -0.006 C 
ATOM      4  C   UNL     1      11.990  18.567  59.045  1.00  0.00     0.047 C 
ATOM      5  C   UNL     1      12.864  17.770  58.045  1.00  0.00     0.025 C 
ATOM      6  C   UNL     1      14.315  18.238  57.935  1.00  0.00    -0.073 C 
ATOM      7  C   UNL     1      14.831  19.269  58.632  1.00  0.00     0.008 C 
ATOM      8  C   UNL     1      15.206  17.441  57.011  1.00  0.00     0.031 C 
ATOM      9  C   UNL     1      14.572  17.333  55.622  1.00  0.00     0.005 C 
ATOM     10  C   UNL     1      13.123  16.822  55.698  1.00  0.00     0.008 C 
ATOM     11  C   UNL     1      12.217  17.686  56.627  1.00  0.00    -0.018 C 
ATOM     12  C   UNL     1      10.844  16.983  56.750  1.00  0.00     0.088 C 
ATOM     13  C   UNL     1       9.967  17.630  57.783  1.00  0.00     0.159 C 
ATOM     14  O   UNL     1       8.744  17.791  57.520  1.00  0.00    -0.295 OA
ATOM     15  C   UNL     1      12.019  19.093  55.997  1.00  0.00     0.012 C 
ATOM     16  C   UNL     1      10.367  18.776  61.486  1.00  0.00     0.039 C 
ENDROOT
TORSDOF 0
ENDMDL
MODEL 2
REMARK VINA RESULT:    -6.529      1.913      5.431
REMARK INTER + INTRA:          -6.529
REMARK INTER:                  -6.529
REMARK INTRA:                   0.000
REMARK UNBOUND:                 0.000
REMARK SMILES C=C1CCC[C@@]2(C)CC(=O)C(=C(C)C)C[C@H]12
REMARK SMILES IDX 13 1 12 2 11 3 15 4 16 5 2 6 1 7 3 8 4 9 5 10 6 11 8 12 9 13
REMARK SMILES IDX 10 14 7 15 14 16
REMARK H PARENT
REMARK Flexibility Score: inf
ROOT
ATOM      1  C   UNL     1      15.627  17.869  56.624  1.00  0.00     0.039 C 
ATOM      2  C   UNL     1      14.155  18.045  56.331  1.00  0.00    -0.070 C 
ATOM      3  C   UNL     1      13.240  18.238  57.327  1.00  0.00    -0.006 C 
ATOM      4  C   UNL     1      11.752  18.353  57.021  1.00  0.00     0.047 C 
ATOM      5  C   UNL     1      10.860  17.832  58.175  1.00  0.00     0.025 C 
ATOM      6  C   UNL     1       9.355  17.960  57.940  1.00  0.00    -0.073 C 
ATOM      7  C   UNL     1       8.807  18.491  56.830  1.00  0.00     0.008 C 
ATOM      8  C   UNL     1       8.461  17.406  59.024  1.00  0.00     0.031 C 
ATOM      9  C   UNL     1       8.843  17.996  60.385  1.00  0.00     0.005 C 
ATOM     10  C   UNL     1      10.347  17.841  60.667  1.00  0.00     0.008 C 
ATOM     11  C   UNL     1      11.245  18.457  59.552  1.00  0.00    -0.018 C 
ATOM     12  C   UNL     1      12.718  18.096  59.865  1.00  0.00     0.088 C 
ATOM     13  C   UNL     1      13.644  18.471  58.745  1.00  0.00     0.159 C 
ATOM     14  O   UNL     1      14.754  18.996  59.031  1.00  0.00    -0.295 OA
ATOM     15  C   UNL     1      11.086  20.003  59.551  1.00  0.00     0.012 C 
ATOM     16  C   UNL     1      13.730  17.960  54.882  1.00  0.00     0.039 C 
ENDROOT
TORSDOF 0
ENDMDL
MODEL 3
REMARK VINA RESULT:    -6.293      7.544      9.375
REMARK INTER + INTRA:          -6.293
REMARK INTER:                  -6.293
REMARK INTRA:                   0.000
REMARK UNBOUND:                 0.000
REMARK SMILES C=C1CCC[C@@]2(C)CC(=O)C(=C(C)C)C[C@H]12
REMARK SMILES IDX 13 1 12 2 11 3 15 4 16 5 2 6 1 7 3 8 4 9 5 10 6 11 8 12 9 13
REMARK SMILES IDX 10 14 7 15 14 16
REMARK H PARENT
REMARK Flexibility Score: inf
ROOT
ATOM      1  C   UNL     1       5.860  21.365  50.910  1.00  0.00     0.039 C 
ATOM      2  C   UNL     1       6.756  21.541  52.114  1.00  0.00    -0.070 C 
ATOM      3  C   UNL     1       6.366  22.270  53.202  1.00  0.00    -0.006 C 
ATOM      4  C   UNL     1       7.304  22.489  54.382  1.00  0.00     0.047 C 
ATOM      5  C   UNL     1       7.054  23.837  55.104  1.00  0.00     0.025 C 
ATOM      6  C   UNL     1       7.940  24.093  56.324  1.00  0.00    -0.073 C 
ATOM      7  C   UNL     1       8.872  23.231  56.774  1.00  0.00     0.008 C 
ATOM      8  C   UNL     1       7.759  25.425  57.012  1.00  0.00     0.031 C 
ATOM      9  C   UNL     1       6.285  25.648  57.364  1.00  0.00     0.005 C 
ATOM     10  C   UNL     1       5.373  25.439  56.143  1.00  0.00     0.008 C 
ATOM     11  C   UNL     1       5.553  24.042  55.477  1.00  0.00    -0.018 C 
ATOM     12  C   UNL     1       4.712  24.016  54.178  1.00  0.00     0.088 C 
ATOM     13  C   UNL     1       4.975  22.786  53.357  1.00  0.00     0.159 C 
ATOM     14  O   UNL     1       3.996  22.199  52.822  1.00  0.00    -0.295 OA
ATOM     15  C   UNL     1       5.040  22.936  56.442  1.00  0.00     0.012 C 
ATOM     16  C   UNL     1       8.126  20.904  52.047  1.00  0.00     0.039 C 
ENDROOT
TORSDOF 0
ENDMDL
MODEL 4
REMARK VINA RESULT:    -6.221     10.840     11.990
REMARK INTER + INTRA:          -6.221
REMARK INTER:                  -6.221
REMARK INTRA:                   0.000
REMARK UNBOUND:                 0.000
REMARK SMILES C=C1CCC[C@@]2(C)CC(=O)C(=C(C)C)C[C@H]12
REMARK SMILES IDX 13 1 12 2 11 3 15 4 16 5 2 6 1 7 3 8 4 9 5 10 6 11 8 12 9 13
REMARK SMILES IDX 10 14 7 15 14 16
REMARK H PARENT
REMARK Flexibility Score: inf
ROOT
ATOM      1  C   UNL     1      15.949   7.376  54.759  1.00  0.00     0.039 C 
ATOM      2  C   UNL     1      16.286   8.570  53.897  1.00  0.00    -0.070 C 
ATOM      3  C   UNL     1      17.571   9.002  53.734  1.00  0.00    -0.006 C 
ATOM      4  C   UNL     1      17.888  10.245  52.911  1.00  0.00     0.047 C 
ATOM      5  C   UNL     1      19.151  10.989  53.411  1.00  0.00     0.025 C 
ATOM      6  C   UNL     1      19.542  12.223  52.597  1.00  0.00    -0.073 C 
ATOM      7  C   UNL     1      18.869  12.656  51.513  1.00  0.00     0.008 C 
ATOM      8  C   UNL     1      20.736  13.002  53.096  1.00  0.00     0.031 C 
ATOM      9  C   UNL     1      21.941  12.074  53.275  1.00  0.00     0.005 C 
ATOM     10  C   UNL     1      21.588  10.844  54.129  1.00  0.00     0.008 C 
ATOM     11  C   UNL     1      20.378  10.037  53.568  1.00  0.00    -0.018 C 
ATOM     12  C   UNL     1      20.020   8.933  54.592  1.00  0.00     0.088 C 
ATOM     13  C   UNL     1      18.742   8.227  54.240  1.00  0.00     0.159 C 
ATOM     14  O   UNL     1      18.690   6.974  54.369  1.00  0.00    -0.295 OA
ATOM     15  C   UNL     1      20.775   9.376  52.218  1.00  0.00     0.012 C 
ATOM     16  C   UNL     1      15.127   9.294  53.248  1.00  0.00     0.039 C 
ENDROOT
TORSDOF 0
ENDMDL
MODEL 5
REMARK VINA RESULT:    -6.215      2.642      3.957
REMARK INTER + INTRA:          -6.215
REMARK INTER:                  -6.215
REMARK INTRA:                   0.000
REMARK UNBOUND:                 0.000
REMARK SMILES C=C1CCC[C@@]2(C)CC(=O)C(=C(C)C)C[C@H]12
REMARK SMILES IDX 13 1 12 2 11 3 15 4 16 5 2 6 1 7 3 8 4 9 5 10 6 11 8 12 9 13
REMARK SMILES IDX 10 14 7 15 14 16
REMARK H PARENT
REMARK Flexibility Score: inf
ROOT
ATOM      1  C   UNL     1      10.362  14.241  54.750  1.00  0.00     0.039 C 
ATOM      2  C   UNL     1      10.445  15.545  55.511  1.00  0.00    -0.070 C 
ATOM      3  C   UNL     1      11.618  16.231  55.639  1.00  0.00    -0.006 C 
ATOM      4  C   UNL     1      11.697  17.512  56.461  1.00  0.00     0.047 C 
ATOM      5  C   UNL     1      13.090  17.726  57.104  1.00  0.00     0.025 C 
ATOM      6  C   UNL     1      13.241  19.018  57.908  1.00  0.00    -0.073 C 
ATOM      7  C   UNL     1      12.263  19.932  58.059  1.00  0.00     0.008 C 
ATOM      8  C   UNL     1      14.570  19.225  58.596  1.00  0.00     0.031 C 
ATOM      9  C   UNL     1      15.718  19.080  57.592  1.00  0.00     0.005 C 
ATOM     10  C   UNL     1      15.616  17.766  56.799  1.00  0.00     0.008 C 
ATOM     11  C   UNL     1      14.250  17.599  56.067  1.00  0.00    -0.018 C 
ATOM     12  C   UNL     1      14.206  16.180  55.448  1.00  0.00     0.088 C 
ATOM     13  C   UNL     1      12.851  15.846  54.893  1.00  0.00     0.159 C 
ATOM     14  O   UNL     1      12.785  15.251  53.784  1.00  0.00    -0.295 OA
ATOM     15  C   UNL     1      14.132  18.657  54.935  1.00  0.00     0.012 C 
ATOM     16  C   UNL     1       9.171  16.040  56.160  1.00  0.00     0.039 C 
ENDROOT
TORSDOF 0
ENDMDL
MODEL 6
REMARK VINA RESULT:    -6.140      2.799      5.141
REMARK INTER + INTRA:          -6.140
REMARK INTER:                  -6.140
REMARK INTRA:                   0.000
REMARK UNBOUND:                 0.000
REMARK SMILES C=C1CCC[C@@]2(C)CC(=O)C(=C(C)C)C[C@H]12
REMARK SMILES IDX 13 1 12 2 11 3 15 4 16 5 2 6 1 7 3 8 4 9 5 10 6 11 8 12 9 13
REMARK SMILES IDX 10 14 7 15 14 16
REMARK H PARENT
REMARK Flexibility Score: inf
ROOT
ATOM      1  C   UNL     1      16.570  19.742  58.297  1.00  0.00     0.039 C 
ATOM      2  C   UNL     1      16.243  19.197  56.926  1.00  0.00    -0.070 C 
ATOM      3  C   UNL     1      15.040  18.613  56.651  1.00  0.00    -0.006 C 
ATOM      4  C   UNL     1      14.748  18.014  55.281  1.00  0.00     0.047 C 
ATOM      5  C   UNL     1      13.764  16.820  55.346  1.00  0.00     0.025 C 
ATOM      6  C   UNL     1      13.402  16.203  53.995  1.00  0.00    -0.073 C 
ATOM      7  C   UNL     1      13.875  16.643  52.813  1.00  0.00     0.008 C 
ATOM      8  C   UNL     1      12.490  14.999  54.033  1.00  0.00     0.031 C 
ATOM      9  C   UNL     1      11.223  15.315  54.834  1.00  0.00     0.005 C 
ATOM     10  C   UNL     1      11.558  15.897  56.218  1.00  0.00     0.008 C 
ATOM     11  C   UNL     1      12.468  17.161  56.146  1.00  0.00    -0.018 C 
ATOM     12  C   UNL     1      12.866  17.551  57.590  1.00  0.00     0.088 C 
ATOM     13  C   UNL     1      13.904  18.635  57.619  1.00  0.00     0.159 C 
ATOM     14  O   UNL     1      13.783  19.563  58.464  1.00  0.00    -0.295 OA
ATOM     15  C   UNL     1      11.679  18.333  55.498  1.00  0.00     0.012 C 
ATOM     16  C   UNL     1      17.327  19.292  55.876  1.00  0.00     0.039 C 
ENDROOT
TORSDOF 0
ENDMDL
MODEL 7
REMARK VINA RESULT:    -5.920      2.303      3.827
REMARK INTER + INTRA:          -5.920
REMARK INTER:                  -5.920
REMARK INTRA:                   0.000
REMARK UNBOUND:                 0.000
REMARK SMILES C=C1CCC[C@@]2(C)CC(=O)C(=C(C)C)C[C@H]12
REMARK SMILES IDX 13 1 12 2 11 3 15 4 16 5 2 6 1 7 3 8 4 9 5 10 6 11 8 12 9 13
REMARK SMILES IDX 10 14 7 15 14 16
REMARK H PARENT
REMARK Flexibility Score: inf
ROOT
ATOM      1  C   UNL     1       9.068  22.464  57.388  1.00  0.00     0.039 C 
ATOM      2  C   UNL     1       9.576  21.376  56.470  1.00  0.00    -0.070 C 
ATOM      3  C   UNL     1      10.587  20.536  56.840  1.00  0.00    -0.006 C 
ATOM      4  C   UNL     1      11.130  19.484  55.881  1.00  0.00     0.047 C 
ATOM      5  C   UNL     1      12.629  19.173  56.117  1.00  0.00     0.025 C 
ATOM      6  C   UNL     1      13.219  18.094  55.209  1.00  0.00    -0.073 C 
ATOM      7  C   UNL     1      12.517  17.432  54.269  1.00  0.00     0.008 C 
ATOM      8  C   UNL     1      14.693  17.812  55.377  1.00  0.00     0.031 C 
ATOM      9  C   UNL     1      15.015  17.513  56.844  1.00  0.00     0.005 C 
ATOM     10  C   UNL     1      14.471  18.607  57.779  1.00  0.00     0.008 C 
ATOM     11  C   UNL     1      12.940  18.848  57.611  1.00  0.00    -0.018 C 
ATOM     12  C   UNL     1      12.548  20.071  58.476  1.00  0.00     0.088 C 
ATOM     13  C   UNL     1      11.133  20.510  58.228  1.00  0.00     0.159 C 
ATOM     14  O   UNL     1      10.423  20.838  59.217  1.00  0.00    -0.295 OA
ATOM     15  C   UNL     1      12.159  17.599  58.106  1.00  0.00     0.012 C 
ATOM     16  C   UNL     1       8.939  21.282  55.102  1.00  0.00     0.039 C 
ENDROOT
TORSDOF 0
ENDMDL
MODEL 8
REMARK VINA RESULT:    -5.904     10.843     11.760
REMARK INTER + INTRA:          -5.904
REMARK INTER:                  -5.904
REMARK INTRA:                   0.000
REMARK UNBOUND:                 0.000
REMARK SMILES C=C1CCC[C@@]2(C)CC(=O)C(=C(C)C)C[C@H]12
REMARK SMILES IDX 13 1 12 2 11 3 15 4 16 5 2 6 1 7 3 8 4 9 5 10 6 11 8 12 9 13
REMARK SMILES IDX 10 14 7 15 14 16
REMARK H PARENT
REMARK Flexibility Score: inf
ROOT
ATOM      1  C   UNL     1      18.637  13.750  50.731  1.00  0.00     0.039 C 
ATOM      2  C   UNL     1      19.073  12.713  51.740  1.00  0.00    -0.070 C 
ATOM      3  C   UNL     1      18.336  11.591  51.984  1.00  0.00    -0.006 C 
ATOM      4  C   UNL     1      18.757  10.585  53.049  1.00  0.00     0.047 C 
ATOM      5  C   UNL     1      17.554   9.858  53.697  1.00  0.00     0.025 C 
ATOM      6  C   UNL     1      17.919   8.806  54.745  1.00  0.00    -0.073 C 
ATOM      7  C   UNL     1      19.182   8.499  55.098  1.00  0.00     0.008 C 
ATOM      8  C   UNL     1      16.763   8.123  55.437  1.00  0.00     0.031 C 
ATOM      9  C   UNL     1      15.795   7.537  54.404  1.00  0.00     0.005 C 
ATOM     10  C   UNL     1      15.375   8.586  53.361  1.00  0.00     0.008 C 
ATOM     11  C   UNL     1      16.586   9.246  52.636  1.00  0.00    -0.018 C 
ATOM     12  C   UNL     1      16.048  10.389  51.741  1.00  0.00     0.088 C 
ATOM     13  C   UNL     1      17.154  11.217  51.153  1.00  0.00     0.159 C 
ATOM     14  O   UNL     1      17.065  11.573  49.947  1.00  0.00    -0.295 OA
ATOM     15  C   UNL     1      17.298   8.189  51.746  1.00  0.00     0.012 C 
ATOM     16  C   UNL     1      20.351  12.993  52.499  1.00  0.00     0.039 C 
ENDROOT
TORSDOF 0
ENDMDL
