MODEL 1
REMARK VINA RESULT:    -4.146      0.000      0.000
REMARK INTER + INTRA:          -5.841
REMARK INTER:                  -5.601
REMARK INTRA:                  -0.240
REMARK UNBOUND:                -0.240
REMARK SMILES CCCCCCCC(=O)[O-]
REMARK SMILES IDX 5 1 6 2 7 3 8 4 9 5 10 6 4 7 3 8 2 9 1 10
REMARK H PARENT
REMARK Flexibility Score: inf
ROOT
ATOM      1  C   UNL     1     -42.375 -35.507  36.948  1.00  0.00     0.000 C 
ENDROOT
BRANCH   1   2
ATOM      2  C   UNL     1     -43.687 -35.532  36.142  1.00  0.00     0.006 C 
BRANCH   2   3
ATOM      3  C   UNL     1     -44.945 -35.789  36.988  1.00  0.00     0.053 C 
BRANCH   3   4
ATOM      4  C   UNL     1     -45.359 -37.228  36.954  1.00  0.00     0.041 C 
ATOM      5  O   UNL     1     -44.629 -38.085  36.391  1.00  0.00    -0.550 OA
ATOM      6  O   UNL     1     -46.536 -37.628  37.574  1.00  0.00    -0.550 OA
ENDBRANCH   3   4
ENDBRANCH   2   3
ENDBRANCH   1   2
BRANCH   1   7
ATOM      7  C   UNL     1     -41.149 -35.877  36.101  1.00  0.00     0.000 C 
BRANCH   7   8
ATOM      8  C   UNL     1     -39.848 -35.574  36.855  1.00  0.00    -0.000 C 
BRANCH   8   9
ATOM      9  C   UNL     1     -40.138 -35.114  38.289  1.00  0.00    -0.003 C 
ATOM     10  C   UNL     1     -39.240 -35.834  39.290  1.00  0.00     0.004 C 
ENDBRANCH   8   9
ENDBRANCH   7   8
ENDBRANCH   1   7
TORSDOF 6
ENDMDL
MODEL 2
REMARK VINA RESULT:    -3.914      0.895      1.566
REMARK INTER + INTRA:          -5.527
REMARK INTER:                  -5.269
REMARK INTRA:                  -0.259
REMARK UNBOUND:                -0.240
REMARK SMILES CCCCCCCC(=O)[O-]
REMARK SMILES IDX 5 1 6 2 7 3 8 4 9 5 10 6 4 7 3 8 2 9 1 10
REMARK H PARENT
REMARK Flexibility Score: inf
ROOT
ATOM      1  C   UNL     1     -43.286 -34.700  38.107  1.00  0.00     0.000 C 
ENDROOT
BRANCH   1   2
ATOM      2  C   UNL     1     -43.824 -35.402  36.846  1.00  0.00     0.006 C 
BRANCH   2   3
ATOM      3  C   UNL     1     -45.343 -35.638  36.852  1.00  0.00     0.053 C 
BRANCH   3   4
ATOM      4  C   UNL     1     -45.685 -37.086  37.029  1.00  0.00     0.041 C 
ATOM      5  O   UNL     1     -46.737 -37.419  37.635  1.00  0.00    -0.550 OA
ATOM      6  O   UNL     1     -44.858 -38.067  36.496  1.00  0.00    -0.550 OA
ENDBRANCH   3   4
ENDBRANCH   2   3
ENDBRANCH   1   2
BRANCH   1   7
ATOM      7  C   UNL     1     -41.755 -34.756  38.212  1.00  0.00     0.000 C 
BRANCH   7   8
ATOM      8  C   UNL     1     -41.137 -35.314  36.924  1.00  0.00    -0.000 C 
BRANCH   8   9
ATOM      9  C   UNL     1     -39.634 -35.563  37.097  1.00  0.00    -0.003 C 
ATOM     10  C   UNL     1     -39.281 -35.802  38.562  1.00  0.00     0.004 C 
ENDBRANCH   8   9
ENDBRANCH   7   8
ENDBRANCH   1   7
TORSDOF 6
ENDMDL
MODEL 3
REMARK VINA RESULT:    -3.910      1.749      1.957
REMARK INTER + INTRA:          -5.521
REMARK INTER:                  -5.284
REMARK INTRA:                  -0.237
REMARK UNBOUND:                -0.240
REMARK SMILES CCCCCCCC(=O)[O-]
REMARK SMILES IDX 5 1 6 2 7 3 8 4 9 5 10 6 4 7 3 8 2 9 1 10
REMARK H PARENT
REMARK Flexibility Score: inf
ROOT
ATOM      1  C   UNL     1     -42.450 -35.615  36.919  1.00  0.00     0.000 C 
ENDROOT
BRANCH   1   2
ATOM      2  C   UNL     1     -43.756 -35.414  36.129  1.00  0.00     0.006 C 
BRANCH   2   3
ATOM      3  C   UNL     1     -45.027 -35.828  36.889  1.00  0.00     0.053 C 
BRANCH   3   4
ATOM      4  C   UNL     1     -45.782 -34.643  37.407  1.00  0.00     0.041 C 
ATOM      5  O   UNL     1     -45.671 -33.524  36.840  1.00  0.00    -0.550 OA
ATOM      6  O   UNL     1     -46.634 -34.782  38.495  1.00  0.00    -0.550 OA
ENDBRANCH   3   4
ENDBRANCH   2   3
ENDBRANCH   1   2
BRANCH   1   7
ATOM      7  C   UNL     1     -41.222 -35.772  36.010  1.00  0.00     0.000 C 
BRANCH   7   8
ATOM      8  C   UNL     1     -39.923 -35.680  36.821  1.00  0.00    -0.000 C 
BRANCH   8   9
ATOM      9  C   UNL     1     -40.161 -34.979  38.163  1.00  0.00    -0.003 C 
ATOM     10  C   UNL     1     -39.305 -35.596  39.266  1.00  0.00     0.004 C 
ENDBRANCH   8   9
ENDBRANCH   7   8
ENDBRANCH   1   7
TORSDOF 6
ENDMDL
MODEL 4
REMARK VINA RESULT:    -3.819      1.758      2.647
REMARK INTER + INTRA:          -5.399
REMARK INTER:                  -4.896
REMARK INTRA:                  -0.503
REMARK UNBOUND:                -0.240
REMARK SMILES CCCCCCCC(=O)[O-]
REMARK SMILES IDX 5 1 6 2 7 3 8 4 9 5 10 6 4 7 3 8 2 9 1 10
REMARK H PARENT
REMARK Flexibility Score: inf
ROOT
ATOM      1  C   UNL     1     -42.015 -33.843  39.456  1.00  0.00     0.000 C 
ENDROOT
BRANCH   1   2
ATOM      2  C   UNL     1     -43.162 -33.954  38.435  1.00  0.00     0.006 C 
BRANCH   2   3
ATOM      3  C   UNL     1     -43.831 -35.337  38.380  1.00  0.00     0.053 C 
BRANCH   3   4
ATOM      4  C   UNL     1     -44.452 -35.607  37.044  1.00  0.00     0.041 C 
ATOM      5  O   UNL     1     -44.973 -34.669  36.386  1.00  0.00    -0.550 OA
ATOM      6  O   UNL     1     -44.424 -36.889  36.510  1.00  0.00    -0.550 OA
ENDBRANCH   3   4
ENDBRANCH   2   3
ENDBRANCH   1   2
BRANCH   1   7
ATOM      7  C   UNL     1     -40.860 -34.812  39.162  1.00  0.00     0.000 C 
BRANCH   7   8
ATOM      8  C   UNL     1     -40.114 -34.403  37.886  1.00  0.00    -0.000 C 
BRANCH   8   9
ATOM      9  C   UNL     1     -39.737 -35.632  37.050  1.00  0.00    -0.003 C 
ATOM     10  C   UNL     1     -40.840 -35.981  36.056  1.00  0.00     0.004 C 
ENDBRANCH   8   9
ENDBRANCH   7   8
ENDBRANCH   1   7
TORSDOF 6
ENDMDL
MODEL 5
REMARK VINA RESULT:    -3.768      2.634      4.999
REMARK INTER + INTRA:          -5.329
REMARK INTER:                  -4.889
REMARK INTRA:                  -0.441
REMARK UNBOUND:                -0.240
REMARK SMILES CCCCCCCC(=O)[O-]
REMARK SMILES IDX 5 1 6 2 7 3 8 4 9 5 10 6 4 7 3 8 2 9 1 10
REMARK H PARENT
REMARK Flexibility Score: inf
ROOT
ATOM      1  C   UNL     1     -43.781 -34.311  37.927  1.00  0.00     0.000 C 
ENDROOT
BRANCH   1   2
ATOM      2  C   UNL     1     -42.548 -35.146  38.320  1.00  0.00     0.006 C 
BRANCH   2   3
ATOM      3  C   UNL     1     -41.208 -34.555  37.855  1.00  0.00     0.053 C 
BRANCH   3   4
ATOM      4  C   UNL     1     -40.566 -35.390  36.789  1.00  0.00     0.041 C 
ATOM      5  O   UNL     1     -41.193 -35.656  35.730  1.00  0.00    -0.550 OA
ATOM      6  O   UNL     1     -39.264 -35.845  36.951  1.00  0.00    -0.550 OA
ENDBRANCH   3   4
ENDBRANCH   2   3
ENDBRANCH   1   2
BRANCH   1   7
ATOM      7  C   UNL     1     -44.594 -34.947  36.790  1.00  0.00     0.000 C 
BRANCH   7   8
ATOM      8  C   UNL     1     -44.362 -36.462  36.731  1.00  0.00    -0.000 C 
BRANCH   8   9
ATOM      9  C   UNL     1     -45.685 -37.226  36.860  1.00  0.00    -0.003 C 
ATOM     10  C   UNL     1     -46.119 -37.332  38.319  1.00  0.00     0.004 C 
ENDBRANCH   8   9
ENDBRANCH   7   8
ENDBRANCH   1   7
TORSDOF 6
ENDMDL
MODEL 6
REMARK VINA RESULT:    -3.760      4.241      6.163
REMARK INTER + INTRA:          -5.319
REMARK INTER:                  -5.037
REMARK INTRA:                  -0.282
REMARK UNBOUND:                -0.240
REMARK SMILES CCCCCCCC(=O)[O-]
REMARK SMILES IDX 5 1 6 2 7 3 8 4 9 5 10 6 4 7 3 8 2 9 1 10
REMARK H PARENT
REMARK Flexibility Score: inf
ROOT
ATOM      1  C   UNL     1     -39.924 -35.123  39.589  1.00  0.00     0.000 C 
ENDROOT
BRANCH   1   2
ATOM      2  C   UNL     1     -38.873 -36.243  39.697  1.00  0.00     0.006 C 
BRANCH   2   3
ATOM      3  C   UNL     1     -38.818 -36.930  41.071  1.00  0.00     0.053 C 
BRANCH   3   4
ATOM      4  C   UNL     1     -37.815 -38.043  41.102  1.00  0.00     0.041 C 
ATOM      5  O   UNL     1     -36.593 -37.800  40.917  1.00  0.00    -0.550 OA
ATOM      6  O   UNL     1     -38.225 -39.343  41.369  1.00  0.00    -0.550 OA
ENDBRANCH   3   4
ENDBRANCH   2   3
ENDBRANCH   1   2
BRANCH   1   7
ATOM      7  C   UNL     1     -40.131 -34.637  38.147  1.00  0.00     0.000 C 
BRANCH   7   8
ATOM      8  C   UNL     1     -39.624 -35.677  37.140  1.00  0.00    -0.000 C 
BRANCH   8   9
ATOM      9  C   UNL     1     -40.673 -35.947  36.054  1.00  0.00    -0.003 C 
ATOM     10  C   UNL     1     -42.077 -35.617  36.550  1.00  0.00     0.004 C 
ENDBRANCH   8   9
ENDBRANCH   7   8
ENDBRANCH   1   7
TORSDOF 6
ENDMDL
MODEL 7
REMARK VINA RESULT:    -3.750      3.135      5.441
REMARK INTER + INTRA:          -5.305
REMARK INTER:                  -5.129
REMARK INTRA:                  -0.177
REMARK UNBOUND:                -0.240
REMARK SMILES CCCCCCCC(=O)[O-]
REMARK SMILES IDX 5 1 6 2 7 3 8 4 9 5 10 6 4 7 3 8 2 9 1 10
REMARK H PARENT
REMARK Flexibility Score: inf
ROOT
ATOM      1  C   UNL     1     -42.549 -35.494  36.977  1.00  0.00     0.000 C 
ENDROOT
BRANCH   1   2
ATOM      2  C   UNL     1     -41.230 -35.614  36.192  1.00  0.00     0.006 C 
BRANCH   2   3
ATOM      3  C   UNL     1     -39.965 -35.558  37.065  1.00  0.00     0.053 C 
BRANCH   3   4
ATOM      4  C   UNL     1     -40.027 -34.451  38.071  1.00  0.00     0.041 C 
ATOM      5  O   UNL     1     -40.022 -33.250  37.693  1.00  0.00    -0.550 OA
ATOM      6  O   UNL     1     -40.125 -34.745  39.425  1.00  0.00    -0.550 OA
ENDBRANCH   3   4
ENDBRANCH   2   3
ENDBRANCH   1   2
BRANCH   1   7
ATOM      7  C   UNL     1     -43.789 -35.594  36.076  1.00  0.00     0.000 C 
BRANCH   7   8
ATOM      8  C   UNL     1     -45.061 -35.783  36.913  1.00  0.00    -0.000 C 
BRANCH   8   9
ATOM      9  C   UNL     1     -45.551 -37.234  36.848  1.00  0.00    -0.003 C 
ATOM     10  C   UNL     1     -46.571 -37.521  37.946  1.00  0.00     0.004 C 
ENDBRANCH   8   9
ENDBRANCH   7   8
ENDBRANCH   1   7
TORSDOF 6
ENDMDL
MODEL 8
REMARK VINA RESULT:    -3.700      2.783      3.241
REMARK INTER + INTRA:          -5.237
REMARK INTER:                  -5.001
REMARK INTRA:                  -0.236
REMARK UNBOUND:                -0.240
REMARK SMILES CCCCCCCC(=O)[O-]
REMARK SMILES IDX 5 1 6 2 7 3 8 4 9 5 10 6 4 7 3 8 2 9 1 10
REMARK H PARENT
REMARK Flexibility Score: inf
ROOT
ATOM      1  C   UNL     1     -43.557 -35.590  36.094  1.00  0.00     0.000 C 
ENDROOT
BRANCH   1   2
ATOM      2  C   UNL     1     -44.797 -35.073  36.847  1.00  0.00     0.006 C 
BRANCH   2   3
ATOM      3  C   UNL     1     -44.520 -33.883  37.781  1.00  0.00     0.053 C 
BRANCH   3   4
ATOM      4  C   UNL     1     -45.384 -32.704  37.458  1.00  0.00     0.041 C 
ATOM      5  O   UNL     1     -44.926 -31.535  37.564  1.00  0.00    -0.550 OA
ATOM      6  O   UNL     1     -46.684 -32.895  37.008  1.00  0.00    -0.550 OA
ENDBRANCH   3   4
ENDBRANCH   2   3
ENDBRANCH   1   2
BRANCH   1   7
ATOM      7  C   UNL     1     -42.266 -35.465  36.916  1.00  0.00     0.000 C 
BRANCH   7   8
ATOM      8  C   UNL     1     -41.039 -35.829  36.070  1.00  0.00    -0.000 C 
BRANCH   8   9
ATOM      9  C   UNL     1     -39.744 -35.638  36.867  1.00  0.00    -0.003 C 
ATOM     10  C   UNL     1     -40.037 -35.179  38.293  1.00  0.00     0.004 C 
ENDBRANCH   8   9
ENDBRANCH   7   8
ENDBRANCH   1   7
TORSDOF 6
ENDMDL
MODEL 9
REMARK VINA RESULT:    -3.668      2.941      3.793
REMARK INTER + INTRA:          -5.194
REMARK INTER:                  -4.570
REMARK INTRA:                  -0.625
REMARK UNBOUND:                -0.240
REMARK SMILES CCCCCCCC(=O)[O-]
REMARK SMILES IDX 5 1 6 2 7 3 8 4 9 5 10 6 4 7 3 8 2 9 1 10
REMARK H PARENT
REMARK Flexibility Score: inf
ROOT
ATOM      1  C   UNL     1     -44.952 -37.533  36.700  1.00  0.00     0.000 C 
ENDROOT
BRANCH   1   2
ATOM      2  C   UNL     1     -46.341 -37.218  37.285  1.00  0.00     0.006 C 
BRANCH   2   3
ATOM      3  C   UNL     1     -46.527 -37.657  38.747  1.00  0.00     0.053 C 
BRANCH   3   4
ATOM      4  C   UNL     1     -46.444 -36.500  39.694  1.00  0.00     0.041 C 
ATOM      5  O   UNL     1     -45.450 -36.376  40.457  1.00  0.00    -0.550 OA
ATOM      6  O   UNL     1     -47.449 -35.541  39.712  1.00  0.00    -0.550 OA
ENDBRANCH   3   4
ENDBRANCH   2   3
ENDBRANCH   1   2
BRANCH   1   7
ATOM      7  C   UNL     1     -44.078 -36.281  36.533  1.00  0.00     0.000 C 
BRANCH   7   8
ATOM      8  C   UNL     1     -44.932 -35.008  36.560  1.00  0.00    -0.000 C 
BRANCH   8   9
ATOM      9  C   UNL     1     -44.486 -34.069  37.687  1.00  0.00    -0.003 C 
ATOM     10  C   UNL     1     -43.192 -34.557  38.330  1.00  0.00     0.004 C 
ENDBRANCH   8   9
ENDBRANCH   7   8
ENDBRANCH   1   7
TORSDOF 6
ENDMDL
