MODEL 1
REMARK VINA RESULT:    -4.829      0.000      0.000
REMARK INTER + INTRA:          -5.479
REMARK INTER:                  -5.394
REMARK INTRA:                  -0.085
REMARK UNBOUND:                -0.085
REMARK SMILES CCc1ccc(O)cc1O
REMARK SMILES IDX 3 1 9 2 8 3 6 4 5 5 4 6 2 7 1 8 10 9 7 11
REMARK H PARENT 10 10 7 12
REMARK Flexibility Score: inf
ROOT
ATOM      1  C   UNL     1     -15.820  44.419  31.989  1.00  0.00    -0.006 A 
ATOM      2  C   UNL     1     -14.500  44.799  31.672  1.00  0.00     0.122 A 
ATOM      3  C   UNL     1     -13.506  44.761  32.661  1.00  0.00     0.092 A 
ATOM      4  C   UNL     1     -13.820  44.358  33.965  1.00  0.00     0.119 A 
ATOM      5  C   UNL     1     -15.132  43.995  34.282  1.00  0.00     0.047 A 
ATOM      6  C   UNL     1     -16.128  44.029  33.304  1.00  0.00     0.011 A 
ENDROOT
BRANCH   1   7
ATOM      7  C   UNL     1     -16.915  44.480  30.953  1.00  0.00     0.036 C 
ATOM      8  C   UNL     1     -18.152  43.725  31.430  1.00  0.00     0.009 C 
ENDBRANCH   1   7
BRANCH   2   9
ATOM      9  O   UNL     1     -14.181  45.215  30.380  1.00  0.00    -0.508 OA
ATOM     10  H   UNL     1     -14.182  44.569  29.598  1.00  0.00     0.293 HD
ENDBRANCH   2   9
BRANCH   4  11
ATOM     11  O   UNL     1     -12.838  44.317  34.953  1.00  0.00    -0.508 OA
ATOM     12  H   UNL     1     -12.959  43.771  35.798  1.00  0.00     0.293 HD
ENDBRANCH   4  11
TORSDOF 3
ENDMDL
MODEL 2
REMARK VINA RESULT:    -4.811      3.237      3.999
REMARK INTER + INTRA:          -5.459
REMARK INTER:                  -5.352
REMARK INTRA:                  -0.107
REMARK UNBOUND:                -0.085
REMARK SMILES CCc1ccc(O)cc1O
REMARK SMILES IDX 3 1 9 2 8 3 6 4 5 5 4 6 2 7 1 8 10 9 7 11
REMARK H PARENT 10 10 7 12
REMARK Flexibility Score: inf
ROOT
ATOM      1  C   UNL     1     -17.112  43.785  31.652  1.00  0.00    -0.006 A 
ATOM      2  C   UNL     1     -18.407  43.334  31.977  1.00  0.00     0.122 A 
ATOM      3  C   UNL     1     -18.570  42.220  32.813  1.00  0.00     0.092 A 
ATOM      4  C   UNL     1     -17.451  41.546  33.320  1.00  0.00     0.119 A 
ATOM      5  C   UNL     1     -16.167  41.985  32.986  1.00  0.00     0.047 A 
ATOM      6  C   UNL     1     -15.996  43.094  32.155  1.00  0.00     0.011 A 
ENDROOT
BRANCH   1   7
ATOM      7  C   UNL     1     -16.908  44.962  30.731  1.00  0.00     0.036 C 
ATOM      8  C   UNL     1     -16.508  44.493  29.335  1.00  0.00     0.009 C 
ENDBRANCH   1   7
BRANCH   2   9
ATOM      9  O   UNL     1     -19.527  43.991  31.466  1.00  0.00    -0.508 OA
ATOM     10  H   UNL     1     -20.075  43.596  30.709  1.00  0.00     0.293 HD
ENDBRANCH   2   9
BRANCH   4  11
ATOM     11  O   UNL     1     -17.604  40.438  34.151  1.00  0.00    -0.508 OA
ATOM     12  H   UNL     1     -17.103  39.574  33.979  1.00  0.00     0.293 HD
ENDBRANCH   4  11
TORSDOF 3
ENDMDL
MODEL 3
REMARK VINA RESULT:    -4.801      1.917      3.866
REMARK INTER + INTRA:          -5.447
REMARK INTER:                  -5.361
REMARK INTRA:                  -0.086
REMARK UNBOUND:                -0.085
REMARK SMILES CCc1ccc(O)cc1O
REMARK SMILES IDX 3 1 9 2 8 3 6 4 5 5 4 6 2 7 1 8 10 9 7 11
REMARK H PARENT 10 10 7 12
REMARK Flexibility Score: inf
ROOT
ATOM      1  C   UNL     1     -15.418  44.521  32.395  1.00  0.00    -0.006 A 
ATOM      2  C   UNL     1     -15.873  44.760  31.083  1.00  0.00     0.122 A 
ATOM      3  C   UNL     1     -17.227  44.568  30.768  1.00  0.00     0.092 A 
ATOM      4  C   UNL     1     -18.127  44.131  31.748  1.00  0.00     0.119 A 
ATOM      5  C   UNL     1     -17.672  43.881  33.046  1.00  0.00     0.047 A 
ATOM      6  C   UNL     1     -16.326  44.070  33.368  1.00  0.00     0.011 A 
ENDROOT
BRANCH   1   7
ATOM      7  C   UNL     1     -13.963  44.690  32.754  1.00  0.00     0.036 C 
ATOM      8  C   UNL     1     -13.816  45.261  34.162  1.00  0.00     0.009 C 
ENDBRANCH   1   7
BRANCH   2   9
ATOM      9  O   UNL     1     -14.982  45.182  30.097  1.00  0.00    -0.508 OA
ATOM     10  H   UNL     1     -14.593  44.535  29.420  1.00  0.00     0.293 HD
ENDBRANCH   2   9
BRANCH   4  11
ATOM     11  O   UNL     1     -19.473  43.938  31.443  1.00  0.00    -0.508 OA
ATOM     12  H   UNL     1     -20.207  44.263  32.060  1.00  0.00     0.293 HD
ENDBRANCH   4  11
TORSDOF 3
ENDMDL
MODEL 4
REMARK VINA RESULT:    -4.745      3.693      4.575
REMARK INTER + INTRA:          -5.385
REMARK INTER:                  -5.298
REMARK INTRA:                  -0.087
REMARK UNBOUND:                -0.085
REMARK SMILES CCc1ccc(O)cc1O
REMARK SMILES IDX 3 1 9 2 8 3 6 4 5 5 4 6 2 7 1 8 10 9 7 11
REMARK H PARENT 10 10 7 12
REMARK Flexibility Score: inf
ROOT
ATOM      1  C   UNL     1     -17.702  41.819  32.073  1.00  0.00    -0.006 A 
ATOM      2  C   UNL     1     -17.684  43.109  31.506  1.00  0.00     0.122 A 
ATOM      3  C   UNL     1     -18.465  44.130  32.069  1.00  0.00     0.092 A 
ATOM      4  C   UNL     1     -19.270  43.872  33.186  1.00  0.00     0.119 A 
ATOM      5  C   UNL     1     -19.298  42.589  33.739  1.00  0.00     0.047 A 
ATOM      6  C   UNL     1     -18.524  41.567  33.185  1.00  0.00     0.011 A 
ENDROOT
BRANCH   1   7
ATOM      7  C   UNL     1     -16.896  40.696  31.470  1.00  0.00     0.036 C 
ATOM      8  C   UNL     1     -17.585  39.354  31.697  1.00  0.00     0.009 C 
ENDBRANCH   1   7
BRANCH   2   9
ATOM      9  O   UNL     1     -16.896  43.373  30.386  1.00  0.00    -0.508 OA
ATOM     10  H   UNL     1     -16.748  42.676  29.665  1.00  0.00     0.293 HD
ENDBRANCH   2   9
BRANCH   4  11
ATOM     11  O   UNL     1     -20.049  44.881  33.750  1.00  0.00    -0.508 OA
ATOM     12  H   UNL     1     -20.533  44.745  34.630  1.00  0.00     0.293 HD
ENDBRANCH   4  11
TORSDOF 3
ENDMDL
MODEL 5
REMARK VINA RESULT:    -4.720      2.253      4.452
REMARK INTER + INTRA:          -5.358
REMARK INTER:                  -5.250
REMARK INTRA:                  -0.108
REMARK UNBOUND:                -0.085
REMARK SMILES CCc1ccc(O)cc1O
REMARK SMILES IDX 3 1 9 2 8 3 6 4 5 5 4 6 2 7 1 8 10 9 7 11
REMARK H PARENT 10 10 7 12
REMARK Flexibility Score: inf
ROOT
ATOM      1  C   UNL     1     -15.402  43.849  32.740  1.00  0.00    -0.006 A 
ATOM      2  C   UNL     1     -16.398  43.201  33.499  1.00  0.00     0.122 A 
ATOM      3  C   UNL     1     -17.735  43.245  33.079  1.00  0.00     0.092 A 
ATOM      4  C   UNL     1     -18.089  43.939  31.914  1.00  0.00     0.119 A 
ATOM      5  C   UNL     1     -17.104  44.593  31.170  1.00  0.00     0.047 A 
ATOM      6  C   UNL     1     -15.770  44.554  31.581  1.00  0.00     0.011 A 
ENDROOT
BRANCH   1   7
ATOM      7  C   UNL     1     -13.961  43.843  33.185  1.00  0.00     0.036 C 
ATOM      8  C   UNL     1     -13.605  45.154  33.880  1.00  0.00     0.009 C 
ENDBRANCH   1   7
BRANCH   2   9
ATOM      9  O   UNL     1     -16.057  42.519  34.667  1.00  0.00    -0.508 OA
ATOM     10  H   UNL     1     -16.037  41.505  34.703  1.00  0.00     0.293 HD
ENDBRANCH   2   9
BRANCH   4  11
ATOM     11  O   UNL     1     -19.416  43.987  31.491  1.00  0.00    -0.508 OA
ATOM     12  H   UNL     1     -19.941  44.854  31.492  1.00  0.00     0.293 HD
ENDBRANCH   4  11
TORSDOF 3
ENDMDL
MODEL 6
REMARK VINA RESULT:    -4.637      2.106      4.353
REMARK INTER + INTRA:          -5.264
REMARK INTER:                  -5.157
REMARK INTRA:                  -0.107
REMARK UNBOUND:                -0.085
REMARK SMILES CCc1ccc(O)cc1O
REMARK SMILES IDX 3 1 9 2 8 3 6 4 5 5 4 6 2 7 1 8 10 9 7 11
REMARK H PARENT 10 10 7 12
REMARK Flexibility Score: inf
ROOT
ATOM      1  C   UNL     1     -15.492  44.327  32.638  1.00  0.00    -0.006 A 
ATOM      2  C   UNL     1     -16.884  44.445  32.449  1.00  0.00     0.122 A 
ATOM      3  C   UNL     1     -17.396  44.695  31.167  1.00  0.00     0.092 A 
ATOM      4  C   UNL     1     -16.531  44.839  30.075  1.00  0.00     0.119 A 
ATOM      5  C   UNL     1     -15.151  44.737  30.265  1.00  0.00     0.047 A 
ATOM      6  C   UNL     1     -14.632  44.487  31.538  1.00  0.00     0.011 A 
ENDROOT
BRANCH   1   7
ATOM      7  C   UNL     1     -14.913  44.088  34.010  1.00  0.00     0.036 C 
ATOM      8  C   UNL     1     -14.369  45.386  34.600  1.00  0.00     0.009 C 
ENDBRANCH   1   7
BRANCH   2   9
ATOM      9  O   UNL     1     -17.753  44.317  33.533  1.00  0.00    -0.508 OA
ATOM     10  H   UNL     1     -17.871  43.434  34.017  1.00  0.00     0.293 HD
ENDBRANCH   2   9
BRANCH   4  11
ATOM     11  O   UNL     1     -17.032  45.088  28.798  1.00  0.00    -0.508 OA
ATOM     12  H   UNL     1     -16.744  44.536  28.000  1.00  0.00     0.293 HD
ENDBRANCH   4  11
TORSDOF 3
ENDMDL
MODEL 7
REMARK VINA RESULT:    -4.629      4.020      5.039
REMARK INTER + INTRA:          -5.255
REMARK INTER:                  -5.160
REMARK INTRA:                  -0.095
REMARK UNBOUND:                -0.085
REMARK SMILES CCc1ccc(O)cc1O
REMARK SMILES IDX 3 1 9 2 8 3 6 4 5 5 4 6 2 7 1 8 10 9 7 11
REMARK H PARENT 10 10 7 12
REMARK Flexibility Score: inf
ROOT
ATOM      1  C   UNL     1     -17.338  41.835  31.842  1.00  0.00    -0.006 A 
ATOM      2  C   UNL     1     -18.020  41.517  33.034  1.00  0.00     0.122 A 
ATOM      3  C   UNL     1     -18.919  42.438  33.591  1.00  0.00     0.092 A 
ATOM      4  C   UNL     1     -19.136  43.677  32.974  1.00  0.00     0.119 A 
ATOM      5  C   UNL     1     -18.449  43.997  31.800  1.00  0.00     0.047 A 
ATOM      6  C   UNL     1     -17.552  43.086  31.239  1.00  0.00     0.011 A 
ENDROOT
BRANCH   1   7
ATOM      7  C   UNL     1     -16.342  40.876  31.238  1.00  0.00     0.036 C 
ATOM      8  C   UNL     1     -14.985  41.548  31.059  1.00  0.00     0.009 C 
ENDBRANCH   1   7
BRANCH   2   9
ATOM      9  O   UNL     1     -17.800  40.291  33.662  1.00  0.00    -0.508 OA
ATOM     10  H   UNL     1     -18.279  39.449  33.365  1.00  0.00     0.293 HD
ENDBRANCH   2   9
BRANCH   4  11
ATOM     11  O   UNL     1     -20.028  44.597  33.521  1.00  0.00    -0.508 OA
ATOM     12  H   UNL     1     -21.017  44.574  33.297  1.00  0.00     0.293 HD
ENDBRANCH   4  11
TORSDOF 3
ENDMDL
MODEL 8
REMARK VINA RESULT:    -4.586      1.628      2.342
REMARK INTER + INTRA:          -5.208
REMARK INTER:                  -5.121
REMARK INTRA:                  -0.087
REMARK UNBOUND:                -0.085
REMARK SMILES CCc1ccc(O)cc1O
REMARK SMILES IDX 3 1 9 2 8 3 6 4 5 5 4 6 2 7 1 8 10 9 7 11
REMARK H PARENT 10 10 7 12
REMARK Flexibility Score: inf
ROOT
ATOM      1  C   UNL     1     -15.750  43.978  31.912  1.00  0.00    -0.006 A 
ATOM      2  C   UNL     1     -16.040  43.592  33.236  1.00  0.00     0.122 A 
ATOM      3  C   UNL     1     -15.092  43.803  34.249  1.00  0.00     0.092 A 
ATOM      4  C   UNL     1     -13.855  44.387  33.949  1.00  0.00     0.119 A 
ATOM      5  C   UNL     1     -13.562  44.757  32.634  1.00  0.00     0.047 A 
ATOM      6  C   UNL     1     -14.500  44.551  31.620  1.00  0.00     0.011 A 
ENDROOT
BRANCH   1   7
ATOM      7  C   UNL     1     -16.738  43.736  30.799  1.00  0.00     0.036 C 
ATOM      8  C   UNL     1     -16.791  44.932  29.853  1.00  0.00     0.009 C 
ENDBRANCH   1   7
BRANCH   2   9
ATOM      9  O   UNL     1     -17.264  42.998  33.541  1.00  0.00    -0.508 OA
ATOM     10  H   UNL     1     -17.848  43.342  34.295  1.00  0.00     0.293 HD
ENDBRANCH   2   9
BRANCH   4  11
ATOM     11  O   UNL     1     -12.908  44.600  34.950  1.00  0.00    -0.508 OA
ATOM     12  H   UNL     1     -13.037  44.235  35.887  1.00  0.00     0.293 HD
ENDBRANCH   4  11
TORSDOF 3
ENDMDL
MODEL 9
REMARK VINA RESULT:    -4.496      1.594      2.248
REMARK INTER + INTRA:          -5.107
REMARK INTER:                  -5.019
REMARK INTRA:                  -0.088
REMARK UNBOUND:                -0.085
REMARK SMILES CCc1ccc(O)cc1O
REMARK SMILES IDX 3 1 9 2 8 3 6 4 5 5 4 6 2 7 1 8 10 9 7 11
REMARK H PARENT 10 10 7 12
REMARK Flexibility Score: inf
ROOT
ATOM      1  C   UNL     1     -17.198  44.058  32.065  1.00  0.00    -0.006 A 
ATOM      2  C   UNL     1     -16.630  44.602  30.896  1.00  0.00     0.122 A 
ATOM      3  C   UNL     1     -15.263  44.916  30.864  1.00  0.00     0.092 A 
ATOM      4  C   UNL     1     -14.461  44.700  31.992  1.00  0.00     0.119 A 
ATOM      5  C   UNL     1     -15.028  44.173  33.156  1.00  0.00     0.047 A 
ATOM      6  C   UNL     1     -16.388  43.859  33.196  1.00  0.00     0.011 A 
ENDROOT
BRANCH   1   7
ATOM      7  C   UNL     1     -18.671  43.740  32.137  1.00  0.00     0.036 C 
ATOM      8  C   UNL     1     -19.218  44.025  33.532  1.00  0.00     0.009 C 
ENDBRANCH   1   7
BRANCH   2   9
ATOM      9  O   UNL     1     -17.423  44.833  29.772  1.00  0.00    -0.508 OA
ATOM     10  H   UNL     1     -17.172  45.530  29.079  1.00  0.00     0.293 HD
ENDBRANCH   2   9
BRANCH   4  11
ATOM     11  O   UNL     1     -13.102  45.009  31.969  1.00  0.00    -0.508 OA
ATOM     12  H   UNL     1     -12.504  44.709  31.207  1.00  0.00     0.293 HD
ENDBRANCH   4  11
TORSDOF 3
ENDMDL
