MODEL 1
REMARK VINA RESULT:    -5.582      0.000      0.000
REMARK INTER + INTRA:          -6.292
REMARK INTER:                  -6.072
REMARK INTRA:                  -0.220
REMARK UNBOUND:                -0.220
REMARK SMILES O=C([O-])c1ccccc1O
REMARK SMILES IDX 4 1 9 2 5 3 8 4 6 5 7 6 2 7 1 8 3 9 10 10
REMARK H PARENT 10 11
REMARK Flexibility Score: inf
ROOT
ATOM      1  C   UNL     1      -7.654  47.111 -29.273  1.00  0.00     0.039 A 
ATOM      2  C   UNL     1      -9.001  46.733 -29.501  1.00  0.00     0.124 A 
ATOM      3  C   UNL     1      -6.653  46.623 -30.134  1.00  0.00     0.014 A 
ATOM      4  C   UNL     1      -9.318  45.938 -30.610  1.00  0.00     0.047 A 
ATOM      5  C   UNL     1      -6.984  45.813 -31.222  1.00  0.00     0.001 A 
ATOM      6  C   UNL     1      -8.316  45.479 -31.465  1.00  0.00     0.004 A 
ENDROOT
BRANCH   1   7
ATOM      7  C   UNL     1      -7.262  48.032 -28.181  1.00  0.00     0.075 C 
ATOM      8  O   UNL     1      -8.124  48.774 -27.641  1.00  0.00    -0.545 OA
ATOM      9  O   UNL     1      -5.961  48.042 -27.692  1.00  0.00    -0.545 OA
ENDBRANCH   1   7
BRANCH   2  10
ATOM     10  O   UNL     1     -10.040  47.093 -28.640  1.00  0.00    -0.507 OA
ATOM     11  H   UNL     1      -9.943  47.125 -27.635  1.00  0.00     0.293 HD
ENDBRANCH   2  10
TORSDOF 2
ENDMDL
MODEL 2
REMARK VINA RESULT:    -5.453      1.071      1.287
REMARK INTER + INTRA:          -6.152
REMARK INTER:                  -5.906
REMARK INTRA:                  -0.246
REMARK UNBOUND:                -0.220
REMARK SMILES O=C([O-])c1ccccc1O
REMARK SMILES IDX 4 1 9 2 5 3 8 4 6 5 7 6 2 7 1 8 3 9 10 10
REMARK H PARENT 10 11
REMARK Flexibility Score: inf
ROOT
ATOM      1  C   UNL     1      -7.157  47.622 -28.648  1.00  0.00     0.039 A 
ATOM      2  C   UNL     1      -8.504  47.336 -28.316  1.00  0.00     0.124 A 
ATOM      3  C   UNL     1      -6.615  47.078 -29.828  1.00  0.00     0.014 A 
ATOM      4  C   UNL     1      -9.287  46.574 -29.193  1.00  0.00     0.047 A 
ATOM      5  C   UNL     1      -7.403  46.302 -30.681  1.00  0.00     0.001 A 
ATOM      6  C   UNL     1      -8.740  46.059 -30.369  1.00  0.00     0.004 A 
ENDROOT
BRANCH   1   7
ATOM      7  C   UNL     1      -6.305  48.505 -27.818  1.00  0.00     0.075 C 
ATOM      8  O   UNL     1      -6.743  49.616 -27.422  1.00  0.00    -0.545 OA
ATOM      9  O   UNL     1      -5.043  48.092 -27.408  1.00  0.00    -0.545 OA
ENDBRANCH   1   7
BRANCH   2  10
ATOM     10  O   UNL     1      -9.090  47.754 -27.118  1.00  0.00    -0.507 OA
ATOM     11  H   UNL     1      -8.815  48.594 -26.629  1.00  0.00     0.293 HD
ENDBRANCH   2  10
TORSDOF 2
ENDMDL
MODEL 3
REMARK VINA RESULT:    -5.411      3.636      6.099
REMARK INTER + INTRA:          -6.105
REMARK INTER:                  -5.854
REMARK INTRA:                  -0.252
REMARK UNBOUND:                -0.220
REMARK SMILES O=C([O-])c1ccccc1O
REMARK SMILES IDX 4 1 9 2 5 3 8 4 6 5 7 6 2 7 1 8 3 9 10 10
REMARK H PARENT 10 11
REMARK Flexibility Score: inf
ROOT
ATOM      1  C   UNL     1      -4.937  49.459 -27.335  1.00  0.00     0.039 A 
ATOM      2  C   UNL     1      -3.620  49.325 -26.830  1.00  0.00     0.124 A 
ATOM      3  C   UNL     1      -5.534  50.734 -27.354  1.00  0.00     0.014 A 
ATOM      4  C   UNL     1      -2.916  50.464 -26.421  1.00  0.00     0.047 A 
ATOM      5  C   UNL     1      -4.825  51.857 -26.921  1.00  0.00     0.001 A 
ATOM      6  C   UNL     1      -3.514  51.723 -26.465  1.00  0.00     0.004 A 
ENDROOT
BRANCH   1   7
ATOM      7  C   UNL     1      -5.700  48.312 -27.880  1.00  0.00     0.075 C 
ATOM      8  O   UNL     1      -6.955  48.286 -27.786  1.00  0.00    -0.545 OA
ATOM      9  O   UNL     1      -5.052  47.288 -28.561  1.00  0.00    -0.545 OA
ENDBRANCH   1   7
BRANCH   2  10
ATOM     10  O   UNL     1      -2.992  48.085 -26.687  1.00  0.00    -0.507 OA
ATOM     11  H   UNL     1      -2.100  47.964 -26.227  1.00  0.00     0.293 HD
ENDBRANCH   2  10
TORSDOF 2
ENDMDL
MODEL 4
REMARK VINA RESULT:    -5.273      9.611     10.242
REMARK INTER + INTRA:          -5.956
REMARK INTER:                  -5.745
REMARK INTRA:                  -0.211
REMARK UNBOUND:                -0.220
REMARK SMILES O=C([O-])c1ccccc1O
REMARK SMILES IDX 4 1 9 2 5 3 8 4 6 5 7 6 2 7 1 8 3 9 10 10
REMARK H PARENT 10 11
REMARK Flexibility Score: inf
ROOT
ATOM      1  C   UNL     1      -4.509  52.172 -37.198  1.00  0.00     0.039 A 
ATOM      2  C   UNL     1      -5.115  53.240 -36.490  1.00  0.00     0.124 A 
ATOM      3  C   UNL     1      -5.276  51.028 -37.494  1.00  0.00     0.014 A 
ATOM      4  C   UNL     1      -6.474  53.167 -36.157  1.00  0.00     0.047 A 
ATOM      5  C   UNL     1      -6.623  50.963 -37.135  1.00  0.00     0.001 A 
ATOM      6  C   UNL     1      -7.224  52.035 -36.476  1.00  0.00     0.004 A 
ENDROOT
BRANCH   1   7
ATOM      7  C   UNL     1      -3.107  52.227 -37.671  1.00  0.00     0.075 C 
ATOM      8  O   UNL     1      -2.478  53.318 -37.656  1.00  0.00    -0.545 OA
ATOM      9  O   UNL     1      -2.445  51.072 -38.069  1.00  0.00    -0.545 OA
ENDBRANCH   1   7
BRANCH   2  10
ATOM     10  O   UNL     1      -4.403  54.366 -36.072  1.00  0.00    -0.507 OA
ATOM     11  H   UNL     1      -4.843  55.234 -35.803  1.00  0.00     0.293 HD
ENDBRANCH   2  10
TORSDOF 2
ENDMDL
MODEL 5
REMARK VINA RESULT:    -5.255      0.981      2.252
REMARK INTER + INTRA:          -5.937
REMARK INTER:                  -5.687
REMARK INTRA:                  -0.249
REMARK UNBOUND:                -0.220
REMARK SMILES O=C([O-])c1ccccc1O
REMARK SMILES IDX 4 1 9 2 5 3 8 4 6 5 7 6 2 7 1 8 3 9 10 10
REMARK H PARENT 10 11
REMARK Flexibility Score: inf
ROOT
ATOM      1  C   UNL     1      -7.381  47.139 -29.303  1.00  0.00     0.039 A 
ATOM      2  C   UNL     1      -6.488  46.727 -30.324  1.00  0.00     0.124 A 
ATOM      3  C   UNL     1      -8.709  46.672 -29.330  1.00  0.00     0.014 A 
ATOM      4  C   UNL     1      -6.921  45.818 -31.298  1.00  0.00     0.047 A 
ATOM      5  C   UNL     1      -9.130  45.783 -30.321  1.00  0.00     0.001 A 
ATOM      6  C   UNL     1      -8.235  45.349 -31.297  1.00  0.00     0.004 A 
ENDROOT
BRANCH   1   7
ATOM      7  C   UNL     1      -6.960  48.016 -28.186  1.00  0.00     0.075 C 
ATOM      8  O   UNL     1      -7.799  48.762 -27.618  1.00  0.00    -0.545 OA
ATOM      9  O   UNL     1      -5.656  47.978 -27.706  1.00  0.00    -0.545 OA
ENDBRANCH   1   7
BRANCH   2  10
ATOM     10  O   UNL     1      -5.184  47.218 -30.427  1.00  0.00    -0.507 OA
ATOM     11  H   UNL     1      -4.932  48.174 -30.217  1.00  0.00     0.293 HD
ENDBRANCH   2  10
TORSDOF 2
ENDMDL
MODEL 6
REMARK VINA RESULT:    -5.170     12.633     13.425
REMARK INTER + INTRA:          -5.844
REMARK INTER:                  -5.598
REMARK INTRA:                  -0.246
REMARK UNBOUND:                -0.220
REMARK SMILES O=C([O-])c1ccccc1O
REMARK SMILES IDX 4 1 9 2 5 3 8 4 6 5 7 6 2 7 1 8 3 9 10 10
REMARK H PARENT 10 11
REMARK Flexibility Score: inf
ROOT
ATOM      1  C   UNL     1      -0.808  43.018 -39.710  1.00  0.00     0.039 A 
ATOM      2  C   UNL     1      -1.653  42.427 -40.682  1.00  0.00     0.124 A 
ATOM      3  C   UNL     1      -1.172  44.259 -39.153  1.00  0.00     0.014 A 
ATOM      4  C   UNL     1      -2.859  43.053 -41.022  1.00  0.00     0.047 A 
ATOM      5  C   UNL     1      -2.368  44.879 -39.520  1.00  0.00     0.001 A 
ATOM      6  C   UNL     1      -3.215  44.272 -40.446  1.00  0.00     0.004 A 
ENDROOT
BRANCH   1   7
ATOM      7  C   UNL     1       0.429  42.361 -39.228  1.00  0.00     0.075 C 
ATOM      8  O   UNL     1       0.484  41.107 -39.137  1.00  0.00    -0.545 OA
ATOM      9  O   UNL     1       1.564  43.109 -38.939  1.00  0.00    -0.545 OA
ENDBRANCH   1   7
BRANCH   2  10
ATOM     10  O   UNL     1      -1.319  41.249 -41.353  1.00  0.00    -0.507 OA
ATOM     11  H   UNL     1      -1.817  40.379 -41.230  1.00  0.00     0.293 HD
ENDBRANCH   2  10
TORSDOF 2
ENDMDL
MODEL 7
REMARK VINA RESULT:    -5.029      9.542     10.251
REMARK INTER + INTRA:          -5.691
REMARK INTER:                  -5.470
REMARK INTRA:                  -0.221
REMARK UNBOUND:                -0.220
REMARK SMILES O=C([O-])c1ccccc1O
REMARK SMILES IDX 4 1 9 2 5 3 8 4 6 5 7 6 2 7 1 8 3 9 10 10
REMARK H PARENT 10 11
REMARK Flexibility Score: inf
ROOT
ATOM      1  C   UNL     1      -4.806  52.578 -36.622  1.00  0.00     0.039 A 
ATOM      2  C   UNL     1      -3.651  53.092 -37.262  1.00  0.00     0.124 A 
ATOM      3  C   UNL     1      -4.913  51.189 -36.421  1.00  0.00     0.014 A 
ATOM      4  C   UNL     1      -2.614  52.221 -37.623  1.00  0.00     0.047 A 
ATOM      5  C   UNL     1      -3.879  50.333 -36.807  1.00  0.00     0.001 A 
ATOM      6  C   UNL     1      -2.727  50.849 -37.398  1.00  0.00     0.004 A 
ENDROOT
BRANCH   1   7
ATOM      7  C   UNL     1      -5.892  53.452 -36.122  1.00  0.00     0.075 C 
ATOM      8  O   UNL     1      -5.638  54.361 -35.289  1.00  0.00    -0.545 OA
ATOM      9  O   UNL     1      -7.186  53.329 -36.614  1.00  0.00    -0.545 OA
ENDBRANCH   1   7
BRANCH   2  10
ATOM     10  O   UNL     1      -3.508  54.443 -37.587  1.00  0.00    -0.507 OA
ATOM     11  H   UNL     1      -3.590  54.800 -38.528  1.00  0.00     0.293 HD
ENDBRANCH   2  10
TORSDOF 2
ENDMDL
MODEL 8
REMARK VINA RESULT:    -5.023      9.510      9.871
REMARK INTER + INTRA:          -5.684
REMARK INTER:                  -5.436
REMARK INTRA:                  -0.247
REMARK UNBOUND:                -0.220
REMARK SMILES O=C([O-])c1ccccc1O
REMARK SMILES IDX 4 1 9 2 5 3 8 4 6 5 7 6 2 7 1 8 3 9 10 10
REMARK H PARENT 10 11
REMARK Flexibility Score: inf
ROOT
ATOM      1  C   UNL     1      -8.262  53.643 -35.320  1.00  0.00     0.039 A 
ATOM      2  C   UNL     1      -8.795  54.772 -35.992  1.00  0.00     0.124 A 
ATOM      3  C   UNL     1      -8.107  53.693 -33.922  1.00  0.00     0.014 A 
ATOM      4  C   UNL     1      -9.213  55.885 -35.251  1.00  0.00     0.047 A 
ATOM      5  C   UNL     1      -8.509  54.819 -33.201  1.00  0.00     0.001 A 
ATOM      6  C   UNL     1      -9.071  55.909 -33.864  1.00  0.00     0.004 A 
ENDROOT
BRANCH   1   7
ATOM      7  C   UNL     1      -7.896  52.396 -36.030  1.00  0.00     0.075 C 
ATOM      8  O   UNL     1      -7.160  52.443 -37.050  1.00  0.00    -0.545 OA
ATOM      9  O   UNL     1      -8.298  51.158 -35.544  1.00  0.00    -0.545 OA
ENDBRANCH   1   7
BRANCH   2  10
ATOM     10  O   UNL     1      -8.892  54.842 -37.384  1.00  0.00    -0.507 OA
ATOM     11  H   UNL     1      -9.246  54.088 -37.955  1.00  0.00     0.293 HD
ENDBRANCH   2  10
TORSDOF 2
ENDMDL
MODEL 9
REMARK VINA RESULT:    -5.007      4.901      6.120
REMARK INTER + INTRA:          -5.666
REMARK INTER:                  -5.434
REMARK INTRA:                  -0.232
REMARK UNBOUND:                -0.220
REMARK SMILES O=C([O-])c1ccccc1O
REMARK SMILES IDX 4 1 9 2 5 3 8 4 6 5 7 6 2 7 1 8 3 9 10 10
REMARK H PARENT 10 11
REMARK Flexibility Score: inf
ROOT
ATOM      1  C   UNL     1      -4.302  50.248 -26.983  1.00  0.00     0.039 A 
ATOM      2  C   UNL     1      -4.798  51.556 -26.756  1.00  0.00     0.124 A 
ATOM      3  C   UNL     1      -5.170  49.270 -27.503  1.00  0.00     0.014 A 
ATOM      4  C   UNL     1      -6.118  51.867 -27.111  1.00  0.00     0.047 A 
ATOM      5  C   UNL     1      -6.489  49.591 -27.831  1.00  0.00     0.001 A 
ATOM      6  C   UNL     1      -6.959  50.891 -27.644  1.00  0.00     0.004 A 
ENDROOT
BRANCH   1   7
ATOM      7  C   UNL     1      -2.891  49.879 -26.727  1.00  0.00     0.075 C 
ATOM      8  O   UNL     1      -2.560  48.668 -26.640  1.00  0.00    -0.545 OA
ATOM      9  O   UNL     1      -1.904  50.855 -26.650  1.00  0.00    -0.545 OA
ENDBRANCH   1   7
BRANCH   2  10
ATOM     10  O   UNL     1      -4.033  52.558 -26.154  1.00  0.00    -0.507 OA
ATOM     11  H   UNL     1      -3.037  52.652 -26.288  1.00  0.00     0.293 HD
ENDBRANCH   2  10
TORSDOF 2
ENDMDL
