MODEL 1
REMARK VINA RESULT:    -2.490      0.000      0.000
REMARK INTER + INTRA:          -5.817
REMARK INTER:                  -4.529
REMARK INTRA:                  -1.288
REMARK UNBOUND:                -1.288
REMARK SMILES CCCCCCCCCCCCCCCC(=O)[O-]
REMARK SMILES IDX 9 1 10 2 11 3 12 4 13 5 14 6 15 7 16 8 17 9 18 10 8 11 7 12
REMARK SMILES IDX 6 13 5 14 4 15 3 16 2 17 1 18
REMARK H PARENT
REMARK Flexibility Score: inf
ROOT
ATOM      1  C   UNL     1      -7.189  -4.933  -6.876  1.00  0.00     0.000 C 
ENDROOT
BRANCH   1   2
ATOM      2  C   UNL     1      -7.984  -6.248  -6.977  1.00  0.00     0.000 C 
BRANCH   2   3
ATOM      3  C   UNL     1      -9.346  -6.057  -7.664  1.00  0.00     0.000 C 
BRANCH   3   4
ATOM      4  C   UNL     1     -10.047  -7.393  -7.966  1.00  0.00     0.000 C 
BRANCH   4   5
ATOM      5  C   UNL     1      -9.163  -8.363  -8.768  1.00  0.00     0.000 C 
BRANCH   5   6
ATOM      6  C   UNL     1      -9.183  -9.825  -8.279  1.00  0.00     0.006 C 
BRANCH   6   7
ATOM      7  C   UNL     1      -9.368  -9.976  -6.756  1.00  0.00     0.053 C 
BRANCH   7   8
ATOM      8  C   UNL     1      -8.064 -10.091  -6.024  1.00  0.00     0.041 C 
ATOM      9  O   UNL     1      -6.978 -10.125  -6.661  1.00  0.00    -0.550 OA
ATOM     10  O   UNL     1      -8.045 -10.122  -4.636  1.00  0.00    -0.550 OA
ENDBRANCH   7   8
ENDBRANCH   6   7
ENDBRANCH   5   6
ENDBRANCH   4   5
ENDBRANCH   3   4
ENDBRANCH   2   3
ENDBRANCH   1   2
BRANCH   1  11
ATOM     11  C   UNL     1      -5.991  -4.897  -7.844  1.00  0.00     0.000 C 
BRANCH  11  12
ATOM     12  C   UNL     1      -6.050  -5.968  -8.949  1.00  0.00    -0.000 C 
BRANCH  12  13
ATOM     13  C   UNL     1      -4.658  -6.310  -9.509  1.00  0.00    -0.000 C 
BRANCH  13  14
ATOM     14  C   UNL     1      -4.415  -7.827  -9.626  1.00  0.00    -0.000 C 
BRANCH  14  15
ATOM     15  C   UNL     1      -4.427  -8.590  -8.288  1.00  0.00    -0.000 C 
BRANCH  15  16
ATOM     16  C   UNL     1      -3.567  -9.865  -8.321  1.00  0.00    -0.000 C 
BRANCH  16  17
ATOM     17  C   UNL     1      -2.795 -10.086  -7.010  1.00  0.00    -0.003 C 
ATOM     18  C   UNL     1      -3.555  -9.577  -5.785  1.00  0.00     0.004 C 
ENDBRANCH  16  17
ENDBRANCH  15  16
ENDBRANCH  14  15
ENDBRANCH  13  14
ENDBRANCH  12  13
ENDBRANCH  11  12
ENDBRANCH   1  11
TORSDOF 14
ENDMDL
MODEL 2
REMARK VINA RESULT:    -2.488      1.527      5.309
REMARK INTER + INTRA:          -5.812
REMARK INTER:                  -4.815
REMARK INTRA:                  -0.997
REMARK UNBOUND:                -1.288
REMARK SMILES CCCCCCCCCCCCCCCC(=O)[O-]
REMARK SMILES IDX 9 1 10 2 11 3 12 4 13 5 14 6 15 7 16 8 17 9 18 10 8 11 7 12
REMARK SMILES IDX 6 13 5 14 4 15 3 16 2 17 1 18
REMARK H PARENT
REMARK Flexibility Score: inf
ROOT
ATOM      1  C   UNL     1      -5.927  -6.085  -9.075  1.00  0.00     0.000 C 
ENDROOT
BRANCH   1   2
ATOM      2  C   UNL     1      -4.440  -6.476  -9.158  1.00  0.00     0.000 C 
BRANCH   2   3
ATOM      3  C   UNL     1      -4.226  -7.814  -9.884  1.00  0.00     0.000 C 
BRANCH   3   4
ATOM      4  C   UNL     1      -3.580  -8.879  -8.980  1.00  0.00     0.000 C 
BRANCH   4   5
ATOM      5  C   UNL     1      -4.056  -8.792  -7.521  1.00  0.00     0.000 C 
BRANCH   5   6
ATOM      6  C   UNL     1      -4.763 -10.053  -6.987  1.00  0.00     0.006 C 
BRANCH   6   7
ATOM      7  C   UNL     1      -6.302  -9.967  -7.005  1.00  0.00     0.053 C 
BRANCH   7   8
ATOM      8  C   UNL     1      -6.902 -10.058  -5.634  1.00  0.00     0.041 C 
ATOM      9  O   UNL     1      -8.152 -10.124  -5.489  1.00  0.00    -0.550 OA
ATOM     10  O   UNL     1      -6.081 -10.109  -4.515  1.00  0.00    -0.550 OA
ENDBRANCH   7   8
ENDBRANCH   6   7
ENDBRANCH   5   6
ENDBRANCH   4   5
ENDBRANCH   3   4
ENDBRANCH   2   3
ENDBRANCH   1   2
BRANCH   1  11
ATOM     11  C   UNL     1      -6.857  -7.313  -9.066  1.00  0.00     0.000 C 
BRANCH  11  12
ATOM     12  C   UNL     1      -8.239  -7.053  -9.697  1.00  0.00    -0.000 C 
BRANCH  12  13
ATOM     13  C   UNL     1      -9.336  -7.947  -9.092  1.00  0.00    -0.000 C 
BRANCH  13  14
ATOM     14  C   UNL     1     -10.026  -7.305  -7.873  1.00  0.00    -0.000 C 
BRANCH  14  15
ATOM     15  C   UNL     1     -10.114  -5.769  -7.912  1.00  0.00    -0.000 C 
BRANCH  15  16
ATOM     16  C   UNL     1      -8.956  -5.085  -7.166  1.00  0.00    -0.000 C 
BRANCH  16  17
ATOM     17  C   UNL     1      -9.446  -4.026  -6.165  1.00  0.00    -0.003 C 
ATOM     18  C   UNL     1      -9.730  -2.678  -6.827  1.00  0.00     0.004 C 
ENDBRANCH  16  17
ENDBRANCH  15  16
ENDBRANCH  14  15
ENDBRANCH  13  14
ENDBRANCH  12  13
ENDBRANCH  11  12
ENDBRANCH   1  11
TORSDOF 14
ENDMDL
MODEL 3
REMARK VINA RESULT:    -2.329     21.677     23.455
REMARK INTER + INTRA:          -5.524
REMARK INTER:                  -4.439
REMARK INTRA:                  -1.084
REMARK UNBOUND:                -1.288
REMARK SMILES CCCCCCCCCCCCCCCC(=O)[O-]
REMARK SMILES IDX 9 1 10 2 11 3 12 4 13 5 14 6 15 7 16 8 17 9 18 10 8 11 7 12
REMARK SMILES IDX 6 13 5 14 4 15 3 16 2 17 1 18
REMARK H PARENT
REMARK Flexibility Score: inf
ROOT
ATOM      1  C   UNL     1       8.527   4.832   1.075  1.00  0.00     0.000 C 
ENDROOT
BRANCH   1   2
ATOM      2  C   UNL     1       9.799   4.282   1.747  1.00  0.00     0.000 C 
BRANCH   2   3
ATOM      3  C   UNL     1       9.709   4.310   3.281  1.00  0.00     0.000 C 
BRANCH   3   4
ATOM      4  C   UNL     1      10.123   2.973   3.921  1.00  0.00     0.000 C 
BRANCH   4   5
ATOM      5  C   UNL     1       9.433   1.761   3.272  1.00  0.00     0.000 C 
BRANCH   5   6
ATOM      6  C   UNL     1       9.403   0.485   4.136  1.00  0.00     0.006 C 
BRANCH   6   7
ATOM      7  C   UNL     1       9.712   0.727   5.627  1.00  0.00     0.053 C 
BRANCH   7   8
ATOM      8  C   UNL     1       8.486   0.660   6.489  1.00  0.00     0.041 C 
ATOM      9  O   UNL     1       7.417   0.168   6.039  1.00  0.00    -0.550 OA
ATOM     10  O   UNL     1       8.534   1.105   7.804  1.00  0.00    -0.550 OA
ENDBRANCH   7   8
ENDBRANCH   6   7
ENDBRANCH   5   6
ENDBRANCH   4   5
ENDBRANCH   3   4
ENDBRANCH   2   3
ENDBRANCH   1   2
BRANCH   1  11
ATOM     11  C   UNL     1       8.677   6.306   0.653  1.00  0.00     0.000 C 
BRANCH  11  12
ATOM     12  C   UNL     1      10.020   6.939   1.064  1.00  0.00    -0.000 C 
BRANCH  12  13
ATOM     13  C   UNL     1       9.868   7.932   2.230  1.00  0.00    -0.000 C 
BRANCH  13  14
ATOM     14  C   UNL     1      10.125   7.285   3.605  1.00  0.00    -0.000 C 
BRANCH  14  15
ATOM     15  C   UNL     1       9.519   8.042   4.801  1.00  0.00    -0.000 C 
BRANCH  15  16
ATOM     16  C   UNL     1       7.982   8.081   4.767  1.00  0.00    -0.000 C 
BRANCH  16  17
ATOM     17  C   UNL     1       7.358   6.678   4.836  1.00  0.00    -0.003 C 
ATOM     18  C   UNL     1       6.608   6.302   3.559  1.00  0.00     0.004 C 
ENDBRANCH  16  17
ENDBRANCH  15  16
ENDBRANCH  14  15
ENDBRANCH  13  14
ENDBRANCH  12  13
ENDBRANCH  11  12
ENDBRANCH   1  11
TORSDOF 14
ENDMDL
MODEL 4
REMARK VINA RESULT:    -2.305     21.659     23.762
REMARK INTER + INTRA:          -5.479
REMARK INTER:                  -4.394
REMARK INTRA:                  -1.085
REMARK UNBOUND:                -1.288
REMARK SMILES CCCCCCCCCCCCCCCC(=O)[O-]
REMARK SMILES IDX 9 1 10 2 11 3 12 4 13 5 14 6 15 7 16 8 17 9 18 10 8 11 7 12
REMARK SMILES IDX 6 13 5 14 4 15 3 16 2 17 1 18
REMARK H PARENT
REMARK Flexibility Score: inf
ROOT
ATOM      1  C   UNL     1       6.287   5.475   2.311  1.00  0.00     0.000 C 
ENDROOT
BRANCH   1   2
ATOM      2  C   UNL     1       6.958   6.171   1.113  1.00  0.00     0.000 C 
BRANCH   2   3
ATOM      3  C   UNL     1       8.492   6.078   1.166  1.00  0.00     0.000 C 
BRANCH   3   4
ATOM      4  C   UNL     1       8.984   4.704   1.652  1.00  0.00     0.000 C 
BRANCH   4   5
ATOM      5  C   UNL     1       9.828   4.791   2.934  1.00  0.00     0.000 C 
BRANCH   5   6
ATOM      6  C   UNL     1      10.125   3.441   3.616  1.00  0.00     0.006 C 
BRANCH   6   7
ATOM      7  C   UNL     1      10.079   2.231   2.663  1.00  0.00     0.053 C 
BRANCH   7   8
ATOM      8  C   UNL     1       9.990   0.923   3.391  1.00  0.00     0.041 C 
ATOM      9  O   UNL     1      10.100   0.885   4.646  1.00  0.00    -0.550 OA
ATOM     10  O   UNL     1       9.745  -0.250   2.690  1.00  0.00    -0.550 OA
ENDBRANCH   7   8
ENDBRANCH   6   7
ENDBRANCH   5   6
ENDBRANCH   4   5
ENDBRANCH   3   4
ENDBRANCH   2   3
ENDBRANCH   1   2
BRANCH   1  11
ATOM     11  C   UNL     1       6.906   5.897   3.657  1.00  0.00     0.000 C 
BRANCH  11  12
ATOM     12  C   UNL     1       6.280   7.169   4.260  1.00  0.00    -0.000 C 
BRANCH  12  13
ATOM     13  C   UNL     1       7.304   8.016   5.036  1.00  0.00    -0.000 C 
BRANCH  13  14
ATOM     14  C   UNL     1       8.267   7.163   5.883  1.00  0.00    -0.000 C 
BRANCH  14  15
ATOM     15  C   UNL     1       9.762   7.430   5.632  1.00  0.00    -0.000 C 
BRANCH  15  16
ATOM     16  C   UNL     1      10.009   8.684   4.776  1.00  0.00    -0.000 C 
BRANCH  16  17
ATOM     17  C   UNL     1      10.125   8.359   3.278  1.00  0.00    -0.003 C 
ATOM     18  C   UNL     1       9.927   9.588   2.392  1.00  0.00     0.004 C 
ENDBRANCH  16  17
ENDBRANCH  15  16
ENDBRANCH  14  15
ENDBRANCH  13  14
ENDBRANCH  12  13
ENDBRANCH  11  12
ENDBRANCH   1  11
TORSDOF 14
ENDMDL
MODEL 5
REMARK VINA RESULT:    -2.273     21.660     23.719
REMARK INTER + INTRA:          -5.421
REMARK INTER:                  -4.775
REMARK INTRA:                  -0.646
REMARK UNBOUND:                -1.288
REMARK SMILES CCCCCCCCCCCCCCCC(=O)[O-]
REMARK SMILES IDX 9 1 10 2 11 3 12 4 13 5 14 6 15 7 16 8 17 9 18 10 8 11 7 12
REMARK SMILES IDX 6 13 5 14 4 15 3 16 2 17 1 18
REMARK H PARENT
REMARK Flexibility Score: inf
ROOT
ATOM      1  C   UNL     1       7.929   6.048   2.775  1.00  0.00     0.000 C 
ENDROOT
BRANCH   1   2
ATOM      2  C   UNL     1       8.215   6.031   1.262  1.00  0.00     0.000 C 
BRANCH   2   3
ATOM      3  C   UNL     1       8.649   4.643   0.763  1.00  0.00     0.000 C 
BRANCH   3   4
ATOM      4  C   UNL     1      10.031   4.229   1.300  1.00  0.00     0.000 C 
BRANCH   4   5
ATOM      5  C   UNL     1      10.068   2.772   1.793  1.00  0.00     0.000 C 
BRANCH   5   6
ATOM      6  C   UNL     1       9.998   2.598   3.323  1.00  0.00     0.006 C 
BRANCH   6   7
ATOM      7  C   UNL     1      10.125   1.137   3.796  1.00  0.00     0.053 C 
BRANCH   7   8
ATOM      8  C   UNL     1       9.101   0.772   4.830  1.00  0.00     0.041 C 
ATOM      9  O   UNL     1       8.321  -0.198   4.638  1.00  0.00    -0.550 OA
ATOM     10  O   UNL     1       9.033   1.480   6.023  1.00  0.00    -0.550 OA
ENDBRANCH   7   8
ENDBRANCH   6   7
ENDBRANCH   5   6
ENDBRANCH   4   5
ENDBRANCH   3   4
ENDBRANCH   2   3
ENDBRANCH   1   2
BRANCH   1  11
ATOM     11  C   UNL     1       6.482   6.468   3.093  1.00  0.00     0.000 C 
BRANCH  11  12
ATOM     12  C   UNL     1       6.225   6.738   4.588  1.00  0.00    -0.000 C 
BRANCH  12  13
ATOM     13  C   UNL     1       7.158   7.822   5.157  1.00  0.00    -0.000 C 
BRANCH  13  14
ATOM     14  C   UNL     1       8.580   7.300   5.439  1.00  0.00    -0.000 C 
BRANCH  14  15
ATOM     15  C   UNL     1       9.716   8.215   4.945  1.00  0.00    -0.000 C 
BRANCH  15  16
ATOM     16  C   UNL     1       9.206   9.412   4.125  1.00  0.00    -0.000 C 
BRANCH  16  17
ATOM     17  C   UNL     1      10.125   9.747   2.940  1.00  0.00    -0.003 C 
ATOM     18  C   UNL     1      10.062   8.698   1.830  1.00  0.00     0.004 C 
ENDBRANCH  16  17
ENDBRANCH  15  16
ENDBRANCH  14  15
ENDBRANCH  13  14
ENDBRANCH  12  13
ENDBRANCH  11  12
ENDBRANCH   1  11
TORSDOF 14
ENDMDL
MODEL 6
REMARK VINA RESULT:    -1.840     21.652     23.664
REMARK INTER + INTRA:          -4.634
REMARK INTER:                  -4.691
REMARK INTRA:                   0.057
REMARK UNBOUND:                -1.288
REMARK SMILES CCCCCCCCCCCCCCCC(=O)[O-]
REMARK SMILES IDX 9 1 10 2 11 3 12 4 13 5 14 6 15 7 16 8 17 9 18 10 8 11 7 12
REMARK SMILES IDX 6 13 5 14 4 15 3 16 2 17 1 18
REMARK H PARENT
REMARK Flexibility Score: inf
ROOT
ATOM      1  C   UNL     1       6.396   5.673   2.269  1.00  0.00     0.000 C 
ENDROOT
BRANCH   1   2
ATOM      2  C   UNL     1       6.733   6.260   3.652  1.00  0.00     0.000 C 
BRANCH   2   3
ATOM      3  C   UNL     1       8.199   6.023   4.049  1.00  0.00     0.000 C 
BRANCH   3   4
ATOM      4  C   UNL     1       8.640   6.903   5.231  1.00  0.00     0.000 C 
BRANCH   4   5
ATOM      5  C   UNL     1       9.475   8.118   4.792  1.00  0.00     0.000 C 
BRANCH   5   6
ATOM      6  C   UNL     1       8.757   9.478   4.900  1.00  0.00     0.006 C 
BRANCH   6   7
ATOM      7  C   UNL     1       7.436   9.556   4.110  1.00  0.00     0.053 C 
BRANCH   7   8
ATOM      8  C   UNL     1       6.227   9.501   4.997  1.00  0.00     0.041 C 
ATOM      9  O   UNL     1       6.357   9.344   6.240  1.00  0.00    -0.550 OA
ATOM     10  O   UNL     1       4.958   9.661   4.456  1.00  0.00    -0.550 OA
ENDBRANCH   7   8
ENDBRANCH   6   7
ENDBRANCH   5   6
ENDBRANCH   4   5
ENDBRANCH   3   4
ENDBRANCH   2   3
ENDBRANCH   1   2
BRANCH   1  11
ATOM     11  C   UNL     1       7.376   6.143   1.178  1.00  0.00     0.000 C 
BRANCH  11  12
ATOM     12  C   UNL     1       8.845   5.771   1.456  1.00  0.00    -0.000 C 
BRANCH  12  13
ATOM     13  C   UNL     1       9.119   4.271   1.249  1.00  0.00    -0.000 C 
BRANCH  13  14
ATOM     14  C   UNL     1      10.118   3.699   2.273  1.00  0.00    -0.000 C 
BRANCH  14  15
ATOM     15  C   UNL     1      10.118   2.163   2.391  1.00  0.00    -0.000 C 
BRANCH  15  16
ATOM     16  C   UNL     1       9.966   1.676   3.842  1.00  0.00    -0.000 C 
BRANCH  16  17
ATOM     17  C   UNL     1       9.543   0.201   3.924  1.00  0.00    -0.003 C 
ATOM     18  C   UNL     1       9.767  -0.551   2.613  1.00  0.00     0.004 C 
ENDBRANCH  16  17
ENDBRANCH  15  16
ENDBRANCH  14  15
ENDBRANCH  13  14
ENDBRANCH  12  13
ENDBRANCH  11  12
ENDBRANCH   1  11
TORSDOF 14
ENDMDL
