MODEL 1
REMARK VINA RESULT:    -5.078      0.000      0.000
REMARK INTER + INTRA:          -7.754
REMARK INTER:                  -7.156
REMARK INTRA:                  -0.598
REMARK UNBOUND:                -0.598
REMARK SMILES CCCCCCCCC(=O)[O-]
REMARK SMILES IDX 6 1 7 2 8 3 9 4 10 5 11 6 5 7 4 8 3 9 2 10 1 11
REMARK H PARENT
REMARK Flexibility Score: inf
ROOT
ATOM      1  C   UNL     1      11.043 -24.837  10.141  1.00  0.00     0.000 C 
ENDROOT
BRANCH   1   2
ATOM      2  C   UNL     1      11.121 -25.355  11.592  1.00  0.00     0.006 C 
BRANCH   2   3
ATOM      3  C   UNL     1       9.962 -26.277  12.003  1.00  0.00     0.053 C 
BRANCH   3   4
ATOM      4  C   UNL     1      10.358 -27.722  11.978  1.00  0.00     0.041 C 
ATOM      5  O   UNL     1      10.741 -28.253  10.903  1.00  0.00    -0.550 OA
ATOM      6  O   UNL     1      10.272 -28.488  13.133  1.00  0.00    -0.550 OA
ENDBRANCH   3   4
ENDBRANCH   2   3
ENDBRANCH   1   2
BRANCH   1   7
ATOM      7  C   UNL     1      12.236 -25.223   9.248  1.00  0.00     0.000 C 
BRANCH   7   8
ATOM      8  C   UNL     1      11.873 -26.277   8.187  1.00  0.00    -0.000 C 
BRANCH   8   9
ATOM      9  C   UNL     1      10.877 -25.731   7.142  1.00  0.00    -0.000 C 
BRANCH   9  10
ATOM     10  C   UNL     1       9.673 -26.657   6.897  1.00  0.00    -0.003 C 
ATOM     11  C   UNL     1       8.686 -26.677   8.063  1.00  0.00     0.004 C 
ENDBRANCH   9  10
ENDBRANCH   8   9
ENDBRANCH   7   8
ENDBRANCH   1   7
TORSDOF 7
ENDMDL
MODEL 2
REMARK VINA RESULT:    -5.020      0.927      2.060
REMARK INTER + INTRA:          -7.672
REMARK INTER:                  -7.081
REMARK INTRA:                  -0.591
REMARK UNBOUND:                -0.598
REMARK SMILES CCCCCCCCC(=O)[O-]
REMARK SMILES IDX 6 1 7 2 8 3 9 4 10 5 11 6 5 7 4 8 3 9 2 10 1 11
REMARK H PARENT
REMARK Flexibility Score: inf
ROOT
ATOM      1  C   UNL     1      10.665 -25.098   9.708  1.00  0.00     0.000 C 
ENDROOT
BRANCH   1   2
ATOM      2  C   UNL     1      11.050 -25.370  11.177  1.00  0.00     0.006 C 
BRANCH   2   3
ATOM      3  C   UNL     1      10.030 -26.213  11.958  1.00  0.00     0.053 C 
BRANCH   3   4
ATOM      4  C   UNL     1      10.439 -27.652  12.044  1.00  0.00     0.041 C 
ATOM      5  O   UNL     1      10.437 -28.244  13.155  1.00  0.00    -0.550 OA
ATOM      6  O   UNL     1      10.855 -28.327  10.904  1.00  0.00    -0.550 OA
ENDBRANCH   3   4
ENDBRANCH   2   3
ENDBRANCH   1   2
BRANCH   1   7
ATOM      7  C   UNL     1       9.219 -25.474   9.335  1.00  0.00     0.000 C 
BRANCH   7   8
ATOM      8  C   UNL     1       9.143 -26.447   8.145  1.00  0.00    -0.000 C 
BRANCH   8   9
ATOM      9  C   UNL     1      10.538 -26.784   7.579  1.00  0.00    -0.000 C 
BRANCH   9  10
ATOM     10  C   UNL     1      10.721 -26.374   6.109  1.00  0.00    -0.003 C 
ATOM     11  C   UNL     1      11.682 -25.200   5.930  1.00  0.00     0.004 C 
ENDBRANCH   9  10
ENDBRANCH   8   9
ENDBRANCH   7   8
ENDBRANCH   1   7
TORSDOF 7
ENDMDL
MODEL 3
REMARK VINA RESULT:    -4.936      2.851      4.809
REMARK INTER + INTRA:          -7.554
REMARK INTER:                  -7.078
REMARK INTRA:                  -0.476
REMARK UNBOUND:                -0.598
REMARK SMILES CCCCCCCCC(=O)[O-]
REMARK SMILES IDX 6 1 7 2 8 3 9 4 10 5 11 6 5 7 4 8 3 9 2 10 1 11
REMARK H PARENT
REMARK Flexibility Score: inf
ROOT
ATOM      1  C   UNL     1       9.892 -24.833   9.346  1.00  0.00     0.000 C 
ENDROOT
BRANCH   1   2
ATOM      2  C   UNL     1      11.380 -25.186   9.152  1.00  0.00     0.006 C 
BRANCH   2   3
ATOM      3  C   UNL     1      11.637 -26.378   8.216  1.00  0.00     0.053 C 
BRANCH   3   4
ATOM      4  C   UNL     1      11.240 -26.076   6.803  1.00  0.00     0.041 C 
ATOM      5  O   UNL     1      11.766 -25.110   6.191  1.00  0.00    -0.550 OA
ATOM      6  O   UNL     1      10.266 -26.841   6.175  1.00  0.00    -0.550 OA
ENDBRANCH   3   4
ENDBRANCH   2   3
ENDBRANCH   1   2
BRANCH   1   7
ATOM      7  C   UNL     1       9.271 -25.331  10.665  1.00  0.00     0.000 C 
BRANCH   7   8
ATOM      8  C   UNL     1      10.321 -25.589  11.760  1.00  0.00    -0.000 C 
BRANCH   8   9
ATOM      9  C   UNL     1       9.801 -26.550  12.850  1.00  0.00    -0.000 C 
BRANCH   9  10
ATOM     10  C   UNL     1      10.367 -27.975  12.733  1.00  0.00    -0.003 C 
ATOM     11  C   UNL     1      10.752 -28.352  11.303  1.00  0.00     0.004 C 
ENDBRANCH   9  10
ENDBRANCH   8   9
ENDBRANCH   7   8
ENDBRANCH   1   7
TORSDOF 7
ENDMDL
MODEL 4
REMARK VINA RESULT:    -4.917      2.929      4.786
REMARK INTER + INTRA:          -7.527
REMARK INTER:                  -6.885
REMARK INTRA:                  -0.642
REMARK UNBOUND:                -0.598
REMARK SMILES CCCCCCCCC(=O)[O-]
REMARK SMILES IDX 6 1 7 2 8 3 9 4 10 5 11 6 5 7 4 8 3 9 2 10 1 11
REMARK H PARENT
REMARK Flexibility Score: inf
ROOT
ATOM      1  C   UNL     1      11.148 -24.900   9.803  1.00  0.00     0.000 C 
ENDROOT
BRANCH   1   2
ATOM      2  C   UNL     1      11.751 -25.864   8.761  1.00  0.00     0.006 C 
BRANCH   2   3
ATOM      3  C   UNL     1      10.724 -26.758   8.049  1.00  0.00     0.053 C 
BRANCH   3   4
ATOM      4  C   UNL     1      10.652 -26.469   6.581  1.00  0.00     0.041 C 
ATOM      5  O   UNL     1       9.552 -26.548   5.974  1.00  0.00    -0.550 OA
ATOM      6  O   UNL     1      11.804 -26.148   5.876  1.00  0.00    -0.550 OA
ENDBRANCH   3   4
ENDBRANCH   2   3
ENDBRANCH   1   2
BRANCH   1   7
ATOM      7  C   UNL     1       9.661 -25.139  10.126  1.00  0.00     0.000 C 
BRANCH   7   8
ATOM      8  C   UNL     1       9.382 -25.219  11.637  1.00  0.00    -0.000 C 
BRANCH   8   9
ATOM      9  C   UNL     1      10.523 -25.923  12.402  1.00  0.00    -0.000 C 
BRANCH   9  10
ATOM     10  C   UNL     1      10.249 -27.410  12.685  1.00  0.00    -0.003 C 
ATOM     11  C   UNL     1      10.568 -28.314  11.496  1.00  0.00     0.004 C 
ENDBRANCH   9  10
ENDBRANCH   8   9
ENDBRANCH   7   8
ENDBRANCH   1   7
TORSDOF 7
ENDMDL
MODEL 5
REMARK VINA RESULT:    -4.790      1.303      2.494
REMARK INTER + INTRA:          -7.348
REMARK INTER:                  -6.717
REMARK INTRA:                  -0.631
REMARK UNBOUND:                -0.598
REMARK SMILES CCCCCCCCC(=O)[O-]
REMARK SMILES IDX 6 1 7 2 8 3 9 4 10 5 11 6 5 7 4 8 3 9 2 10 1 11
REMARK H PARENT
REMARK Flexibility Score: inf
ROOT
ATOM      1  C   UNL     1       8.928 -25.228  10.335  1.00  0.00     0.000 C 
ENDROOT
BRANCH   1   2
ATOM      2  C   UNL     1       9.399 -25.169  11.802  1.00  0.00     0.006 C 
BRANCH   2   3
ATOM      3  C   UNL     1      10.732 -25.885  12.074  1.00  0.00     0.053 C 
BRANCH   3   4
ATOM      4  C   UNL     1      10.607 -26.909  13.160  1.00  0.00     0.041 C 
ATOM      5  O   UNL     1      11.154 -26.716  14.277  1.00  0.00    -0.550 OA
ATOM      6  O   UNL     1       9.915 -28.091  12.928  1.00  0.00    -0.550 OA
ENDBRANCH   3   4
ENDBRANCH   2   3
ENDBRANCH   1   2
BRANCH   1   7
ATOM      7  C   UNL     1       9.164 -26.577   9.629  1.00  0.00     0.000 C 
BRANCH   7   8
ATOM      8  C   UNL     1       9.320 -26.435   8.105  1.00  0.00    -0.000 C 
BRANCH   8   9
ATOM      9  C   UNL     1      10.412 -25.413   7.725  1.00  0.00    -0.000 C 
BRANCH   9  10
ATOM     10  C   UNL     1      11.838 -25.884   8.056  1.00  0.00    -0.003 C 
ATOM     11  C   UNL     1      12.499 -25.061   9.160  1.00  0.00     0.004 C 
ENDBRANCH   9  10
ENDBRANCH   8   9
ENDBRANCH   7   8
ENDBRANCH   1   7
TORSDOF 7
ENDMDL
MODEL 6
REMARK VINA RESULT:    -4.637      1.649      2.165
REMARK INTER + INTRA:          -7.133
REMARK INTER:                  -6.753
REMARK INTRA:                  -0.380
REMARK UNBOUND:                -0.598
REMARK SMILES CCCCCCCCC(=O)[O-]
REMARK SMILES IDX 6 1 7 2 8 3 9 4 10 5 11 6 5 7 4 8 3 9 2 10 1 11
REMARK H PARENT
REMARK Flexibility Score: inf
ROOT
ATOM      1  C   UNL     1       9.585 -26.204  10.279  1.00  0.00     0.000 C 
ENDROOT
BRANCH   1   2
ATOM      2  C   UNL     1      10.504 -27.403  10.585  1.00  0.00     0.006 C 
BRANCH   2   3
ATOM      3  C   UNL     1      10.437 -27.905  12.036  1.00  0.00     0.053 C 
BRANCH   3   4
ATOM      4  C   UNL     1      10.324 -26.776  13.015  1.00  0.00     0.041 C 
ATOM      5  O   UNL     1       9.309 -26.679  13.754  1.00  0.00    -0.550 OA
ATOM      6  O   UNL     1      11.322 -25.813  13.087  1.00  0.00    -0.550 OA
ENDBRANCH   3   4
ENDBRANCH   2   3
ENDBRANCH   1   2
BRANCH   1   7
ATOM      7  C   UNL     1      10.274 -25.018   9.578  1.00  0.00     0.000 C 
BRANCH   7   8
ATOM      8  C   UNL     1      11.735 -25.315   9.197  1.00  0.00    -0.000 C 
BRANCH   8   9
ATOM      9  C   UNL     1      11.846 -26.052   7.845  1.00  0.00    -0.000 C 
BRANCH   9  10
ATOM     10  C   UNL     1      10.913 -25.489   6.760  1.00  0.00    -0.003 C 
ATOM     11  C   UNL     1      10.055 -26.562   6.092  1.00  0.00     0.004 C 
ENDBRANCH   9  10
ENDBRANCH   8   9
ENDBRANCH   7   8
ENDBRANCH   1   7
TORSDOF 7
ENDMDL
MODEL 7
REMARK VINA RESULT:    -4.606     12.824     15.430
REMARK INTER + INTRA:          -7.089
REMARK INTER:                  -6.808
REMARK INTRA:                  -0.281
REMARK UNBOUND:                -0.598
REMARK SMILES CCCCCCCCC(=O)[O-]
REMARK SMILES IDX 6 1 7 2 8 3 9 4 10 5 11 6 5 7 4 8 3 9 2 10 1 11
REMARK H PARENT
REMARK Flexibility Score: inf
ROOT
ATOM      1  C   UNL     1       5.521 -30.122  23.877  1.00  0.00     0.000 C 
ENDROOT
BRANCH   1   2
ATOM      2  C   UNL     1       6.916 -30.768  23.757  1.00  0.00     0.006 C 
BRANCH   2   3
ATOM      3  C   UNL     1       7.265 -31.276  22.349  1.00  0.00     0.053 C 
BRANCH   3   4
ATOM      4  C   UNL     1       8.247 -30.381  21.658  1.00  0.00     0.041 C 
ATOM      5  O   UNL     1       9.025 -30.850  20.786  1.00  0.00    -0.550 OA
ATOM      6  O   UNL     1       8.328 -29.038  22.001  1.00  0.00    -0.550 OA
ENDBRANCH   3   4
ENDBRANCH   2   3
ENDBRANCH   1   2
BRANCH   1   7
ATOM      7  C   UNL     1       5.207 -29.502  25.252  1.00  0.00     0.000 C 
BRANCH   7   8
ATOM      8  C   UNL     1       3.755 -29.007  25.367  1.00  0.00    -0.000 C 
BRANCH   8   9
ATOM      9  C   UNL     1       2.939 -29.296  24.089  1.00  0.00    -0.000 C 
BRANCH   9  10
ATOM     10  C   UNL     1       1.496 -29.749  24.370  1.00  0.00    -0.003 C 
ATOM     11  C   UNL     1       0.878 -30.530  23.213  1.00  0.00     0.004 C 
ENDBRANCH   9  10
ENDBRANCH   8   9
ENDBRANCH   7   8
ENDBRANCH   1   7
TORSDOF 7
ENDMDL
MODEL 8
REMARK VINA RESULT:    -4.398     12.866     15.354
REMARK INTER + INTRA:          -6.795
REMARK INTER:                  -6.456
REMARK INTRA:                  -0.339
REMARK UNBOUND:                -0.598
REMARK SMILES CCCCCCCCC(=O)[O-]
REMARK SMILES IDX 6 1 7 2 8 3 9 4 10 5 11 6 5 7 4 8 3 9 2 10 1 11
REMARK H PARENT
REMARK Flexibility Score: inf
ROOT
ATOM      1  C   UNL     1       6.850 -29.700  24.826  1.00  0.00     0.000 C 
ENDROOT
BRANCH   1   2
ATOM      2  C   UNL     1       7.692 -30.778  24.114  1.00  0.00     0.006 C 
BRANCH   2   3
ATOM      3  C   UNL     1       7.117 -31.253  22.770  1.00  0.00     0.053 C 
BRANCH   3   4
ATOM      4  C   UNL     1       7.880 -30.698  21.606  1.00  0.00     0.041 C 
ATOM      5  O   UNL     1       7.739 -29.492  21.275  1.00  0.00    -0.550 OA
ATOM      6  O   UNL     1       8.719 -31.522  20.868  1.00  0.00    -0.550 OA
ENDBRANCH   3   4
ENDBRANCH   2   3
ENDBRANCH   1   2
BRANCH   1   7
ATOM      7  C   UNL     1       5.337 -29.768  24.548  1.00  0.00     0.000 C 
BRANCH   7   8
ATOM      8  C   UNL     1       4.494 -29.157  25.681  1.00  0.00    -0.000 C 
BRANCH   8   9
ATOM      9  C   UNL     1       3.035 -28.899  25.246  1.00  0.00    -0.000 C 
BRANCH   9  10
ATOM     10  C   UNL     1       2.699 -29.465  23.856  1.00  0.00    -0.003 C 
ATOM     11  C   UNL     1       1.709 -28.599  23.080  1.00  0.00     0.004 C 
ENDBRANCH   9  10
ENDBRANCH   8   9
ENDBRANCH   7   8
ENDBRANCH   1   7
TORSDOF 7
ENDMDL
MODEL 9
REMARK VINA RESULT:    -4.385     14.824     16.470
REMARK INTER + INTRA:          -6.777
REMARK INTER:                  -6.428
REMARK INTRA:                  -0.350
REMARK UNBOUND:                -0.598
REMARK SMILES CCCCCCCCC(=O)[O-]
REMARK SMILES IDX 6 1 7 2 8 3 9 4 10 5 11 6 5 7 4 8 3 9 2 10 1 11
REMARK H PARENT
REMARK Flexibility Score: inf
ROOT
ATOM      1  C   UNL     1       4.771 -29.419  24.934  1.00  0.00     0.000 C 
ENDROOT
BRANCH   1   2
ATOM      2  C   UNL     1       5.951 -29.749  25.870  1.00  0.00     0.006 C 
BRANCH   2   3
ATOM      3  C   UNL     1       7.322 -29.277  25.359  1.00  0.00     0.053 C 
BRANCH   3   4
ATOM      4  C   UNL     1       7.647 -29.853  24.015  1.00  0.00     0.041 C 
ATOM      5  O   UNL     1       7.767 -31.098  23.872  1.00  0.00    -0.550 OA
ATOM      6  O   UNL     1       7.851 -29.013  22.928  1.00  0.00    -0.550 OA
ENDBRANCH   3   4
ENDBRANCH   2   3
ENDBRANCH   1   2
BRANCH   1   7
ATOM      7  C   UNL     1       3.553 -28.775  25.623  1.00  0.00     0.000 C 
BRANCH   7   8
ATOM      8  C   UNL     1       2.346 -28.621  24.682  1.00  0.00    -0.000 C 
BRANCH   8   9
ATOM      9  C   UNL     1       2.283 -29.746  23.627  1.00  0.00    -0.000 C 
BRANCH   9  10
ATOM     10  C   UNL     1       0.889 -30.379  23.486  1.00  0.00    -0.003 C 
ATOM     11  C   UNL     1      -0.012 -30.120  24.693  1.00  0.00     0.004 C 
ENDBRANCH   9  10
ENDBRANCH   8   9
ENDBRANCH   7   8
ENDBRANCH   1   7
TORSDOF 7
ENDMDL
