MODEL 1
REMARK VINA RESULT:    -5.445      0.000      0.000
REMARK INTER + INTRA:          -6.070
REMARK INTER:                  -5.923
REMARK INTRA:                  -0.147
REMARK UNBOUND:                -0.147
REMARK SMILES CC(=O)[C@H]1CC[C@@H]2[C@@H]3CC=C4C[C@H](O)CC[C@@]4(C)[C@@H]3CC[C@@]12C
REMARK SMILES IDX 4 1 5 2 6 3 7 4 22 5 21 6 20 7 19 8 8 9 9 10 10 11 11 12
REMARK SMILES IDX 17 13 16 14 15 15 13 16 12 17 18 18 23 19 2 20 1 21 3 22
REMARK SMILES IDX 14 23
REMARK H PARENT 14 24
REMARK Flexibility Score: inf
ROOT
ATOM      1  C   UNL     1     141.615 149.962 136.361  1.00  0.00     0.062 C 
ATOM      2  C   UNL     1     141.480 150.638 137.755  1.00  0.00     0.012 C 
ATOM      3  C   UNL     1     142.904 150.888 138.288  1.00  0.00     0.005 C 
ATOM      4  C   UNL     1     143.793 150.132 137.316  1.00  0.00    -0.001 C 
ATOM      5  C   UNL     1     143.097 150.227 135.946  1.00  0.00    -0.020 C 
ATOM      6  C   UNL     1     143.768 149.196 135.000  1.00  0.00     0.008 C 
ATOM      7  C   UNL     1     145.312 149.377 134.948  1.00  0.00     0.005 C 
ATOM      8  C   UNL     1     145.986 149.320 136.360  1.00  0.00     0.003 C 
ATOM      9  C   UNL     1     145.326 150.331 137.341  1.00  0.00     0.000 C 
ATOM     10  C   UNL     1     145.821 151.756 137.071  1.00  0.00     0.031 C 
ATOM     11  C   UNL     1     147.307 151.816 137.191  1.00  0.00    -0.027 C 
ATOM     12  C   UNL     1     148.113 150.799 136.824  1.00  0.00    -0.065 C 
ATOM     13  C   UNL     1     147.580 149.415 136.395  1.00  0.00    -0.008 C 
ATOM     14  C   UNL     1     148.097 148.392 137.460  1.00  0.00     0.014 C 
ATOM     15  C   UNL     1     149.606 148.491 137.761  1.00  0.00     0.033 C 
ATOM     16  C   UNL     1     150.016 149.915 138.165  1.00  0.00     0.118 C 
ATOM     17  C   UNL     1     149.600 150.929 137.091  1.00  0.00     0.063 C 
ATOM     18  C   UNL     1     148.192 149.044 135.016  1.00  0.00     0.016 C 
ATOM     19  C   UNL     1     143.132 151.640 135.278  1.00  0.00     0.012 C 
ENDROOT
BRANCH   1  20
ATOM     20  C   UNL     1     141.226 148.490 136.406  1.00  0.00     0.133 C 
ATOM     21  C   UNL     1     140.413 147.873 135.306  1.00  0.00     0.088 C 
ATOM     22  O   UNL     1     141.573 147.785 137.344  1.00  0.00    -0.300 OA
ENDBRANCH   1  20
BRANCH  16  23
ATOM     23  O   UNL     1     151.407 149.956 138.349  1.00  0.00    -0.393 OA
ATOM     24  H   UNL     1     151.669 149.087 138.752  1.00  0.00     0.210 HD
ENDBRANCH  16  23
TORSDOF 2
ENDMDL
MODEL 2
REMARK VINA RESULT:    -5.438      4.591      7.015
REMARK INTER + INTRA:          -6.062
REMARK INTER:                  -5.915
REMARK INTRA:                  -0.147
REMARK UNBOUND:                -0.147
REMARK SMILES CC(=O)[C@H]1CC[C@@H]2[C@@H]3CC=C4C[C@H](O)CC[C@@]4(C)[C@@H]3CC[C@@]12C
REMARK SMILES IDX 4 1 5 2 6 3 7 4 22 5 21 6 20 7 19 8 8 9 9 10 10 11 11 12
REMARK SMILES IDX 17 13 16 14 15 15 13 16 12 17 18 18 23 19 2 20 1 21 3 22
REMARK SMILES IDX 14 23
REMARK H PARENT 14 24
REMARK Flexibility Score: inf
ROOT
ATOM      1  C   UNL     1     142.584 141.620 136.344  1.00  0.00     0.062 C 
ATOM      2  C   UNL     1     141.875 141.486 137.722  1.00  0.00     0.012 C 
ATOM      3  C   UNL     1     141.634 142.910 138.258  1.00  0.00     0.005 C 
ATOM      4  C   UNL     1     142.423 143.794 137.309  1.00  0.00    -0.001 C 
ATOM      5  C   UNL     1     142.350 143.108 135.933  1.00  0.00    -0.020 C 
ATOM      6  C   UNL     1     143.410 143.771 135.014  1.00  0.00     0.008 C 
ATOM      7  C   UNL     1     143.252 145.317 134.968  1.00  0.00     0.005 C 
ATOM      8  C   UNL     1     143.287 145.982 136.385  1.00  0.00     0.003 C 
ATOM      9  C   UNL     1     142.245 145.330 137.339  1.00  0.00     0.000 C 
ATOM     10  C   UNL     1     140.834 145.846 137.040  1.00  0.00     0.031 C 
ATOM     11  C   UNL     1     140.792 147.333 137.168  1.00  0.00    -0.027 C 
ATOM     12  C   UNL     1     141.828 148.126 136.829  1.00  0.00    -0.065 C 
ATOM     13  C   UNL     1     143.213 147.577 136.428  1.00  0.00    -0.008 C 
ATOM     14  C   UNL     1     144.219 148.072 137.519  1.00  0.00     0.014 C 
ATOM     15  C   UNL     1     144.135 149.581 137.828  1.00  0.00     0.033 C 
ATOM     16  C   UNL     1     142.708 150.009 138.202  1.00  0.00     0.118 C 
ATOM     17  C   UNL     1     141.713 149.613 137.103  1.00  0.00     0.063 C 
ATOM     18  C   UNL     1     143.624 148.191 135.062  1.00  0.00     0.016 C 
ATOM     19  C   UNL     1     140.953 143.167 135.233  1.00  0.00     0.012 C 
ENDROOT
BRANCH   1  20
ATOM     20  C   UNL     1     144.050 141.210 136.420  1.00  0.00     0.133 C 
ATOM     21  C   UNL     1     144.680 140.396 135.328  1.00  0.00     0.088 C 
ATOM     22  O   UNL     1     144.738 141.541 137.375  1.00  0.00    -0.300 OA
ENDBRANCH   1  20
BRANCH  16  23
ATOM     23  O   UNL     1     142.682 151.399 138.394  1.00  0.00    -0.393 OA
ATOM     24  H   UNL     1     143.608 151.674 138.625  1.00  0.00     0.210 HD
ENDBRANCH  16  23
TORSDOF 2
ENDMDL
MODEL 3
REMARK VINA RESULT:    -5.434      4.571      7.033
REMARK INTER + INTRA:          -6.058
REMARK INTER:                  -5.908
REMARK INTRA:                  -0.150
REMARK UNBOUND:                -0.147
REMARK SMILES CC(=O)[C@H]1CC[C@@H]2[C@@H]3CC=C4C[C@H](O)CC[C@@]4(C)[C@@H]3CC[C@@]12C
REMARK SMILES IDX 4 1 5 2 6 3 7 4 22 5 21 6 20 7 19 8 8 9 9 10 10 11 11 12
REMARK SMILES IDX 17 13 16 14 15 15 13 16 12 17 18 18 23 19 2 20 1 21 3 22
REMARK SMILES IDX 14 23
REMARK H PARENT 14 24
REMARK Flexibility Score: inf
ROOT
ATOM      1  C   UNL     1     149.942 150.946 136.355  1.00  0.00     0.062 C 
ATOM      2  C   UNL     1     150.633 151.081 137.742  1.00  0.00     0.012 C 
ATOM      3  C   UNL     1     150.886 149.657 138.272  1.00  0.00     0.005 C 
ATOM      4  C   UNL     1     150.119 148.769 137.308  1.00  0.00    -0.001 C 
ATOM      5  C   UNL     1     150.200 149.464 135.938  1.00  0.00    -0.020 C 
ATOM      6  C   UNL     1     149.159 148.794 135.002  1.00  0.00     0.008 C 
ATOM      7  C   UNL     1     149.336 147.250 134.949  1.00  0.00     0.005 C 
ATOM      8  C   UNL     1     149.293 146.576 136.361  1.00  0.00     0.003 C 
ATOM      9  C   UNL     1     150.315 147.236 137.331  1.00  0.00     0.000 C 
ATOM     10  C   UNL     1     151.737 146.738 137.046  1.00  0.00     0.031 C 
ATOM     11  C   UNL     1     151.796 145.251 137.166  1.00  0.00    -0.027 C 
ATOM     12  C   UNL     1     150.773 144.448 136.810  1.00  0.00    -0.065 C 
ATOM     13  C   UNL     1     149.386 144.982 136.396  1.00  0.00    -0.008 C 
ATOM     14  C   UNL     1     148.374 144.468 137.471  1.00  0.00     0.014 C 
ATOM     15  C   UNL     1     148.473 142.958 137.772  1.00  0.00     0.033 C 
ATOM     16  C   UNL     1     149.900 142.546 138.161  1.00  0.00     0.118 C 
ATOM     17  C   UNL     1     150.904 142.960 137.076  1.00  0.00     0.063 C 
ATOM     18  C   UNL     1     149.000 144.371 135.021  1.00  0.00     0.016 C 
ATOM     19  C   UNL     1     151.606 149.427 135.254  1.00  0.00     0.012 C 
ENDROOT
BRANCH   1  20
ATOM     20  C   UNL     1     148.471 151.338 136.416  1.00  0.00     0.133 C 
ATOM     21  C   UNL     1     147.843 152.149 135.320  1.00  0.00     0.088 C 
ATOM     22  O   UNL     1     147.776 150.995 137.362  1.00  0.00    -0.300 OA
ENDBRANCH   1  20
BRANCH  16  23
ATOM     23  O   UNL     1     149.942 141.155 138.344  1.00  0.00    -0.393 OA
ATOM     24  H   UNL     1     149.752 140.987 139.305  1.00  0.00     0.210 HD
ENDBRANCH  16  23
TORSDOF 2
ENDMDL
MODEL 4
REMARK VINA RESULT:    -5.417      6.296      9.975
REMARK INTER + INTRA:          -6.039
REMARK INTER:                  -5.889
REMARK INTRA:                  -0.150
REMARK UNBOUND:                -0.147
REMARK SMILES CC(=O)[C@H]1CC[C@@H]2[C@@H]3CC=C4C[C@H](O)CC[C@@]4(C)[C@@H]3CC[C@@]12C
REMARK SMILES IDX 4 1 5 2 6 3 7 4 22 5 21 6 20 7 19 8 8 9 9 10 10 11 11 12
REMARK SMILES IDX 17 13 16 14 15 15 13 16 12 17 18 18 23 19 2 20 1 21 3 22
REMARK SMILES IDX 14 23
REMARK H PARENT 14 24
REMARK Flexibility Score: inf
ROOT
ATOM      1  C   UNL     1     150.971 142.532 136.266  1.00  0.00     0.062 C 
ATOM      2  C   UNL     1     151.103 141.782 137.622  1.00  0.00     0.012 C 
ATOM      3  C   UNL     1     149.678 141.535 138.154  1.00  0.00     0.005 C 
ATOM      4  C   UNL     1     148.798 142.358 137.230  1.00  0.00    -0.001 C 
ATOM      5  C   UNL     1     149.481 142.320 135.851  1.00  0.00    -0.020 C 
ATOM      6  C   UNL     1     148.824 143.411 134.965  1.00  0.00     0.008 C 
ATOM      7  C   UNL     1     147.276 143.265 134.917  1.00  0.00     0.005 C 
ATOM      8  C   UNL     1     146.614 143.263 136.336  1.00  0.00     0.003 C 
ATOM      9  C   UNL     1     147.261 142.190 137.258  1.00  0.00     0.000 C 
ATOM     10  C   UNL     1     146.734 140.791 136.919  1.00  0.00     0.031 C 
ATOM     11  C   UNL     1     145.247 140.755 137.048  1.00  0.00    -0.027 C 
ATOM     12  C   UNL     1     144.461 141.807 136.741  1.00  0.00    -0.065 C 
ATOM     13  C   UNL     1     145.019 143.200 136.380  1.00  0.00    -0.008 C 
ATOM     14  C   UNL     1     144.533 144.177 137.501  1.00  0.00     0.014 C 
ATOM     15  C   UNL     1     143.024 144.093 137.810  1.00  0.00     0.033 C 
ATOM     16  C   UNL     1     142.587 142.660 138.144  1.00  0.00     0.118 C 
ATOM     17  C   UNL     1     142.973 141.694 137.015  1.00  0.00     0.063 C 
ATOM     18  C   UNL     1     144.405 143.654 135.027  1.00  0.00     0.016 C 
ATOM     19  C   UNL     1     149.411 140.944 135.111  1.00  0.00     0.012 C 
ENDROOT
BRANCH   1  20
ATOM     20  C   UNL     1     151.391 143.991 136.383  1.00  0.00     0.133 C 
ATOM     21  C   UNL     1     152.207 144.648 135.308  1.00  0.00     0.088 C 
ATOM     22  O   UNL     1     151.068 144.653 137.359  1.00  0.00    -0.300 OA
ENDBRANCH   1  20
BRANCH  16  23
ATOM     23  O   UNL     1     141.197 142.637 138.337  1.00  0.00    -0.393 OA
ATOM     24  H   UNL     1     140.945 143.524 138.707  1.00  0.00     0.210 HD
ENDBRANCH  16  23
TORSDOF 2
ENDMDL
MODEL 5
REMARK VINA RESULT:    -5.244      4.678      8.096
REMARK INTER + INTRA:          -5.851
REMARK INTER:                  -5.696
REMARK INTRA:                  -0.155
REMARK UNBOUND:                -0.147
REMARK SMILES CC(=O)[C@H]1CC[C@@H]2[C@@H]3CC=C4C[C@H](O)CC[C@@]4(C)[C@@H]3CC[C@@]12C
REMARK SMILES IDX 4 1 5 2 6 3 7 4 22 5 21 6 20 7 19 8 8 9 9 10 10 11 11 12
REMARK SMILES IDX 17 13 16 14 15 15 13 16 12 17 18 18 23 19 2 20 1 21 3 22
REMARK SMILES IDX 14 23
REMARK H PARENT 14 24
REMARK Flexibility Score: inf
ROOT
ATOM      1  C   UNL     1     152.034 143.737 135.313  1.00  0.00     0.062 C 
ATOM      2  C   UNL     1     151.890 143.984 133.784  1.00  0.00     0.012 C 
ATOM      3  C   UNL     1     151.481 145.457 133.591  1.00  0.00     0.005 C 
ATOM      4  C   UNL     1     151.162 145.933 134.998  1.00  0.00    -0.001 C 
ATOM      5  C   UNL     1     152.120 145.168 135.929  1.00  0.00    -0.020 C 
ATOM      6  C   UNL     1     151.613 145.351 137.385  1.00  0.00     0.008 C 
ATOM      7  C   UNL     1     151.426 146.851 137.750  1.00  0.00     0.005 C 
ATOM      8  C   UNL     1     150.482 147.612 136.759  1.00  0.00     0.003 C 
ATOM      9  C   UNL     1     150.952 147.437 135.286  1.00  0.00     0.000 C 
ATOM     10  C   UNL     1     152.144 148.350 134.982  1.00  0.00     0.031 C 
ATOM     11  C   UNL     1     151.781 149.775 135.242  1.00  0.00    -0.027 C 
ATOM     12  C   UNL     1     150.951 150.148 136.237  1.00  0.00    -0.065 C 
ATOM     13  C   UNL     1     150.167 149.140 137.103  1.00  0.00    -0.008 C 
ATOM     14  C   UNL     1     148.651 149.392 136.814  1.00  0.00     0.014 C 
ATOM     15  C   UNL     1     148.219 150.870 136.909  1.00  0.00     0.033 C 
ATOM     16  C   UNL     1     149.078 151.774 136.013  1.00  0.00     0.118 C 
ATOM     17  C   UNL     1     150.568 151.612 136.340  1.00  0.00     0.063 C 
ATOM     18  C   UNL     1     150.442 149.442 138.602  1.00  0.00     0.016 C 
ATOM     19  C   UNL     1     153.619 145.605 135.846  1.00  0.00     0.012 C 
ENDROOT
BRANCH   1  20
ATOM     20  C   UNL     1     150.895 142.883 135.858  1.00  0.00     0.133 C 
ATOM     21  C   UNL     1     151.138 141.875 136.943  1.00  0.00     0.088 C 
ATOM     22  O   UNL     1     149.762 143.007 135.417  1.00  0.00    -0.300 OA
ENDBRANCH   1  20
BRANCH  16  23
ATOM     23  O   UNL     1     148.689 153.109 136.203  1.00  0.00    -0.393 OA
ATOM     24  H   UNL     1     149.412 153.546 136.726  1.00  0.00     0.210 HD
ENDBRANCH  16  23
TORSDOF 2
ENDMDL
MODEL 6
REMARK VINA RESULT:    -5.215      7.313      8.835
REMARK INTER + INTRA:          -5.819
REMARK INTER:                  -5.698
REMARK INTRA:                  -0.121
REMARK UNBOUND:                -0.147
REMARK SMILES CC(=O)[C@H]1CC[C@@H]2[C@@H]3CC=C4C[C@H](O)CC[C@@]4(C)[C@@H]3CC[C@@]12C
REMARK SMILES IDX 4 1 5 2 6 3 7 4 22 5 21 6 20 7 19 8 8 9 9 10 10 11 11 12
REMARK SMILES IDX 17 13 16 14 15 15 13 16 12 17 18 18 23 19 2 20 1 21 3 22
REMARK SMILES IDX 14 23
REMARK H PARENT 14 24
REMARK Flexibility Score: inf
ROOT
ATOM      1  C   UNL     1     143.750 140.563 135.282  1.00  0.00     0.062 C 
ATOM      2  C   UNL     1     144.002 140.709 133.754  1.00  0.00     0.012 C 
ATOM      3  C   UNL     1     145.474 141.123 133.566  1.00  0.00     0.005 C 
ATOM      4  C   UNL     1     145.945 141.442 134.974  1.00  0.00    -0.001 C 
ATOM      5  C   UNL     1     145.180 140.481 135.903  1.00  0.00    -0.020 C 
ATOM      6  C   UNL     1     145.357 140.986 137.359  1.00  0.00     0.008 C 
ATOM      7  C   UNL     1     146.856 141.177 137.729  1.00  0.00     0.005 C 
ATOM      8  C   UNL     1     147.617 142.124 136.741  1.00  0.00     0.003 C 
ATOM      9  C   UNL     1     147.447 141.656 135.267  1.00  0.00     0.000 C 
ATOM     10  C   UNL     1     148.365 140.466 134.964  1.00  0.00     0.031 C 
ATOM     11  C   UNL     1     149.788 140.832 135.230  1.00  0.00    -0.027 C 
ATOM     12  C   UNL     1     150.155 141.663 136.226  1.00  0.00    -0.065 C 
ATOM     13  C   UNL     1     149.143 142.443 137.090  1.00  0.00    -0.008 C 
ATOM     14  C   UNL     1     149.391 143.960 136.803  1.00  0.00     0.014 C 
ATOM     15  C   UNL     1     150.868 144.396 136.903  1.00  0.00     0.033 C 
ATOM     16  C   UNL     1     151.777 143.541 136.009  1.00  0.00     0.118 C 
ATOM     17  C   UNL     1     151.618 142.049 136.334  1.00  0.00     0.063 C 
ATOM     18  C   UNL     1     149.441 142.168 138.589  1.00  0.00     0.016 C 
ATOM     19  C   UNL     1     145.621 138.983 135.819  1.00  0.00     0.012 C 
ENDROOT
BRANCH   1  20
ATOM     20  C   UNL     1     142.891 141.699 135.825  1.00  0.00     0.133 C 
ATOM     21  C   UNL     1     142.026 141.500 137.034  1.00  0.00     0.088 C 
ATOM     22  O   UNL     1     142.896 142.794 135.281  1.00  0.00    -0.300 OA
ENDBRANCH   1  20
BRANCH  16  23
ATOM     23  O   UNL     1     153.111 143.933 136.204  1.00  0.00    -0.393 OA
ATOM     24  H   UNL     1     153.342 143.707 137.143  1.00  0.00     0.210 HD
ENDBRANCH  16  23
TORSDOF 2
ENDMDL
MODEL 7
REMARK VINA RESULT:    -5.210      5.013      7.614
REMARK INTER + INTRA:          -5.814
REMARK INTER:                  -5.659
REMARK INTRA:                  -0.154
REMARK UNBOUND:                -0.147
REMARK SMILES CC(=O)[C@H]1CC[C@@H]2[C@@H]3CC=C4C[C@H](O)CC[C@@]4(C)[C@@H]3CC[C@@]12C
REMARK SMILES IDX 4 1 5 2 6 3 7 4 22 5 21 6 20 7 19 8 8 9 9 10 10 11 11 12
REMARK SMILES IDX 17 13 16 14 15 15 13 16 12 17 18 18 23 19 2 20 1 21 3 22
REMARK SMILES IDX 14 23
REMARK H PARENT 14 24
REMARK Flexibility Score: inf
ROOT
ATOM      1  C   UNL     1     140.597 148.958 135.271  1.00  0.00     0.062 C 
ATOM      2  C   UNL     1     140.690 148.684 133.742  1.00  0.00     0.012 C 
ATOM      3  C   UNL     1     141.069 147.202 133.561  1.00  0.00     0.005 C 
ATOM      4  C   UNL     1     141.424 146.743 134.965  1.00  0.00    -0.001 C 
ATOM      5  C   UNL     1     140.508 147.539 135.913  1.00  0.00    -0.020 C 
ATOM      6  C   UNL     1     141.056 147.371 137.355  1.00  0.00     0.008 C 
ATOM      7  C   UNL     1     141.231 145.874 137.739  1.00  0.00     0.005 C 
ATOM      8  C   UNL     1     142.131 145.081 136.732  1.00  0.00     0.003 C 
ATOM      9  C   UNL     1     141.619 145.241 135.272  1.00  0.00     0.000 C 
ATOM     10  C   UNL     1     140.402 144.342 135.019  1.00  0.00     0.031 C 
ATOM     11  C   UNL     1     140.750 142.917 135.292  1.00  0.00    -0.027 C 
ATOM     12  C   UNL     1     141.605 142.546 136.267  1.00  0.00    -0.065 C 
ATOM     13  C   UNL     1     142.432 143.554 137.092  1.00  0.00    -0.008 C 
ATOM     14  C   UNL     1     143.934 143.272 136.760  1.00  0.00     0.014 C 
ATOM     15  C   UNL     1     144.344 141.789 136.866  1.00  0.00     0.033 C 
ATOM     16  C   UNL     1     143.444 140.885 136.012  1.00  0.00     0.118 C 
ATOM     17  C   UNL     1     141.967 141.077 136.383  1.00  0.00     0.063 C 
ATOM     18  C   UNL     1     142.199 143.281 138.603  1.00  0.00     0.016 C 
ATOM     19  C   UNL     1     139.000 147.126 135.883  1.00  0.00     0.012 C 
ENDROOT
BRANCH   1  20
ATOM     20  C   UNL     1     141.766 149.802 135.766  1.00  0.00     0.133 C 
ATOM     21  C   UNL     1     141.576 150.822 136.849  1.00  0.00     0.088 C 
ATOM     22  O   UNL     1     142.882 149.658 135.286  1.00  0.00    -0.300 OA
ENDBRANCH   1  20
BRANCH  16  23
ATOM     23  O   UNL     1     143.816 139.547 136.213  1.00  0.00    -0.393 OA
ATOM     24  H   UNL     1     143.945 139.147 135.312  1.00  0.00     0.210 HD
ENDBRANCH  16  23
TORSDOF 2
ENDMDL
MODEL 8
REMARK VINA RESULT:    -5.196      1.466      7.060
REMARK INTER + INTRA:          -5.799
REMARK INTER:                  -5.752
REMARK INTRA:                  -0.047
REMARK UNBOUND:                -0.147
REMARK SMILES CC(=O)[C@H]1CC[C@@H]2[C@@H]3CC=C4C[C@H](O)CC[C@@]4(C)[C@@H]3CC[C@@]12C
REMARK SMILES IDX 4 1 5 2 6 3 7 4 22 5 21 6 20 7 19 8 8 9 9 10 10 11 11 12
REMARK SMILES IDX 17 13 16 14 15 15 13 16 12 17 18 18 23 19 2 20 1 21 3 22
REMARK SMILES IDX 14 23
REMARK H PARENT 14 24
REMARK Flexibility Score: inf
ROOT
ATOM      1  C   UNL     1     151.076 149.756 136.745  1.00  0.00     0.062 C 
ATOM      2  C   UNL     1     150.952 148.330 137.353  1.00  0.00     0.012 C 
ATOM      3  C   UNL     1     149.450 148.007 137.471  1.00  0.00     0.005 C 
ATOM      4  C   UNL     1     148.769 149.331 137.170  1.00  0.00    -0.001 C 
ATOM      5  C   UNL     1     149.666 150.042 136.140  1.00  0.00    -0.020 C 
ATOM      6  C   UNL     1     149.211 151.524 136.057  1.00  0.00     0.008 C 
ATOM      7  C   UNL     1     147.687 151.648 135.774  1.00  0.00     0.005 C 
ATOM      8  C   UNL     1     146.804 150.878 136.812  1.00  0.00     0.003 C 
ATOM      9  C   UNL     1     147.243 149.391 136.933  1.00  0.00     0.000 C 
ATOM     10  C   UNL     1     146.716 148.569 135.752  1.00  0.00     0.031 C 
ATOM     11  C   UNL     1     145.228 148.664 135.681  1.00  0.00    -0.027 C 
ATOM     12  C   UNL     1     144.550 149.782 136.012  1.00  0.00    -0.065 C 
ATOM     13  C   UNL     1     145.221 151.018 136.647  1.00  0.00    -0.008 C 
ATOM     14  C   UNL     1     144.603 151.173 138.075  1.00  0.00     0.014 C 
ATOM     15  C   UNL     1     143.062 151.126 138.113  1.00  0.00     0.033 C 
ATOM     16  C   UNL     1     142.513 149.858 137.443  1.00  0.00     0.118 C 
ATOM     17  C   UNL     1     143.034 149.729 136.005  1.00  0.00     0.063 C 
ATOM     18  C   UNL     1     144.857 152.275 135.811  1.00  0.00     0.016 C 
ATOM     19  C   UNL     1     149.656 149.419 134.706  1.00  0.00     0.012 C 
ENDROOT
BRANCH   1  20
ATOM     20  C   UNL     1     151.537 150.774 137.781  1.00  0.00     0.133 C 
ATOM     21  C   UNL     1     152.737 151.639 137.531  1.00  0.00     0.088 C 
ATOM     22  O   UNL     1     150.932 150.903 138.836  1.00  0.00    -0.300 OA
ENDBRANCH   1  20
BRANCH  16  23
ATOM     23  O   UNL     1     141.110 149.912 137.440  1.00  0.00    -0.393 OA
ATOM     24  H   UNL     1     140.860 150.873 137.452  1.00  0.00     0.210 HD
ENDBRANCH  16  23
TORSDOF 2
ENDMDL
MODEL 9
REMARK VINA RESULT:    -5.176      6.314      7.454
REMARK INTER + INTRA:          -5.777
REMARK INTER:                  -5.718
REMARK INTRA:                  -0.060
REMARK UNBOUND:                -0.147
REMARK SMILES CC(=O)[C@H]1CC[C@@H]2[C@@H]3CC=C4C[C@H](O)CC[C@@]4(C)[C@@H]3CC[C@@]12C
REMARK SMILES IDX 4 1 5 2 6 3 7 4 22 5 21 6 20 7 19 8 8 9 9 10 10 11 11 12
REMARK SMILES IDX 17 13 16 14 15 15 13 16 12 17 18 18 23 19 2 20 1 21 3 22
REMARK SMILES IDX 14 23
REMARK H PARENT 14 24
REMARK Flexibility Score: inf
ROOT
ATOM      1  C   UNL     1     141.649 142.961 136.750  1.00  0.00     0.062 C 
ATOM      2  C   UNL     1     141.795 144.389 137.348  1.00  0.00     0.012 C 
ATOM      3  C   UNL     1     143.302 144.687 137.470  1.00  0.00     0.005 C 
ATOM      4  C   UNL     1     143.961 143.350 137.181  1.00  0.00    -0.001 C 
ATOM      5  C   UNL     1     143.057 142.647 136.153  1.00  0.00    -0.020 C 
ATOM      6  C   UNL     1     143.486 141.157 136.082  1.00  0.00     0.008 C 
ATOM      7  C   UNL     1     145.009 141.005 135.805  1.00  0.00     0.005 C 
ATOM      8  C   UNL     1     145.902 141.767 136.842  1.00  0.00     0.003 C 
ATOM      9  C   UNL     1     145.487 143.263 136.951  1.00  0.00     0.000 C 
ATOM     10  C   UNL     1     146.033 144.067 135.765  1.00  0.00     0.031 C 
ATOM     11  C   UNL     1     147.519 143.946 135.701  1.00  0.00    -0.027 C 
ATOM     12  C   UNL     1     148.177 142.820 136.042  1.00  0.00    -0.065 C 
ATOM     13  C   UNL     1     147.482 141.600 136.684  1.00  0.00    -0.008 C 
ATOM     14  C   UNL     1     148.092 141.444 138.115  1.00  0.00     0.014 C 
ATOM     15  C   UNL     1     149.634 141.466 138.158  1.00  0.00     0.033 C 
ATOM     16  C   UNL     1     150.207 142.720 137.482  1.00  0.00     0.118 C 
ATOM     17  C   UNL     1     149.693 142.847 136.041  1.00  0.00     0.063 C 
ATOM     18  C   UNL     1     147.829 140.331 135.857  1.00  0.00     0.016 C 
ATOM     19  C   UNL     1     143.083 143.260 134.715  1.00  0.00     0.012 C 
ENDROOT
BRANCH   1  20
ATOM     20  C   UNL     1     141.168 141.958 137.792  1.00  0.00     0.133 C 
ATOM     21  C   UNL     1     139.971 141.091 137.532  1.00  0.00     0.088 C 
ATOM     22  O   UNL     1     141.753 141.844 138.859  1.00  0.00    -0.300 OA
ENDBRANCH   1  20
BRANCH  16  23
ATOM     23  O   UNL     1     151.609 142.642 137.485  1.00  0.00    -0.393 OA
ATOM     24  H   UNL     1     151.927 143.233 138.216  1.00  0.00     0.210 HD
ENDBRANCH  16  23
TORSDOF 2
ENDMDL
