MODEL 1
REMARK VINA RESULT:    -4.916      0.000      0.000
REMARK INTER + INTRA:          -8.911
REMARK INTER:                  -8.365
REMARK INTRA:                  -0.547
REMARK UNBOUND:                -0.547
REMARK SMILES CCCCCCCCCCCCCC(=O)[O-]
REMARK SMILES IDX 8 1 9 2 10 3 11 4 12 5 13 6 14 7 15 8 16 9 7 10 6 11 5 12
REMARK SMILES IDX 4 13 3 14 2 15 1 16
REMARK H PARENT
REMARK Flexibility Score: inf
ROOT
ATOM      1  C   UNL     1      -8.639  27.297 -25.967  1.00  0.00     0.000 C 
ENDROOT
BRANCH   1   2
ATOM      2  C   UNL     1      -7.347  27.880 -25.354  1.00  0.00     0.000 C 
BRANCH   2   3
ATOM      3  C   UNL     1      -7.498  28.303 -23.883  1.00  0.00     0.000 C 
BRANCH   3   4
ATOM      4  C   UNL     1      -6.201  28.882 -23.293  1.00  0.00     0.000 C 
BRANCH   4   5
ATOM      5  C   UNL     1      -6.287  29.087 -21.771  1.00  0.00     0.006 C 
BRANCH   5   6
ATOM      6  C   UNL     1      -5.877  27.838 -20.982  1.00  0.00     0.053 C 
BRANCH   6   7
ATOM      7  C   UNL     1      -4.743  28.153 -20.057  1.00  0.00     0.041 C 
ATOM      8  O   UNL     1      -4.579  29.327 -19.635  1.00  0.00    -0.550 OA
ATOM      9  O   UNL     1      -3.840  27.159 -19.702  1.00  0.00    -0.550 OA
ENDBRANCH   6   7
ENDBRANCH   5   6
ENDBRANCH   4   5
ENDBRANCH   3   4
ENDBRANCH   2   3
ENDBRANCH   1   2
BRANCH   1  10
ATOM     10  C   UNL     1      -8.374  26.561 -27.289  1.00  0.00     0.000 C 
BRANCH  10  11
ATOM     11  C   UNL     1      -9.238  25.300 -27.401  1.00  0.00    -0.000 C 
BRANCH  11  12
ATOM     12  C   UNL     1      -9.356  24.593 -26.041  1.00  0.00    -0.000 C 
BRANCH  12  13
ATOM     13  C   UNL     1     -10.089  23.245 -26.139  1.00  0.00    -0.000 C 
BRANCH  13  14
ATOM     14  C   UNL     1     -10.403  22.642 -24.759  1.00  0.00    -0.000 C 
BRANCH  14  15
ATOM     15  C   UNL     1      -9.275  22.877 -23.744  1.00  0.00    -0.003 C 
ATOM     16  C   UNL     1      -9.777  22.914 -22.300  1.00  0.00     0.004 C 
ENDBRANCH  14  15
ENDBRANCH  13  14
ENDBRANCH  12  13
ENDBRANCH  11  12
ENDBRANCH  10  11
ENDBRANCH   1  10
TORSDOF 12
ENDMDL
MODEL 2
REMARK VINA RESULT:    -4.890      5.294      7.410
REMARK INTER + INTRA:          -8.867
REMARK INTER:                  -7.608
REMARK INTRA:                  -1.259
REMARK UNBOUND:                -0.547
REMARK SMILES CCCCCCCCCCCCCC(=O)[O-]
REMARK SMILES IDX 8 1 9 2 10 3 11 4 12 5 13 6 14 7 15 8 16 9 7 10 6 11 5 12
REMARK SMILES IDX 4 13 3 14 2 15 1 16
REMARK H PARENT
REMARK Flexibility Score: inf
ROOT
ATOM      1  C   UNL     1      -2.298  31.459 -20.143  1.00  0.00     0.000 C 
ENDROOT
BRANCH   1   2
ATOM      2  C   UNL     1      -2.943  32.443 -21.143  1.00  0.00     0.000 C 
BRANCH   2   3
ATOM      3  C   UNL     1      -4.480  32.383 -21.163  1.00  0.00     0.000 C 
BRANCH   3   4
ATOM      4  C   UNL     1      -5.126  33.251 -20.071  1.00  0.00     0.000 C 
BRANCH   4   5
ATOM      5  C   UNL     1      -6.558  32.804 -19.734  1.00  0.00     0.006 C 
BRANCH   5   6
ATOM      6  C   UNL     1      -6.687  31.282 -19.600  1.00  0.00     0.053 C 
BRANCH   6   7
ATOM      7  C   UNL     1      -6.882  30.898 -18.167  1.00  0.00     0.041 C 
ATOM      8  O   UNL     1      -6.982  29.686 -17.843  1.00  0.00    -0.550 OA
ATOM      9  O   UNL     1      -7.003  31.884 -17.195  1.00  0.00    -0.550 OA
ENDBRANCH   6   7
ENDBRANCH   5   6
ENDBRANCH   4   5
ENDBRANCH   3   4
ENDBRANCH   2   3
ENDBRANCH   1   2
BRANCH   1  10
ATOM     10  C   UNL     1      -3.132  30.182 -19.964  1.00  0.00     0.000 C 
BRANCH  10  11
ATOM     11  C   UNL     1      -2.292  29.056 -19.352  1.00  0.00    -0.000 C 
BRANCH  11  12
ATOM     12  C   UNL     1      -3.179  27.872 -18.937  1.00  0.00    -0.000 C 
BRANCH  12  13
ATOM     13  C   UNL     1      -3.321  26.822 -20.051  1.00  0.00    -0.000 C 
BRANCH  13  14
ATOM     14  C   UNL     1      -4.714  26.170 -20.074  1.00  0.00    -0.000 C 
BRANCH  14  15
ATOM     15  C   UNL     1      -5.849  27.203 -20.018  1.00  0.00    -0.003 C 
ATOM     16  C   UNL     1      -5.944  28.046 -21.290  1.00  0.00     0.004 C 
ENDBRANCH  14  15
ENDBRANCH  13  14
ENDBRANCH  12  13
ENDBRANCH  11  12
ENDBRANCH  10  11
ENDBRANCH   1  10
TORSDOF 12
ENDMDL
MODEL 3
REMARK VINA RESULT:    -4.778      3.407      7.352
REMARK INTER + INTRA:          -8.677
REMARK INTER:                  -8.160
REMARK INTRA:                  -0.517
REMARK UNBOUND:                -0.547
REMARK SMILES CCCCCCCCCCCCCC(=O)[O-]
REMARK SMILES IDX 8 1 9 2 10 3 11 4 12 5 13 6 14 7 15 8 16 9 7 10 6 11 5 12
REMARK SMILES IDX 4 13 3 14 2 15 1 16
REMARK H PARENT
REMARK Flexibility Score: inf
ROOT
ATOM      1  C   UNL     1      -7.057  28.125 -25.009  1.00  0.00     0.000 C 
ENDROOT
BRANCH   1   2
ATOM      2  C   UNL     1      -8.346  27.648 -25.712  1.00  0.00     0.000 C 
BRANCH   2   3
ATOM      3  C   UNL     1      -8.094  26.979 -27.075  1.00  0.00     0.000 C 
BRANCH   3   4
ATOM      4  C   UNL     1      -9.263  26.088 -27.526  1.00  0.00     0.000 C 
BRANCH   4   5
ATOM      5  C   UNL     1      -9.092  24.625 -27.084  1.00  0.00     0.006 C 
BRANCH   5   6
ATOM      6  C   UNL     1      -9.685  24.353 -25.696  1.00  0.00     0.053 C 
BRANCH   6   7
ATOM      7  C   UNL     1      -9.547  22.905 -25.344  1.00  0.00     0.041 C 
ATOM      8  O   UNL     1     -10.018  22.021 -26.106  1.00  0.00    -0.550 OA
ATOM      9  O   UNL     1      -8.942  22.535 -24.149  1.00  0.00    -0.550 OA
ENDBRANCH   6   7
ENDBRANCH   5   6
ENDBRANCH   4   5
ENDBRANCH   3   4
ENDBRANCH   2   3
ENDBRANCH   1   2
BRANCH   1  10
ATOM     10  C   UNL     1      -7.284  28.425 -23.519  1.00  0.00     0.000 C 
BRANCH  10  11
ATOM     11  C   UNL     1      -5.992  28.903 -22.849  1.00  0.00    -0.000 C 
BRANCH  11  12
ATOM     12  C   UNL     1      -6.290  29.589 -21.507  1.00  0.00    -0.000 C 
BRANCH  12  13
ATOM     13  C   UNL     1      -5.556  28.926 -20.330  1.00  0.00    -0.000 C 
BRANCH  13  14
ATOM     14  C   UNL     1      -4.780  27.666 -20.751  1.00  0.00    -0.000 C 
BRANCH  14  15
ATOM     15  C   UNL     1      -3.262  27.826 -20.576  1.00  0.00    -0.003 C 
ATOM     16  C   UNL     1      -2.890  28.570 -19.293  1.00  0.00     0.004 C 
ENDBRANCH  14  15
ENDBRANCH  13  14
ENDBRANCH  12  13
ENDBRANCH  11  12
ENDBRANCH  10  11
ENDBRANCH   1  10
TORSDOF 12
ENDMDL
MODEL 4
REMARK VINA RESULT:    -4.726      5.287      8.434
REMARK INTER + INTRA:          -8.588
REMARK INTER:                  -7.360
REMARK INTRA:                  -1.228
REMARK UNBOUND:                -0.547
REMARK SMILES CCCCCCCCCCCCCC(=O)[O-]
REMARK SMILES IDX 8 1 9 2 10 3 11 4 12 5 13 6 14 7 15 8 16 9 7 10 6 11 5 12
REMARK SMILES IDX 4 13 3 14 2 15 1 16
REMARK H PARENT
REMARK Flexibility Score: inf
ROOT
ATOM      1  C   UNL     1      -6.438  29.706 -20.691  1.00  0.00     0.000 C 
ENDROOT
BRANCH   1   2
ATOM      2  C   UNL     1      -5.989  28.368 -21.315  1.00  0.00     0.000 C 
BRANCH   2   3
ATOM      3  C   UNL     1      -5.683  27.275 -20.277  1.00  0.00     0.000 C 
BRANCH   3   4
ATOM      4  C   UNL     1      -4.210  26.833 -20.293  1.00  0.00     0.000 C 
BRANCH   4   5
ATOM      5  C   UNL     1      -3.254  27.981 -20.657  1.00  0.00     0.006 C 
BRANCH   5   6
ATOM      6  C   UNL     1      -2.768  28.759 -19.428  1.00  0.00     0.053 C 
BRANCH   6   7
ATOM      7  C   UNL     1      -2.457  30.176 -19.797  1.00  0.00     0.041 C 
ATOM      8  O   UNL     1      -3.314  30.878 -20.393  1.00  0.00    -0.550 OA
ATOM      9  O   UNL     1      -1.201  30.704 -19.526  1.00  0.00    -0.550 OA
ENDBRANCH   6   7
ENDBRANCH   5   6
ENDBRANCH   4   5
ENDBRANCH   3   4
ENDBRANCH   2   3
ENDBRANCH   1   2
BRANCH   1  10
ATOM     10  C   UNL     1      -6.437  29.660 -19.155  1.00  0.00     0.000 C 
BRANCH  10  11
ATOM     11  C   UNL     1      -6.745  31.040 -18.562  1.00  0.00    -0.000 C 
BRANCH  11  12
ATOM     12  C   UNL     1      -6.818  32.108 -19.664  1.00  0.00    -0.000 C 
BRANCH  12  13
ATOM     13  C   UNL     1      -6.666  33.535 -19.114  1.00  0.00    -0.000 C 
BRANCH  13  14
ATOM     14  C   UNL     1      -5.297  34.154 -19.447  1.00  0.00    -0.000 C 
BRANCH  14  15
ATOM     15  C   UNL     1      -5.013  34.174 -20.956  1.00  0.00    -0.003 C 
ATOM     16  C   UNL     1      -5.234  35.552 -21.581  1.00  0.00     0.004 C 
ENDBRANCH  14  15
ENDBRANCH  13  14
ENDBRANCH  12  13
ENDBRANCH  11  12
ENDBRANCH  10  11
ENDBRANCH   1  10
TORSDOF 12
ENDMDL
MODEL 5
REMARK VINA RESULT:    -4.683      5.727      8.507
REMARK INTER + INTRA:          -8.515
REMARK INTER:                  -7.095
REMARK INTRA:                  -1.420
REMARK UNBOUND:                -0.547
REMARK SMILES CCCCCCCCCCCCCC(=O)[O-]
REMARK SMILES IDX 8 1 9 2 10 3 11 4 12 5 13 6 14 7 15 8 16 9 7 10 6 11 5 12
REMARK SMILES IDX 4 13 3 14 2 15 1 16
REMARK H PARENT
REMARK Flexibility Score: inf
ROOT
ATOM      1  C   UNL     1      -6.841  31.866 -19.609  1.00  0.00     0.000 C 
ENDROOT
BRANCH   1   2
ATOM      2  C   UNL     1      -6.905  31.413 -18.134  1.00  0.00     0.000 C 
BRANCH   2   3
ATOM      3  C   UNL     1      -6.949  29.886 -17.958  1.00  0.00     0.000 C 
BRANCH   3   4
ATOM      4  C   UNL     1      -5.776  29.171 -18.648  1.00  0.00     0.000 C 
BRANCH   4   5
ATOM      5  C   UNL     1      -6.242  28.174 -19.721  1.00  0.00     0.006 C 
BRANCH   5   6
ATOM      6  C   UNL     1      -5.147  27.852 -20.746  1.00  0.00     0.053 C 
BRANCH   6   7
ATOM      7  C   UNL     1      -4.184  26.853 -20.185  1.00  0.00     0.041 C 
ATOM      8  O   UNL     1      -3.035  27.215 -19.821  1.00  0.00    -0.550 OA
ATOM      9  O   UNL     1      -4.541  25.512 -20.110  1.00  0.00    -0.550 OA
ENDBRANCH   6   7
ENDBRANCH   5   6
ENDBRANCH   4   5
ENDBRANCH   3   4
ENDBRANCH   2   3
ENDBRANCH   1   2
BRANCH   1  10
ATOM     10  C   UNL     1      -6.084  33.192 -19.778  1.00  0.00     0.000 C 
BRANCH  10  11
ATOM     11  C   UNL     1      -4.884  33.026 -20.717  1.00  0.00    -0.000 C 
BRANCH  11  12
ATOM     12  C   UNL     1      -4.767  31.575 -21.208  1.00  0.00    -0.000 C 
BRANCH  12  13
ATOM     13  C   UNL     1      -3.331  31.036 -21.120  1.00  0.00    -0.000 C 
BRANCH  13  14
ATOM     14  C   UNL     1      -2.513  31.711 -20.006  1.00  0.00    -0.000 C 
BRANCH  14  15
ATOM     15  C   UNL     1      -1.211  30.958 -19.693  1.00  0.00    -0.003 C 
ATOM     16  C   UNL     1      -0.009  31.891 -19.549  1.00  0.00     0.004 C 
ENDBRANCH  14  15
ENDBRANCH  13  14
ENDBRANCH  12  13
ENDBRANCH  11  12
ENDBRANCH  10  11
ENDBRANCH   1  10
TORSDOF 12
ENDMDL
MODEL 6
REMARK VINA RESULT:    -4.672      4.722      7.427
REMARK INTER + INTRA:          -8.496
REMARK INTER:                  -7.094
REMARK INTRA:                  -1.401
REMARK UNBOUND:                -0.547
REMARK SMILES CCCCCCCCCCCCCC(=O)[O-]
REMARK SMILES IDX 8 1 9 2 10 3 11 4 12 5 13 6 14 7 15 8 16 9 7 10 6 11 5 12
REMARK SMILES IDX 4 13 3 14 2 15 1 16
REMARK H PARENT
REMARK Flexibility Score: inf
ROOT
ATOM      1  C   UNL     1      -3.679  27.256 -19.428  1.00  0.00     0.000 C 
ENDROOT
BRANCH   1   2
ATOM      2  C   UNL     1      -4.910  26.661 -20.144  1.00  0.00     0.000 C 
BRANCH   2   3
ATOM      3  C   UNL     1      -6.221  27.406 -19.838  1.00  0.00     0.000 C 
BRANCH   3   4
ATOM      4  C   UNL     1      -6.207  28.099 -18.466  1.00  0.00     0.000 C 
BRANCH   4   5
ATOM      5  C   UNL     1      -5.952  29.612 -18.573  1.00  0.00     0.006 C 
BRANCH   5   6
ATOM      6  C   UNL     1      -7.041  30.445 -17.885  1.00  0.00     0.053 C 
BRANCH   6   7
ATOM      7  C   UNL     1      -6.991  31.863 -18.362  1.00  0.00     0.041 C 
ATOM      8  O   UNL     1      -7.017  32.118 -19.594  1.00  0.00    -0.550 OA
ATOM      9  O   UNL     1      -6.866  32.900 -17.445  1.00  0.00    -0.550 OA
ENDBRANCH   6   7
ENDBRANCH   5   6
ENDBRANCH   4   5
ENDBRANCH   3   4
ENDBRANCH   2   3
ENDBRANCH   1   2
BRANCH   1  10
ATOM     10  C   UNL     1      -2.849  28.159 -20.352  1.00  0.00     0.000 C 
BRANCH  10  11
ATOM     11  C   UNL     1      -2.437  29.451 -19.637  1.00  0.00    -0.000 C 
BRANCH  11  12
ATOM     12  C   UNL     1      -3.328  30.626 -20.068  1.00  0.00    -0.000 C 
BRANCH  12  13
ATOM     13  C   UNL     1      -3.618  30.624 -21.578  1.00  0.00    -0.000 C 
BRANCH  13  14
ATOM     14  C   UNL     1      -5.093  30.323 -21.896  1.00  0.00    -0.000 C 
BRANCH  14  15
ATOM     15  C   UNL     1      -5.253  29.202 -22.933  1.00  0.00    -0.003 C 
ATOM     16  C   UNL     1      -6.707  28.760 -23.106  1.00  0.00     0.004 C 
ENDBRANCH  14  15
ENDBRANCH  13  14
ENDBRANCH  12  13
ENDBRANCH  11  12
ENDBRANCH  10  11
ENDBRANCH   1  10
TORSDOF 12
ENDMDL
MODEL 7
REMARK VINA RESULT:    -4.665      3.370      7.034
REMARK INTER + INTRA:          -8.484
REMARK INTER:                  -7.830
REMARK INTRA:                  -0.654
REMARK UNBOUND:                -0.547
REMARK SMILES CCCCCCCCCCCCCC(=O)[O-]
REMARK SMILES IDX 8 1 9 2 10 3 11 4 12 5 13 6 14 7 15 8 16 9 7 10 6 11 5 12
REMARK SMILES IDX 4 13 3 14 2 15 1 16
REMARK H PARENT
REMARK Flexibility Score: inf
ROOT
ATOM      1  C   UNL     1      -8.457  27.692 -24.966  1.00  0.00     0.000 C 
ENDROOT
BRANCH   1   2
ATOM      2  C   UNL     1      -8.464  27.571 -26.505  1.00  0.00     0.000 C 
BRANCH   2   3
ATOM      3  C   UNL     1      -8.181  26.148 -27.014  1.00  0.00     0.000 C 
BRANCH   3   4
ATOM      4  C   UNL     1      -9.461  25.321 -27.217  1.00  0.00     0.000 C 
BRANCH   4   5
ATOM      5  C   UNL     1      -9.454  24.015 -26.405  1.00  0.00     0.006 C 
BRANCH   5   6
ATOM      6  C   UNL     1      -9.696  24.248 -24.908  1.00  0.00     0.053 C 
BRANCH   6   7
ATOM      7  C   UNL     1      -9.962  22.948 -24.215  1.00  0.00     0.041 C 
ATOM      8  O   UNL     1     -10.600  22.036 -24.802  1.00  0.00    -0.550 OA
ATOM      9  O   UNL     1      -9.548  22.764 -22.902  1.00  0.00    -0.550 OA
ENDBRANCH   6   7
ENDBRANCH   5   6
ENDBRANCH   4   5
ENDBRANCH   3   4
ENDBRANCH   2   3
ENDBRANCH   1   2
BRANCH   1  10
ATOM     10  C   UNL     1      -7.075  28.083 -24.420  1.00  0.00     0.000 C 
BRANCH  10  11
ATOM     11  C   UNL     1      -7.200  28.833 -23.090  1.00  0.00    -0.000 C 
BRANCH  11  12
ATOM     12  C   UNL     1      -5.880  28.783 -22.305  1.00  0.00    -0.000 C 
BRANCH  12  13
ATOM     13  C   UNL     1      -5.938  27.816 -21.112  1.00  0.00    -0.000 C 
BRANCH  13  14
ATOM     14  C   UNL     1      -5.313  28.410 -19.838  1.00  0.00    -0.000 C 
BRANCH  14  15
ATOM     15  C   UNL     1      -6.371  28.879 -18.828  1.00  0.00    -0.003 C 
ATOM     16  C   UNL     1      -6.601  30.390 -18.873  1.00  0.00     0.004 C 
ENDBRANCH  14  15
ENDBRANCH  13  14
ENDBRANCH  12  13
ENDBRANCH  11  12
ENDBRANCH  10  11
ENDBRANCH   1  10
TORSDOF 12
ENDMDL
MODEL 8
REMARK VINA RESULT:    -4.650      6.042      7.976
REMARK INTER + INTRA:          -8.459
REMARK INTER:                  -6.899
REMARK INTRA:                  -1.560
REMARK UNBOUND:                -0.547
REMARK SMILES CCCCCCCCCCCCCC(=O)[O-]
REMARK SMILES IDX 8 1 9 2 10 3 11 4 12 5 13 6 14 7 15 8 16 9 7 10 6 11 5 12
REMARK SMILES IDX 4 13 3 14 2 15 1 16
REMARK H PARENT
REMARK Flexibility Score: inf
ROOT
ATOM      1  C   UNL     1      -4.894  26.435 -19.977  1.00  0.00     0.000 C 
ENDROOT
BRANCH   1   2
ATOM      2  C   UNL     1      -3.515  27.097 -19.772  1.00  0.00     0.000 C 
BRANCH   2   3
ATOM      3  C   UNL     1      -3.286  28.333 -20.659  1.00  0.00     0.000 C 
BRANCH   3   4
ATOM      4  C   UNL     1      -2.837  29.566 -19.858  1.00  0.00     0.000 C 
BRANCH   4   5
ATOM      5  C   UNL     1      -2.993  30.874 -20.652  1.00  0.00     0.006 C 
BRANCH   5   6
ATOM      6  C   UNL     1      -2.449  32.093 -19.897  1.00  0.00     0.053 C 
BRANCH   6   7
ATOM      7  C   UNL     1      -1.491  32.855 -20.758  1.00  0.00     0.041 C 
ATOM      8  O   UNL     1      -1.873  33.886 -21.371  1.00  0.00    -0.550 OA
ATOM      9  O   UNL     1      -0.190  32.398 -20.922  1.00  0.00    -0.550 OA
ENDBRANCH   6   7
ENDBRANCH   5   6
ENDBRANCH   4   5
ENDBRANCH   3   4
ENDBRANCH   2   3
ENDBRANCH   1   2
BRANCH   1  10
ATOM     10  C   UNL     1      -6.027  27.468 -20.067  1.00  0.00     0.000 C 
BRANCH  10  11
ATOM     11  C   UNL     1      -6.412  27.987 -18.677  1.00  0.00    -0.000 C 
BRANCH  11  12
ATOM     12  C   UNL     1      -6.378  29.523 -18.636  1.00  0.00    -0.000 C 
BRANCH  12  13
ATOM     13  C   UNL     1      -6.538  30.155 -20.027  1.00  0.00    -0.000 C 
BRANCH  13  14
ATOM     14  C   UNL     1      -6.633  31.690 -19.972  1.00  0.00    -0.000 C 
BRANCH  14  15
ATOM     15  C   UNL     1      -6.756  32.220 -18.536  1.00  0.00    -0.003 C 
ATOM     16  C   UNL     1      -6.780  33.748 -18.471  1.00  0.00     0.004 C 
ENDBRANCH  14  15
ENDBRANCH  13  14
ENDBRANCH  12  13
ENDBRANCH  11  12
ENDBRANCH  10  11
ENDBRANCH   1  10
TORSDOF 12
ENDMDL
MODEL 9
REMARK VINA RESULT:    -4.573      5.823      7.271
REMARK INTER + INTRA:          -8.328
REMARK INTER:                  -6.601
REMARK INTRA:                  -1.727
REMARK UNBOUND:                -0.547
REMARK SMILES CCCCCCCCCCCCCC(=O)[O-]
REMARK SMILES IDX 8 1 9 2 10 3 11 4 12 5 13 6 14 7 15 8 16 9 7 10 6 11 5 12
REMARK SMILES IDX 4 13 3 14 2 15 1 16
REMARK H PARENT
REMARK Flexibility Score: inf
ROOT
ATOM      1  C   UNL     1      -6.701  31.536 -19.806  1.00  0.00     0.000 C 
ENDROOT
BRANCH   1   2
ATOM      2  C   UNL     1      -6.111  32.932 -19.511  1.00  0.00     0.000 C 
BRANCH   2   3
ATOM      3  C   UNL     1      -4.825  33.236 -20.297  1.00  0.00     0.000 C 
BRANCH   3   4
ATOM      4  C   UNL     1      -4.490  32.154 -21.337  1.00  0.00     0.000 C 
BRANCH   4   5
ATOM      5  C   UNL     1      -2.989  31.824 -21.382  1.00  0.00     0.006 C 
BRANCH   5   6
ATOM      6  C   UNL     1      -2.410  31.514 -19.996  1.00  0.00     0.053 C 
BRANCH   6   7
ATOM      7  C   UNL     1      -1.133  32.266 -19.784  1.00  0.00     0.041 C 
ATOM      8  O   UNL     1      -1.090  33.508 -19.981  1.00  0.00    -0.550 OA
ATOM      9  O   UNL     1       0.021  31.586 -19.417  1.00  0.00    -0.550 OA
ENDBRANCH   6   7
ENDBRANCH   5   6
ENDBRANCH   4   5
ENDBRANCH   3   4
ENDBRANCH   2   3
ENDBRANCH   1   2
BRANCH   1  10
ATOM     10  C   UNL     1      -6.534  30.572 -18.621  1.00  0.00     0.000 C 
BRANCH  10  11
ATOM     11  C   UNL     1      -6.325  29.133 -19.106  1.00  0.00    -0.000 C 
BRANCH  11  12
ATOM     12  C   UNL     1      -6.279  29.071 -20.640  1.00  0.00    -0.000 C 
BRANCH  12  13
ATOM     13  C   UNL     1      -5.054  28.306 -21.164  1.00  0.00    -0.000 C 
BRANCH  13  14
ATOM     14  C   UNL     1      -3.886  28.303 -20.163  1.00  0.00    -0.000 C 
BRANCH  14  15
ATOM     15  C   UNL     1      -3.423  26.883 -19.804  1.00  0.00    -0.003 C 
ATOM     16  C   UNL     1      -4.465  25.818 -20.146  1.00  0.00     0.004 C 
ENDBRANCH  14  15
ENDBRANCH  13  14
ENDBRANCH  12  13
ENDBRANCH  11  12
ENDBRANCH  10  11
ENDBRANCH   1  10
TORSDOF 12
ENDMDL
