MODEL 1
REMARK VINA RESULT:    -3.891      0.000      0.000
REMARK INTER + INTRA:          -5.731
REMARK INTER:                  -5.255
REMARK INTRA:                  -0.476
REMARK UNBOUND:                -0.476
REMARK SMILES [NH3+]CCCC[C@@H]([NH3+])C(=O)[O-]
REMARK SMILES IDX 4 1 3 2 2 3 1 4 5 8 6 9 7 10 8 14 9 15 10 16
REMARK H PARENT 1 5 1 6 1 7 7 11 7 12 7 13
REMARK Flexibility Score: inf
ROOT
ATOM      1  C   UNL     1      16.689  14.917  30.238  1.00  0.00     0.012 C 
ENDROOT
BRANCH   1   2
ATOM      2  C   UNL     1      17.516  13.631  30.347  1.00  0.00     0.061 C 
BRANCH   2   3
ATOM      3  C   UNL     1      17.110  12.815  31.581  1.00  0.00     0.258 C 
BRANCH   3   4
ATOM      4  N   UNL     1      15.741  12.320  31.453  1.00  0.00    -0.358 N 
ATOM      5  H   UNL     1      15.246  12.870  30.715  1.00  0.00     0.344 HD
ATOM      6  H   UNL     1      15.231  12.437  32.360  1.00  0.00     0.344 HD
ATOM      7  H   UNL     1      15.747  11.312  31.177  1.00  0.00     0.344 HD
ENDBRANCH   3   4
ENDBRANCH   2   3
ENDBRANCH   1   2
BRANCH   1   8
ATOM      8  C   UNL     1      15.973  15.000  28.882  1.00  0.00     0.072 C 
BRANCH   8   9
ATOM      9  C   UNL     1      14.443  15.153  29.035  1.00  0.00     0.227 C 
BRANCH   9  10
ATOM     10  N   UNL     1      13.928  16.143  28.083  1.00  0.00    -0.350 N 
ATOM     11  H   UNL     1      14.433  16.056  27.172  1.00  0.00     0.345 HD
ATOM     12  H   UNL     1      14.089  17.109  28.453  1.00  0.00     0.345 HD
ATOM     13  H   UNL     1      12.904  16.004  27.921  1.00  0.00     0.345 HD
ENDBRANCH   9  10
BRANCH   9  14
ATOM     14  C   UNL     1      13.741  13.833  28.843  1.00  0.00     0.099 C 
ATOM     15  O   UNL     1      12.483  13.775  28.825  1.00  0.00    -0.544 OA
ATOM     16  O   UNL     1      14.483  12.671  28.673  1.00  0.00    -0.544 OA
ENDBRANCH   9  14
ENDBRANCH   8   9
ENDBRANCH   1   8
TORSDOF 7
ENDMDL
MODEL 2
REMARK VINA RESULT:    -3.843      9.565     10.314
REMARK INTER + INTRA:          -5.667
REMARK INTER:                  -5.223
REMARK INTRA:                  -0.444
REMARK UNBOUND:                -0.476
REMARK SMILES [NH3+]CCCC[C@@H]([NH3+])C(=O)[O-]
REMARK SMILES IDX 4 1 3 2 2 3 1 4 5 8 6 9 7 10 8 14 9 15 10 16
REMARK H PARENT 1 5 1 6 1 7 7 11 7 12 7 13
REMARK Flexibility Score: inf
ROOT
ATOM      1  C   UNL     1      13.495  21.420  35.599  1.00  0.00     0.012 C 
ENDROOT
BRANCH   1   2
ATOM      2  C   UNL     1      14.053  22.721  36.186  1.00  0.00     0.061 C 
BRANCH   2   3
ATOM      3  C   UNL     1      15.171  23.290  35.303  1.00  0.00     0.258 C 
BRANCH   3   4
ATOM      4  N   UNL     1      14.627  23.867  34.075  1.00  0.00    -0.358 N 
ATOM      5  H   UNL     1      13.680  24.262  34.273  1.00  0.00     0.344 HD
ATOM      6  H   UNL     1      14.538  23.128  33.340  1.00  0.00     0.344 HD
ATOM      7  H   UNL     1      15.249  24.635  33.733  1.00  0.00     0.344 HD
ENDBRANCH   3   4
ENDBRANCH   2   3
ENDBRANCH   1   2
BRANCH   1   8
ATOM      8  C   UNL     1      11.963  21.475  35.491  1.00  0.00     0.072 C 
BRANCH   8   9
ATOM      9  C   UNL     1      11.465  21.167  34.062  1.00  0.00     0.227 C 
BRANCH   9  10
ATOM     10  N   UNL     1      10.358  20.205  34.101  1.00  0.00    -0.350 N 
ATOM     11  H   UNL     1      10.706  19.251  33.851  1.00  0.00     0.345 HD
ATOM     12  H   UNL     1       9.626  20.477  33.403  1.00  0.00     0.345 HD
ATOM     13  H   UNL     1       9.928  20.173  35.054  1.00  0.00     0.345 HD
ENDBRANCH   9  10
BRANCH   9  14
ATOM     14  C   UNL     1      11.037  22.424  33.350  1.00  0.00     0.099 C 
ATOM     15  O   UNL     1      10.124  22.388  32.483  1.00  0.00    -0.544 OA
ATOM     16  O   UNL     1      11.642  23.636  33.658  1.00  0.00    -0.544 OA
ENDBRANCH   9  14
ENDBRANCH   8   9
ENDBRANCH   1   8
TORSDOF 7
ENDMDL
MODEL 3
REMARK VINA RESULT:    -3.825      5.342      7.338
REMARK INTER + INTRA:          -5.643
REMARK INTER:                  -5.195
REMARK INTRA:                  -0.447
REMARK UNBOUND:                -0.476
REMARK SMILES [NH3+]CCCC[C@@H]([NH3+])C(=O)[O-]
REMARK SMILES IDX 4 1 3 2 2 3 1 4 5 8 6 9 7 10 8 14 9 15 10 16
REMARK H PARENT 1 5 1 6 1 7 7 11 7 12 7 13
REMARK Flexibility Score: inf
ROOT
ATOM      1  C   UNL     1      17.274  13.774  34.080  1.00  0.00     0.012 C 
ENDROOT
BRANCH   1   2
ATOM      2  C   UNL     1      16.774  12.596  33.236  1.00  0.00     0.061 C 
BRANCH   2   3
ATOM      3  C   UNL     1      17.271  12.704  31.789  1.00  0.00     0.258 C 
BRANCH   3   4
ATOM      4  N   UNL     1      18.722  12.879  31.746  1.00  0.00    -0.358 N 
ATOM      5  H   UNL     1      18.946  13.898  31.813  1.00  0.00     0.344 HD
ATOM      6  H   UNL     1      19.102  12.509  30.843  1.00  0.00     0.344 HD
ATOM      7  H   UNL     1      19.168  12.380  32.549  1.00  0.00     0.344 HD
ENDBRANCH   3   4
ENDBRANCH   2   3
ENDBRANCH   1   2
BRANCH   1   8
ATOM      8  C   UNL     1      17.972  13.280  35.357  1.00  0.00     0.072 C 
BRANCH   8   9
ATOM      9  C   UNL     1      19.355  13.936  35.559  1.00  0.00     0.227 C 
BRANCH   9  10
ATOM     10  N   UNL     1      19.615  14.157  36.986  1.00  0.00    -0.350 N 
ATOM     11  H   UNL     1      18.711  14.281  37.497  1.00  0.00     0.345 HD
ATOM     12  H   UNL     1      20.182  15.028  37.113  1.00  0.00     0.345 HD
ATOM     13  H   UNL     1      20.133  13.347  37.399  1.00  0.00     0.345 HD
ENDBRANCH   9  10
BRANCH   9  14
ATOM     14  C   UNL     1      20.451  13.096  34.956  1.00  0.00     0.099 C 
ATOM     15  O   UNL     1      21.651  13.473  35.014  1.00  0.00    -0.544 OA
ATOM     16  O   UNL     1      20.140  11.889  34.340  1.00  0.00    -0.544 OA
ENDBRANCH   9  14
ENDBRANCH   8   9
ENDBRANCH   1   8
TORSDOF 7
ENDMDL
MODEL 4
REMARK VINA RESULT:    -3.759     11.210     12.013
REMARK INTER + INTRA:          -5.554
REMARK INTER:                  -5.127
REMARK INTRA:                  -0.427
REMARK UNBOUND:                -0.476
REMARK SMILES [NH3+]CCCC[C@@H]([NH3+])C(=O)[O-]
REMARK SMILES IDX 4 1 3 2 2 3 1 4 5 8 6 9 7 10 8 14 9 15 10 16
REMARK H PARENT 1 5 1 6 1 7 7 11 7 12 7 13
REMARK Flexibility Score: inf
ROOT
ATOM      1  C   UNL     1      17.139  22.667  34.315  1.00  0.00     0.012 C 
ENDROOT
BRANCH   1   2
ATOM      2  C   UNL     1      16.174  23.857  34.328  1.00  0.00     0.061 C 
BRANCH   2   3
ATOM      3  C   UNL     1      15.258  23.812  35.557  1.00  0.00     0.258 C 
BRANCH   3   4
ATOM      4  N   UNL     1      15.661  22.745  36.472  1.00  0.00    -0.358 N 
ATOM      5  H   UNL     1      16.073  23.170  37.333  1.00  0.00     0.344 HD
ATOM      6  H   UNL     1      16.381  22.136  36.018  1.00  0.00     0.344 HD
ATOM      7  H   UNL     1      14.831  22.170  36.741  1.00  0.00     0.344 HD
ENDBRANCH   3   4
ENDBRANCH   2   3
ENDBRANCH   1   2
BRANCH   1   8
ATOM      8  C   UNL     1      18.596  23.135  34.453  1.00  0.00     0.072 C 
BRANCH   8   9
ATOM      9  C   UNL     1      19.370  22.334  35.522  1.00  0.00     0.227 C 
BRANCH   9  10
ATOM     10  N   UNL     1      20.745  22.079  35.077  1.00  0.00    -0.350 N 
ATOM     11  H   UNL     1      20.842  22.324  34.066  1.00  0.00     0.345 HD
ATOM     12  H   UNL     1      20.972  21.063  35.189  1.00  0.00     0.345 HD
ATOM     13  H   UNL     1      21.426  22.646  35.634  1.00  0.00     0.345 HD
ENDBRANCH   9  10
BRANCH   9  14
ATOM     14  C   UNL     1      19.378  23.057  36.845  1.00  0.00     0.099 C 
ATOM     15  O   UNL     1      20.215  22.750  37.735  1.00  0.00    -0.544 OA
ATOM     16  O   UNL     1      18.465  24.076  37.084  1.00  0.00    -0.544 OA
ENDBRANCH   9  14
ENDBRANCH   8   9
ENDBRANCH   1   8
TORSDOF 7
ENDMDL
MODEL 5
REMARK VINA RESULT:    -3.703     10.257     11.211
REMARK INTER + INTRA:          -5.478
REMARK INTER:                  -4.979
REMARK INTRA:                  -0.500
REMARK UNBOUND:                -0.476
REMARK SMILES [NH3+]CCCC[C@@H]([NH3+])C(=O)[O-]
REMARK SMILES IDX 4 1 3 2 2 3 1 4 5 8 6 9 7 10 8 14 9 15 10 16
REMARK H PARENT 1 5 1 6 1 7 7 11 7 12 7 13
REMARK Flexibility Score: inf
ROOT
ATOM      1  C   UNL     1      12.010  21.410  35.392  1.00  0.00     0.012 C 
ENDROOT
BRANCH   1   2
ATOM      2  C   UNL     1      11.537  21.451  33.935  1.00  0.00     0.061 C 
BRANCH   2   3
ATOM      3  C   UNL     1      10.863  22.790  33.609  1.00  0.00     0.258 C 
BRANCH   3   4
ATOM      4  N   UNL     1      11.569  23.483  32.534  1.00  0.00    -0.358 N 
ATOM      5  H   UNL     1      12.531  23.730  32.859  1.00  0.00     0.344 HD
ATOM      6  H   UNL     1      11.063  24.364  32.281  1.00  0.00     0.344 HD
ATOM      7  H   UNL     1      11.644  22.864  31.695  1.00  0.00     0.344 HD
ENDBRANCH   3   4
ENDBRANCH   2   3
ENDBRANCH   1   2
BRANCH   1   8
ATOM      8  C   UNL     1      13.536  21.567  35.481  1.00  0.00     0.072 C 
BRANCH   8   9
ATOM      9  C   UNL     1      13.952  22.968  35.981  1.00  0.00     0.227 C 
BRANCH   9  10
ATOM     10  N   UNL     1      15.013  22.859  36.989  1.00  0.00    -0.350 N 
ATOM     11  H   UNL     1      14.670  23.224  37.907  1.00  0.00     0.345 HD
ATOM     12  H   UNL     1      15.839  23.433  36.699  1.00  0.00     0.345 HD
ATOM     13  H   UNL     1      15.311  21.863  37.107  1.00  0.00     0.345 HD
ENDBRANCH   9  10
BRANCH   9  14
ATOM     14  C   UNL     1      14.408  23.841  34.840  1.00  0.00     0.099 C 
ATOM     15  O   UNL     1      13.656  24.745  34.388  1.00  0.00    -0.544 OA
ATOM     16  O   UNL     1      15.669  23.658  34.288  1.00  0.00    -0.544 OA
ENDBRANCH   9  14
ENDBRANCH   8   9
ENDBRANCH   1   8
TORSDOF 7
ENDMDL
MODEL 6
REMARK VINA RESULT:    -3.702      2.764      4.569
REMARK INTER + INTRA:          -5.476
REMARK INTER:                  -5.360
REMARK INTRA:                  -0.116
REMARK UNBOUND:                -0.476
REMARK SMILES [NH3+]CCCC[C@@H]([NH3+])C(=O)[O-]
REMARK SMILES IDX 4 1 3 2 2 3 1 4 5 8 6 9 7 10 8 14 9 15 10 16
REMARK H PARENT 1 5 1 6 1 7 7 11 7 12 7 13
REMARK Flexibility Score: inf
ROOT
ATOM      1  C   UNL     1      16.146  14.990  29.178  1.00  0.00     0.012 C 
ENDROOT
BRANCH   1   2
ATOM      2  C   UNL     1      15.137  14.441  28.163  1.00  0.00     0.061 C 
BRANCH   2   3
ATOM      3  C   UNL     1      13.770  15.117  28.323  1.00  0.00     0.258 C 
BRANCH   3   4
ATOM      4  N   UNL     1      13.821  16.512  27.890  1.00  0.00    -0.358 N 
ATOM      5  H   UNL     1      13.342  16.602  26.966  1.00  0.00     0.344 HD
ATOM      6  H   UNL     1      14.817  16.819  27.785  1.00  0.00     0.344 HD
ATOM      7  H   UNL     1      13.334  17.122  28.585  1.00  0.00     0.344 HD
ENDBRANCH   3   4
ENDBRANCH   2   3
ENDBRANCH   1   2
BRANCH   1   8
ATOM      8  C   UNL     1      15.806  14.524  30.602  1.00  0.00     0.072 C 
BRANCH   8   9
ATOM      9  C   UNL     1      16.840  13.516  31.151  1.00  0.00     0.227 C 
BRANCH   9  10
ATOM     10  N   UNL     1      18.202  13.935  30.801  1.00  0.00    -0.350 N 
ATOM     11  H   UNL     1      18.208  14.951  30.551  1.00  0.00     0.345 HD
ATOM     12  H   UNL     1      18.538  13.394  29.971  1.00  0.00     0.345 HD
ATOM     13  H   UNL     1      18.856  13.777  31.603  1.00  0.00     0.345 HD
ENDBRANCH   9  10
BRANCH   9  14
ATOM     14  C   UNL     1      16.711  13.362  32.645  1.00  0.00     0.099 C 
ATOM     15  O   UNL     1      16.896  14.348  33.407  1.00  0.00    -0.544 OA
ATOM     16  O   UNL     1      16.377  12.128  33.189  1.00  0.00    -0.544 OA
ENDBRANCH   9  14
ENDBRANCH   8   9
ENDBRANCH   1   8
TORSDOF 7
ENDMDL
MODEL 7
REMARK VINA RESULT:    -3.697      2.291      3.967
REMARK INTER + INTRA:          -5.469
REMARK INTER:                  -4.966
REMARK INTRA:                  -0.503
REMARK UNBOUND:                -0.476
REMARK SMILES [NH3+]CCCC[C@@H]([NH3+])C(=O)[O-]
REMARK SMILES IDX 4 1 3 2 2 3 1 4 5 8 6 9 7 10 8 14 9 15 10 16
REMARK H PARENT 1 5 1 6 1 7 7 11 7 12 7 13
REMARK Flexibility Score: inf
ROOT
ATOM      1  C   UNL     1      15.970  14.704  29.059  1.00  0.00     0.012 C 
ENDROOT
BRANCH   1   2
ATOM      2  C   UNL     1      14.475  14.861  29.358  1.00  0.00     0.061 C 
BRANCH   2   3
ATOM      3  C   UNL     1      13.678  13.658  28.837  1.00  0.00     0.258 C 
BRANCH   3   4
ATOM      4  N   UNL     1      13.162  12.854  29.943  1.00  0.00    -0.358 N 
ATOM      5  H   UNL     1      12.138  13.034  30.049  1.00  0.00     0.344 HD
ATOM      6  H   UNL     1      13.644  13.117  30.834  1.00  0.00     0.344 HD
ATOM      7  H   UNL     1      13.308  11.838  29.748  1.00  0.00     0.344 HD
ENDBRANCH   3   4
ENDBRANCH   2   3
ENDBRANCH   1   2
BRANCH   1   8
ATOM      8  C   UNL     1      16.780  14.561  30.356  1.00  0.00     0.072 C 
BRANCH   8   9
ATOM      9  C   UNL     1      17.386  13.149  30.516  1.00  0.00     0.227 C 
BRANCH   9  10
ATOM     10  N   UNL     1      18.700  13.224  31.165  1.00  0.00    -0.350 N 
ATOM     11  H   UNL     1      19.000  12.270  31.472  1.00  0.00     0.345 HD
ATOM     12  H   UNL     1      18.643  13.836  32.012  1.00  0.00     0.345 HD
ATOM     13  H   UNL     1      19.416  13.613  30.508  1.00  0.00     0.345 HD
ENDBRANCH   9  10
BRANCH   9  14
ATOM     14  C   UNL     1      16.469  12.248  31.303  1.00  0.00     0.099 C 
ATOM     15  O   UNL     1      15.722  11.424  30.713  1.00  0.00    -0.544 OA
ATOM     16  O   UNL     1      16.453  12.317  32.691  1.00  0.00    -0.544 OA
ENDBRANCH   9  14
ENDBRANCH   8   9
ENDBRANCH   1   8
TORSDOF 7
ENDMDL
MODEL 8
REMARK VINA RESULT:    -3.677      4.083      5.587
REMARK INTER + INTRA:          -5.443
REMARK INTER:                  -5.344
REMARK INTRA:                  -0.099
REMARK UNBOUND:                -0.476
REMARK SMILES [NH3+]CCCC[C@@H]([NH3+])C(=O)[O-]
REMARK SMILES IDX 4 1 3 2 2 3 1 4 5 8 6 9 7 10 8 14 9 15 10 16
REMARK H PARENT 1 5 1 6 1 7 7 11 7 12 7 13
REMARK Flexibility Score: inf
ROOT
ATOM      1  C   UNL     1      17.970  13.178  35.096  1.00  0.00     0.012 C 
ENDROOT
BRANCH   1   2
ATOM      2  C   UNL     1      19.369  12.737  35.541  1.00  0.00     0.061 C 
BRANCH   2   3
ATOM      3  C   UNL     1      20.166  13.919  36.108  1.00  0.00     0.258 C 
BRANCH   3   4
ATOM      4  N   UNL     1      19.638  14.330  37.408  1.00  0.00    -0.358 N 
ATOM      5  H   UNL     1      19.610  15.374  37.451  1.00  0.00     0.344 HD
ATOM      6  H   UNL     1      20.256  13.977  38.175  1.00  0.00     0.344 HD
ATOM      7  H   UNL     1      18.669  13.960  37.536  1.00  0.00     0.344 HD
ENDBRANCH   3   4
ENDBRANCH   2   3
ENDBRANCH   1   2
BRANCH   1   8
ATOM      8  C   UNL     1      18.032  13.964  33.778  1.00  0.00     0.072 C 
BRANCH   8   9
ATOM      9  C   UNL     1      17.449  13.165  32.591  1.00  0.00     0.227 C 
BRANCH   9  10
ATOM     10  N   UNL     1      16.065  12.767  32.871  1.00  0.00    -0.350 N 
ATOM     11  H   UNL     1      15.874  11.827  32.454  1.00  0.00     0.345 HD
ATOM     12  H   UNL     1      15.403  13.455  32.440  1.00  0.00     0.345 HD
ATOM     13  H   UNL     1      15.892  12.725  33.902  1.00  0.00     0.345 HD
ENDBRANCH   9  10
BRANCH   9  14
ATOM     14  C   UNL     1      17.512  13.962  31.313  1.00  0.00     0.099 C 
ATOM     15  O   UNL     1      18.138  13.520  30.314  1.00  0.00    -0.544 OA
ATOM     16  O   UNL     1      16.867  15.190  31.230  1.00  0.00    -0.544 OA
ENDBRANCH   9  14
ENDBRANCH   8   9
ENDBRANCH   1   8
TORSDOF 7
ENDMDL
MODEL 9
REMARK VINA RESULT:    -3.639      2.236      2.783
REMARK INTER + INTRA:          -5.391
REMARK INTER:                  -4.917
REMARK INTRA:                  -0.473
REMARK UNBOUND:                -0.476
REMARK SMILES [NH3+]CCCC[C@@H]([NH3+])C(=O)[O-]
REMARK SMILES IDX 4 1 3 2 2 3 1 4 5 8 6 9 7 10 8 14 9 15 10 16
REMARK H PARENT 1 5 1 6 1 7 7 11 7 12 7 13
REMARK Flexibility Score: inf
ROOT
ATOM      1  C   UNL     1      15.442  11.500  30.259  1.00  0.00     0.012 C 
ENDROOT
BRANCH   1   2
ATOM      2  C   UNL     1      16.711  11.819  31.057  1.00  0.00     0.061 C 
BRANCH   2   3
ATOM      3  C   UNL     1      17.755  12.519  30.178  1.00  0.00     0.258 C 
BRANCH   3   4
ATOM      4  N   UNL     1      18.137  13.810  30.748  1.00  0.00    -0.358 N 
ATOM      5  H   UNL     1      17.274  14.334  31.018  1.00  0.00     0.344 HD
ATOM      6  H   UNL     1      18.666  14.373  30.041  1.00  0.00     0.344 HD
ATOM      7  H   UNL     1      18.727  13.667  31.599  1.00  0.00     0.344 HD
ENDBRANCH   3   4
ENDBRANCH   2   3
ENDBRANCH   1   2
BRANCH   1   8
ATOM      8  C   UNL     1      15.360  12.356  28.986  1.00  0.00     0.072 C 
BRANCH   8   9
ATOM      9  C   UNL     1      14.103  13.253  28.962  1.00  0.00     0.227 C 
BRANCH   9  10
ATOM     10  N   UNL     1      13.089  12.739  29.890  1.00  0.00    -0.350 N 
ATOM     11  H   UNL     1      12.465  13.518  30.202  1.00  0.00     0.345 HD
ATOM     12  H   UNL     1      13.554  12.336  30.737  1.00  0.00     0.345 HD
ATOM     13  H   UNL     1      12.508  11.999  29.432  1.00  0.00     0.345 HD
ENDBRANCH   9  10
BRANCH   9  14
ATOM     14  C   UNL     1      14.444  14.680  29.304  1.00  0.00     0.099 C 
ATOM     15  O   UNL     1      15.267  14.938  30.221  1.00  0.00    -0.544 OA
ATOM     16  O   UNL     1      13.856  15.722  28.598  1.00  0.00    -0.544 OA
ENDBRANCH   9  14
ENDBRANCH   8   9
ENDBRANCH   1   8
TORSDOF 7
ENDMDL
