MODEL 1
REMARK VINA RESULT:    -5.752      0.000      0.000
REMARK INTER + INTRA:         -19.928
REMARK INTER:                 -14.495
REMARK INTRA:                  -5.433
REMARK UNBOUND:                -5.433
REMARK SMILES CCCCCCCCCCCCCCCCCCCCCCCCCCCC(=O)[O-]
REMARK SMILES IDX 15 1 16 2 17 3 18 4 19 5 20 6 21 7 22 8 23 9 24 10 25 11
REMARK SMILES IDX 26 12 27 13 28 14 29 15 30 16 14 17 13 18 12 19 11 20 10 21
REMARK SMILES IDX 9 22 8 23 7 24 6 25 5 26 4 27 3 28 2 29 1 30
REMARK H PARENT
REMARK Flexibility Score: inf
ROOT
ATOM      1  C   UNL     1      46.808  11.732  -5.391  1.00  0.00     0.000 C 
ENDROOT
BRANCH   1   2
ATOM      2  C   UNL     1      45.931  12.891  -5.885  1.00  0.00     0.000 C 
BRANCH   2   3
ATOM      3  C   UNL     1      46.053  13.068  -7.404  1.00  0.00     0.000 C 
BRANCH   3   4
ATOM      4  C   UNL     1      47.162  12.172  -7.978  1.00  0.00     0.000 C 
BRANCH   4   5
ATOM      5  C   UNL     1      47.057  12.003  -9.509  1.00  0.00     0.000 C 
BRANCH   5   6
ATOM      6  C   UNL     1      46.549  10.618  -9.953  1.00  0.00     0.000 C 
BRANCH   6   7
ATOM      7  C   UNL     1      45.030  10.526 -10.193  1.00  0.00     0.000 C 
BRANCH   7   8
ATOM      8  C   UNL     1      44.254   9.692  -9.154  1.00  0.00     0.000 C 
BRANCH   8   9
ATOM      9  C   UNL     1      43.565  10.508  -8.041  1.00  0.00     0.000 C 
BRANCH   9  10
ATOM     10  C   UNL     1      43.621   9.873  -6.640  1.00  0.00     0.000 C 
BRANCH  10  11
ATOM     11  C   UNL     1      42.251   9.380  -6.156  1.00  0.00     0.000 C 
BRANCH  11  12
ATOM     12  C   UNL     1      42.362   7.985  -5.523  1.00  0.00     0.006 C 
BRANCH  12  13
ATOM     13  C   UNL     1      40.992   7.327  -5.319  1.00  0.00     0.053 C 
BRANCH  13  14
ATOM     14  C   UNL     1      40.002   8.280  -4.722  1.00  0.00     0.041 C 
ATOM     15  O   UNL     1      39.181   8.888  -5.459  1.00  0.00    -0.550 OA
ATOM     16  O   UNL     1      40.003   8.515  -3.353  1.00  0.00    -0.550 OA
ENDBRANCH  13  14
ENDBRANCH  12  13
ENDBRANCH  11  12
ENDBRANCH  10  11
ENDBRANCH   9  10
ENDBRANCH   8   9
ENDBRANCH   7   8
ENDBRANCH   6   7
ENDBRANCH   5   6
ENDBRANCH   4   5
ENDBRANCH   3   4
ENDBRANCH   2   3
ENDBRANCH   1   2
BRANCH   1  17
ATOM     17  C   UNL     1      48.111  12.202  -4.721  1.00  0.00     0.000 C 
BRANCH  17  18
ATOM     18  C   UNL     1      49.252  11.162  -4.759  1.00  0.00     0.000 C 
BRANCH  18  19
ATOM     19  C   UNL     1      50.290  11.462  -5.859  1.00  0.00     0.000 C 
BRANCH  19  20
ATOM     20  C   UNL     1      50.354  10.361  -6.928  1.00  0.00     0.000 C 
BRANCH  20  21
ATOM     21  C   UNL     1      49.387   9.198  -6.644  1.00  0.00     0.000 C 
BRANCH  21  22
ATOM     22  C   UNL     1      49.172   8.298  -7.872  1.00  0.00    -0.000 C 
BRANCH  22  23
ATOM     23  C   UNL     1      47.765   7.683  -7.919  1.00  0.00    -0.000 C 
BRANCH  23  24
ATOM     24  C   UNL     1      46.831   8.374  -6.914  1.00  0.00    -0.000 C 
BRANCH  24  25
ATOM     25  C   UNL     1      46.288   7.405  -5.850  1.00  0.00    -0.000 C 
BRANCH  25  26
ATOM     26  C   UNL     1      46.640   7.846  -4.420  1.00  0.00    -0.000 C 
BRANCH  26  27
ATOM     27  C   UNL     1      45.398   8.079  -3.545  1.00  0.00    -0.000 C 
BRANCH  27  28
ATOM     28  C   UNL     1      45.251   9.535  -3.051  1.00  0.00    -0.000 C 
BRANCH  28  29
ATOM     29  C   UNL     1      43.852   9.818  -2.485  1.00  0.00    -0.003 C 
ATOM     30  C   UNL     1      43.261  11.090  -3.088  1.00  0.00     0.004 C 
ENDBRANCH  28  29
ENDBRANCH  27  28
ENDBRANCH  26  27
ENDBRANCH  25  26
ENDBRANCH  24  25
ENDBRANCH  23  24
ENDBRANCH  22  23
ENDBRANCH  21  22
ENDBRANCH  20  21
ENDBRANCH  19  20
ENDBRANCH  18  19
ENDBRANCH  17  18
ENDBRANCH   1  17
TORSDOF 26
ENDMDL
MODEL 2
REMARK VINA RESULT:    -5.748     11.946     16.696
REMARK INTER + INTRA:         -19.917
REMARK INTER:                 -14.220
REMARK INTRA:                  -5.697
REMARK UNBOUND:                -5.433
REMARK SMILES CCCCCCCCCCCCCCCCCCCCCCCCCCCC(=O)[O-]
REMARK SMILES IDX 15 1 16 2 17 3 18 4 19 5 20 6 21 7 22 8 23 9 24 10 25 11
REMARK SMILES IDX 26 12 27 13 28 14 29 15 30 16 14 17 13 18 12 19 11 20 10 21
REMARK SMILES IDX 9 22 8 23 7 24 6 25 5 26 4 27 3 28 2 29 1 30
REMARK H PARENT
REMARK Flexibility Score: inf
ROOT
ATOM      1  C   UNL     1      33.062   3.537   4.934  1.00  0.00     0.000 C 
ENDROOT
BRANCH   1   2
ATOM      2  C   UNL     1      33.580   3.298   3.510  1.00  0.00     0.000 C 
BRANCH   2   3
ATOM      3  C   UNL     1      35.089   3.019   3.511  1.00  0.00     0.000 C 
BRANCH   3   4
ATOM      4  C   UNL     1      35.872   4.207   2.930  1.00  0.00     0.000 C 
BRANCH   4   5
ATOM      5  C   UNL     1      36.185   5.287   3.987  1.00  0.00     0.000 C 
BRANCH   5   6
ATOM      6  C   UNL     1      37.614   5.855   3.899  1.00  0.00     0.000 C 
BRANCH   6   7
ATOM      7  C   UNL     1      38.245   5.819   2.494  1.00  0.00     0.000 C 
BRANCH   7   8
ATOM      8  C   UNL     1      39.780   5.662   2.471  1.00  0.00     0.000 C 
BRANCH   8   9
ATOM      9  C   UNL     1      40.365   4.776   3.589  1.00  0.00     0.000 C 
BRANCH   9  10
ATOM     10  C   UNL     1      40.583   3.302   3.203  1.00  0.00     0.000 C 
BRANCH  10  11
ATOM     11  C   UNL     1      39.377   2.414   3.541  1.00  0.00     0.000 C 
BRANCH  11  12
ATOM     12  C   UNL     1      38.711   1.884   2.263  1.00  0.00     0.006 C 
BRANCH  12  13
ATOM     13  C   UNL     1      39.684   1.831   1.078  1.00  0.00     0.053 C 
BRANCH  13  14
ATOM     14  C   UNL     1      39.118   2.504  -0.135  1.00  0.00     0.041 C 
ATOM     15  O   UNL     1      38.271   3.429  -0.011  1.00  0.00    -0.550 OA
ATOM     16  O   UNL     1      39.507   2.092  -1.402  1.00  0.00    -0.550 OA
ENDBRANCH  13  14
ENDBRANCH  12  13
ENDBRANCH  11  12
ENDBRANCH  10  11
ENDBRANCH   9  10
ENDBRANCH   8   9
ENDBRANCH   7   8
ENDBRANCH   6   7
ENDBRANCH   5   6
ENDBRANCH   4   5
ENDBRANCH   3   4
ENDBRANCH   2   3
ENDBRANCH   1   2
BRANCH   1  17
ATOM     17  C   UNL     1      34.078   3.148   6.022  1.00  0.00     0.000 C 
BRANCH  17  18
ATOM     18  C   UNL     1      33.512   3.182   7.458  1.00  0.00     0.000 C 
BRANCH  18  19
ATOM     19  C   UNL     1      34.101   2.074   8.354  1.00  0.00     0.000 C 
BRANCH  19  20
ATOM     20  C   UNL     1      33.246   0.798   8.358  1.00  0.00     0.000 C 
BRANCH  20  21
ATOM     21  C   UNL     1      33.913  -0.369   7.610  1.00  0.00     0.000 C 
BRANCH  21  22
ATOM     22  C   UNL     1      33.400  -0.515   6.169  1.00  0.00    -0.000 C 
BRANCH  22  23
ATOM     23  C   UNL     1      34.521  -0.404   5.124  1.00  0.00    -0.000 C 
BRANCH  23  24
ATOM     24  C   UNL     1      35.895  -0.651   5.766  1.00  0.00    -0.000 C 
BRANCH  24  25
ATOM     25  C   UNL     1      36.790   0.600   5.746  1.00  0.00    -0.000 C 
BRANCH  25  26
ATOM     26  C   UNL     1      37.816   0.606   6.890  1.00  0.00    -0.000 C 
BRANCH  26  27
ATOM     27  C   UNL     1      38.503   1.971   7.068  1.00  0.00    -0.000 C 
BRANCH  27  28
ATOM     28  C   UNL     1      37.595   3.173   6.727  1.00  0.00    -0.000 C 
BRANCH  28  29
ATOM     29  C   UNL     1      37.302   4.047   7.955  1.00  0.00    -0.003 C 
ATOM     30  C   UNL     1      36.556   5.318   7.561  1.00  0.00     0.004 C 
ENDBRANCH  28  29
ENDBRANCH  27  28
ENDBRANCH  26  27
ENDBRANCH  25  26
ENDBRANCH  24  25
ENDBRANCH  23  24
ENDBRANCH  22  23
ENDBRANCH  21  22
ENDBRANCH  20  21
ENDBRANCH  19  20
ENDBRANCH  18  19
ENDBRANCH  17  18
ENDBRANCH   1  17
TORSDOF 26
ENDMDL
MODEL 3
REMARK VINA RESULT:    -5.693      1.625      5.359
REMARK INTER + INTRA:         -19.780
REMARK INTER:                 -13.644
REMARK INTRA:                  -6.136
REMARK UNBOUND:                -5.433
REMARK SMILES CCCCCCCCCCCCCCCCCCCCCCCCCCCC(=O)[O-]
REMARK SMILES IDX 15 1 16 2 17 3 18 4 19 5 20 6 21 7 22 8 23 9 24 10 25 11
REMARK SMILES IDX 26 12 27 13 28 14 29 15 30 16 14 17 13 18 12 19 11 20 10 21
REMARK SMILES IDX 9 22 8 23 7 24 6 25 5 26 4 27 3 28 2 29 1 30
REMARK H PARENT
REMARK Flexibility Score: inf
ROOT
ATOM      1  C   UNL     1      46.037  10.146  -5.517  1.00  0.00     0.000 C 
ENDROOT
BRANCH   1   2
ATOM      2  C   UNL     1      46.887   9.161  -4.702  1.00  0.00     0.000 C 
BRANCH   2   3
ATOM      3  C   UNL     1      46.670   7.719  -5.178  1.00  0.00     0.000 C 
BRANCH   3   4
ATOM      4  C   UNL     1      45.196   7.470  -5.535  1.00  0.00     0.000 C 
BRANCH   4   5
ATOM      5  C   UNL     1      44.597   6.264  -4.779  1.00  0.00     0.000 C 
BRANCH   5   6
ATOM      6  C   UNL     1      45.580   5.583  -3.807  1.00  0.00     0.000 C 
BRANCH   6   7
ATOM      7  C   UNL     1      45.284   5.812  -2.313  1.00  0.00     0.000 C 
BRANCH   7   8
ATOM      8  C   UNL     1      46.146   6.898  -1.636  1.00  0.00     0.000 C 
BRANCH   8   9
ATOM      9  C   UNL     1      45.355   8.053  -0.989  1.00  0.00     0.000 C 
BRANCH   9  10
ATOM     10  C   UNL     1      44.037   8.415  -1.696  1.00  0.00     0.000 C 
BRANCH  10  11
ATOM     11  C   UNL     1      44.142   9.703  -2.526  1.00  0.00     0.000 C 
BRANCH  11  12
ATOM     12  C   UNL     1      42.808  10.019  -3.217  1.00  0.00     0.006 C 
BRANCH  12  13
ATOM     13  C   UNL     1      42.160   8.772  -3.830  1.00  0.00     0.053 C 
BRANCH  13  14
ATOM     14  C   UNL     1      41.640   9.038  -5.210  1.00  0.00     0.041 C 
ATOM     15  O   UNL     1      42.417   9.448  -6.114  1.00  0.00    -0.550 OA
ATOM     16  O   UNL     1      40.293   8.858  -5.491  1.00  0.00    -0.550 OA
ENDBRANCH  13  14
ENDBRANCH  12  13
ENDBRANCH  11  12
ENDBRANCH  10  11
ENDBRANCH   9  10
ENDBRANCH   8   9
ENDBRANCH   7   8
ENDBRANCH   6   7
ENDBRANCH   5   6
ENDBRANCH   4   5
ENDBRANCH   3   4
ENDBRANCH   2   3
ENDBRANCH   1   2
BRANCH   1  17
ATOM     17  C   UNL     1      46.352  11.619  -5.206  1.00  0.00     0.000 C 
BRANCH  17  18
ATOM     18  C   UNL     1      46.890  12.419  -6.412  1.00  0.00     0.000 C 
BRANCH  18  19
ATOM     19  C   UNL     1      45.769  13.110  -7.213  1.00  0.00     0.000 C 
BRANCH  19  20
ATOM     20  C   UNL     1      45.523  12.450  -8.578  1.00  0.00     0.000 C 
BRANCH  20  21
ATOM     21  C   UNL     1      44.223  11.629  -8.618  1.00  0.00     0.000 C 
BRANCH  21  22
ATOM     22  C   UNL     1      44.471  10.151  -8.959  1.00  0.00    -0.000 C 
BRANCH  22  23
ATOM     23  C   UNL     1      45.906   9.883  -9.440  1.00  0.00    -0.000 C 
BRANCH  23  24
ATOM     24  C   UNL     1      46.454   8.583  -8.831  1.00  0.00    -0.000 C 
BRANCH  24  25
ATOM     25  C   UNL     1      47.916   8.716  -8.374  1.00  0.00    -0.000 C 
BRANCH  25  26
ATOM     26  C   UNL     1      48.464  10.139  -8.561  1.00  0.00    -0.000 C 
BRANCH  26  27
ATOM     27  C   UNL     1      49.692  10.427  -7.682  1.00  0.00    -0.000 C 
BRANCH  27  28
ATOM     28  C   UNL     1      49.919   9.379  -6.570  1.00  0.00    -0.000 C 
BRANCH  28  29
ATOM     29  C   UNL     1      50.318  10.026  -5.236  1.00  0.00    -0.003 C 
ATOM     30  C   UNL     1      50.216  11.547  -5.308  1.00  0.00     0.004 C 
ENDBRANCH  28  29
ENDBRANCH  27  28
ENDBRANCH  26  27
ENDBRANCH  25  26
ENDBRANCH  24  25
ENDBRANCH  23  24
ENDBRANCH  22  23
ENDBRANCH  21  22
ENDBRANCH  20  21
ENDBRANCH  19  20
ENDBRANCH  18  19
ENDBRANCH  17  18
ENDBRANCH   1  17
TORSDOF 26
ENDMDL
MODEL 4
REMARK VINA RESULT:    -5.691      2.137      4.297
REMARK INTER + INTRA:         -19.773
REMARK INTER:                 -14.094
REMARK INTRA:                  -5.679
REMARK UNBOUND:                -5.433
REMARK SMILES CCCCCCCCCCCCCCCCCCCCCCCCCCCC(=O)[O-]
REMARK SMILES IDX 15 1 16 2 17 3 18 4 19 5 20 6 21 7 22 8 23 9 24 10 25 11
REMARK SMILES IDX 26 12 27 13 28 14 29 15 30 16 14 17 13 18 12 19 11 20 10 21
REMARK SMILES IDX 9 22 8 23 7 24 6 25 5 26 4 27 3 28 2 29 1 30
REMARK H PARENT
REMARK Flexibility Score: inf
ROOT
ATOM      1  C   UNL     1      47.109  11.889  -5.286  1.00  0.00     0.000 C 
ENDROOT
BRANCH   1   2
ATOM      2  C   UNL     1      48.439  12.344  -4.670  1.00  0.00     0.000 C 
BRANCH   2   3
ATOM      3  C   UNL     1      49.577  11.386  -5.044  1.00  0.00     0.000 C 
BRANCH   3   4
ATOM      4  C   UNL     1      50.312  11.866  -6.306  1.00  0.00     0.000 C 
BRANCH   4   5
ATOM      5  C   UNL     1      50.318  10.807  -7.430  1.00  0.00     0.000 C 
BRANCH   5   6
ATOM      6  C   UNL     1      49.877   9.404  -6.969  1.00  0.00     0.000 C 
BRANCH   6   7
ATOM      7  C   UNL     1      48.812   8.732  -7.855  1.00  0.00     0.000 C 
BRANCH   7   8
ATOM      8  C   UNL     1      47.500   8.361  -7.132  1.00  0.00     0.000 C 
BRANCH   8   9
ATOM      9  C   UNL     1      47.509   8.581  -5.606  1.00  0.00     0.000 C 
BRANCH   9  10
ATOM     10  C   UNL     1      46.299   7.994  -4.857  1.00  0.00     0.000 C 
BRANCH  10  11
ATOM     11  C   UNL     1      45.759   6.715  -5.511  1.00  0.00     0.000 C 
BRANCH  11  12
ATOM     12  C   UNL     1      44.894   5.917  -4.524  1.00  0.00     0.006 C 
BRANCH  12  13
ATOM     13  C   UNL     1      44.562   6.720  -3.261  1.00  0.00     0.053 C 
BRANCH  13  14
ATOM     14  C   UNL     1      45.227   6.145  -2.047  1.00  0.00     0.041 C 
ATOM     15  O   UNL     1      45.304   6.819  -0.985  1.00  0.00    -0.550 OA
ATOM     16  O   UNL     1      45.785   4.875  -2.098  1.00  0.00    -0.550 OA
ENDBRANCH  13  14
ENDBRANCH  12  13
ENDBRANCH  11  12
ENDBRANCH  10  11
ENDBRANCH   9  10
ENDBRANCH   8   9
ENDBRANCH   7   8
ENDBRANCH   6   7
ENDBRANCH   5   6
ENDBRANCH   4   5
ENDBRANCH   3   4
ENDBRANCH   2   3
ENDBRANCH   1   2
BRANCH   1  17
ATOM     17  C   UNL     1      46.276  13.051  -5.856  1.00  0.00     0.000 C 
BRANCH  17  18
ATOM     18  C   UNL     1      46.224  13.095  -7.398  1.00  0.00     0.000 C 
BRANCH  18  19
ATOM     19  C   UNL     1      47.062  11.978  -8.051  1.00  0.00     0.000 C 
BRANCH  19  20
ATOM     20  C   UNL     1      47.448  12.299  -9.503  1.00  0.00     0.000 C 
BRANCH  20  21
ATOM     21  C   UNL     1      47.070  11.174 -10.483  1.00  0.00     0.000 C 
BRANCH  21  22
ATOM     22  C   UNL     1      45.597  10.753 -10.356  1.00  0.00    -0.000 C 
BRANCH  22  23
ATOM     23  C   UNL     1      45.431   9.267 -10.005  1.00  0.00    -0.000 C 
BRANCH  23  24
ATOM     24  C   UNL     1      44.294   9.067  -8.992  1.00  0.00    -0.000 C 
BRANCH  24  25
ATOM     25  C   UNL     1      43.880  10.377  -8.301  1.00  0.00    -0.000 C 
BRANCH  25  26
ATOM     26  C   UNL     1      44.027  10.307  -6.773  1.00  0.00    -0.000 C 
BRANCH  26  27
ATOM     27  C   UNL     1      43.038   9.324  -6.123  1.00  0.00    -0.000 C 
BRANCH  27  28
ATOM     28  C   UNL     1      42.622   9.718  -4.689  1.00  0.00    -0.000 C 
BRANCH  28  29
ATOM     29  C   UNL     1      43.698  10.555  -3.982  1.00  0.00    -0.003 C 
ATOM     30  C   UNL     1      43.079  11.738  -3.243  1.00  0.00     0.004 C 
ENDBRANCH  28  29
ENDBRANCH  27  28
ENDBRANCH  26  27
ENDBRANCH  25  26
ENDBRANCH  24  25
ENDBRANCH  23  24
ENDBRANCH  22  23
ENDBRANCH  21  22
ENDBRANCH  20  21
ENDBRANCH  19  20
ENDBRANCH  18  19
ENDBRANCH  17  18
ENDBRANCH   1  17
TORSDOF 26
ENDMDL
MODEL 5
REMARK VINA RESULT:    -5.668     11.458     16.122
REMARK INTER + INTRA:         -19.716
REMARK INTER:                 -14.493
REMARK INTRA:                  -5.223
REMARK UNBOUND:                -5.433
REMARK SMILES CCCCCCCCCCCCCCCCCCCCCCCCCCCC(=O)[O-]
REMARK SMILES IDX 15 1 16 2 17 3 18 4 19 5 20 6 21 7 22 8 23 9 24 10 25 11
REMARK SMILES IDX 26 12 27 13 28 14 29 15 30 16 14 17 13 18 12 19 11 20 10 21
REMARK SMILES IDX 9 22 8 23 7 24 6 25 5 26 4 27 3 28 2 29 1 30
REMARK H PARENT
REMARK Flexibility Score: inf
ROOT
ATOM      1  C   UNL     1      34.369   0.902   3.134  1.00  0.00     0.000 C 
ENDROOT
BRANCH   1   2
ATOM      2  C   UNL     1      34.602   2.379   3.478  1.00  0.00     0.000 C 
BRANCH   2   3
ATOM      3  C   UNL     1      35.914   2.889   2.866  1.00  0.00     0.000 C 
BRANCH   3   4
ATOM      4  C   UNL     1      36.047   4.411   3.032  1.00  0.00     0.000 C 
BRANCH   4   5
ATOM      5  C   UNL     1      36.522   5.110   1.739  1.00  0.00     0.000 C 
BRANCH   5   6
ATOM      6  C   UNL     1      37.360   6.379   1.986  1.00  0.00     0.000 C 
BRANCH   6   7
ATOM      7  C   UNL     1      38.268   6.330   3.229  1.00  0.00     0.000 C 
BRANCH   7   8
ATOM      8  C   UNL     1      39.745   5.984   2.945  1.00  0.00     0.000 C 
BRANCH   8   9
ATOM      9  C   UNL     1      40.241   4.666   3.575  1.00  0.00     0.000 C 
BRANCH   9  10
ATOM     10  C   UNL     1      39.765   3.387   2.864  1.00  0.00     0.000 C 
BRANCH  10  11
ATOM     11  C   UNL     1      40.123   3.367   1.372  1.00  0.00     0.000 C 
BRANCH  11  12
ATOM     12  C   UNL     1      39.191   2.425   0.597  1.00  0.00     0.006 C 
BRANCH  12  13
ATOM     13  C   UNL     1      39.434   2.479  -0.916  1.00  0.00     0.053 C 
BRANCH  13  14
ATOM     14  C   UNL     1      40.214   1.293  -1.396  1.00  0.00     0.041 C 
ATOM     15  O   UNL     1      39.924   0.743  -2.491  1.00  0.00    -0.550 OA
ATOM     16  O   UNL     1      41.244   0.779  -0.619  1.00  0.00    -0.550 OA
ENDBRANCH  13  14
ENDBRANCH  12  13
ENDBRANCH  11  12
ENDBRANCH  10  11
ENDBRANCH   9  10
ENDBRANCH   8   9
ENDBRANCH   7   8
ENDBRANCH   6   7
ENDBRANCH   5   6
ENDBRANCH   4   5
ENDBRANCH   3   4
ENDBRANCH   2   3
ENDBRANCH   1   2
BRANCH   1  17
ATOM     17  C   UNL     1      34.634  -0.044   4.318  1.00  0.00     0.000 C 
BRANCH  17  18
ATOM     18  C   UNL     1      35.883  -0.935   4.149  1.00  0.00     0.000 C 
BRANCH  18  19
ATOM     19  C   UNL     1      37.087  -0.429   4.968  1.00  0.00     0.000 C 
BRANCH  19  20
ATOM     20  C   UNL     1      36.718  -0.108   6.425  1.00  0.00     0.000 C 
BRANCH  20  21
ATOM     21  C   UNL     1      37.512   1.081   6.992  1.00  0.00     0.000 C 
BRANCH  21  22
ATOM     22  C   UNL     1      38.047   2.011   5.891  1.00  0.00    -0.000 C 
BRANCH  22  23
ATOM     23  C   UNL     1      37.619   3.474   6.087  1.00  0.00    -0.000 C 
BRANCH  23  24
ATOM     24  C   UNL     1      37.330   3.766   7.568  1.00  0.00    -0.000 C 
BRANCH  24  25
ATOM     25  C   UNL     1      36.287   4.880   7.758  1.00  0.00    -0.000 C 
BRANCH  25  26
ATOM     26  C   UNL     1      35.240   4.902   6.633  1.00  0.00    -0.000 C 
BRANCH  26  27
ATOM     27  C   UNL     1      33.942   4.169   7.011  1.00  0.00    -0.000 C 
BRANCH  27  28
ATOM     28  C   UNL     1      34.050   2.631   6.925  1.00  0.00    -0.000 C 
BRANCH  28  29
ATOM     29  C   UNL     1      33.890   1.960   8.297  1.00  0.00    -0.003 C 
ATOM     30  C   UNL     1      33.479   0.497   8.151  1.00  0.00     0.004 C 
ENDBRANCH  28  29
ENDBRANCH  27  28
ENDBRANCH  26  27
ENDBRANCH  25  26
ENDBRANCH  24  25
ENDBRANCH  23  24
ENDBRANCH  22  23
ENDBRANCH  21  22
ENDBRANCH  20  21
ENDBRANCH  19  20
ENDBRANCH  18  19
ENDBRANCH  17  18
ENDBRANCH   1  17
TORSDOF 26
ENDMDL
MODEL 6
REMARK VINA RESULT:    -5.666     12.064     16.799
REMARK INTER + INTRA:         -19.711
REMARK INTER:                 -14.416
REMARK INTRA:                  -5.295
REMARK UNBOUND:                -5.433
REMARK SMILES CCCCCCCCCCCCCCCCCCCCCCCCCCCC(=O)[O-]
REMARK SMILES IDX 15 1 16 2 17 3 18 4 19 5 20 6 21 7 22 8 23 9 24 10 25 11
REMARK SMILES IDX 26 12 27 13 28 14 29 15 30 16 14 17 13 18 12 19 11 20 10 21
REMARK SMILES IDX 9 22 8 23 7 24 6 25 5 26 4 27 3 28 2 29 1 30
REMARK H PARENT
REMARK Flexibility Score: inf
ROOT
ATOM      1  C   UNL     1      35.613   0.127   2.817  1.00  0.00     0.000 C 
ENDROOT
BRANCH   1   2
ATOM      2  C   UNL     1      36.022  -0.945   3.836  1.00  0.00     0.000 C 
BRANCH   2   3
ATOM      3  C   UNL     1      37.261  -0.510   4.629  1.00  0.00     0.000 C 
BRANCH   3   4
ATOM      4  C   UNL     1      36.918  -0.276   6.108  1.00  0.00     0.000 C 
BRANCH   4   5
ATOM      5  C   UNL     1      38.008   0.525   6.852  1.00  0.00     0.000 C 
BRANCH   5   6
ATOM      6  C   UNL     1      37.555   1.925   7.308  1.00  0.00     0.000 C 
BRANCH   6   7
ATOM      7  C   UNL     1      37.793   3.053   6.287  1.00  0.00     0.000 C 
BRANCH   7   8
ATOM      8  C   UNL     1      36.952   4.326   6.512  1.00  0.00     0.000 C 
BRANCH   8   9
ATOM      9  C   UNL     1      36.708   4.698   7.989  1.00  0.00     0.000 C 
BRANCH   9  10
ATOM     10  C   UNL     1      35.228   4.844   8.387  1.00  0.00     0.000 C 
BRANCH  10  11
ATOM     11  C   UNL     1      34.281   4.090   7.442  1.00  0.00     0.000 C 
BRANCH  11  12
ATOM     12  C   UNL     1      33.965   2.690   7.986  1.00  0.00     0.006 C 
BRANCH  12  13
ATOM     13  C   UNL     1      33.959   1.625   6.883  1.00  0.00     0.053 C 
BRANCH  13  14
ATOM     14  C   UNL     1      33.530   0.287   7.405  1.00  0.00     0.041 C 
ATOM     15  O   UNL     1      33.320   0.123   8.636  1.00  0.00    -0.550 OA
ATOM     16  O   UNL     1      33.386  -0.784   6.534  1.00  0.00    -0.550 OA
ENDBRANCH  13  14
ENDBRANCH  12  13
ENDBRANCH  11  12
ENDBRANCH  10  11
ENDBRANCH   9  10
ENDBRANCH   8   9
ENDBRANCH   7   8
ENDBRANCH   6   7
ENDBRANCH   5   6
ENDBRANCH   4   5
ENDBRANCH   3   4
ENDBRANCH   2   3
ENDBRANCH   1   2
BRANCH   1  17
ATOM     17  C   UNL     1      34.236   0.747   3.111  1.00  0.00     0.000 C 
BRANCH  17  18
ATOM     18  C   UNL     1      34.288   2.227   3.548  1.00  0.00     0.000 C 
BRANCH  18  19
ATOM     19  C   UNL     1      35.667   2.870   3.298  1.00  0.00     0.000 C 
BRANCH  19  20
ATOM     20  C   UNL     1      35.589   4.100   2.381  1.00  0.00     0.000 C 
BRANCH  20  21
ATOM     21  C   UNL     1      36.411   5.289   2.908  1.00  0.00     0.000 C 
BRANCH  21  22
ATOM     22  C   UNL     1      37.363   5.863   1.847  1.00  0.00    -0.000 C 
BRANCH  22  23
ATOM     23  C   UNL     1      38.807   6.001   2.354  1.00  0.00    -0.000 C 
BRANCH  23  24
ATOM     24  C   UNL     1      39.080   5.017   3.503  1.00  0.00    -0.000 C 
BRANCH  24  25
ATOM     25  C   UNL     1      40.534   4.516   3.518  1.00  0.00    -0.000 C 
BRANCH  25  26
ATOM     26  C   UNL     1      40.661   3.068   3.019  1.00  0.00    -0.000 C 
BRANCH  26  27
ATOM     27  C   UNL     1      39.332   2.297   3.080  1.00  0.00    -0.000 C 
BRANCH  27  28
ATOM     28  C   UNL     1      38.693   2.050   1.695  1.00  0.00    -0.000 C 
BRANCH  28  29
ATOM     29  C   UNL     1      39.739   2.014   0.572  1.00  0.00    -0.003 C 
ATOM     30  C   UNL     1      39.419   3.041  -0.512  1.00  0.00     0.004 C 
ENDBRANCH  28  29
ENDBRANCH  27  28
ENDBRANCH  26  27
ENDBRANCH  25  26
ENDBRANCH  24  25
ENDBRANCH  23  24
ENDBRANCH  22  23
ENDBRANCH  21  22
ENDBRANCH  20  21
ENDBRANCH  19  20
ENDBRANCH  18  19
ENDBRANCH  17  18
ENDBRANCH   1  17
TORSDOF 26
ENDMDL
MODEL 7
REMARK VINA RESULT:    -5.649      2.663      5.940
REMARK INTER + INTRA:         -19.667
REMARK INTER:                 -13.973
REMARK INTRA:                  -5.694
REMARK UNBOUND:                -5.433
REMARK SMILES CCCCCCCCCCCCCCCCCCCCCCCCCCCC(=O)[O-]
REMARK SMILES IDX 15 1 16 2 17 3 18 4 19 5 20 6 21 7 22 8 23 9 24 10 25 11
REMARK SMILES IDX 26 12 27 13 28 14 29 15 30 16 14 17 13 18 12 19 11 20 10 21
REMARK SMILES IDX 9 22 8 23 7 24 6 25 5 26 4 27 3 28 2 29 1 30
REMARK H PARENT
REMARK Flexibility Score: inf
ROOT
ATOM      1  C   UNL     1      47.375   7.367  -7.475  1.00  0.00     0.000 C 
ENDROOT
BRANCH   1   2
ATOM      2  C   UNL     1      48.566   8.092  -8.118  1.00  0.00     0.000 C 
BRANCH   2   3
ATOM      3  C   UNL     1      48.221   9.555  -8.426  1.00  0.00     0.000 C 
BRANCH   3   4
ATOM      4  C   UNL     1      49.254  10.509  -7.805  1.00  0.00     0.000 C 
BRANCH   4   5
ATOM      5  C   UNL     1      50.319   9.768  -6.968  1.00  0.00     0.000 C 
BRANCH   5   6
ATOM      6  C   UNL     1      50.212  10.021  -5.452  1.00  0.00     0.000 C 
BRANCH   6   7
ATOM      7  C   UNL     1      49.032   9.320  -4.754  1.00  0.00     0.000 C 
BRANCH   7   8
ATOM      8  C   UNL     1      47.840  10.236  -4.407  1.00  0.00     0.000 C 
BRANCH   8   9
ATOM      9  C   UNL     1      48.117  11.747  -4.532  1.00  0.00     0.000 C 
BRANCH   9  10
ATOM     10  C   UNL     1      47.093  12.529  -5.373  1.00  0.00     0.000 C 
BRANCH  10  11
ATOM     11  C   UNL     1      45.748  11.801  -5.501  1.00  0.00     0.000 C 
BRANCH  11  12
ATOM     12  C   UNL     1      45.297  11.735  -6.967  1.00  0.00     0.006 C 
BRANCH  12  13
ATOM     13  C   UNL     1      46.066  12.718  -7.858  1.00  0.00     0.053 C 
BRANCH  13  14
ATOM     14  C   UNL     1      45.951  12.361  -9.308  1.00  0.00     0.041 C 
ATOM     15  O   UNL     1      44.836  12.033  -9.795  1.00  0.00    -0.550 OA
ATOM     16  O   UNL     1      47.080  12.365 -10.116  1.00  0.00    -0.550 OA
ENDBRANCH  13  14
ENDBRANCH  12  13
ENDBRANCH  11  12
ENDBRANCH  10  11
ENDBRANCH   9  10
ENDBRANCH   8   9
ENDBRANCH   7   8
ENDBRANCH   6   7
ENDBRANCH   5   6
ENDBRANCH   4   5
ENDBRANCH   3   4
ENDBRANCH   2   3
ENDBRANCH   1   2
BRANCH   1  17
ATOM     17  C   UNL     1      46.183   8.297  -7.190  1.00  0.00     0.000 C 
BRANCH  17  18
ATOM     18  C   UNL     1      45.378   7.925  -5.926  1.00  0.00     0.000 C 
BRANCH  18  19
ATOM     19  C   UNL     1      45.836   6.591  -5.304  1.00  0.00     0.000 C 
BRANCH  19  20
ATOM     20  C   UNL     1      44.808   6.013  -4.319  1.00  0.00     0.000 C 
BRANCH  20  21
ATOM     21  C   UNL     1      45.452   5.505  -3.018  1.00  0.00     0.000 C 
BRANCH  21  22
ATOM     22  C   UNL     1      45.469   6.573  -1.913  1.00  0.00    -0.000 C 
BRANCH  22  23
ATOM     23  C   UNL     1      44.173   7.397  -1.862  1.00  0.00    -0.000 C 
BRANCH  23  24
ATOM     24  C   UNL     1      44.475   8.877  -1.581  1.00  0.00    -0.000 C 
BRANCH  24  25
ATOM     25  C   UNL     1      44.466   9.735  -2.857  1.00  0.00    -0.000 C 
BRANCH  25  26
ATOM     26  C   UNL     1      43.276  10.706  -2.904  1.00  0.00    -0.000 C 
BRANCH  26  27
ATOM     27  C   UNL     1      42.029  10.092  -3.561  1.00  0.00    -0.000 C 
BRANCH  27  28
ATOM     28  C   UNL     1      42.309   9.431  -4.928  1.00  0.00    -0.000 C 
BRANCH  28  29
ATOM     29  C   UNL     1      41.441   8.186  -5.160  1.00  0.00    -0.003 C 
ATOM     30  C   UNL     1      41.055   7.529  -3.837  1.00  0.00     0.004 C 
ENDBRANCH  28  29
ENDBRANCH  27  28
ENDBRANCH  26  27
ENDBRANCH  25  26
ENDBRANCH  24  25
ENDBRANCH  23  24
ENDBRANCH  22  23
ENDBRANCH  21  22
ENDBRANCH  20  21
ENDBRANCH  19  20
ENDBRANCH  18  19
ENDBRANCH  17  18
ENDBRANCH   1  17
TORSDOF 26
ENDMDL
MODEL 8
REMARK VINA RESULT:    -5.647      2.815      5.319
REMARK INTER + INTRA:         -19.664
REMARK INTER:                 -13.925
REMARK INTRA:                  -5.739
REMARK UNBOUND:                -5.433
REMARK SMILES CCCCCCCCCCCCCCCCCCCCCCCCCCCC(=O)[O-]
REMARK SMILES IDX 15 1 16 2 17 3 18 4 19 5 20 6 21 7 22 8 23 9 24 10 25 11
REMARK SMILES IDX 26 12 27 13 28 14 29 15 30 16 14 17 13 18 12 19 11 20 10 21
REMARK SMILES IDX 9 22 8 23 7 24 6 25 5 26 4 27 3 28 2 29 1 30
REMARK H PARENT
REMARK Flexibility Score: inf
ROOT
ATOM      1  C   UNL     1      45.391  12.186  -5.303  1.00  0.00     0.000 C 
ENDROOT
BRANCH   1   2
ATOM      2  C   UNL     1      46.908  12.002  -5.446  1.00  0.00     0.000 C 
BRANCH   2   3
ATOM      3  C   UNL     1      47.370  12.314  -6.876  1.00  0.00     0.000 C 
BRANCH   3   4
ATOM      4  C   UNL     1      46.228  12.921  -7.706  1.00  0.00     0.000 C 
BRANCH   4   5
ATOM      5  C   UNL     1      46.211  12.403  -9.161  1.00  0.00     0.000 C 
BRANCH   5   6
ATOM      6  C   UNL     1      44.824  11.940  -9.645  1.00  0.00     0.000 C 
BRANCH   6   7
ATOM      7  C   UNL     1      43.918  11.341  -8.552  1.00  0.00     0.000 C 
BRANCH   7   8
ATOM      8  C   UNL     1      44.107   9.831  -8.303  1.00  0.00     0.000 C 
BRANCH   8   9
ATOM      9  C   UNL     1      44.759   9.051  -9.463  1.00  0.00     0.000 C 
BRANCH   9  10
ATOM     10  C   UNL     1      46.181   8.534  -9.181  1.00  0.00     0.000 C 
BRANCH  10  11
ATOM     11  C   UNL     1      46.704   8.956  -7.801  1.00  0.00     0.000 C 
BRANCH  11  12
ATOM     12  C   UNL     1      47.917   8.108  -7.392  1.00  0.00     0.006 C 
BRANCH  12  13
ATOM     13  C   UNL     1      49.134   8.968  -7.030  1.00  0.00     0.053 C 
BRANCH  13  14
ATOM     14  C   UNL     1      49.302   9.094  -5.546  1.00  0.00     0.041 C 
ATOM     15  O   UNL     1      50.361   9.579  -5.066  1.00  0.00    -0.550 OA
ATOM     16  O   UNL     1      48.299   8.652  -4.694  1.00  0.00    -0.550 OA
ENDBRANCH  13  14
ENDBRANCH  12  13
ENDBRANCH  11  12
ENDBRANCH  10  11
ENDBRANCH   9  10
ENDBRANCH   8   9
ENDBRANCH   7   8
ENDBRANCH   6   7
ENDBRANCH   5   6
ENDBRANCH   4   5
ENDBRANCH   3   4
ENDBRANCH   2   3
ENDBRANCH   1   2
BRANCH   1  17
ATOM     17  C   UNL     1      44.677  10.932  -4.768  1.00  0.00     0.000 C 
BRANCH  17  18
ATOM     18  C   UNL     1      43.553  11.229  -3.752  1.00  0.00     0.000 C 
BRANCH  18  19
ATOM     19  C   UNL     1      43.500  10.196  -2.609  1.00  0.00     0.000 C 
BRANCH  19  20
ATOM     20  C   UNL     1      44.825   9.439  -2.433  1.00  0.00     0.000 C 
BRANCH  20  21
ATOM     21  C   UNL     1      44.850   8.570  -1.164  1.00  0.00     0.000 C 
BRANCH  21  22
ATOM     22  C   UNL     1      44.617   7.081  -1.466  1.00  0.00    -0.000 C 
BRANCH  22  23
ATOM     23  C   UNL     1      45.781   6.442  -2.240  1.00  0.00    -0.000 C 
BRANCH  23  24
ATOM     24  C   UNL     1      45.264   5.649  -3.450  1.00  0.00    -0.000 C 
BRANCH  24  25
ATOM     25  C   UNL     1      45.722   6.249  -4.789  1.00  0.00    -0.000 C 
BRANCH  25  26
ATOM     26  C   UNL     1      44.748   7.313  -5.321  1.00  0.00    -0.000 C 
BRANCH  26  27
ATOM     27  C   UNL     1      43.291   7.045  -4.911  1.00  0.00    -0.000 C 
BRANCH  27  28
ATOM     28  C   UNL     1      42.271   7.984  -5.592  1.00  0.00    -0.000 C 
BRANCH  28  29
ATOM     29  C   UNL     1      41.121   8.371  -4.652  1.00  0.00    -0.003 C 
ATOM     30  C   UNL     1      41.066   7.447  -3.438  1.00  0.00     0.004 C 
ENDBRANCH  28  29
ENDBRANCH  27  28
ENDBRANCH  26  27
ENDBRANCH  25  26
ENDBRANCH  24  25
ENDBRANCH  23  24
ENDBRANCH  22  23
ENDBRANCH  21  22
ENDBRANCH  20  21
ENDBRANCH  19  20
ENDBRANCH  18  19
ENDBRANCH  17  18
ENDBRANCH   1  17
TORSDOF 26
ENDMDL
MODEL 9
REMARK VINA RESULT:    -5.632      2.447      5.580
REMARK INTER + INTRA:         -19.625
REMARK INTER:                 -14.359
REMARK INTRA:                  -5.266
REMARK UNBOUND:                -5.433
REMARK SMILES CCCCCCCCCCCCCCCCCCCCCCCCCCCC(=O)[O-]
REMARK SMILES IDX 15 1 16 2 17 3 18 4 19 5 20 6 21 7 22 8 23 9 24 10 25 11
REMARK SMILES IDX 26 12 27 13 28 14 29 15 30 16 14 17 13 18 12 19 11 20 10 21
REMARK SMILES IDX 9 22 8 23 7 24 6 25 5 26 4 27 3 28 2 29 1 30
REMARK H PARENT
REMARK Flexibility Score: inf
ROOT
ATOM      1  C   UNL     1      49.447  10.268  -5.242  1.00  0.00     0.000 C 
ENDROOT
BRANCH   1   2
ATOM      2  C   UNL     1      49.439  11.798  -5.117  1.00  0.00     0.000 C 
BRANCH   2   3
ATOM      3  C   UNL     1      48.040  12.315  -4.755  1.00  0.00     0.000 C 
BRANCH   3   4
ATOM      4  C   UNL     1      46.996  11.191  -4.837  1.00  0.00     0.000 C 
BRANCH   4   5
ATOM      5  C   UNL     1      45.570  11.722  -5.096  1.00  0.00     0.000 C 
BRANCH   5   6
ATOM      6  C   UNL     1      44.452  10.751  -4.669  1.00  0.00     0.000 C 
BRANCH   6   7
ATOM      7  C   UNL     1      43.827   9.932  -5.813  1.00  0.00     0.000 C 
BRANCH   7   8
ATOM      8  C   UNL     1      42.722   8.945  -5.382  1.00  0.00     0.000 C 
BRANCH   8   9
ATOM      9  C   UNL     1      43.223   7.669  -4.677  1.00  0.00     0.000 C 
BRANCH   9  10
ATOM     10  C   UNL     1      44.584   7.145  -5.169  1.00  0.00     0.000 C 
BRANCH  10  11
ATOM     11  C   UNL     1      45.711   7.372  -4.152  1.00  0.00     0.000 C 
BRANCH  11  12
ATOM     12  C   UNL     1      45.168   7.346  -2.716  1.00  0.00     0.006 C 
BRANCH  12  13
ATOM     13  C   UNL     1      46.282   7.472  -1.670  1.00  0.00     0.053 C 
BRANCH  13  14
ATOM     14  C   UNL     1      46.312   6.291  -0.748  1.00  0.00     0.041 C 
ATOM     15  O   UNL     1      46.994   6.330   0.311  1.00  0.00    -0.550 OA
ATOM     16  O   UNL     1      45.608   5.140  -1.071  1.00  0.00    -0.550 OA
ENDBRANCH  13  14
ENDBRANCH  12  13
ENDBRANCH  11  12
ENDBRANCH  10  11
ENDBRANCH   9  10
ENDBRANCH   8   9
ENDBRANCH   7   8
ENDBRANCH   6   7
ENDBRANCH   5   6
ENDBRANCH   4   5
ENDBRANCH   3   4
ENDBRANCH   2   3
ENDBRANCH   1   2
BRANCH   1  17
ATOM     17  C   UNL     1      50.206   9.766  -6.483  1.00  0.00     0.000 C 
BRANCH  17  18
ATOM     18  C   UNL     1      49.331   8.986  -7.487  1.00  0.00     0.000 C 
BRANCH  18  19
ATOM     19  C   UNL     1      48.044   8.431  -6.845  1.00  0.00     0.000 C 
BRANCH  19  20
ATOM     20  C   UNL     1      47.062   7.865  -7.882  1.00  0.00     0.000 C 
BRANCH  20  21
ATOM     21  C   UNL     1      45.971   8.874  -8.281  1.00  0.00     0.000 C 
BRANCH  21  22
ATOM     22  C   UNL     1      45.562   8.745  -9.757  1.00  0.00    -0.000 C 
BRANCH  22  23
ATOM     23  C   UNL     1      44.414   9.692 -10.142  1.00  0.00    -0.000 C 
BRANCH  23  24
ATOM     24  C   UNL     1      44.349  10.891  -9.184  1.00  0.00    -0.000 C 
BRANCH  24  25
ATOM     25  C   UNL     1      45.206  12.076  -9.661  1.00  0.00    -0.000 C 
BRANCH  25  26
ATOM     26  C   UNL     1      45.993  12.730  -8.514  1.00  0.00    -0.000 C 
BRANCH  26  27
ATOM     27  C   UNL     1      47.418  12.169  -8.372  1.00  0.00    -0.000 C 
BRANCH  27  28
ATOM     28  C   UNL     1      48.014  11.644  -9.697  1.00  0.00    -0.000 C 
BRANCH  28  29
ATOM     29  C   UNL     1      49.403  12.233  -9.982  1.00  0.00    -0.003 C 
ATOM     30  C   UNL     1      50.093  12.666  -8.691  1.00  0.00     0.004 C 
ENDBRANCH  28  29
ENDBRANCH  27  28
ENDBRANCH  26  27
ENDBRANCH  25  26
ENDBRANCH  24  25
ENDBRANCH  23  24
ENDBRANCH  22  23
ENDBRANCH  21  22
ENDBRANCH  20  21
ENDBRANCH  19  20
ENDBRANCH  18  19
ENDBRANCH  17  18
ENDBRANCH   1  17
TORSDOF 26
ENDMDL
