MODEL 1
REMARK VINA RESULT:    -4.138      0.000      0.000
REMARK INTER + INTRA:          -5.083
REMARK INTER:                  -4.985
REMARK INTRA:                  -0.098
REMARK UNBOUND:                -0.098
REMARK SMILES CC[C@@H](C)[C@@H]([NH3+])C(=O)[O-]
REMARK SMILES IDX 3 1 4 2 5 3 6 4 7 8 8 9 9 10 2 11 1 12
REMARK H PARENT 6 5 6 6 6 7
REMARK Flexibility Score: inf
ROOT
ATOM      1  C   UNL     1      21.978  -9.364 -20.445  1.00  0.00     0.050 C 
ATOM      2  C   UNL     1      22.090 -10.032 -21.828  1.00  0.00     0.014 C 
ENDROOT
BRANCH   1   3
ATOM      3  C   UNL     1      20.605  -8.639 -20.284  1.00  0.00     0.230 C 
BRANCH   3   4
ATOM      4  N   UNL     1      20.086  -8.696 -18.908  1.00  0.00    -0.350 N 
ATOM      5  H   UNL     1      20.427  -7.891 -18.337  1.00  0.00     0.345 HD
ATOM      6  H   UNL     1      19.040  -8.670 -18.930  1.00  0.00     0.345 HD
ATOM      7  H   UNL     1      20.370  -9.590 -18.449  1.00  0.00     0.345 HD
ENDBRANCH   3   4
BRANCH   3   8
ATOM      8  C   UNL     1      20.685  -7.214 -20.776  1.00  0.00     0.099 C 
ATOM      9  O   UNL     1      21.170  -6.303 -20.051  1.00  0.00    -0.544 OA
ATOM     10  O   UNL     1      20.260  -6.906 -22.063  1.00  0.00    -0.544 OA
ENDBRANCH   3   8
ENDBRANCH   1   3
BRANCH   1  11
ATOM     11  C   UNL     1      22.262 -10.378 -19.308  1.00  0.00     0.006 C 
ATOM     12  C   UNL     1      21.844 -11.804 -19.670  1.00  0.00     0.004 C 
ENDBRANCH   1  11
TORSDOF 4
ENDMDL
MODEL 2
REMARK VINA RESULT:    -4.118      2.445      3.184
REMARK INTER + INTRA:          -5.058
REMARK INTER:                  -5.063
REMARK INTRA:                   0.005
REMARK UNBOUND:                -0.098
REMARK SMILES CC[C@@H](C)[C@@H]([NH3+])C(=O)[O-]
REMARK SMILES IDX 3 1 4 2 5 3 6 4 7 8 8 9 9 10 2 11 1 12
REMARK H PARENT 6 5 6 6 6 7
REMARK Flexibility Score: inf
ROOT
ATOM      1  C   UNL     1      21.968  -9.244 -21.624  1.00  0.00     0.050 C 
ATOM      2  C   UNL     1      20.990  -8.058 -21.710  1.00  0.00     0.014 C 
ENDROOT
BRANCH   1   3
ATOM      3  C   UNL     1      22.649  -9.307 -20.221  1.00  0.00     0.230 C 
BRANCH   3   4
ATOM      4  N   UNL     1      23.125  -7.994 -19.756  1.00  0.00    -0.350 N 
ATOM      5  H   UNL     1      23.282  -7.989 -18.723  1.00  0.00     0.345 HD
ATOM      6  H   UNL     1      24.028  -7.763 -20.231  1.00  0.00     0.345 HD
ATOM      7  H   UNL     1      22.437  -7.249 -20.005  1.00  0.00     0.345 HD
ENDBRANCH   3   4
BRANCH   3   8
ATOM      8  C   UNL     1      21.733  -9.945 -19.203  1.00  0.00     0.099 C 
ATOM      9  O   UNL     1      22.007 -11.068 -18.699  1.00  0.00    -0.544 OA
ATOM     10  O   UNL     1      20.597  -9.267 -18.779  1.00  0.00    -0.544 OA
ENDBRANCH   3   8
ENDBRANCH   1   3
BRANCH   1  11
ATOM     11  C   UNL     1      21.275 -10.573 -22.019  1.00  0.00     0.006 C 
ATOM     12  C   UNL     1      22.258 -11.615 -22.553  1.00  0.00     0.004 C 
ENDBRANCH   1  11
TORSDOF 4
ENDMDL
MODEL 3
REMARK VINA RESULT:    -4.097      8.547      9.279
REMARK INTER + INTRA:          -5.034
REMARK INTER:                  -4.881
REMARK INTRA:                  -0.153
REMARK UNBOUND:                -0.098
REMARK SMILES CC[C@@H](C)[C@@H]([NH3+])C(=O)[O-]
REMARK SMILES IDX 3 1 4 2 5 3 6 4 7 8 8 9 9 10 2 11 1 12
REMARK H PARENT 6 5 6 6 6 7
REMARK Flexibility Score: inf
ROOT
ATOM      1  C   UNL     1      13.262  -9.420 -16.234  1.00  0.00     0.050 C 
ATOM      2  C   UNL     1      12.523  -8.856 -15.006  1.00  0.00     0.014 C 
ENDROOT
BRANCH   1   3
ATOM      3  C   UNL     1      12.470  -9.126 -17.547  1.00  0.00     0.230 C 
BRANCH   3   4
ATOM      4  N   UNL     1      13.182  -8.210 -18.453  1.00  0.00    -0.350 N 
ATOM      5  H   UNL     1      13.259  -8.609 -19.415  1.00  0.00     0.345 HD
ATOM      6  H   UNL     1      12.664  -7.303 -18.508  1.00  0.00     0.345 HD
ATOM      7  H   UNL     1      14.138  -8.006 -18.085  1.00  0.00     0.345 HD
ENDBRANCH   3   4
BRANCH   3   8
ATOM      8  C   UNL     1      12.097 -10.408 -18.253  1.00  0.00     0.099 C 
ATOM      9  O   UNL     1      12.981 -11.240 -18.597  1.00  0.00    -0.544 OA
ATOM     10  O   UNL     1      10.760 -10.701 -18.486  1.00  0.00    -0.544 OA
ENDBRANCH   3   8
ENDBRANCH   1   3
BRANCH   1  11
ATOM     11  C   UNL     1      14.727  -8.916 -16.288  1.00  0.00     0.006 C 
ATOM     12  C   UNL     1      15.730 -10.043 -16.535  1.00  0.00     0.004 C 
ENDBRANCH   1  11
TORSDOF 4
ENDMDL
MODEL 4
REMARK VINA RESULT:    -4.097      2.479      3.540
REMARK INTER + INTRA:          -5.033
REMARK INTER:                  -4.927
REMARK INTRA:                  -0.106
REMARK UNBOUND:                -0.098
REMARK SMILES CC[C@@H](C)[C@@H]([NH3+])C(=O)[O-]
REMARK SMILES IDX 3 1 4 2 5 3 6 4 7 8 8 9 9 10 2 11 1 12
REMARK H PARENT 6 5 6 6 6 7
REMARK Flexibility Score: inf
ROOT
ATOM      1  C   UNL     1      21.500  -9.793 -21.344  1.00  0.00     0.050 C 
ATOM      2  C   UNL     1      21.951 -10.963 -22.238  1.00  0.00     0.014 C 
ENDROOT
BRANCH   1   3
ATOM      3  C   UNL     1      22.310  -9.763 -20.010  1.00  0.00     0.230 C 
BRANCH   3   4
ATOM      4  N   UNL     1      23.123  -8.545 -19.860  1.00  0.00    -0.350 N 
ATOM      5  H   UNL     1      23.179  -8.011 -20.756  1.00  0.00     0.345 HD
ATOM      6  H   UNL     1      22.695  -7.929 -19.131  1.00  0.00     0.345 HD
ATOM      7  H   UNL     1      24.087  -8.789 -19.542  1.00  0.00     0.345 HD
ENDBRANCH   3   4
BRANCH   3   8
ATOM      8  C   UNL     1      21.401  -9.960 -18.820  1.00  0.00     0.099 C 
ATOM      9  O   UNL     1      20.333  -9.300 -18.704  1.00  0.00    -0.544 OA
ATOM     10  O   UNL     1      21.719 -10.914 -17.862  1.00  0.00    -0.544 OA
ENDBRANCH   3   8
ENDBRANCH   1   3
BRANCH   1  11
ATOM     11  C   UNL     1      21.553  -8.447 -22.112  1.00  0.00     0.006 C 
ATOM     12  C   UNL     1      20.395  -7.516 -21.752  1.00  0.00     0.004 C 
ENDBRANCH   1  11
TORSDOF 4
ENDMDL
MODEL 5
REMARK VINA RESULT:    -4.065      1.582      2.190
REMARK INTER + INTRA:          -4.994
REMARK INTER:                  -4.862
REMARK INTRA:                  -0.132
REMARK UNBOUND:                -0.098
REMARK SMILES CC[C@@H](C)[C@@H]([NH3+])C(=O)[O-]
REMARK SMILES IDX 3 1 4 2 5 3 6 4 7 8 8 9 9 10 2 11 1 12
REMARK H PARENT 6 5 6 6 6 7
REMARK Flexibility Score: inf
ROOT
ATOM      1  C   UNL     1      21.016  -9.607 -19.678  1.00  0.00     0.050 C 
ATOM      2  C   UNL     1      20.420  -9.872 -18.283  1.00  0.00     0.014 C 
ENDROOT
BRANCH   1   3
ATOM      3  C   UNL     1      21.660  -8.187 -19.751  1.00  0.00     0.230 C 
BRANCH   3   4
ATOM      4  N   UNL     1      23.124  -8.228 -19.891  1.00  0.00    -0.350 N 
ATOM      5  H   UNL     1      23.423  -7.970 -20.858  1.00  0.00     0.345 HD
ATOM      6  H   UNL     1      23.557  -7.555 -19.217  1.00  0.00     0.345 HD
ATOM      7  H   UNL     1      23.484  -9.181 -19.659  1.00  0.00     0.345 HD
ENDBRANCH   3   4
BRANCH   3   8
ATOM      8  C   UNL     1      21.032  -7.364 -20.851  1.00  0.00     0.099 C 
ATOM      9  O   UNL     1      20.925  -7.820 -22.022  1.00  0.00    -0.544 OA
ATOM     10  O   UNL     1      20.523  -6.104 -20.562  1.00  0.00    -0.544 OA
ENDBRANCH   3   8
ENDBRANCH   1   3
BRANCH   1  11
ATOM     11  C   UNL     1      21.995 -10.735 -20.094  1.00  0.00     0.006 C 
ATOM     12  C   UNL     1      21.839 -11.141 -21.560  1.00  0.00     0.004 C 
ENDBRANCH   1  11
TORSDOF 4
ENDMDL
MODEL 6
REMARK VINA RESULT:    -4.020      9.569     10.297
REMARK INTER + INTRA:          -4.941
REMARK INTER:                  -4.780
REMARK INTRA:                  -0.162
REMARK UNBOUND:                -0.098
REMARK SMILES CC[C@@H](C)[C@@H]([NH3+])C(=O)[O-]
REMARK SMILES IDX 3 1 4 2 5 3 6 4 7 8 8 9 9 10 2 11 1 12
REMARK H PARENT 6 5 6 6 6 7
REMARK Flexibility Score: inf
ROOT
ATOM      1  C   UNL     1      12.007 -10.285 -15.829  1.00  0.00     0.050 C 
ATOM      2  C   UNL     1      11.834 -11.808 -15.683  1.00  0.00     0.014 C 
ENDROOT
BRANCH   1   3
ATOM      3  C   UNL     1      11.884  -9.848 -17.321  1.00  0.00     0.230 C 
BRANCH   3   4
ATOM      4  N   UNL     1      10.533  -9.382 -17.672  1.00  0.00    -0.350 N 
ATOM      5  H   UNL     1       9.833  -9.660 -16.949  1.00  0.00     0.345 HD
ATOM      6  H   UNL     1      10.534  -8.339 -17.750  1.00  0.00     0.345 HD
ATOM      7  H   UNL     1      10.245  -9.767 -18.599  1.00  0.00     0.345 HD
ENDBRANCH   3   4
BRANCH   3   8
ATOM      8  C   UNL     1      12.925  -8.811 -17.670  1.00  0.00     0.099 C 
ATOM      9  O   UNL     1      12.702  -7.941 -18.555  1.00  0.00    -0.544 OA
ATOM     10  O   UNL     1      14.128  -8.783 -16.976  1.00  0.00    -0.544 OA
ENDBRANCH   3   8
ENDBRANCH   1   3
BRANCH   1  11
ATOM     11  C   UNL     1      11.038  -9.518 -14.893  1.00  0.00     0.006 C 
ATOM     12  C   UNL     1      11.732  -8.405 -14.108  1.00  0.00     0.004 C 
ENDBRANCH   1  11
TORSDOF 4
ENDMDL
MODEL 7
REMARK VINA RESULT:    -3.983      9.063      9.759
REMARK INTER + INTRA:          -4.895
REMARK INTER:                  -4.742
REMARK INTRA:                  -0.153
REMARK UNBOUND:                -0.098
REMARK SMILES CC[C@@H](C)[C@@H]([NH3+])C(=O)[O-]
REMARK SMILES IDX 3 1 4 2 5 3 6 4 7 8 8 9 9 10 2 11 1 12
REMARK H PARENT 6 5 6 6 6 7
REMARK Flexibility Score: inf
ROOT
ATOM      1  C   UNL     1      12.146 -10.493 -17.715  1.00  0.00     0.050 C 
ATOM      2  C   UNL     1      12.731 -11.576 -18.640  1.00  0.00     0.014 C 
ENDROOT
BRANCH   1   3
ATOM      3  C   UNL     1      12.974  -9.173 -17.806  1.00  0.00     0.230 C 
BRANCH   3   4
ATOM      4  N   UNL     1      12.196  -8.044 -18.340  1.00  0.00    -0.350 N 
ATOM      5  H   UNL     1      11.258  -7.977 -17.885  1.00  0.00     0.345 HD
ATOM      6  H   UNL     1      12.714  -7.152 -18.168  1.00  0.00     0.345 HD
ATOM      7  H   UNL     1      12.073  -8.144 -19.372  1.00  0.00     0.345 HD
ENDBRANCH   3   4
BRANCH   3   8
ATOM      8  C   UNL     1      13.589  -8.826 -16.471  1.00  0.00     0.099 C 
ATOM      9  O   UNL     1      12.941  -8.976 -15.400  1.00  0.00    -0.544 OA
ATOM     10  O   UNL     1      14.903  -8.379 -16.414  1.00  0.00    -0.544 OA
ENDBRANCH   3   8
ENDBRANCH   1   3
BRANCH   1  11
ATOM     11  C   UNL     1      10.636 -10.277 -17.987  1.00  0.00     0.006 C 
ATOM     12  C   UNL     1       9.801 -10.263 -16.706  1.00  0.00     0.004 C 
ENDBRANCH   1  11
TORSDOF 4
ENDMDL
MODEL 8
REMARK VINA RESULT:    -3.903      9.317     10.014
REMARK INTER + INTRA:          -4.799
REMARK INTER:                  -4.640
REMARK INTRA:                  -0.159
REMARK UNBOUND:                -0.098
REMARK SMILES CC[C@@H](C)[C@@H]([NH3+])C(=O)[O-]
REMARK SMILES IDX 3 1 4 2 5 3 6 4 7 8 8 9 9 10 2 11 1 12
REMARK H PARENT 6 5 6 6 6 7
REMARK Flexibility Score: inf
ROOT
ATOM      1  C   UNL     1      13.579  -9.127 -15.814  1.00  0.00     0.050 C 
ATOM      2  C   UNL     1      14.890  -8.487 -16.306  1.00  0.00     0.014 C 
ENDROOT
BRANCH   1   3
ATOM      3  C   UNL     1      13.556 -10.658 -16.116  1.00  0.00     0.230 C 
BRANCH   3   4
ATOM      4  N   UNL     1      13.868 -11.479 -14.934  1.00  0.00    -0.350 N 
ATOM      5  H   UNL     1      13.886 -12.496 -15.171  1.00  0.00     0.345 HD
ATOM      6  H   UNL     1      14.805 -11.207 -14.559  1.00  0.00     0.345 HD
ATOM      7  H   UNL     1      13.165 -11.311 -14.180  1.00  0.00     0.345 HD
ENDBRANCH   3   4
BRANCH   3   8
ATOM      8  C   UNL     1      12.240 -11.069 -16.732  1.00  0.00     0.099 C 
ATOM      9  O   UNL     1      11.248 -11.360 -16.009  1.00  0.00    -0.544 OA
ATOM     10  O   UNL     1      12.103 -11.084 -18.114  1.00  0.00    -0.544 OA
ENDBRANCH   3   8
ENDBRANCH   1   3
BRANCH   1  11
ATOM     11  C   UNL     1      13.321  -8.802 -14.320  1.00  0.00     0.006 C 
ATOM     12  C   UNL     1      11.870  -8.407 -14.044  1.00  0.00     0.004 C 
ENDBRANCH   1  11
TORSDOF 4
ENDMDL
MODEL 9
REMARK VINA RESULT:    -3.857      9.125      9.642
REMARK INTER + INTRA:          -4.744
REMARK INTER:                  -4.701
REMARK INTRA:                  -0.042
REMARK UNBOUND:                -0.098
REMARK SMILES CC[C@@H](C)[C@@H]([NH3+])C(=O)[O-]
REMARK SMILES IDX 3 1 4 2 5 3 6 4 7 8 8 9 9 10 2 11 1 12
REMARK H PARENT 6 5 6 6 6 7
REMARK Flexibility Score: inf
ROOT
ATOM      1  C   UNL     1      11.896 -11.450 -17.979  1.00  0.00     0.050 C 
ATOM      2  C   UNL     1      12.159 -12.027 -16.575  1.00  0.00     0.014 C 
ENDROOT
BRANCH   1   3
ATOM      3  C   UNL     1      11.732  -9.899 -17.924  1.00  0.00     0.230 C 
BRANCH   3   4
ATOM      4  N   UNL     1      10.345  -9.478 -17.666  1.00  0.00    -0.350 N 
ATOM      5  H   UNL     1      10.205  -9.215 -16.665  1.00  0.00     0.345 HD
ATOM      6  H   UNL     1      10.116  -8.650 -18.263  1.00  0.00     0.345 HD
ATOM      7  H   UNL     1       9.681 -10.244 -17.919  1.00  0.00     0.345 HD
ENDBRANCH   3   4
BRANCH   3   8
ATOM      8  C   UNL     1      12.680  -9.289 -16.919  1.00  0.00     0.099 C 
ATOM      9  O   UNL     1      13.898  -9.119 -17.197  1.00  0.00    -0.544 OA
ATOM     10  O   UNL     1      12.198  -8.865 -15.687  1.00  0.00    -0.544 OA
ENDBRANCH   3   8
ENDBRANCH   1   3
BRANCH   1  11
ATOM     11  C   UNL     1      12.983 -11.906 -18.986  1.00  0.00     0.006 C 
ATOM     12  C   UNL     1      14.179 -12.570 -18.303  1.00  0.00     0.004 C 
ENDBRANCH   1  11
TORSDOF 4
ENDMDL
