MODEL 1
REMARK VINA RESULT:    -4.912      0.000      0.000
REMARK INTER + INTRA:          -5.969
REMARK INTER:                  -5.917
REMARK INTRA:                  -0.052
REMARK UNBOUND:                -0.052
REMARK SMILES OCCc1ccc(O)c(O)c1
REMARK SMILES IDX 3 1 4 2 5 3 6 4 7 5 11 6 9 7 8 8 10 10 2 12 1 13
REMARK H PARENT 8 9 10 11 1 14
REMARK Flexibility Score: inf
ROOT
ATOM      1  C   UNL     1       6.194   8.289   9.986  1.00  0.00     0.064 C 
ENDROOT
BRANCH   1   2
ATOM      2  C   UNL     1       6.631   6.908  10.401  1.00  0.00    -0.042 A 
ATOM      3  C   UNL     1       5.875   5.787  10.029  1.00  0.00     0.008 A 
ATOM      4  C   UNL     1       6.294   4.505  10.389  1.00  0.00     0.050 A 
ATOM      5  C   UNL     1       7.474   4.317  11.116  1.00  0.00     0.157 A 
ATOM      6  C   UNL     1       7.820   6.725  11.121  1.00  0.00     0.054 A 
ATOM      7  C   UNL     1       8.250   5.442  11.485  1.00  0.00     0.157 A 
BRANCH   5   8
ATOM      8  O   UNL     1       7.837   3.009  11.447  1.00  0.00    -0.504 OA
ATOM      9  H   UNL     1       7.220   2.350  11.898  1.00  0.00     0.293 HD
ENDBRANCH   5   8
BRANCH   7  10
ATOM     10  O   UNL     1       9.442   5.334  12.205  1.00  0.00    -0.504 OA
ATOM     11  H   UNL     1       9.510   4.925  13.126  1.00  0.00     0.293 HD
ENDBRANCH   7  10
ENDBRANCH   1   2
BRANCH   1  12
ATOM     12  C   UNL     1       7.375   9.264   9.970  1.00  0.00     0.161 C 
BRANCH  12  13
ATOM     13  O   UNL     1       7.355  10.095  11.099  1.00  0.00    -0.396 OA
ATOM     14  H   UNL     1       7.374   9.497  11.891  1.00  0.00     0.210 HD
ENDBRANCH  12  13
ENDBRANCH   1  12
TORSDOF 5
ENDMDL
MODEL 2
REMARK VINA RESULT:    -4.898      2.273      3.559
REMARK INTER + INTRA:          -5.953
REMARK INTER:                  -5.873
REMARK INTRA:                  -0.080
REMARK UNBOUND:                -0.052
REMARK SMILES OCCc1ccc(O)c(O)c1
REMARK SMILES IDX 3 1 4 2 5 3 6 4 7 5 11 6 9 7 8 8 10 10 2 12 1 13
REMARK H PARENT 8 9 10 11 1 14
REMARK Flexibility Score: inf
ROOT
ATOM      1  C   UNL     1       5.886   5.269   9.559  1.00  0.00     0.064 C 
ENDROOT
BRANCH   1   2
ATOM      2  C   UNL     1       6.588   4.059  10.118  1.00  0.00    -0.042 A 
ATOM      3  C   UNL     1       7.485   4.195  11.187  1.00  0.00     0.008 A 
ATOM      4  C   UNL     1       8.115   3.071  11.724  1.00  0.00     0.050 A 
ATOM      5  C   UNL     1       7.857   1.794  11.212  1.00  0.00     0.157 A 
ATOM      6  C   UNL     1       6.317   2.780   9.608  1.00  0.00     0.054 A 
ATOM      7  C   UNL     1       6.943   1.646  10.141  1.00  0.00     0.157 A 
BRANCH   5   8
ATOM      8  O   UNL     1       8.521   0.711  11.792  1.00  0.00    -0.504 OA
ATOM      9  H   UNL     1       8.053  -0.073  12.223  1.00  0.00     0.293 HD
ENDBRANCH   5   8
BRANCH   7  10
ATOM     10  O   UNL     1       6.629   0.406   9.582  1.00  0.00    -0.504 OA
ATOM     11  H   UNL     1       5.849  -0.164   9.875  1.00  0.00     0.293 HD
ENDBRANCH   7  10
ENDBRANCH   1   2
BRANCH   1  12
ATOM     12  C   UNL     1       6.177   6.517  10.396  1.00  0.00     0.161 C 
BRANCH  12  13
ATOM     13  O   UNL     1       6.271   7.655   9.582  1.00  0.00    -0.396 OA
ATOM     14  H   UNL     1       5.685   8.345   9.989  1.00  0.00     0.210 HD
ENDBRANCH  12  13
ENDBRANCH   1  12
TORSDOF 5
ENDMDL
MODEL 3
REMARK VINA RESULT:    -4.886      2.118      3.289
REMARK INTER + INTRA:          -5.938
REMARK INTER:                  -5.863
REMARK INTRA:                  -0.074
REMARK UNBOUND:                -0.052
REMARK SMILES OCCc1ccc(O)c(O)c1
REMARK SMILES IDX 3 1 4 2 5 3 6 4 7 5 11 6 9 7 8 8 10 10 2 12 1 13
REMARK H PARENT 8 9 10 11 1 14
REMARK Flexibility Score: inf
ROOT
ATOM      1  C   UNL     1       7.888   5.473  11.473  1.00  0.00     0.064 C 
ENDROOT
BRANCH   1   2
ATOM      2  C   UNL     1       7.539   4.080  11.016  1.00  0.00    -0.042 A 
ATOM      3  C   UNL     1       6.612   3.888   9.981  1.00  0.00     0.008 A 
ATOM      4  C   UNL     1       6.309   2.600   9.538  1.00  0.00     0.050 A 
ATOM      5  C   UNL     1       6.928   1.483  10.110  1.00  0.00     0.157 A 
ATOM      6  C   UNL     1       8.171   2.965  11.586  1.00  0.00     0.054 A 
ATOM      7  C   UNL     1       7.875   1.668  11.147  1.00  0.00     0.157 A 
BRANCH   5   8
ATOM      8  O   UNL     1       6.580   0.222   9.624  1.00  0.00    -0.504 OA
ATOM      9  H   UNL     1       5.951  -0.412  10.096  1.00  0.00     0.293 HD
ENDBRANCH   5   8
BRANCH   7  10
ATOM     10  O   UNL     1       8.539   0.604  11.762  1.00  0.00    -0.504 OA
ATOM     11  H   UNL     1       9.184  -0.009  11.285  1.00  0.00     0.293 HD
ENDBRANCH   7  10
ENDBRANCH   1   2
BRANCH   1  12
ATOM     12  C   UNL     1       7.012   6.521  10.781  1.00  0.00     0.161 C 
BRANCH  12  13
ATOM     13  O   UNL     1       7.644   7.773  10.770  1.00  0.00    -0.396 OA
ATOM     14  H   UNL     1       6.923   8.455  10.784  1.00  0.00     0.210 HD
ENDBRANCH  12  13
ENDBRANCH   1  12
TORSDOF 5
ENDMDL
MODEL 4
REMARK VINA RESULT:    -4.836      1.650      4.672
REMARK INTER + INTRA:          -5.877
REMARK INTER:                  -5.787
REMARK INTRA:                  -0.091
REMARK UNBOUND:                -0.052
REMARK SMILES OCCc1ccc(O)c(O)c1
REMARK SMILES IDX 3 1 4 2 5 3 6 4 7 5 11 6 9 7 8 8 10 10 2 12 1 13
REMARK H PARENT 8 9 10 11 1 14
REMARK Flexibility Score: inf
ROOT
ATOM      1  C   UNL     1       8.065   2.868  11.466  1.00  0.00     0.064 C 
ENDROOT
BRANCH   1   2
ATOM      2  C   UNL     1       7.556   4.226  11.056  1.00  0.00    -0.042 A 
ATOM      3  C   UNL     1       6.362   4.343  10.332  1.00  0.00     0.008 A 
ATOM      4  C   UNL     1       5.875   5.602   9.976  1.00  0.00     0.050 A 
ATOM      5  C   UNL     1       6.564   6.764  10.342  1.00  0.00     0.157 A 
ATOM      6  C   UNL     1       8.246   5.388  11.435  1.00  0.00     0.054 A 
ATOM      7  C   UNL     1       7.765   6.655  11.084  1.00  0.00     0.157 A 
BRANCH   5   8
ATOM      8  O   UNL     1       6.025   7.993   9.954  1.00  0.00    -0.504 OA
ATOM      9  H   UNL     1       6.374   8.543   9.182  1.00  0.00     0.293 HD
ENDBRANCH   5   8
BRANCH   7  10
ATOM     10  O   UNL     1       8.504   7.768  11.491  1.00  0.00    -0.504 OA
ATOM     11  H   UNL     1       8.119   8.539  12.019  1.00  0.00     0.293 HD
ENDBRANCH   7  10
ENDBRANCH   1   2
BRANCH   1  12
ATOM     12  C   UNL     1       7.637   1.789  10.467  1.00  0.00     0.161 C 
BRANCH  12  13
ATOM     13  O   UNL     1       6.942   0.757  11.112  1.00  0.00    -0.396 OA
ATOM     14  H   UNL     1       7.602   0.282  11.680  1.00  0.00     0.210 HD
ENDBRANCH  12  13
ENDBRANCH   1  12
TORSDOF 5
ENDMDL
MODEL 5
REMARK VINA RESULT:    -4.656      2.826      5.578
REMARK INTER + INTRA:          -5.661
REMARK INTER:                  -5.605
REMARK INTRA:                  -0.055
REMARK UNBOUND:                -0.052
REMARK SMILES OCCc1ccc(O)c(O)c1
REMARK SMILES IDX 3 1 4 2 5 3 6 4 7 5 11 6 9 7 8 8 10 10 2 12 1 13
REMARK H PARENT 8 9 10 11 1 14
REMARK Flexibility Score: inf
ROOT
ATOM      1  C   UNL     1       8.507   0.741  11.586  1.00  0.00     0.064 C 
ENDROOT
BRANCH   1   2
ATOM      2  C   UNL     1       7.873   1.989  11.027  1.00  0.00    -0.042 A 
ATOM      3  C   UNL     1       6.907   1.898  10.015  1.00  0.00     0.008 A 
ATOM      4  C   UNL     1       6.299   3.052   9.517  1.00  0.00     0.050 A 
ATOM      5  C   UNL     1       6.637   4.312  10.021  1.00  0.00     0.157 A 
ATOM      6  C   UNL     1       8.208   3.249  11.544  1.00  0.00     0.054 A 
ATOM      7  C   UNL     1       7.603   4.413  11.052  1.00  0.00     0.157 A 
BRANCH   5   8
ATOM      8  O   UNL     1       5.995   5.427   9.478  1.00  0.00    -0.504 OA
ATOM      9  H   UNL     1       6.317   5.921   8.659  1.00  0.00     0.293 HD
ENDBRANCH   5   8
BRANCH   7  10
ATOM     10  O   UNL     1       7.987   5.634  11.610  1.00  0.00    -0.504 OA
ATOM     11  H   UNL     1       8.719   5.733  12.299  1.00  0.00     0.293 HD
ENDBRANCH   7  10
ENDBRANCH   1   2
BRANCH   1  12
ATOM     12  C   UNL     1       9.769   0.362  10.806  1.00  0.00     0.161 C 
BRANCH  12  13
ATOM     13  O   UNL     1      10.793  -0.041  11.676  1.00  0.00    -0.396 OA
ATOM     14  H   UNL     1      10.374  -0.635  12.351  1.00  0.00     0.210 HD
ENDBRANCH  12  13
ENDBRANCH   1  12
TORSDOF 5
ENDMDL
MODEL 6
REMARK VINA RESULT:    -4.448     10.623     13.128
REMARK INTER + INTRA:          -5.410
REMARK INTER:                  -5.343
REMARK INTRA:                  -0.067
REMARK UNBOUND:                -0.052
REMARK SMILES OCCc1ccc(O)c(O)c1
REMARK SMILES IDX 3 1 4 2 5 3 6 4 7 5 11 6 9 7 8 8 10 10 2 12 1 13
REMARK H PARENT 8 9 10 11 1 14
REMARK Flexibility Score: inf
ROOT
ATOM      1  C   UNL     1       9.329  -5.263  19.367  1.00  0.00     0.064 C 
ENDROOT
BRANCH   1   2
ATOM      2  C   UNL     1       8.970  -3.926  18.770  1.00  0.00    -0.042 A 
ATOM      3  C   UNL     1       7.638  -3.490  18.767  1.00  0.00     0.008 A 
ATOM      4  C   UNL     1       7.308  -2.240  18.240  1.00  0.00     0.050 A 
ATOM      5  C   UNL     1       8.299  -1.402  17.716  1.00  0.00     0.157 A 
ATOM      6  C   UNL     1       9.969  -3.086  18.256  1.00  0.00     0.054 A 
ATOM      7  C   UNL     1       9.648  -1.830  17.726  1.00  0.00     0.157 A 
BRANCH   5   8
ATOM      8  O   UNL     1       7.903  -0.165  17.202  1.00  0.00    -0.504 OA
ATOM      9  H   UNL     1       8.270   0.236  16.351  1.00  0.00     0.293 HD
ENDBRANCH   5   8
BRANCH   7  10
ATOM     10  O   UNL     1      10.692  -1.047  17.228  1.00  0.00    -0.504 OA
ATOM     11  H   UNL     1      11.670  -1.268  17.348  1.00  0.00     0.293 HD
ENDBRANCH   7  10
ENDBRANCH   1   2
BRANCH   1  12
ATOM     12  C   UNL     1       8.125  -6.208  19.378  1.00  0.00     0.161 C 
BRANCH  12  13
ATOM     13  O   UNL     1       8.508  -7.503  19.756  1.00  0.00    -0.396 OA
ATOM     14  H   UNL     1       9.413  -7.652  19.378  1.00  0.00     0.210 HD
ENDBRANCH  12  13
ENDBRANCH   1  12
TORSDOF 5
ENDMDL
MODEL 7
REMARK VINA RESULT:    -4.444     10.858     13.489
REMARK INTER + INTRA:          -5.406
REMARK INTER:                  -5.339
REMARK INTRA:                  -0.067
REMARK UNBOUND:                -0.052
REMARK SMILES OCCc1ccc(O)c(O)c1
REMARK SMILES IDX 3 1 4 2 5 3 6 4 7 5 11 6 9 7 8 8 10 10 2 12 1 13
REMARK H PARENT 8 9 10 11 1 14
REMARK Flexibility Score: inf
ROOT
ATOM      1  C   UNL     1       9.282  -5.470  19.527  1.00  0.00     0.064 C 
ENDROOT
BRANCH   1   2
ATOM      2  C   UNL     1       8.971  -4.122  18.928  1.00  0.00    -0.042 A 
ATOM      3  C   UNL     1      10.007  -3.228  18.627  1.00  0.00     0.008 A 
ATOM      4  C   UNL     1       9.722  -1.991  18.046  1.00  0.00     0.050 A 
ATOM      5  C   UNL     1       8.404  -1.628  17.749  1.00  0.00     0.157 A 
ATOM      6  C   UNL     1       7.648  -3.769  18.623  1.00  0.00     0.054 A 
ATOM      7  C   UNL     1       7.352  -2.530  18.038  1.00  0.00     0.157 A 
BRANCH   5   8
ATOM      8  O   UNL     1       8.186  -0.375  17.171  1.00  0.00    -0.504 OA
ATOM      9  H   UNL     1       7.317   0.134  17.239  1.00  0.00     0.293 HD
ENDBRANCH   5   8
BRANCH   7  10
ATOM     10  O   UNL     1       6.013  -2.242  17.765  1.00  0.00    -0.504 OA
ATOM     11  H   UNL     1       5.423  -2.811  17.174  1.00  0.00     0.293 HD
ENDBRANCH   7  10
ENDBRANCH   1   2
BRANCH   1  12
ATOM     12  C   UNL     1       8.115  -6.444  19.338  1.00  0.00     0.161 C 
BRANCH  12  13
ATOM     13  O   UNL     1       8.488  -7.747  19.698  1.00  0.00    -0.396 OA
ATOM     14  H   UNL     1       8.645  -7.737  20.677  1.00  0.00     0.210 HD
ENDBRANCH  12  13
ENDBRANCH   1  12
TORSDOF 5
ENDMDL
MODEL 8
REMARK VINA RESULT:    -4.388     10.064     11.871
REMARK INTER + INTRA:          -5.338
REMARK INTER:                  -5.248
REMARK INTRA:                  -0.090
REMARK UNBOUND:                -0.052
REMARK SMILES OCCc1ccc(O)c(O)c1
REMARK SMILES IDX 3 1 4 2 5 3 6 4 7 5 11 6 9 7 8 8 10 10 2 12 1 13
REMARK H PARENT 8 9 10 11 1 14
REMARK Flexibility Score: inf
ROOT
ATOM      1  C   UNL     1      12.241  -1.636  17.859  1.00  0.00     0.064 C 
ENDROOT
BRANCH   1   2
ATOM      2  C   UNL     1      10.748  -1.837  17.900  1.00  0.00    -0.042 A 
ATOM      3  C   UNL     1      10.212  -3.058  18.331  1.00  0.00     0.008 A 
ATOM      4  C   UNL     1       8.828  -3.235  18.396  1.00  0.00     0.050 A 
ATOM      5  C   UNL     1       7.958  -2.198  18.043  1.00  0.00     0.157 A 
ATOM      6  C   UNL     1       9.880  -0.790  17.555  1.00  0.00     0.054 A 
ATOM      7  C   UNL     1       8.491  -0.957  17.620  1.00  0.00     0.157 A 
BRANCH   5   8
ATOM      8  O   UNL     1       6.585  -2.440  18.129  1.00  0.00    -0.504 OA
ATOM      9  H   UNL     1       5.940  -2.307  17.364  1.00  0.00     0.293 HD
ENDBRANCH   5   8
BRANCH   7  10
ATOM     10  O   UNL     1       7.687   0.126  17.258  1.00  0.00    -0.504 OA
ATOM     11  H   UNL     1       7.993   1.088  17.280  1.00  0.00     0.293 HD
ENDBRANCH   7  10
ENDBRANCH   1   2
BRANCH   1  12
ATOM     12  C   UNL     1      12.985  -2.944  18.142  1.00  0.00     0.161 C 
BRANCH  12  13
ATOM     13  O   UNL     1      13.800  -3.302  17.058  1.00  0.00    -0.396 OA
ATOM     14  H   UNL     1      14.525  -2.625  17.013  1.00  0.00     0.210 HD
ENDBRANCH  12  13
ENDBRANCH   1  12
TORSDOF 5
ENDMDL
MODEL 9
REMARK VINA RESULT:    -4.360     11.700     14.139
REMARK INTER + INTRA:          -5.304
REMARK INTER:                  -5.239
REMARK INTRA:                  -0.065
REMARK UNBOUND:                -0.052
REMARK SMILES OCCc1ccc(O)c(O)c1
REMARK SMILES IDX 3 1 4 2 5 3 6 4 7 5 11 6 9 7 8 8 10 10 2 12 1 13
REMARK H PARENT 8 9 10 11 1 14
REMARK Flexibility Score: inf
ROOT
ATOM      1  C   UNL     1       8.807  -5.192  19.510  1.00  0.00     0.064 C 
ENDROOT
BRANCH   1   2
ATOM      2  C   UNL     1       9.967  -4.299  19.152  1.00  0.00    -0.042 A 
ATOM      3  C   UNL     1      11.243  -4.555  19.673  1.00  0.00     0.008 A 
ATOM      4  C   UNL     1      12.323  -3.744  19.319  1.00  0.00     0.050 A 
ATOM      5  C   UNL     1      12.152  -2.672  18.436  1.00  0.00     0.157 A 
ATOM      6  C   UNL     1       9.792  -3.232  18.258  1.00  0.00     0.054 A 
ATOM      7  C   UNL     1      10.869  -2.414  17.896  1.00  0.00     0.157 A 
BRANCH   5   8
ATOM      8  O   UNL     1      13.272  -1.898  18.125  1.00  0.00    -0.504 OA
ATOM      9  H   UNL     1      13.587  -1.714  17.183  1.00  0.00     0.293 HD
ENDBRANCH   5   8
BRANCH   7  10
ATOM     10  O   UNL     1      10.622  -1.367  17.004  1.00  0.00    -0.504 OA
ATOM     11  H   UNL     1      10.985  -1.331  16.062  1.00  0.00     0.293 HD
ENDBRANCH   7  10
ENDBRANCH   1   2
BRANCH   1  12
ATOM     12  C   UNL     1       9.273  -6.627  19.778  1.00  0.00     0.161 C 
BRANCH  12  13
ATOM     13  O   UNL     1       8.193  -7.519  19.740  1.00  0.00    -0.396 OA
ATOM     14  H   UNL     1       7.461  -7.059  19.253  1.00  0.00     0.210 HD
ENDBRANCH  12  13
ENDBRANCH   1  12
TORSDOF 5
ENDMDL
