MODEL 1
REMARK VINA RESULT:    -2.803      0.000      0.000
REMARK INTER + INTRA:          -2.885
REMARK INTER:                  -2.885
REMARK INTRA:                   0.000
REMARK UNBOUND:                 0.000
REMARK SMILES CC1(C)[C@H]2CC[C@](C)(C2)[C@H]1O
REMARK SMILES IDX 1 1 2 2 4 3 5 4 6 5 7 6 9 7 10 8 8 9 3 10 11 11
REMARK H PARENT 11 12
REMARK Flexibility Score: inf
ROOT
ATOM      1  C   UNL     1     119.255 123.874 117.665  1.00  0.00     0.014 C 
ATOM      2  C   UNL     1     119.797 125.284 117.306  1.00  0.00    -0.006 C 
ATOM      3  C   UNL     1     120.171 125.437 115.791  1.00  0.00    -0.002 C 
ATOM      4  C   UNL     1     119.030 124.939 114.880  1.00  0.00     0.005 C 
ATOM      5  C   UNL     1     117.924 125.979 115.119  1.00  0.00     0.010 C 
ATOM      6  C   UNL     1     118.613 127.001 116.052  1.00  0.00    -0.006 C 
ATOM      7  C   UNL     1     120.046 126.935 115.570  1.00  0.00     0.013 C 
ATOM      8  C   UNL     1     118.740 126.423 117.488  1.00  0.00     0.126 C 
ATOM      9  C   UNL     1     118.005 128.407 115.992  1.00  0.00     0.014 C 
ATOM     10  C   UNL     1     121.043 125.536 118.190  1.00  0.00     0.014 C 
ENDROOT
BRANCH   8  11
ATOM     11  O   UNL     1     117.507 125.954 117.978  1.00  0.00    -0.392 OA
ATOM     12  H   UNL     1     117.716 125.255 118.652  1.00  0.00     0.211 HD
ENDBRANCH   8  11
TORSDOF 1
ENDMDL
MODEL 2
REMARK VINA RESULT:    -2.801      8.159      9.391
REMARK INTER + INTRA:          -2.883
REMARK INTER:                  -2.883
REMARK INTRA:                   0.000
REMARK UNBOUND:                 0.000
REMARK SMILES CC1(C)[C@H]2CC[C@](C)(C2)[C@H]1O
REMARK SMILES IDX 1 1 2 2 4 3 5 4 6 5 7 6 9 7 10 8 8 9 3 10 11 11
REMARK H PARENT 11 12
REMARK Flexibility Score: inf
ROOT
ATOM      1  C   UNL     1     115.275 119.313 117.575  1.00  0.00     0.014 C 
ATOM      2  C   UNL     1     113.827 119.837 117.377  1.00  0.00    -0.006 C 
ATOM      3  C   UNL     1     113.504 120.221 115.891  1.00  0.00    -0.002 C 
ATOM      4  C   UNL     1     113.916 119.095 114.920  1.00  0.00     0.005 C 
ATOM      5  C   UNL     1     112.922 117.971 115.261  1.00  0.00     0.010 C 
ATOM      6  C   UNL     1     111.999 118.639 116.306  1.00  0.00    -0.006 C 
ATOM      7  C   UNL     1     111.993 120.076 115.833  1.00  0.00     0.013 C 
ATOM      8  C   UNL     1     112.729 118.762 117.672  1.00  0.00     0.126 C 
ATOM      9  C   UNL     1     110.604 118.010 116.394  1.00  0.00     0.014 C 
ATOM     10  C   UNL     1     113.656 121.073 118.295  1.00  0.00     0.014 C 
ENDROOT
BRANCH   8  11
ATOM     11  O   UNL     1     113.266 117.533 118.096  1.00  0.00    -0.392 OA
ATOM     12  H   UNL     1     112.718 116.822 117.672  1.00  0.00     0.211 HD
ENDBRANCH   8  11
TORSDOF 1
ENDMDL
MODEL 3
REMARK VINA RESULT:    -2.786     11.225     13.256
REMARK INTER + INTRA:          -2.867
REMARK INTER:                  -2.867
REMARK INTRA:                   0.000
REMARK UNBOUND:                 0.000
REMARK SMILES CC1(C)[C@H]2CC[C@](C)(C2)[C@H]1O
REMARK SMILES IDX 1 1 2 2 4 3 5 4 6 5 7 6 9 7 10 8 8 9 3 10 11 11
REMARK H PARENT 11 12
REMARK Flexibility Score: inf
ROOT
ATOM      1  C   UNL     1     119.657 115.282 117.748  1.00  0.00     0.014 C 
ATOM      2  C   UNL     1     119.156 113.835 117.497  1.00  0.00    -0.006 C 
ATOM      3  C   UNL     1     118.740 113.571 116.009  1.00  0.00    -0.002 C 
ATOM      4  C   UNL     1     119.833 114.047 115.030  1.00  0.00     0.005 C 
ATOM      5  C   UNL     1     120.983 113.062 115.297  1.00  0.00     0.010 C 
ATOM      6  C   UNL     1     120.360 112.080 116.316  1.00  0.00    -0.006 C 
ATOM      7  C   UNL     1     118.911 112.067 115.879  1.00  0.00     0.013 C 
ATOM      8  C   UNL     1     120.258 112.746 117.717  1.00  0.00     0.126 C 
ATOM      9  C   UNL     1     121.016 110.695 116.326  1.00  0.00     0.014 C 
ATOM     10  C   UNL     1     117.947 113.599 118.437  1.00  0.00     0.014 C 
ENDROOT
BRANCH   8  11
ATOM     11  O   UNL     1     121.487 113.287 118.134  1.00  0.00    -0.392 OA
ATOM     12  H   UNL     1     121.285 113.910 118.880  1.00  0.00     0.211 HD
ENDBRANCH   8  11
TORSDOF 1
ENDMDL
MODEL 4
REMARK VINA RESULT:    -2.739      8.180      9.322
REMARK INTER + INTRA:          -2.819
REMARK INTER:                  -2.819
REMARK INTRA:                   0.000
REMARK UNBOUND:                 0.000
REMARK SMILES CC1(C)[C@H]2CC[C@](C)(C2)[C@H]1O
REMARK SMILES IDX 1 1 2 2 4 3 5 4 6 5 7 6 9 7 10 8 8 9 3 10 11 11
REMARK H PARENT 11 12
REMARK Flexibility Score: inf
ROOT
ATOM      1  C   UNL     1     123.850 119.759 117.736  1.00  0.00     0.014 C 
ATOM      2  C   UNL     1     125.237 119.235 117.275  1.00  0.00    -0.006 C 
ATOM      3  C   UNL     1     125.280 118.847 115.756  1.00  0.00    -0.002 C 
ATOM      4  C   UNL     1     124.695 119.971 114.875  1.00  0.00     0.005 C 
ATOM      5  C   UNL     1     125.733 121.095 115.024  1.00  0.00     0.010 C 
ATOM      6  C   UNL     1     126.834 120.431 115.882  1.00  0.00    -0.006 C 
ATOM      7  C   UNL     1     126.754 118.992 115.420  1.00  0.00     0.013 C 
ATOM      8  C   UNL     1     126.370 120.311 117.360  1.00  0.00     0.126 C 
ATOM      9  C   UNL     1     128.221 121.059 115.709  1.00  0.00     0.014 C 
ATOM     10  C   UNL     1     125.575 118.002 118.149  1.00  0.00     0.014 C 
ENDROOT
BRANCH   8  11
ATOM     11  O   UNL     1     125.920 121.541 117.873  1.00  0.00    -0.392 OA
ATOM     12  H   UNL     1     126.479 122.246 117.452  1.00  0.00     0.211 HD
ENDBRANCH   8  11
TORSDOF 1
ENDMDL
MODEL 5
REMARK VINA RESULT:    -2.631      6.573      8.521
REMARK INTER + INTRA:          -2.708
REMARK INTER:                  -2.708
REMARK INTRA:                   0.000
REMARK UNBOUND:                 0.000
REMARK SMILES CC1(C)[C@H]2CC[C@](C)(C2)[C@H]1O
REMARK SMILES IDX 1 1 2 2 4 3 5 4 6 5 7 6 9 7 10 8 8 9 3 10 11 11
REMARK H PARENT 11 12
REMARK Flexibility Score: inf
ROOT
ATOM      1  C   UNL     1     124.507 129.013 120.717  1.00  0.00     0.014 C 
ATOM      2  C   UNL     1     125.010 128.100 119.567  1.00  0.00    -0.006 C 
ATOM      3  C   UNL     1     125.601 128.899 118.354  1.00  0.00    -0.002 C 
ATOM      4  C   UNL     1     126.621 129.957 118.824  1.00  0.00     0.005 C 
ATOM      5  C   UNL     1     127.790 129.099 119.337  1.00  0.00     0.010 C 
ATOM      6  C   UNL     1     127.334 127.662 118.993  1.00  0.00    -0.006 C 
ATOM      7  C   UNL     1     126.545 127.890 117.722  1.00  0.00     0.013 C 
ATOM      8  C   UNL     1     126.222 127.197 119.973  1.00  0.00     0.126 C 
ATOM      9  C   UNL     1     128.488 126.666 118.834  1.00  0.00     0.014 C 
ATOM     10  C   UNL     1     123.808 127.241 119.103  1.00  0.00     0.014 C 
ENDROOT
BRANCH   8  11
ATOM     11  O   UNL     1     126.602 127.361 121.317  1.00  0.00    -0.392 OA
ATOM     12  H   UNL     1     126.859 126.463 121.652  1.00  0.00     0.211 HD
ENDBRANCH   8  11
TORSDOF 1
ENDMDL
MODEL 6
REMARK VINA RESULT:    -2.612     14.835     16.610
REMARK INTER + INTRA:          -2.688
REMARK INTER:                  -2.688
REMARK INTRA:                   0.000
REMARK UNBOUND:                 0.000
REMARK SMILES CC1(C)[C@H]2CC[C@](C)(C2)[C@H]1O
REMARK SMILES IDX 1 1 2 2 4 3 5 4 6 5 7 6 9 7 10 8 8 9 3 10 11 11
REMARK H PARENT 11 12
REMARK Flexibility Score: inf
ROOT
ATOM      1  C   UNL     1     129.368 114.409 120.792  1.00  0.00     0.014 C 
ATOM      2  C   UNL     1     128.345 113.962 119.715  1.00  0.00    -0.006 C 
ATOM      3  C   UNL     1     129.017 113.453 118.393  1.00  0.00    -0.002 C 
ATOM      4  C   UNL     1     130.125 112.421 118.690  1.00  0.00     0.005 C 
ATOM      5  C   UNL     1     129.333 111.214 119.219  1.00  0.00     0.010 C 
ATOM      6  C   UNL     1     127.865 111.670 119.052  1.00  0.00    -0.006 C 
ATOM      7  C   UNL     1     127.954 112.536 117.813  1.00  0.00     0.013 C 
ATOM      8  C   UNL     1     127.497 112.717 120.139  1.00  0.00     0.126 C 
ATOM      9  C   UNL     1     126.865 110.515 118.928  1.00  0.00     0.014 C 
ATOM     10  C   UNL     1     127.434 115.178 119.415  1.00  0.00     0.014 C 
ENDROOT
BRANCH   8  11
ATOM     11  O   UNL     1     127.802 112.262 121.434  1.00  0.00    -0.392 OA
ATOM     12  H   UNL     1     127.367 111.375 121.534  1.00  0.00     0.211 HD
ENDBRANCH   8  11
TORSDOF 1
ENDMDL
MODEL 7
REMARK VINA RESULT:    -2.549      6.320      8.149
REMARK INTER + INTRA:          -2.624
REMARK INTER:                  -2.624
REMARK INTRA:                   0.000
REMARK UNBOUND:                 0.000
REMARK SMILES CC1(C)[C@H]2CC[C@](C)(C2)[C@H]1O
REMARK SMILES IDX 1 1 2 2 4 3 5 4 6 5 7 6 9 7 10 8 8 9 3 10 11 11
REMARK H PARENT 11 12
REMARK Flexibility Score: inf
ROOT
ATOM      1  C   UNL     1     128.203 127.990 120.139  1.00  0.00     0.014 C 
ATOM      2  C   UNL     1     126.760 127.923 120.708  1.00  0.00    -0.006 C 
ATOM      3  C   UNL     1     125.933 129.231 120.458  1.00  0.00    -0.002 C 
ATOM      4  C   UNL     1     126.019 129.674 118.982  1.00  0.00     0.005 C 
ATOM      5  C   UNL     1     125.239 128.570 118.249  1.00  0.00     0.010 C 
ATOM      6  C   UNL     1     124.713 127.695 119.411  1.00  0.00    -0.006 C 
ATOM      7  C   UNL     1     124.500 128.728 120.496  1.00  0.00     0.013 C 
ATOM      8  C   UNL     1     125.865 126.844 120.012  1.00  0.00     0.126 C 
ATOM      9  C   UNL     1     123.454 126.893 119.064  1.00  0.00     0.014 C 
ATOM     10  C   UNL     1     126.879 127.650 122.228  1.00  0.00     0.014 C 
ENDROOT
BRANCH   8  11
ATOM     11  O   UNL     1     126.553 126.115 119.025  1.00  0.00    -0.392 OA
ATOM     12  H   UNL     1     126.674 126.727 118.252  1.00  0.00     0.211 HD
ENDBRANCH   8  11
TORSDOF 1
ENDMDL
MODEL 8
REMARK VINA RESULT:    -2.525     14.308     15.959
REMARK INTER + INTRA:          -2.599
REMARK INTER:                  -2.599
REMARK INTRA:                   0.000
REMARK UNBOUND:                 0.000
REMARK SMILES CC1(C)[C@H]2CC[C@](C)(C2)[C@H]1O
REMARK SMILES IDX 1 1 2 2 4 3 5 4 6 5 7 6 9 7 10 8 8 9 3 10 11 11
REMARK H PARENT 11 12
REMARK Flexibility Score: inf
ROOT
ATOM      1  C   UNL     1     127.922 110.832 120.119  1.00  0.00     0.014 C 
ATOM      2  C   UNL     1     127.905 112.263 120.720  1.00  0.00    -0.006 C 
ATOM      3  C   UNL     1     129.229 113.061 120.457  1.00  0.00    -0.002 C 
ATOM      4  C   UNL     1     129.636 112.996 118.970  1.00  0.00     0.005 C 
ATOM      5  C   UNL     1     128.536 113.820 118.280  1.00  0.00     0.010 C 
ATOM      6  C   UNL     1     127.703 114.343 119.473  1.00  0.00    -0.006 C 
ATOM      7  C   UNL     1     128.765 114.505 120.538  1.00  0.00     0.013 C 
ATOM      8  C   UNL     1     126.835 113.200 120.069  1.00  0.00     0.126 C 
ATOM      9  C   UNL     1     126.926 115.629 119.171  1.00  0.00     0.014 C 
ATOM     10  C   UNL     1     127.665 112.118 122.243  1.00  0.00     0.014 C 
ENDROOT
BRANCH   8  11
ATOM     11  O   UNL     1     126.066 112.553 119.084  1.00  0.00    -0.392 OA
ATOM     12  H   UNL     1     126.300 112.976 118.217  1.00  0.00     0.211 HD
ENDBRANCH   8  11
TORSDOF 1
ENDMDL
MODEL 9
REMARK VINA RESULT:    -2.497      7.136      8.730
REMARK INTER + INTRA:          -2.570
REMARK INTER:                  -2.570
REMARK INTRA:                   0.000
REMARK UNBOUND:                 0.000
REMARK SMILES CC1(C)[C@H]2CC[C@](C)(C2)[C@H]1O
REMARK SMILES IDX 1 1 2 2 4 3 5 4 6 5 7 6 9 7 10 8 8 9 3 10 11 11
REMARK H PARENT 11 12
REMARK Flexibility Score: inf
ROOT
ATOM      1  C   UNL     1     127.477 127.216 116.823  1.00  0.00     0.014 C 
ATOM      2  C   UNL     1     127.701 127.837 118.228  1.00  0.00    -0.006 C 
ATOM      3  C   UNL     1     126.671 128.967 118.578  1.00  0.00    -0.002 C 
ATOM      4  C   UNL     1     125.224 128.508 118.305  1.00  0.00     0.005 C 
ATOM      5  C   UNL     1     125.001 127.427 119.375  1.00  0.00     0.010 C 
ATOM      6  C   UNL     1     126.311 127.483 120.194  1.00  0.00    -0.006 C 
ATOM      7  C   UNL     1     126.668 128.951 120.097  1.00  0.00     0.013 C 
ATOM      8  C   UNL     1     127.474 126.826 119.400  1.00  0.00     0.126 C 
ATOM      9  C   UNL     1     126.167 126.975 121.633  1.00  0.00     0.014 C 
ATOM     10  C   UNL     1     129.142 128.404 118.254  1.00  0.00     0.014 C 
ENDROOT
BRANCH   8  11
ATOM     11  O   UNL     1     127.143 125.534 118.953  1.00  0.00    -0.392 OA
ATOM     12  H   UNL     1     127.331 124.915 119.707  1.00  0.00     0.211 HD
ENDBRANCH   8  11
TORSDOF 1
ENDMDL
