MODEL 1
REMARK VINA RESULT:    -3.908      0.000      0.000
REMARK INTER + INTRA:          -9.775
REMARK INTER:                  -7.563
REMARK INTRA:                  -2.211
REMARK UNBOUND:                -2.211
REMARK SMILES CCCCCCCCCCCCCCCCCC(=O)[O-]
REMARK SMILES IDX 10 1 11 2 12 3 13 4 14 5 15 6 16 7 17 8 18 9 19 10 20 11
REMARK SMILES IDX 9 12 8 13 7 14 6 15 5 16 4 17 3 18 2 19 1 20
REMARK H PARENT
REMARK Flexibility Score: inf
ROOT
ATOM      1  C   UNL     1     -20.710   6.534  22.224  1.00  0.00     0.000 C 
ENDROOT
BRANCH   1   2
ATOM      2  C   UNL     1     -20.593   6.429  20.689  1.00  0.00     0.000 C 
BRANCH   2   3
ATOM      3  C   UNL     1     -20.864   5.002  20.182  1.00  0.00     0.000 C 
BRANCH   3   4
ATOM      4  C   UNL     1     -19.904   3.965  20.788  1.00  0.00     0.000 C 
BRANCH   4   5
ATOM      5  C   UNL     1     -20.606   2.656  21.215  1.00  0.00     0.000 C 
BRANCH   5   6
ATOM      6  C   UNL     1     -21.895   2.924  22.011  1.00  0.00     0.000 C 
BRANCH   6   7
ATOM      7  C   UNL     1     -22.848   1.713  22.039  1.00  0.00     0.006 C 
BRANCH   7   8
ATOM      8  C   UNL     1     -22.402   0.588  22.992  1.00  0.00     0.053 C 
BRANCH   8   9
ATOM      9  C   UNL     1     -22.785  -0.773  22.495  1.00  0.00     0.041 C 
ATOM     10  O   UNL     1     -23.410  -1.569  23.248  1.00  0.00    -0.550 OA
ATOM     11  O   UNL     1     -22.438  -1.171  21.209  1.00  0.00    -0.550 OA
ENDBRANCH   8   9
ENDBRANCH   7   8
ENDBRANCH   6   7
ENDBRANCH   5   6
ENDBRANCH   4   5
ENDBRANCH   3   4
ENDBRANCH   2   3
ENDBRANCH   1   2
BRANCH   1  12
ATOM     12  C   UNL     1     -21.699   7.618  22.699  1.00  0.00     0.000 C 
BRANCH  12  13
ATOM     13  C   UNL     1     -23.154   7.415  22.242  1.00  0.00    -0.000 C 
BRANCH  13  14
ATOM     14  C   UNL     1     -23.686   6.007  22.553  1.00  0.00    -0.000 C 
BRANCH  14  15
ATOM     15  C   UNL     1     -24.949   6.028  23.431  1.00  0.00    -0.000 C 
BRANCH  15  16
ATOM     16  C   UNL     1     -25.125   4.807  24.355  1.00  0.00    -0.000 C 
BRANCH  16  17
ATOM     17  C   UNL     1     -25.125   5.122  25.861  1.00  0.00    -0.000 C 
BRANCH  17  18
ATOM     18  C   UNL     1     -23.796   4.765  26.544  1.00  0.00    -0.000 C 
BRANCH  18  19
ATOM     19  C   UNL     1     -22.893   3.964  25.600  1.00  0.00    -0.003 C 
ATOM     20  C   UNL     1     -21.569   4.686  25.361  1.00  0.00     0.004 C 
ENDBRANCH  18  19
ENDBRANCH  17  18
ENDBRANCH  16  17
ENDBRANCH  15  16
ENDBRANCH  14  15
ENDBRANCH  13  14
ENDBRANCH  12  13
ENDBRANCH   1  12
TORSDOF 16
ENDMDL
MODEL 2
REMARK VINA RESULT:    -3.904      1.307      3.975
REMARK INTER + INTRA:          -9.768
REMARK INTER:                  -7.317
REMARK INTRA:                  -2.451
REMARK UNBOUND:                -2.211
REMARK SMILES CCCCCCCCCCCCCCCCCC(=O)[O-]
REMARK SMILES IDX 10 1 11 2 12 3 13 4 14 5 15 6 16 7 17 8 18 9 19 10 20 11
REMARK SMILES IDX 9 12 8 13 7 14 6 15 5 16 4 17 3 18 2 19 1 20
REMARK H PARENT
REMARK Flexibility Score: inf
ROOT
ATOM      1  C   UNL     1     -23.565   5.892  22.656  1.00  0.00     0.000 C 
ENDROOT
BRANCH   1   2
ATOM      2  C   UNL     1     -24.822   5.717  23.535  1.00  0.00     0.000 C 
BRANCH   2   3
ATOM      3  C   UNL     1     -24.752   4.448  24.401  1.00  0.00     0.000 C 
BRANCH   3   4
ATOM      4  C   UNL     1     -23.459   3.646  24.176  1.00  0.00     0.000 C 
BRANCH   4   5
ATOM      5  C   UNL     1     -23.693   2.291  23.470  1.00  0.00     0.000 C 
BRANCH   5   6
ATOM      6  C   UNL     1     -23.077   2.259  22.061  1.00  0.00     0.000 C 
BRANCH   6   7
ATOM      7  C   UNL     1     -22.008   1.161  21.895  1.00  0.00     0.006 C 
BRANCH   7   8
ATOM      8  C   UNL     1     -22.412  -0.199  22.492  1.00  0.00     0.053 C 
BRANCH   8   9
ATOM      9  C   UNL     1     -22.064  -1.349  21.594  1.00  0.00     0.041 C 
ATOM     10  O   UNL     1     -21.762  -2.469  22.088  1.00  0.00    -0.550 OA
ATOM     11  O   UNL     1     -22.056  -1.179  20.214  1.00  0.00    -0.550 OA
ENDBRANCH   8   9
ENDBRANCH   7   8
ENDBRANCH   6   7
ENDBRANCH   5   6
ENDBRANCH   4   5
ENDBRANCH   3   4
ENDBRANCH   2   3
ENDBRANCH   1   2
BRANCH   1  12
ATOM     12  C   UNL     1     -23.283   7.355  22.259  1.00  0.00     0.000 C 
BRANCH  12  13
ATOM     13  C   UNL     1     -21.881   7.613  21.680  1.00  0.00    -0.000 C 
BRANCH  13  14
ATOM     14  C   UNL     1     -21.850   7.556  20.144  1.00  0.00    -0.000 C 
BRANCH  14  15
ATOM     15  C   UNL     1     -20.932   6.445  19.608  1.00  0.00    -0.000 C 
BRANCH  15  16
ATOM     16  C   UNL     1     -21.228   5.032  20.151  1.00  0.00    -0.000 C 
BRANCH  16  17
ATOM     17  C   UNL     1     -19.987   4.206  20.531  1.00  0.00    -0.000 C 
BRANCH  17  18
ATOM     18  C   UNL     1     -19.308   4.706  21.815  1.00  0.00    -0.000 C 
BRANCH  18  19
ATOM     19  C   UNL     1     -20.182   4.426  23.042  1.00  0.00    -0.003 C 
ATOM     20  C   UNL     1     -20.029   5.526  24.090  1.00  0.00     0.004 C 
ENDBRANCH  18  19
ENDBRANCH  17  18
ENDBRANCH  16  17
ENDBRANCH  15  16
ENDBRANCH  14  15
ENDBRANCH  13  14
ENDBRANCH  12  13
ENDBRANCH   1  12
TORSDOF 16
ENDMDL
MODEL 3
REMARK VINA RESULT:    -3.804      1.198      1.831
REMARK INTER + INTRA:          -9.573
REMARK INTER:                  -6.886
REMARK INTRA:                  -2.687
REMARK UNBOUND:                -2.211
REMARK SMILES CCCCCCCCCCCCCCCCCC(=O)[O-]
REMARK SMILES IDX 10 1 11 2 12 3 13 4 14 5 15 6 16 7 17 8 18 9 19 10 20 11
REMARK SMILES IDX 9 12 8 13 7 14 6 15 5 16 4 17 3 18 2 19 1 20
REMARK H PARENT
REMARK Flexibility Score: inf
ROOT
ATOM      1  C   UNL     1     -22.086   7.386  22.142  1.00  0.00     0.000 C 
ENDROOT
BRANCH   1   2
ATOM      2  C   UNL     1     -21.728   7.658  20.665  1.00  0.00     0.000 C 
BRANCH   2   3
ATOM      3  C   UNL     1     -20.883   6.527  20.055  1.00  0.00     0.000 C 
BRANCH   3   4
ATOM      4  C   UNL     1     -20.315   5.571  21.117  1.00  0.00     0.000 C 
BRANCH   4   5
ATOM      5  C   UNL     1     -20.623   4.084  20.830  1.00  0.00     0.000 C 
BRANCH   5   6
ATOM      6  C   UNL     1     -21.209   3.367  22.059  1.00  0.00     0.000 C 
BRANCH   6   7
ATOM      7  C   UNL     1     -22.183   2.232  21.688  1.00  0.00     0.006 C 
BRANCH   7   8
ATOM      8  C   UNL     1     -23.251   1.949  22.760  1.00  0.00     0.053 C 
BRANCH   8   9
ATOM      9  C   UNL     1     -22.960   0.711  23.552  1.00  0.00     0.041 C 
ATOM     10  O   UNL     1     -23.892  -0.087  23.847  1.00  0.00    -0.550 OA
ATOM     11  O   UNL     1     -21.664   0.445  23.981  1.00  0.00    -0.550 OA
ENDBRANCH   8   9
ENDBRANCH   7   8
ENDBRANCH   6   7
ENDBRANCH   5   6
ENDBRANCH   4   5
ENDBRANCH   3   4
ENDBRANCH   2   3
ENDBRANCH   1   2
BRANCH   1  12
ATOM     12  C   UNL     1     -23.576   7.061  22.371  1.00  0.00     0.000 C 
BRANCH  12  13
ATOM     13  C   UNL     1     -23.854   5.674  22.975  1.00  0.00    -0.000 C 
BRANCH  13  14
ATOM     14  C   UNL     1     -25.123   5.645  23.842  1.00  0.00    -0.000 C 
BRANCH  14  15
ATOM     15  C   UNL     1     -25.063   4.579  24.949  1.00  0.00    -0.000 C 
BRANCH  15  16
ATOM     16  C   UNL     1     -24.626   5.097  26.334  1.00  0.00    -0.000 C 
BRANCH  16  17
ATOM     17  C   UNL     1     -23.126   4.954  26.641  1.00  0.00    -0.000 C 
BRANCH  17  18
ATOM     18  C   UNL     1     -22.483   3.756  25.925  1.00  0.00    -0.000 C 
BRANCH  18  19
ATOM     19  C   UNL     1     -21.003   4.023  25.630  1.00  0.00    -0.003 C 
ATOM     20  C   UNL     1     -20.792   5.447  25.121  1.00  0.00     0.004 C 
ENDBRANCH  18  19
ENDBRANCH  17  18
ENDBRANCH  16  17
ENDBRANCH  15  16
ENDBRANCH  14  15
ENDBRANCH  13  14
ENDBRANCH  12  13
ENDBRANCH   1  12
TORSDOF 16
ENDMDL
MODEL 4
REMARK VINA RESULT:    -3.794      2.339      4.758
REMARK INTER + INTRA:          -9.555
REMARK INTER:                  -7.774
REMARK INTRA:                  -1.781
REMARK UNBOUND:                -2.211
REMARK SMILES CCCCCCCCCCCCCCCCCC(=O)[O-]
REMARK SMILES IDX 10 1 11 2 12 3 13 4 14 5 15 6 16 7 17 8 18 9 19 10 20 11
REMARK SMILES IDX 9 12 8 13 7 14 6 15 5 16 4 17 3 18 2 19 1 20
REMARK H PARENT
REMARK Flexibility Score: inf
ROOT
ATOM      1  C   UNL     1     -23.393   6.243  22.537  1.00  0.00     0.000 C 
ENDROOT
BRANCH   1   2
ATOM      2  C   UNL     1     -22.894   7.649  22.140  1.00  0.00     0.000 C 
BRANCH   2   3
ATOM      3  C   UNL     1     -21.599   7.593  21.312  1.00  0.00     0.000 C 
BRANCH   3   4
ATOM      4  C   UNL     1     -21.864   7.415  19.808  1.00  0.00     0.000 C 
BRANCH   4   5
ATOM      5  C   UNL     1     -21.189   6.160  19.210  1.00  0.00     0.000 C 
BRANCH   5   6
ATOM      6  C   UNL     1     -20.279   5.452  20.229  1.00  0.00     0.000 C 
BRANCH   6   7
ATOM      7  C   UNL     1     -20.914   4.179  20.822  1.00  0.00     0.006 C 
BRANCH   7   8
ATOM      8  C   UNL     1     -19.951   3.343  21.685  1.00  0.00     0.053 C 
BRANCH   8   9
ATOM      9  C   UNL     1     -20.138   3.582  23.153  1.00  0.00     0.041 C 
ATOM     10  O   UNL     1     -20.346   4.749  23.584  1.00  0.00    -0.550 OA
ATOM     11  O   UNL     1     -20.065   2.520  24.048  1.00  0.00    -0.550 OA
ENDBRANCH   8   9
ENDBRANCH   7   8
ENDBRANCH   6   7
ENDBRANCH   5   6
ENDBRANCH   4   5
ENDBRANCH   3   4
ENDBRANCH   2   3
ENDBRANCH   1   2
BRANCH   1  12
ATOM     12  C   UNL     1     -24.780   6.243  23.211  1.00  0.00     0.000 C 
BRANCH  12  13
ATOM     13  C   UNL     1     -25.044   5.057  24.155  1.00  0.00    -0.000 C 
BRANCH  13  14
ATOM     14  C   UNL     1     -23.803   4.176  24.367  1.00  0.00    -0.000 C 
BRANCH  14  15
ATOM     15  C   UNL     1     -24.057   2.698  24.025  1.00  0.00    -0.000 C 
BRANCH  15  16
ATOM     16  C   UNL     1     -23.340   2.186  22.759  1.00  0.00    -0.000 C 
BRANCH  16  17
ATOM     17  C   UNL     1     -23.261   0.655  22.629  1.00  0.00    -0.000 C 
BRANCH  17  18
ATOM     18  C   UNL     1     -22.143   0.195  21.681  1.00  0.00    -0.000 C 
BRANCH  18  19
ATOM     19  C   UNL     1     -22.294  -1.290  21.335  1.00  0.00    -0.003 C 
ATOM     20  C   UNL     1     -22.104  -1.528  19.839  1.00  0.00     0.004 C 
ENDBRANCH  18  19
ENDBRANCH  17  18
ENDBRANCH  16  17
ENDBRANCH  15  16
ENDBRANCH  14  15
ENDBRANCH  13  14
ENDBRANCH  12  13
ENDBRANCH   1  12
TORSDOF 16
ENDMDL
MODEL 5
REMARK VINA RESULT:    -3.789      2.329      5.502
REMARK INTER + INTRA:          -9.544
REMARK INTER:                  -7.458
REMARK INTRA:                  -2.086
REMARK UNBOUND:                -2.211
REMARK SMILES CCCCCCCCCCCCCCCCCC(=O)[O-]
REMARK SMILES IDX 10 1 11 2 12 3 13 4 14 5 15 6 16 7 17 8 18 9 19 10 20 11
REMARK SMILES IDX 9 12 8 13 7 14 6 15 5 16 4 17 3 18 2 19 1 20
REMARK H PARENT
REMARK Flexibility Score: inf
ROOT
ATOM      1  C   UNL     1     -22.972   4.528  25.415  1.00  0.00     0.000 C 
ENDROOT
BRANCH   1   2
ATOM      2  C   UNL     1     -22.654   5.146  24.037  1.00  0.00     0.000 C 
BRANCH   2   3
ATOM      3  C   UNL     1     -23.925   5.399  23.208  1.00  0.00     0.000 C 
BRANCH   3   4
ATOM      4  C   UNL     1     -23.908   6.762  22.496  1.00  0.00     0.000 C 
BRANCH   4   5
ATOM      5  C   UNL     1     -22.484   7.322  22.278  1.00  0.00     0.000 C 
BRANCH   5   6
ATOM      6  C   UNL     1     -22.190   7.594  20.792  1.00  0.00     0.000 C 
BRANCH   6   7
ATOM      7  C   UNL     1     -21.055   6.715  20.232  1.00  0.00     0.006 C 
BRANCH   7   8
ATOM      8  C   UNL     1     -21.374   5.209  20.229  1.00  0.00     0.053 C 
BRANCH   8   9
ATOM      9  C   UNL     1     -20.423   4.417  21.076  1.00  0.00     0.041 C 
ATOM     10  O   UNL     1     -19.765   4.985  21.990  1.00  0.00    -0.550 OA
ATOM     11  O   UNL     1     -20.251   3.057  20.847  1.00  0.00    -0.550 OA
ENDBRANCH   8   9
ENDBRANCH   7   8
ENDBRANCH   6   7
ENDBRANCH   5   6
ENDBRANCH   4   5
ENDBRANCH   3   4
ENDBRANCH   2   3
ENDBRANCH   1   2
BRANCH   1  12
ATOM     12  C   UNL     1     -24.481   4.425  25.717  1.00  0.00     0.000 C 
BRANCH  12  13
ATOM     13  C   UNL     1     -25.039   2.991  25.761  1.00  0.00    -0.000 C 
BRANCH  13  14
ATOM     14  C   UNL     1     -23.936   1.921  25.723  1.00  0.00    -0.000 C 
BRANCH  14  15
ATOM     15  C   UNL     1     -24.056   0.986  24.508  1.00  0.00    -0.000 C 
BRANCH  15  16
ATOM     16  C   UNL     1     -24.130   1.694  23.141  1.00  0.00    -0.000 C 
BRANCH  16  17
ATOM     17  C   UNL     1     -22.994   1.346  22.163  1.00  0.00    -0.000 C 
BRANCH  17  18
ATOM     18  C   UNL     1     -22.541  -0.118  22.274  1.00  0.00    -0.000 C 
BRANCH  18  19
ATOM     19  C   UNL     1     -21.855  -0.579  20.984  1.00  0.00    -0.003 C 
ATOM     20  C   UNL     1     -20.367  -0.831  21.212  1.00  0.00     0.004 C 
ENDBRANCH  18  19
ENDBRANCH  17  18
ENDBRANCH  16  17
ENDBRANCH  15  16
ENDBRANCH  14  15
ENDBRANCH  13  14
ENDBRANCH  12  13
ENDBRANCH   1  12
TORSDOF 16
ENDMDL
MODEL 6
REMARK VINA RESULT:    -3.772      2.589      5.155
REMARK INTER + INTRA:          -9.512
REMARK INTER:                  -7.227
REMARK INTRA:                  -2.285
REMARK UNBOUND:                -2.211
REMARK SMILES CCCCCCCCCCCCCCCCCC(=O)[O-]
REMARK SMILES IDX 10 1 11 2 12 3 13 4 14 5 15 6 16 7 17 8 18 9 19 10 20 11
REMARK SMILES IDX 9 12 8 13 7 14 6 15 5 16 4 17 3 18 2 19 1 20
REMARK H PARENT
REMARK Flexibility Score: inf
ROOT
ATOM      1  C   UNL     1     -20.150   6.697  22.106  1.00  0.00     0.000 C 
ENDROOT
BRANCH   1   2
ATOM      2  C   UNL     1     -21.425   6.922  22.946  1.00  0.00     0.000 C 
BRANCH   2   3
ATOM      3  C   UNL     1     -22.580   7.495  22.105  1.00  0.00     0.000 C 
BRANCH   3   4
ATOM      4  C   UNL     1     -23.941   6.881  22.470  1.00  0.00     0.000 C 
BRANCH   4   5
ATOM      5  C   UNL     1     -23.826   5.530  23.212  1.00  0.00     0.000 C 
BRANCH   5   6
ATOM      6  C   UNL     1     -25.088   5.210  24.032  1.00  0.00     0.000 C 
BRANCH   6   7
ATOM      7  C   UNL     1     -24.799   4.331  25.264  1.00  0.00     0.006 C 
BRANCH   7   8
ATOM      8  C   UNL     1     -24.367   5.124  26.511  1.00  0.00     0.053 C 
BRANCH   8   9
ATOM      9  C   UNL     1     -22.968   4.804  26.941  1.00  0.00     0.041 C 
ATOM     10  O   UNL     1     -22.756   4.276  28.067  1.00  0.00    -0.550 OA
ATOM     11  O   UNL     1     -21.895   5.105  26.109  1.00  0.00    -0.550 OA
ENDBRANCH   8   9
ENDBRANCH   7   8
ENDBRANCH   6   7
ENDBRANCH   5   6
ENDBRANCH   4   5
ENDBRANCH   3   4
ENDBRANCH   2   3
ENDBRANCH   1   2
BRANCH   1  12
ATOM     12  C   UNL     1     -20.406   6.659  20.586  1.00  0.00     0.000 C 
BRANCH  12  13
ATOM     13  C   UNL     1     -20.801   5.280  20.027  1.00  0.00    -0.000 C 
BRANCH  13  14
ATOM     14  C   UNL     1     -20.083   4.122  20.738  1.00  0.00    -0.000 C 
BRANCH  14  15
ATOM     15  C   UNL     1     -21.059   3.083  21.316  1.00  0.00    -0.000 C 
BRANCH  15  16
ATOM     16  C   UNL     1     -21.093   3.003  22.856  1.00  0.00    -0.000 C 
BRANCH  16  17
ATOM     17  C   UNL     1     -22.276   2.212  23.442  1.00  0.00    -0.000 C 
BRANCH  17  18
ATOM     18  C   UNL     1     -23.101   1.489  22.366  1.00  0.00    -0.000 C 
BRANCH  18  19
ATOM     19  C   UNL     1     -22.904  -0.028  22.452  1.00  0.00    -0.003 C 
ATOM     20  C   UNL     1     -21.954  -0.522  21.364  1.00  0.00     0.004 C 
ENDBRANCH  18  19
ENDBRANCH  17  18
ENDBRANCH  16  17
ENDBRANCH  15  16
ENDBRANCH  14  15
ENDBRANCH  13  14
ENDBRANCH  12  13
ENDBRANCH   1  12
TORSDOF 16
ENDMDL
MODEL 7
REMARK VINA RESULT:    -3.755      1.646      4.115
REMARK INTER + INTRA:          -9.479
REMARK INTER:                  -6.614
REMARK INTRA:                  -2.864
REMARK UNBOUND:                -2.211
REMARK SMILES CCCCCCCCCCCCCCCCCC(=O)[O-]
REMARK SMILES IDX 10 1 11 2 12 3 13 4 14 5 15 6 16 7 17 8 18 9 19 10 20 11
REMARK SMILES IDX 9 12 8 13 7 14 6 15 5 16 4 17 3 18 2 19 1 20
REMARK H PARENT
REMARK Flexibility Score: inf
ROOT
ATOM      1  C   UNL     1     -22.696   7.722  22.385  1.00  0.00     0.000 C 
ENDROOT
BRANCH   1   2
ATOM      2  C   UNL     1     -23.413   6.368  22.197  1.00  0.00     0.000 C 
BRANCH   2   3
ATOM      3  C   UNL     1     -24.689   6.264  23.051  1.00  0.00     0.000 C 
BRANCH   3   4
ATOM      4  C   UNL     1     -24.621   5.126  24.083  1.00  0.00     0.000 C 
BRANCH   4   5
ATOM      5  C   UNL     1     -23.341   4.268  23.967  1.00  0.00     0.000 C 
BRANCH   5   6
ATOM      6  C   UNL     1     -23.637   2.857  23.428  1.00  0.00     0.000 C 
BRANCH   6   7
ATOM      7  C   UNL     1     -22.769   2.482  22.212  1.00  0.00     0.006 C 
BRANCH   7   8
ATOM      8  C   UNL     1     -22.519   0.970  22.064  1.00  0.00     0.053 C 
BRANCH   8   9
ATOM      9  C   UNL     1     -21.061   0.631  21.981  1.00  0.00     0.041 C 
ATOM     10  O   UNL     1     -20.625  -0.063  21.022  1.00  0.00    -0.550 OA
ATOM     11  O   UNL     1     -20.186   1.067  22.970  1.00  0.00    -0.550 OA
ENDBRANCH   8   9
ENDBRANCH   7   8
ENDBRANCH   6   7
ENDBRANCH   5   6
ENDBRANCH   4   5
ENDBRANCH   3   4
ENDBRANCH   2   3
ENDBRANCH   1   2
BRANCH   1  12
ATOM     12  C   UNL     1     -21.777   8.107  21.208  1.00  0.00     0.000 C 
BRANCH  12  13
ATOM     13  C   UNL     1     -21.751   7.098  20.046  1.00  0.00    -0.000 C 
BRANCH  13  14
ATOM     14  C   UNL     1     -20.469   6.250  20.021  1.00  0.00    -0.000 C 
BRANCH  14  15
ATOM     15  C   UNL     1     -20.742   4.751  20.229  1.00  0.00    -0.000 C 
BRANCH  15  16
ATOM     16  C   UNL     1     -19.611   3.970  20.927  1.00  0.00    -0.000 C 
BRANCH  16  17
ATOM     17  C   UNL     1     -18.964   4.687  22.124  1.00  0.00    -0.000 C 
BRANCH  17  18
ATOM     18  C   UNL     1     -19.797   4.568  23.410  1.00  0.00    -0.000 C 
BRANCH  18  19
ATOM     19  C   UNL     1     -19.987   5.939  24.068  1.00  0.00    -0.003 C 
ATOM     20  C   UNL     1     -19.074   6.985  23.433  1.00  0.00     0.004 C 
ENDBRANCH  18  19
ENDBRANCH  17  18
ENDBRANCH  16  17
ENDBRANCH  15  16
ENDBRANCH  14  15
ENDBRANCH  13  14
ENDBRANCH  12  13
ENDBRANCH   1  12
TORSDOF 16
ENDMDL
MODEL 8
REMARK VINA RESULT:    -3.739      1.471      2.114
REMARK INTER + INTRA:          -9.448
REMARK INTER:                  -6.854
REMARK INTRA:                  -2.594
REMARK UNBOUND:                -2.211
REMARK SMILES CCCCCCCCCCCCCCCCCC(=O)[O-]
REMARK SMILES IDX 10 1 11 2 12 3 13 4 14 5 15 6 16 7 17 8 18 9 19 10 20 11
REMARK SMILES IDX 9 12 8 13 7 14 6 15 5 16 4 17 3 18 2 19 1 20
REMARK H PARENT
REMARK Flexibility Score: inf
ROOT
ATOM      1  C   UNL     1     -19.421   6.405  22.954  1.00  0.00     0.000 C 
ENDROOT
BRANCH   1   2
ATOM      2  C   UNL     1     -19.119   6.240  21.449  1.00  0.00     0.000 C 
BRANCH   2   3
ATOM      3  C   UNL     1     -19.223   4.773  20.995  1.00  0.00     0.000 C 
BRANCH   3   4
ATOM      4  C   UNL     1     -20.636   4.398  20.519  1.00  0.00     0.000 C 
BRANCH   4   5
ATOM      5  C   UNL     1     -21.324   3.342  21.414  1.00  0.00     0.000 C 
BRANCH   5   6
ATOM      6  C   UNL     1     -20.429   2.906  22.587  1.00  0.00     0.000 C 
BRANCH   6   7
ATOM      7  C   UNL     1     -20.357   1.375  22.754  1.00  0.00     0.006 C 
BRANCH   7   8
ATOM      8  C   UNL     1     -20.232   0.606  21.426  1.00  0.00     0.053 C 
BRANCH   8   9
ATOM      9  C   UNL     1     -21.029  -0.663  21.417  1.00  0.00     0.041 C 
ATOM     10  O   UNL     1     -22.174  -0.688  20.890  1.00  0.00    -0.550 OA
ATOM     11  O   UNL     1     -20.516  -1.814  22.005  1.00  0.00    -0.550 OA
ENDBRANCH   8   9
ENDBRANCH   7   8
ENDBRANCH   6   7
ENDBRANCH   5   6
ENDBRANCH   4   5
ENDBRANCH   3   4
ENDBRANCH   2   3
ENDBRANCH   1   2
BRANCH   1  12
ATOM     12  C   UNL     1     -20.858   6.880  23.251  1.00  0.00     0.000 C 
BRANCH  12  13
ATOM     13  C   UNL     1     -21.494   7.753  22.154  1.00  0.00    -0.000 C 
BRANCH  13  14
ATOM     14  C   UNL     1     -22.953   7.369  21.858  1.00  0.00    -0.000 C 
BRANCH  14  15
ATOM     15  C   UNL     1     -23.355   6.026  22.489  1.00  0.00    -0.000 C 
BRANCH  15  16
ATOM     16  C   UNL     1     -24.699   6.033  23.244  1.00  0.00    -0.000 C 
BRANCH  16  17
ATOM     17  C   UNL     1     -24.776   5.080  24.449  1.00  0.00    -0.000 C 
BRANCH  17  18
ATOM     18  C   UNL     1     -23.733   3.954  24.385  1.00  0.00    -0.000 C 
BRANCH  18  19
ATOM     19  C   UNL     1     -24.406   2.579  24.456  1.00  0.00    -0.003 C 
ATOM     20  C   UNL     1     -24.015   1.713  23.261  1.00  0.00     0.004 C 
ENDBRANCH  18  19
ENDBRANCH  17  18
ENDBRANCH  16  17
ENDBRANCH  15  16
ENDBRANCH  14  15
ENDBRANCH  13  14
ENDBRANCH  12  13
ENDBRANCH   1  12
TORSDOF 16
ENDMDL
