MODEL 1
REMARK VINA RESULT:    -3.316      0.000      0.000
REMARK INTER + INTRA:          -5.600
REMARK INTER:                  -5.060
REMARK INTRA:                  -0.540
REMARK UNBOUND:                -0.540
REMARK SMILES CC1=CCC[C@H](C)C(=O)C[C@@H](C(C)C)C(=O)C1
REMARK SMILES IDX 8 1 9 2 6 3 7 4 5 5 4 6 3 7 2 8 1 9 10 11 11 12 15 13 16 14
REMARK SMILES IDX 17 15 12 17 13 18 14 19
REMARK H PARENT
REMARK Flexibility Score: 70.00
ROOT
ATOM      1  C   UNL     1      12.286  79.538 -20.123  1.00  0.00     0.136 C 
ATOM      2  O   UNL     1      13.417  79.729 -20.546  1.00  0.00    -0.299 OA
ENDROOT
BRANCH   1   3
ATOM      3  C   UNL     1      11.865  78.108 -19.727  1.00  0.00     0.053 C 
ATOM      4  C   UNL     1      12.545  77.047 -20.604  1.00  0.00     0.016 C 
BRANCH   3   5
ATOM      5  C   UNL     1      12.246  77.944 -18.270  1.00  0.00     0.015 C 
BRANCH   5   6
ATOM      6  C   UNL     1      11.297  77.852 -17.103  1.00  0.00     0.028 C 
BRANCH   6   7
ATOM      7  C   UNL     1       9.860  77.857 -17.631  1.00  0.00    -0.028 C 
ATOM      8  C   UNL     1       8.961  78.900 -17.697  1.00  0.00    -0.070 CG0
ATOM      9  C   UNL     1       7.650  78.603 -18.386  1.00  0.00     0.039 C 
ATOM     10  G   UNL     1       9.142  80.324 -17.123  1.00  0.00     0.000 G0
ENDBRANCH   6   7
ENDBRANCH   5   6
ENDBRANCH   3   5
ENDBRANCH   1   3
BRANCH   1  11
ATOM     11  C   UNL     1      11.327  80.744 -20.054  1.00  0.00     0.087 C 
BRANCH  11  12
ATOM     12  C   UNL     1      11.128  81.382 -18.618  1.00  0.00     0.066 C 
BRANCH  12  13
ATOM     13  C   UNL     1       9.657  81.351 -18.140  1.00  0.00     0.140 C 
ATOM     14  O   UNL     1       8.870  82.179 -18.574  1.00  0.00    -0.299 OA
BRANCH  13  15
ATOM     15  C   UNL     1       9.139  80.318 -17.132  1.00  0.00     0.106 CG0
ATOM     16  G   UNL     1       8.967  78.893 -17.707  1.00  0.00     0.000 G0
ENDBRANCH  13  15
ENDBRANCH  12  13
BRANCH  12  17
ATOM     17  C   UNL     1      11.699  82.830 -18.493  1.00  0.00    -0.006 C 
ATOM     18  C   UNL     1      11.954  83.531 -19.841  1.00  0.00     0.008 C 
ATOM     19  C   UNL     1      12.971  82.868 -17.627  1.00  0.00     0.008 C 
ENDBRANCH  12  17
ENDBRANCH  11  12
ENDBRANCH   1  11
TORSDOF 1
ENDMDL
MODEL 2
REMARK VINA RESULT:    -3.179      1.674      3.829
REMARK INTER + INTRA:          -5.392
REMARK INTER:                  -5.353
REMARK INTRA:                  -0.039
REMARK UNBOUND:                -0.540
REMARK SMILES CC1=CCC[C@H](C)C(=O)C[C@@H](C(C)C)C(=O)C1
REMARK SMILES IDX 8 1 9 2 6 3 7 4 5 5 4 6 3 7 2 8 1 9 10 11 11 12 15 13 16 14
REMARK SMILES IDX 17 15 12 17 13 18 14 19
REMARK H PARENT
REMARK Flexibility Score: 70.00
ROOT
ATOM      1  C   UNL     1       9.805  80.130 -18.107  1.00  0.00     0.136 C 
ATOM      2  O   UNL     1       8.967  80.414 -18.951  1.00  0.00    -0.299 OA
ENDROOT
BRANCH   1   3
ATOM      3  C   UNL     1       9.508  78.990 -17.111  1.00  0.00     0.053 C 
ATOM      4  C   UNL     1       8.010  78.659 -17.047  1.00  0.00     0.016 C 
BRANCH   3   5
ATOM      5  C   UNL     1      10.314  77.796 -17.584  1.00  0.00     0.015 C 
BRANCH   5   6
ATOM      6  C   UNL     1      11.816  77.677 -17.584  1.00  0.00     0.028 C 
BRANCH   6   7
ATOM      7  C   UNL     1      12.261  77.011 -18.888  1.00  0.00    -0.028 C 
ATOM      8  C   UNL     1      12.290  77.530 -20.165  1.00  0.00    -0.070 CG0
ATOM      9  C   UNL     1      12.899  76.647 -21.228  1.00  0.00     0.039 C 
ATOM     10  G   UNL     1      11.744  78.902 -20.625  1.00  0.00     0.000 G0
ENDBRANCH   6   7
ENDBRANCH   5   6
ENDBRANCH   3   5
ENDBRANCH   1   3
BRANCH   1  11
ATOM     11  C   UNL     1      11.099  80.967 -18.061  1.00  0.00     0.087 C 
BRANCH  11  12
ATOM     12  C   UNL     1      11.735  81.326 -19.466  1.00  0.00     0.066 C 
BRANCH  12  13
ATOM     13  C   UNL     1      12.474  80.135 -20.119  1.00  0.00     0.140 C 
ATOM     14  O   UNL     1      13.692  80.168 -20.218  1.00  0.00    -0.299 OA
BRANCH  13  15
ATOM     15  C   UNL     1      11.738  78.902 -20.657  1.00  0.00     0.106 CG0
ATOM     16  G   UNL     1      12.309  77.551 -20.166  1.00  0.00     0.000 G0
ENDBRANCH  13  15
ENDBRANCH  12  13
BRANCH  12  17
ATOM     17  C   UNL     1      12.669  82.577 -19.427  1.00  0.00    -0.006 C 
ATOM     18  C   UNL     1      12.831  83.207 -18.030  1.00  0.00     0.008 C 
ATOM     19  C   UNL     1      12.233  83.647 -20.443  1.00  0.00     0.008 C 
ENDBRANCH  12  17
ENDBRANCH  11  12
ENDBRANCH   1  11
TORSDOF 1
ENDMDL
MODEL 3
REMARK VINA RESULT:    -3.168      8.725     11.120
REMARK INTER + INTRA:          -5.375
REMARK INTER:                  -4.958
REMARK INTRA:                  -0.418
REMARK UNBOUND:                -0.540
REMARK SMILES CC1=CCC[C@H](C)C(=O)C[C@@H](C(C)C)C(=O)C1
REMARK SMILES IDX 8 1 9 2 6 3 7 4 5 5 4 6 3 7 2 8 1 9 10 11 11 12 15 13 16 14
REMARK SMILES IDX 17 15 12 17 13 18 14 19
REMARK H PARENT
REMARK Flexibility Score: 70.00
ROOT
ATOM      1  C   UNL     1       1.334  78.253 -19.247  1.00  0.00     0.136 C 
ATOM      2  O   UNL     1       2.099  77.430 -19.729  1.00  0.00    -0.299 OA
ENDROOT
BRANCH   1   3
ATOM      3  C   UNL     1       1.713  78.941 -17.919  1.00  0.00     0.053 C 
ATOM      4  C   UNL     1       2.796  78.163 -17.159  1.00  0.00     0.016 C 
BRANCH   3   5
ATOM      5  C   UNL     1       2.191  80.332 -18.285  1.00  0.00     0.015 C 
BRANCH   5   6
ATOM      6  C   UNL     1       2.873  80.733 -19.567  1.00  0.00     0.028 C 
BRANCH   6   7
ATOM      7  C   UNL     1       2.148  81.944 -20.158  1.00  0.00    -0.028 C 
ATOM      8  C   UNL     1       1.379  82.027 -21.299  1.00  0.00    -0.070 CG0
ATOM      9  C   UNL     1       0.699  83.353 -21.548  1.00  0.00     0.039 C 
ATOM     10  G   UNL     1       1.160  80.920 -22.357  1.00  0.00     0.000 G0
ENDBRANCH   6   7
ENDBRANCH   5   6
ENDBRANCH   3   5
ENDBRANCH   1   3
BRANCH   1  11
ATOM     11  C   UNL     1       0.004  78.522 -19.980  1.00  0.00     0.087 C 
BRANCH  11  12
ATOM     12  C   UNL     1       0.090  78.580 -21.560  1.00  0.00     0.066 C 
BRANCH  12  13
ATOM     13  C   UNL     1      -0.051  80.014 -22.122  1.00  0.00     0.140 C 
ATOM     14  O   UNL     1      -1.164  80.448 -22.382  1.00  0.00    -0.299 OA
BRANCH  13  15
ATOM     15  C   UNL     1       1.158  80.924 -22.374  1.00  0.00     0.106 CG0
ATOM     16  G   UNL     1       1.380  82.005 -21.291  1.00  0.00     0.000 G0
ENDBRANCH  13  15
ENDBRANCH  12  13
BRANCH  12  17
ATOM     17  C   UNL     1      -0.918  77.625 -22.276  1.00  0.00    -0.006 C 
ATOM     18  C   UNL     1      -1.114  76.267 -21.575  1.00  0.00     0.008 C 
ATOM     19  C   UNL     1      -0.548  77.410 -23.754  1.00  0.00     0.008 C 
ENDBRANCH  12  17
ENDBRANCH  11  12
ENDBRANCH   1  11
TORSDOF 1
ENDMDL
MODEL 4
REMARK VINA RESULT:    -3.135     12.421     14.306
REMARK INTER + INTRA:          -5.324
REMARK INTER:                  -4.818
REMARK INTRA:                  -0.506
REMARK UNBOUND:                -0.540
REMARK SMILES CC1=CCC[C@H](C)C(=O)C[C@@H](C(C)C)C(=O)C1
REMARK SMILES IDX 8 1 9 2 6 3 7 4 5 5 4 6 3 7 2 8 1 9 10 11 11 12 15 13 16 14
REMARK SMILES IDX 17 15 12 17 13 18 14 19
REMARK H PARENT
REMARK Flexibility Score: 70.00
ROOT
ATOM      1  C   UNL     1       0.283  79.930 -29.361  1.00  0.00     0.136 C 
ATOM      2  O   UNL     1       0.217  81.142 -29.220  1.00  0.00    -0.299 OA
ENDROOT
BRANCH   1   3
ATOM      3  C   UNL     1       0.724  79.357 -30.724  1.00  0.00     0.053 C 
ATOM      4  C   UNL     1      -0.189  79.825 -31.865  1.00  0.00     0.016 C 
BRANCH   3   5
ATOM      5  C   UNL     1       2.151  79.822 -30.935  1.00  0.00     0.015 C 
BRANCH   5   6
ATOM      6  C   UNL     1       3.359  79.386 -30.147  1.00  0.00     0.028 C 
BRANCH   6   7
ATOM      7  C   UNL     1       3.555  77.880 -30.334  1.00  0.00    -0.028 C 
ATOM      8  C   UNL     1       3.395  76.861 -29.419  1.00  0.00    -0.070 CG0
ATOM      9  C   UNL     1       3.555  75.457 -29.952  1.00  0.00     0.039 C 
ATOM     10  G   UNL     1       3.096  77.005 -27.909  1.00  0.00     0.000 G0
ENDBRANCH   6   7
ENDBRANCH   5   6
ENDBRANCH   3   5
ENDBRANCH   1   3
BRANCH   1  11
ATOM     11  C   UNL     1      -0.127  79.038 -28.171  1.00  0.00     0.087 C 
BRANCH  11  12
ATOM     12  C   UNL     1       1.047  78.604 -27.201  1.00  0.00     0.066 C 
BRANCH  12  13
ATOM     13  C   UNL     1       1.627  77.211 -27.539  1.00  0.00     0.140 C 
ATOM     14  O   UNL     1       0.890  76.235 -27.520  1.00  0.00    -0.299 OA
BRANCH  13  15
ATOM     15  C   UNL     1       3.102  76.996 -27.897  1.00  0.00     0.106 CG0
ATOM     16  G   UNL     1       3.380  76.871 -29.414  1.00  0.00     0.000 G0
ENDBRANCH  13  15
ENDBRANCH  12  13
BRANCH  12  17
ATOM     17  C   UNL     1       0.664  78.670 -25.689  1.00  0.00    -0.006 C 
ATOM     18  C   UNL     1      -0.801  79.062 -25.420  1.00  0.00     0.008 C 
ATOM     19  C   UNL     1       1.612  79.592 -24.901  1.00  0.00     0.008 C 
ENDBRANCH  12  17
ENDBRANCH  11  12
ENDBRANCH   1  11
TORSDOF 1
ENDMDL
MODEL 5
REMARK VINA RESULT:    -3.123      4.240      7.157
REMARK INTER + INTRA:          -5.306
REMARK INTER:                  -4.854
REMARK INTRA:                  -0.452
REMARK UNBOUND:                -0.540
REMARK SMILES CC1=CCC[C@H](C)C(=O)C[C@@H](C(C)C)C(=O)C1
REMARK SMILES IDX 8 1 9 2 6 3 7 4 5 5 4 6 3 7 2 8 1 9 10 11 11 12 15 13 16 14
REMARK SMILES IDX 17 15 12 17 13 18 14 19
REMARK H PARENT
REMARK Flexibility Score: 70.00
ROOT
ATOM      1  C   UNL     1       3.682  77.034 -16.687  1.00  0.00     0.136 C 
ATOM      2  O   UNL     1       3.060  76.511 -17.600  1.00  0.00    -0.299 OA
ENDROOT
BRANCH   1   3
ATOM      3  C   UNL     1       4.584  76.157 -15.795  1.00  0.00     0.053 C 
ATOM      4  C   UNL     1       4.556  74.683 -16.225  1.00  0.00     0.016 C 
BRANCH   3   5
ATOM      5  C   UNL     1       5.981  76.735 -15.909  1.00  0.00     0.015 C 
BRANCH   5   6
ATOM      6  C   UNL     1       6.738  76.995 -17.185  1.00  0.00     0.028 C 
BRANCH   6   7
ATOM      7  C   UNL     1       7.758  78.109 -16.939  1.00  0.00    -0.028 C 
ATOM      8  C   UNL     1       7.668  79.453 -17.232  1.00  0.00    -0.070 CG0
ATOM      9  C   UNL     1       8.810  80.316 -16.752  1.00  0.00     0.039 C 
ATOM     10  G   UNL     1       6.540  80.160 -18.019  1.00  0.00     0.000 G0
ENDBRANCH   6   7
ENDBRANCH   5   6
ENDBRANCH   3   5
ENDBRANCH   1   3
BRANCH   1  11
ATOM     11  C   UNL     1       3.489  78.547 -16.453  1.00  0.00     0.087 C 
BRANCH  11  12
ATOM     12  C   UNL     1       3.967  79.491 -17.632  1.00  0.00     0.066 C 
BRANCH  12  13
ATOM     13  C   UNL     1       5.226  80.316 -17.275  1.00  0.00     0.140 C 
ATOM     14  O   UNL     1       5.173  81.117 -16.354  1.00  0.00    -0.299 OA
BRANCH  13  15
ATOM     15  C   UNL     1       6.549  80.173 -18.036  1.00  0.00     0.106 CG0
ATOM     16  G   UNL     1       7.674  79.473 -17.238  1.00  0.00     0.000 G0
ENDBRANCH  13  15
ENDBRANCH  12  13
BRANCH  12  17
ATOM     17  C   UNL     1       2.845  80.434 -18.170  1.00  0.00    -0.006 C 
ATOM     18  C   UNL     1       1.414  79.901 -17.964  1.00  0.00     0.008 C 
ATOM     19  C   UNL     1       3.068  80.800 -19.648  1.00  0.00     0.008 C 
ENDBRANCH  12  17
ENDBRANCH  11  12
ENDBRANCH   1  11
TORSDOF 1
ENDMDL
MODEL 6
REMARK VINA RESULT:    -3.110     10.178     11.901
REMARK INTER + INTRA:          -5.286
REMARK INTER:                  -4.776
REMARK INTRA:                  -0.509
REMARK UNBOUND:                -0.540
REMARK SMILES CC1=CCC[C@H](C)C(=O)C[C@@H](C(C)C)C(=O)C1
REMARK SMILES IDX 8 1 9 2 6 3 7 4 5 5 4 6 3 7 2 8 1 9 10 11 11 12 15 13 16 14
REMARK SMILES IDX 17 15 12 17 13 18 14 19
REMARK H PARENT
REMARK Flexibility Score: 70.00
ROOT
ATOM      1  C   UNL     1       0.877  78.209 -20.131  1.00  0.00     0.136 C 
ATOM      2  O   UNL     1       0.432  78.887 -19.216  1.00  0.00    -0.299 OA
ENDROOT
BRANCH   1   3
ATOM      3  C   UNL     1       1.305  76.755 -19.847  1.00  0.00     0.053 C 
ATOM      4  C   UNL     1       2.075  76.632 -18.524  1.00  0.00     0.016 C 
BRANCH   3   5
ATOM      5  C   UNL     1       0.030  75.937 -19.818  1.00  0.00     0.015 C 
BRANCH   5   6
ATOM      6  C   UNL     1      -0.775  75.496 -21.013  1.00  0.00     0.028 C 
BRANCH   6   7
ATOM      7  C   UNL     1       0.168  75.301 -22.202  1.00  0.00    -0.028 C 
ATOM      8  C   UNL     1       0.208  75.978 -23.402  1.00  0.00    -0.070 CG0
ATOM      9  C   UNL     1       1.345  75.622 -24.330  1.00  0.00     0.039 C 
ATOM     10  G   UNL     1      -0.798  77.040 -23.906  1.00  0.00     0.000 G0
ENDBRANCH   6   7
ENDBRANCH   5   6
ENDBRANCH   3   5
ENDBRANCH   1   3
BRANCH   1  11
ATOM     11  C   UNL     1       1.026  78.871 -21.517  1.00  0.00     0.087 C 
BRANCH  11  12
ATOM     12  C   UNL     1      -0.325  79.158 -22.290  1.00  0.00     0.066 C 
BRANCH  12  13
ATOM     13  C   UNL     1      -0.376  78.498 -23.687  1.00  0.00     0.140 C 
ATOM     14  O   UNL     1      -0.057  79.152 -24.670  1.00  0.00    -0.299 OA
BRANCH  13  15
ATOM     15  C   UNL     1      -0.817  77.045 -23.898  1.00  0.00     0.106 CG0
ATOM     16  G   UNL     1       0.197  75.990 -23.397  1.00  0.00     0.000 G0
ENDBRANCH  13  15
ENDBRANCH  12  13
BRANCH  12  17
ATOM     17  C   UNL     1      -0.669  80.677 -22.404  1.00  0.00    -0.006 C 
ATOM     18  C   UNL     1       0.413  81.618 -21.838  1.00  0.00     0.008 C 
ATOM     19  C   UNL     1      -2.035  81.002 -21.777  1.00  0.00     0.008 C 
ENDBRANCH  12  17
ENDBRANCH  11  12
ENDBRANCH   1  11
TORSDOF 1
ENDMDL
MODEL 7
REMARK VINA RESULT:    -3.043      8.206     11.019
REMARK INTER + INTRA:          -5.184
REMARK INTER:                  -4.728
REMARK INTRA:                  -0.457
REMARK UNBOUND:                -0.540
REMARK SMILES CC1=CCC[C@H](C)C(=O)C[C@@H](C(C)C)C(=O)C1
REMARK SMILES IDX 8 1 9 2 6 3 7 4 5 5 4 6 3 7 2 8 1 9 10 11 11 12 15 13 16 14
REMARK SMILES IDX 17 15 12 17 13 18 14 19
REMARK H PARENT
REMARK Flexibility Score: 70.00
ROOT
ATOM      1  C   UNL     1       0.903  75.655 -19.940  1.00  0.00     0.136 C 
ATOM      2  O   UNL     1       0.354  75.431 -18.871  1.00  0.00    -0.299 OA
ENDROOT
BRANCH   1   3
ATOM      3  C   UNL     1       0.656  74.698 -21.124  1.00  0.00     0.053 C 
ATOM      4  C   UNL     1      -0.247  73.520 -20.731  1.00  0.00     0.016 C 
BRANCH   3   5
ATOM      5  C   UNL     1       0.022  75.534 -22.218  1.00  0.00     0.015 C 
BRANCH   5   6
ATOM      6  C   UNL     1      -1.129  76.492 -22.056  1.00  0.00     0.028 C 
BRANCH   6   7
ATOM      7  C   UNL     1      -0.724  77.855 -22.620  1.00  0.00    -0.028 C 
ATOM      8  C   UNL     1      -0.366  79.004 -21.948  1.00  0.00    -0.070 CG0
ATOM      9  C   UNL     1       0.096  80.159 -22.805  1.00  0.00     0.039 C 
ATOM     10  G   UNL     1      -0.411  79.242 -20.421  1.00  0.00     0.000 G0
ENDBRANCH   6   7
ENDBRANCH   5   6
ENDBRANCH   3   5
ENDBRANCH   1   3
BRANCH   1  11
ATOM     11  C   UNL     1       1.853  76.867 -20.027  1.00  0.00     0.087 C 
BRANCH  11  12
ATOM     12  C   UNL     1       1.549  78.052 -19.021  1.00  0.00     0.066 C 
BRANCH  12  13
ATOM     13  C   UNL     1       0.941  79.294 -19.713  1.00  0.00     0.140 C 
ATOM     14  O   UNL     1       1.563  80.346 -19.706  1.00  0.00    -0.299 OA
BRANCH  13  15
ATOM     15  C   UNL     1      -0.424  79.264 -20.412  1.00  0.00     0.106 CG0
ATOM     16  G   UNL     1      -0.356  79.001 -21.934  1.00  0.00     0.000 G0
ENDBRANCH  13  15
ENDBRANCH  12  13
BRANCH  12  17
ATOM     17  C   UNL     1       2.782  78.471 -18.158  1.00  0.00    -0.006 C 
ATOM     18  C   UNL     1       4.140  78.034 -18.739  1.00  0.00     0.008 C 
ATOM     19  C   UNL     1       2.648  77.992 -16.702  1.00  0.00     0.008 C 
ENDBRANCH  12  17
ENDBRANCH  11  12
ENDBRANCH   1  11
TORSDOF 1
ENDMDL
MODEL 8
REMARK VINA RESULT:    -2.999      5.603      8.256
REMARK INTER + INTRA:          -5.117
REMARK INTER:                  -4.960
REMARK INTRA:                  -0.157
REMARK UNBOUND:                -0.540
REMARK SMILES CC1=CCC[C@H](C)C(=O)C[C@@H](C(C)C)C(=O)C1
REMARK SMILES IDX 8 1 9 2 6 3 7 4 5 5 4 6 3 7 2 8 1 9 10 11 11 12 15 13 16 14
REMARK SMILES IDX 17 15 12 17 13 18 14 19
REMARK H PARENT
REMARK Flexibility Score: 70.00
ROOT
ATOM      1  C   UNL     1      13.283  72.989 -22.502  1.00  0.00     0.136 C 
ATOM      2  O   UNL     1      13.832  71.941 -22.814  1.00  0.00    -0.299 OA
ENDROOT
BRANCH   1   3
ATOM      3  C   UNL     1      12.976  73.259 -21.015  1.00  0.00     0.053 C 
ATOM      4  C   UNL     1      13.808  72.364 -20.085  1.00  0.00     0.016 C 
BRANCH   3   5
ATOM      5  C   UNL     1      13.280  74.726 -20.781  1.00  0.00     0.015 C 
BRANCH   5   6
ATOM      6  C   UNL     1      12.303  75.868 -20.886  1.00  0.00     0.028 C 
BRANCH   6   7
ATOM      7  C   UNL     1      13.070  77.149 -21.220  1.00  0.00    -0.028 C 
ATOM      8  C   UNL     1      13.391  77.675 -22.452  1.00  0.00    -0.070 CG0
ATOM      9  C   UNL     1      14.061  79.029 -22.443  1.00  0.00     0.039 C 
ATOM     10  G   UNL     1      13.163  77.018 -23.833  1.00  0.00     0.000 G0
ENDBRANCH   6   7
ENDBRANCH   5   6
ENDBRANCH   3   5
ENDBRANCH   1   3
BRANCH   1  11
ATOM     11  C   UNL     1      12.887  73.963 -23.630  1.00  0.00     0.087 C 
BRANCH  11  12
ATOM     12  C   UNL     1      14.085  74.545 -24.487  1.00  0.00     0.066 C 
BRANCH  12  13
ATOM     13  C   UNL     1      14.293  76.064 -24.285  1.00  0.00     0.140 C 
ATOM     14  O   UNL     1      15.399  76.547 -24.479  1.00  0.00    -0.299 OA
BRANCH  13  15
ATOM     15  C   UNL     1      13.162  77.001 -23.845  1.00  0.00     0.106 CG0
ATOM     16  G   UNL     1      13.384  77.671 -22.470  1.00  0.00     0.000 G0
ENDBRANCH  13  15
ENDBRANCH  12  13
BRANCH  12  17
ATOM     17  C   UNL     1      13.979  74.219 -26.011  1.00  0.00    -0.006 C 
ATOM     18  C   UNL     1      13.128  75.218 -26.817  1.00  0.00     0.008 C 
ATOM     19  C   UNL     1      13.482  72.783 -26.253  1.00  0.00     0.008 C 
ENDBRANCH  12  17
ENDBRANCH  11  12
ENDBRANCH   1  11
TORSDOF 1
ENDMDL
MODEL 9
REMARK VINA RESULT:    -2.941      9.345     11.169
REMARK INTER + INTRA:          -5.028
REMARK INTER:                  -4.707
REMARK INTRA:                  -0.321
REMARK UNBOUND:                -0.540
REMARK SMILES CC1=CCC[C@H](C)C(=O)C[C@@H](C(C)C)C(=O)C1
REMARK SMILES IDX 8 1 9 2 6 3 7 4 5 5 4 6 3 7 2 8 1 9 10 11 11 12 15 13 16 14
REMARK SMILES IDX 17 15 12 17 13 18 14 19
REMARK H PARENT
REMARK Flexibility Score: 70.00
ROOT
ATOM      1  C   UNL     1      11.157  72.789 -27.509  1.00  0.00     0.136 C 
ATOM      2  O   UNL     1      10.659  71.875 -28.150  1.00  0.00    -0.299 OA
ENDROOT
BRANCH   1   3
ATOM      3  C   UNL     1      12.370  72.494 -26.602  1.00  0.00     0.053 C 
ATOM      4  C   UNL     1      13.207  71.319 -27.128  1.00  0.00     0.016 C 
BRANCH   3   5
ATOM      5  C   UNL     1      13.184  73.772 -26.557  1.00  0.00     0.015 C 
BRANCH   5   6
ATOM      6  C   UNL     1      13.141  74.820 -25.475  1.00  0.00     0.028 C 
BRANCH   6   7
ATOM      7  C   UNL     1      13.632  76.149 -26.052  1.00  0.00    -0.028 C 
ATOM      8  C   UNL     1      12.928  77.111 -26.745  1.00  0.00    -0.070 CG0
ATOM      9  C   UNL     1      13.683  78.375 -27.080  1.00  0.00     0.039 C 
ATOM     10  G   UNL     1      11.464  77.022 -27.233  1.00  0.00     0.000 G0
ENDBRANCH   6   7
ENDBRANCH   5   6
ENDBRANCH   3   5
ENDBRANCH   1   3
BRANCH   1  11
ATOM     11  C   UNL     1      10.509  74.185 -27.614  1.00  0.00     0.087 C 
BRANCH  11  12
ATOM     12  C   UNL     1      10.824  74.991 -28.939  1.00  0.00     0.066 C 
BRANCH  12  13
ATOM     13  C   UNL     1      11.338  76.424 -28.669  1.00  0.00     0.140 C 
ATOM     14  O   UNL     1      11.663  77.130 -29.613  1.00  0.00    -0.299 OA
BRANCH  13  15
ATOM     15  C   UNL     1      11.463  77.004 -27.255  1.00  0.00     0.106 CG0
ATOM     16  G   UNL     1      12.915  77.108 -26.732  1.00  0.00     0.000 G0
ENDBRANCH  13  15
ENDBRANCH  12  13
BRANCH  12  17
ATOM     17  C   UNL     1       9.629  75.033 -29.943  1.00  0.00    -0.006 C 
ATOM     18  C   UNL     1       8.248  75.203 -29.281  1.00  0.00     0.008 C 
ATOM     19  C   UNL     1       9.623  73.809 -30.875  1.00  0.00     0.008 C 
ENDBRANCH  12  17
ENDBRANCH  11  12
ENDBRANCH   1  11
TORSDOF 1
ENDMDL
