MODEL 1
REMARK VINA RESULT:    -3.909      0.000      0.000
REMARK INTER + INTRA:          -7.494
REMARK INTER:                  -6.881
REMARK INTRA:                  -0.614
REMARK UNBOUND:                -0.614
REMARK SMILES CCCCCCCCCCCCCCC(=O)[O-]
REMARK SMILES IDX 9 1 10 2 11 3 12 4 13 5 14 6 15 7 16 8 17 9 8 10 7 11 6 12
REMARK SMILES IDX 5 13 4 14 3 15 2 16 1 17
REMARK H PARENT
REMARK Flexibility Score: inf
ROOT
ATOM      1  C   UNL     1      14.368   3.488  -1.245  1.00  0.00     0.000 C 
ENDROOT
BRANCH   1   2
ATOM      2  C   UNL     1      13.469   3.560  -2.488  1.00  0.00     0.000 C 
BRANCH   2   3
ATOM      3  C   UNL     1      12.193   4.382  -2.250  1.00  0.00     0.000 C 
BRANCH   3   4
ATOM      4  C   UNL     1      12.100   4.931  -0.818  1.00  0.00     0.000 C 
BRANCH   4   5
ATOM      5  C   UNL     1      11.383   6.289  -0.796  1.00  0.00     0.006 C 
BRANCH   5   6
ATOM      6  C   UNL     1       9.994   6.224  -1.442  1.00  0.00     0.053 C 
BRANCH   6   7
ATOM      7  C   UNL     1       9.338   7.570  -1.484  1.00  0.00     0.041 C 
ATOM      8  O   UNL     1      10.028   8.606  -1.679  1.00  0.00    -0.550 OA
ATOM      9  O   UNL     1       7.970   7.684  -1.278  1.00  0.00    -0.550 OA
ENDBRANCH   6   7
ENDBRANCH   5   6
ENDBRANCH   4   5
ENDBRANCH   3   4
ENDBRANCH   2   3
ENDBRANCH   1   2
BRANCH   1  10
ATOM     10  C   UNL     1      15.679   2.754  -1.557  1.00  0.00     0.000 C 
BRANCH  10  11
ATOM     11  C   UNL     1      15.409   1.302  -1.978  1.00  0.00    -0.000 C 
BRANCH  11  12
ATOM     12  C   UNL     1      16.595   0.671  -2.723  1.00  0.00    -0.000 C 
BRANCH  12  13
ATOM     13  C   UNL     1      17.819   1.601  -2.787  1.00  0.00    -0.000 C 
BRANCH  13  14
ATOM     14  C   UNL     1      19.146   0.813  -2.834  1.00  0.00    -0.000 C 
BRANCH  14  15
ATOM     15  C   UNL     1      20.389   1.709  -2.967  1.00  0.00    -0.000 C 
BRANCH  15  16
ATOM     16  C   UNL     1      21.685   0.997  -2.554  1.00  0.00    -0.003 C 
ATOM     17  C   UNL     1      21.691   0.691  -1.059  1.00  0.00     0.004 C 
ENDBRANCH  15  16
ENDBRANCH  14  15
ENDBRANCH  13  14
ENDBRANCH  12  13
ENDBRANCH  11  12
ENDBRANCH  10  11
ENDBRANCH   1  10
TORSDOF 13
ENDMDL
MODEL 2
REMARK VINA RESULT:    -3.905      4.857      9.624
REMARK INTER + INTRA:          -7.487
REMARK INTER:                  -6.763
REMARK INTRA:                  -0.723
REMARK UNBOUND:                -0.614
REMARK SMILES CCCCCCCCCCCCCCC(=O)[O-]
REMARK SMILES IDX 9 1 10 2 11 3 12 4 13 5 14 6 15 7 16 8 17 9 8 10 7 11 6 12
REMARK SMILES IDX 5 13 4 14 3 15 2 16 1 17
REMARK H PARENT
REMARK Flexibility Score: inf
ROOT
ATOM      1  C   UNL     1      14.924   3.128  -1.256  1.00  0.00     0.000 C 
ENDROOT
BRANCH   1   2
ATOM      2  C   UNL     1      16.195   2.301  -1.498  1.00  0.00     0.000 C 
BRANCH   2   3
ATOM      3  C   UNL     1      15.903   0.946  -2.163  1.00  0.00     0.000 C 
BRANCH   3   4
ATOM      4  C   UNL     1      17.028   0.495  -3.108  1.00  0.00     0.000 C 
BRANCH   4   5
ATOM      5  C   UNL     1      18.324   1.269  -2.826  1.00  0.00     0.006 C 
BRANCH   5   6
ATOM      6  C   UNL     1      19.565   0.372  -2.901  1.00  0.00     0.053 C 
BRANCH   6   7
ATOM      7  C   UNL     1      20.649   0.847  -1.982  1.00  0.00     0.041 C 
ATOM      8  O   UNL     1      20.856   0.259  -0.887  1.00  0.00    -0.550 OA
ATOM      9  O   UNL     1      21.410   1.958  -2.320  1.00  0.00    -0.550 OA
ENDBRANCH   6   7
ENDBRANCH   5   6
ENDBRANCH   4   5
ENDBRANCH   3   4
ENDBRANCH   2   3
ENDBRANCH   1   2
BRANCH   1  10
ATOM     10  C   UNL     1      14.219   3.449  -2.581  1.00  0.00     0.000 C 
BRANCH  10  11
ATOM     11  C   UNL     1      12.702   3.582  -2.377  1.00  0.00    -0.000 C 
BRANCH  11  12
ATOM     12  C   UNL     1      12.269   5.025  -2.072  1.00  0.00    -0.000 C 
BRANCH  12  13
ATOM     13  C   UNL     1      11.625   5.170  -0.682  1.00  0.00    -0.000 C 
BRANCH  13  14
ATOM     14  C   UNL     1      10.781   6.457  -0.564  1.00  0.00    -0.000 C 
BRANCH  14  15
ATOM     15  C   UNL     1      10.474   7.118  -1.920  1.00  0.00    -0.000 C 
BRANCH  15  16
ATOM     16  C   UNL     1      10.329   8.643  -1.821  1.00  0.00    -0.003 C 
ATOM     17  C   UNL     1      11.694   9.323  -1.775  1.00  0.00     0.004 C 
ENDBRANCH  15  16
ENDBRANCH  14  15
ENDBRANCH  13  14
ENDBRANCH  12  13
ENDBRANCH  11  12
ENDBRANCH  10  11
ENDBRANCH   1  10
TORSDOF 13
ENDMDL
MODEL 3
REMARK VINA RESULT:    -3.847      4.687      9.241
REMARK INTER + INTRA:          -7.385
REMARK INTER:                  -6.433
REMARK INTRA:                  -0.952
REMARK UNBOUND:                -0.614
REMARK SMILES CCCCCCCCCCCCCCC(=O)[O-]
REMARK SMILES IDX 9 1 10 2 11 3 12 4 13 5 14 6 15 7 16 8 17 9 8 10 7 11 6 12
REMARK SMILES IDX 5 13 4 14 3 15 2 16 1 17
REMARK H PARENT
REMARK Flexibility Score: inf
ROOT
ATOM      1  C   UNL     1      13.526   3.684  -2.174  1.00  0.00     0.000 C 
ENDROOT
BRANCH   1   2
ATOM      2  C   UNL     1      14.787   3.093  -1.526  1.00  0.00     0.000 C 
BRANCH   2   3
ATOM      3  C   UNL     1      15.778   2.534  -2.560  1.00  0.00     0.000 C 
BRANCH   3   4
ATOM      4  C   UNL     1      15.910   1.005  -2.487  1.00  0.00     0.000 C 
BRANCH   4   5
ATOM      5  C   UNL     1      17.316   0.555  -2.914  1.00  0.00     0.006 C 
BRANCH   5   6
ATOM      6  C   UNL     1      18.338   1.696  -2.840  1.00  0.00     0.053 C 
BRANCH   6   7
ATOM      7  C   UNL     1      19.719   1.185  -2.561  1.00  0.00     0.041 C 
ATOM      8  O   UNL     1      19.942  -0.055  -2.526  1.00  0.00    -0.550 OA
ATOM      9  O   UNL     1      20.753   2.077  -2.309  1.00  0.00    -0.550 OA
ENDBRANCH   6   7
ENDBRANCH   5   6
ENDBRANCH   4   5
ENDBRANCH   3   4
ENDBRANCH   2   3
ENDBRANCH   1   2
BRANCH   1  10
ATOM     10  C   UNL     1      13.179   5.045  -1.557  1.00  0.00     0.000 C 
BRANCH  10  11
ATOM     11  C   UNL     1      12.096   4.899  -0.477  1.00  0.00    -0.000 C 
BRANCH  11  12
ATOM     12  C   UNL     1      10.683   5.171  -1.015  1.00  0.00    -0.000 C 
BRANCH  12  13
ATOM     13  C   UNL     1      10.266   6.645  -0.870  1.00  0.00    -0.000 C 
BRANCH  13  14
ATOM     14  C   UNL     1       9.914   7.286  -2.230  1.00  0.00    -0.000 C 
BRANCH  14  15
ATOM     15  C   UNL     1      11.143   7.766  -3.021  1.00  0.00    -0.000 C 
BRANCH  15  16
ATOM     16  C   UNL     1      12.100   8.620  -2.176  1.00  0.00    -0.003 C 
ATOM     17  C   UNL     1      13.515   8.587  -2.746  1.00  0.00     0.004 C 
ENDBRANCH  15  16
ENDBRANCH  14  15
ENDBRANCH  13  14
ENDBRANCH  12  13
ENDBRANCH  11  12
ENDBRANCH  10  11
ENDBRANCH   1  10
TORSDOF 13
ENDMDL
MODEL 4
REMARK VINA RESULT:    -3.748      4.311      9.340
REMARK INTER + INTRA:          -7.210
REMARK INTER:                  -6.121
REMARK INTRA:                  -1.089
REMARK UNBOUND:                -0.614
REMARK SMILES CCCCCCCCCCCCCCC(=O)[O-]
REMARK SMILES IDX 9 1 10 2 11 3 12 4 13 5 14 6 15 7 16 8 17 9 8 10 7 11 6 12
REMARK SMILES IDX 5 13 4 14 3 15 2 16 1 17
REMARK H PARENT
REMARK Flexibility Score: inf
ROOT
ATOM      1  C   UNL     1      11.020   6.536  -0.547  1.00  0.00     0.000 C 
ENDROOT
BRANCH   1   2
ATOM      2  C   UNL     1      11.291   5.025  -0.495  1.00  0.00     0.000 C 
BRANCH   2   3
ATOM      3  C   UNL     1      12.642   4.643  -1.120  1.00  0.00     0.000 C 
BRANCH   3   4
ATOM      4  C   UNL     1      12.492   3.993  -2.504  1.00  0.00     0.000 C 
BRANCH   4   5
ATOM      5  C   UNL     1      13.601   2.959  -2.748  1.00  0.00     0.006 C 
BRANCH   5   6
ATOM      6  C   UNL     1      14.772   3.121  -1.771  1.00  0.00     0.053 C 
BRANCH   6   7
ATOM      7  C   UNL     1      15.800   2.046  -1.955  1.00  0.00     0.041 C 
ATOM      8  O   UNL     1      16.954   2.183  -1.471  1.00  0.00    -0.550 OA
ATOM      9  O   UNL     1      15.491   0.908  -2.689  1.00  0.00    -0.550 OA
ENDBRANCH   6   7
ENDBRANCH   5   6
ENDBRANCH   4   5
ENDBRANCH   3   4
ENDBRANCH   2   3
ENDBRANCH   1   2
BRANCH   1  10
ATOM     10  C   UNL     1      10.034   6.877  -1.672  1.00  0.00     0.000 C 
BRANCH  10  11
ATOM     11  C   UNL     1      10.741   7.619  -2.817  1.00  0.00    -0.000 C 
BRANCH  11  12
ATOM     12  C   UNL     1      12.162   8.068  -2.443  1.00  0.00    -0.000 C 
BRANCH  12  13
ATOM     13  C   UNL     1      12.357   9.590  -2.569  1.00  0.00    -0.000 C 
BRANCH  13  14
ATOM     14  C   UNL     1      11.975  10.334  -1.272  1.00  0.00    -0.000 C 
BRANCH  14  15
ATOM     15  C   UNL     1      10.686  11.165  -1.396  1.00  0.00    -0.000 C 
BRANCH  15  16
ATOM     16  C   UNL     1      10.718  12.445  -0.548  1.00  0.00    -0.003 C 
ATOM     17  C   UNL     1      11.730  13.445  -1.100  1.00  0.00     0.004 C 
ENDBRANCH  15  16
ENDBRANCH  14  15
ENDBRANCH  13  14
ENDBRANCH  12  13
ENDBRANCH  11  12
ENDBRANCH  10  11
ENDBRANCH   1  10
TORSDOF 13
ENDMDL
MODEL 5
REMARK VINA RESULT:    -3.689      4.367      9.386
REMARK INTER + INTRA:          -7.106
REMARK INTER:                  -6.141
REMARK INTRA:                  -0.965
REMARK UNBOUND:                -0.614
REMARK SMILES CCCCCCCCCCCCCCC(=O)[O-]
REMARK SMILES IDX 9 1 10 2 11 3 12 4 13 5 14 6 15 7 16 8 17 9 8 10 7 11 6 12
REMARK SMILES IDX 5 13 4 14 3 15 2 16 1 17
REMARK H PARENT
REMARK Flexibility Score: inf
ROOT
ATOM      1  C   UNL     1      12.192   4.994  -0.698  1.00  0.00     0.000 C 
ENDROOT
BRANCH   1   2
ATOM      2  C   UNL     1      12.325   4.286  -2.054  1.00  0.00     0.000 C 
BRANCH   2   3
ATOM      3  C   UNL     1      13.736   3.727  -2.295  1.00  0.00     0.000 C 
BRANCH   3   4
ATOM      4  C   UNL     1      14.483   3.422  -0.987  1.00  0.00     0.000 C 
BRANCH   4   5
ATOM      5  C   UNL     1      15.870   2.827  -1.274  1.00  0.00     0.006 C 
BRANCH   5   6
ATOM      6  C   UNL     1      16.025   2.391  -2.736  1.00  0.00     0.053 C 
BRANCH   6   7
ATOM      7  C   UNL     1      17.099   1.359  -2.895  1.00  0.00     0.041 C 
ATOM      8  O   UNL     1      18.313   1.695  -2.857  1.00  0.00    -0.550 OA
ATOM      9  O   UNL     1      16.760   0.031  -3.117  1.00  0.00    -0.550 OA
ENDBRANCH   6   7
ENDBRANCH   5   6
ENDBRANCH   4   5
ENDBRANCH   3   4
ENDBRANCH   2   3
ENDBRANCH   1   2
BRANCH   1  10
ATOM     10  C   UNL     1      10.922   5.854  -0.650  1.00  0.00     0.000 C 
BRANCH  10  11
ATOM     11  C   UNL     1       9.874   5.343  -1.652  1.00  0.00    -0.000 C 
BRANCH  11  12
ATOM     12  C   UNL     1       9.018   6.474  -2.242  1.00  0.00    -0.000 C 
BRANCH  12  13
ATOM     13  C   UNL     1       8.789   7.626  -1.247  1.00  0.00    -0.000 C 
BRANCH  13  14
ATOM     14  C   UNL     1       8.674   8.992  -1.957  1.00  0.00    -0.000 C 
BRANCH  14  15
ATOM     15  C   UNL     1       9.940   9.390  -2.735  1.00  0.00    -0.000 C 
BRANCH  15  16
ATOM     16  C   UNL     1      11.174   9.536  -1.833  1.00  0.00    -0.003 C 
ATOM     17  C   UNL     1      11.313  10.967  -1.320  1.00  0.00     0.004 C 
ENDBRANCH  15  16
ENDBRANCH  14  15
ENDBRANCH  13  14
ENDBRANCH  12  13
ENDBRANCH  11  12
ENDBRANCH  10  11
ENDBRANCH   1  10
TORSDOF 13
ENDMDL
MODEL 6
REMARK VINA RESULT:    -3.674      2.937      5.182
REMARK INTER + INTRA:          -7.080
REMARK INTER:                  -6.203
REMARK INTRA:                  -0.877
REMARK UNBOUND:                -0.614
REMARK SMILES CCCCCCCCCCCCCCC(=O)[O-]
REMARK SMILES IDX 9 1 10 2 11 3 12 4 13 5 14 6 15 7 16 8 17 9 8 10 7 11 6 12
REMARK SMILES IDX 5 13 4 14 3 15 2 16 1 17
REMARK H PARENT
REMARK Flexibility Score: inf
ROOT
ATOM      1  C   UNL     1      10.885   6.523  -0.473  1.00  0.00     0.000 C 
ENDROOT
BRANCH   1   2
ATOM      2  C   UNL     1       9.674   7.045  -1.262  1.00  0.00     0.000 C 
BRANCH   2   3
ATOM      3  C   UNL     1       9.974   8.353  -2.010  1.00  0.00     0.000 C 
BRANCH   3   4
ATOM      4  C   UNL     1      11.407   8.856  -1.774  1.00  0.00     0.000 C 
BRANCH   4   5
ATOM      5  C   UNL     1      11.488  10.381  -1.939  1.00  0.00     0.006 C 
BRANCH   5   6
ATOM      6  C   UNL     1      10.121  11.056  -1.776  1.00  0.00     0.053 C 
BRANCH   6   7
ATOM      7  C   UNL     1      10.181  12.203  -0.813  1.00  0.00     0.041 C 
ATOM      8  O   UNL     1       9.202  12.987  -0.699  1.00  0.00    -0.550 OA
ATOM      9  O   UNL     1      11.330  12.423  -0.065  1.00  0.00    -0.550 OA
ENDBRANCH   6   7
ENDBRANCH   5   6
ENDBRANCH   4   5
ENDBRANCH   3   4
ENDBRANCH   2   3
ENDBRANCH   1   2
BRANCH   1  10
ATOM     10  C   UNL     1      11.023   5.003  -0.623  1.00  0.00     0.000 C 
BRANCH  10  11
ATOM     11  C   UNL     1      10.630   4.551  -2.038  1.00  0.00    -0.000 C 
BRANCH  11  12
ATOM     12  C   UNL     1      11.798   3.906  -2.800  1.00  0.00    -0.000 C 
BRANCH  12  13
ATOM     13  C   UNL     1      13.169   4.270  -2.203  1.00  0.00    -0.000 C 
BRANCH  13  14
ATOM     14  C   UNL     1      14.208   3.147  -2.408  1.00  0.00    -0.000 C 
BRANCH  14  15
ATOM     15  C   UNL     1      15.216   3.022  -1.253  1.00  0.00    -0.000 C 
BRANCH  15  16
ATOM     16  C   UNL     1      16.437   2.164  -1.615  1.00  0.00    -0.003 C 
ATOM     17  C   UNL     1      16.024   0.929  -2.411  1.00  0.00     0.004 C 
ENDBRANCH  15  16
ENDBRANCH  14  15
ENDBRANCH  13  14
ENDBRANCH  12  13
ENDBRANCH  11  12
ENDBRANCH  10  11
ENDBRANCH   1  10
TORSDOF 13
ENDMDL
MODEL 7
REMARK VINA RESULT:    -3.566      4.330      8.548
REMARK INTER + INTRA:          -6.891
REMARK INTER:                  -5.845
REMARK INTRA:                  -1.046
REMARK UNBOUND:                -0.614
REMARK SMILES CCCCCCCCCCCCCCC(=O)[O-]
REMARK SMILES IDX 9 1 10 2 11 3 12 4 13 5 14 6 15 7 16 8 17 9 8 10 7 11 6 12
REMARK SMILES IDX 5 13 4 14 3 15 2 16 1 17
REMARK H PARENT
REMARK Flexibility Score: inf
ROOT
ATOM      1  C   UNL     1      10.479   6.764  -1.657  1.00  0.00     0.000 C 
ENDROOT
BRANCH   1   2
ATOM      2  C   UNL     1      11.018   5.953  -0.470  1.00  0.00     0.000 C 
BRANCH   2   3
ATOM      3  C   UNL     1      12.220   5.074  -0.850  1.00  0.00     0.000 C 
BRANCH   3   4
ATOM      4  C   UNL     1      11.998   4.302  -2.161  1.00  0.00     0.000 C 
BRANCH   4   5
ATOM      5  C   UNL     1      13.230   3.454  -2.513  1.00  0.00     0.006 C 
BRANCH   5   6
ATOM      6  C   UNL     1      14.322   3.541  -1.440  1.00  0.00     0.053 C 
BRANCH   6   7
ATOM      7  C   UNL     1      15.357   2.472  -1.615  1.00  0.00     0.041 C 
ATOM      8  O   UNL     1      15.034   1.345  -2.075  1.00  0.00    -0.550 OA
ATOM      9  O   UNL     1      16.673   2.711  -1.240  1.00  0.00    -0.550 OA
ENDBRANCH   6   7
ENDBRANCH   5   6
ENDBRANCH   4   5
ENDBRANCH   3   4
ENDBRANCH   2   3
ENDBRANCH   1   2
BRANCH   1  10
ATOM     10  C   UNL     1       9.275   7.617  -1.237  1.00  0.00     0.000 C 
BRANCH  10  11
ATOM     11  C   UNL     1       9.079   8.802  -2.195  1.00  0.00    -0.000 C 
BRANCH  11  12
ATOM     12  C   UNL     1       9.897  10.036  -1.786  1.00  0.00    -0.000 C 
BRANCH  12  13
ATOM     13  C   UNL     1      11.116  10.269  -2.695  1.00  0.00    -0.000 C 
BRANCH  13  14
ATOM     14  C   UNL     1      12.448  10.133  -1.927  1.00  0.00    -0.000 C 
BRANCH  14  15
ATOM     15  C   UNL     1      13.322   8.962  -2.411  1.00  0.00    -0.000 C 
BRANCH  15  16
ATOM     16  C   UNL     1      14.819   9.300  -2.423  1.00  0.00    -0.003 C 
ATOM     17  C   UNL     1      15.047  10.779  -2.724  1.00  0.00     0.004 C 
ENDBRANCH  15  16
ENDBRANCH  14  15
ENDBRANCH  13  14
ENDBRANCH  12  13
ENDBRANCH  11  12
ENDBRANCH  10  11
ENDBRANCH   1  10
TORSDOF 13
ENDMDL
MODEL 8
REMARK VINA RESULT:    -3.474      1.187      2.005
REMARK INTER + INTRA:          -6.729
REMARK INTER:                  -6.313
REMARK INTRA:                  -0.415
REMARK UNBOUND:                -0.614
REMARK SMILES CCCCCCCCCCCCCCC(=O)[O-]
REMARK SMILES IDX 9 1 10 2 11 3 12 4 13 5 14 6 15 7 16 8 17 9 8 10 7 11 6 12
REMARK SMILES IDX 5 13 4 14 3 15 2 16 1 17
REMARK H PARENT
REMARK Flexibility Score: inf
ROOT
ATOM      1  C   UNL     1      13.169   4.774  -1.625  1.00  0.00     0.000 C 
ENDROOT
BRANCH   1   2
ATOM      2  C   UNL     1      12.088   4.962  -0.550  1.00  0.00     0.000 C 
BRANCH   2   3
ATOM      3  C   UNL     1      10.668   4.991  -1.137  1.00  0.00     0.000 C 
BRANCH   3   4
ATOM      4  C   UNL     1      10.368   6.292  -1.898  1.00  0.00     0.000 C 
BRANCH   4   5
ATOM      5  C   UNL     1       9.673   7.314  -0.986  1.00  0.00     0.006 C 
BRANCH   5   6
ATOM      6  C   UNL     1       8.296   7.728  -1.520  1.00  0.00     0.053 C 
BRANCH   6   7
ATOM      7  C   UNL     1       8.282   9.158  -1.965  1.00  0.00     0.041 C 
ATOM      8  O   UNL     1       7.194   9.787  -2.047  1.00  0.00    -0.550 OA
ATOM      9  O   UNL     1       9.469   9.787  -2.321  1.00  0.00    -0.550 OA
ENDBRANCH   6   7
ENDBRANCH   5   6
ENDBRANCH   4   5
ENDBRANCH   3   4
ENDBRANCH   2   3
ENDBRANCH   1   2
BRANCH   1  10
ATOM     10  C   UNL     1      14.095   3.602  -1.272  1.00  0.00     0.000 C 
BRANCH  10  11
ATOM     11  C   UNL     1      14.479   2.807  -2.530  1.00  0.00    -0.000 C 
BRANCH  11  12
ATOM     12  C   UNL     1      15.372   1.597  -2.216  1.00  0.00    -0.000 C 
BRANCH  12  13
ATOM     13  C   UNL     1      16.834   1.992  -1.944  1.00  0.00    -0.000 C 
BRANCH  13  14
ATOM     14  C   UNL     1      17.832   1.057  -2.660  1.00  0.00    -0.000 C 
BRANCH  14  15
ATOM     15  C   UNL     1      19.255   1.634  -2.756  1.00  0.00    -0.000 C 
BRANCH  15  16
ATOM     16  C   UNL     1      20.341   0.548  -2.739  1.00  0.00    -0.003 C 
ATOM     17  C   UNL     1      20.922   0.375  -1.339  1.00  0.00     0.004 C 
ENDBRANCH  15  16
ENDBRANCH  14  15
ENDBRANCH  13  14
ENDBRANCH  12  13
ENDBRANCH  11  12
ENDBRANCH  10  11
ENDBRANCH   1  10
TORSDOF 13
ENDMDL
