MODEL 1
REMARK VINA RESULT:    -4.780      0.000      0.000
REMARK INTER + INTRA:          -9.268
REMARK INTER:                  -8.133
REMARK INTRA:                  -1.135
REMARK UNBOUND:                -1.135
REMARK SMILES CCCCCCCCCCCCCC(=O)[O-]
REMARK SMILES IDX 8 1 9 2 10 3 11 4 12 5 13 6 14 7 15 8 16 9 7 10 6 11 5 12
REMARK SMILES IDX 4 13 3 14 2 15 1 16
REMARK H PARENT
REMARK Flexibility Score: inf
ROOT
ATOM      1  C   UNL     1     -15.885  -2.678  35.526  1.00  0.00     0.000 C 
ENDROOT
BRANCH   1   2
ATOM      2  C   UNL     1     -16.343  -2.609  36.991  1.00  0.00     0.000 C 
BRANCH   2   3
ATOM      3  C   UNL     1     -17.216  -1.372  37.236  1.00  0.00     0.000 C 
BRANCH   3   4
ATOM      4  C   UNL     1     -17.652  -0.734  35.909  1.00  0.00     0.000 C 
BRANCH   4   5
ATOM      5  C   UNL     1     -18.489   0.543  36.107  1.00  0.00     0.006 C 
BRANCH   5   6
ATOM      6  C   UNL     1     -17.679   1.764  36.574  1.00  0.00     0.053 C 
BRANCH   6   7
ATOM      7  C   UNL     1     -17.963   2.114  38.002  1.00  0.00     0.041 C 
ATOM      8  O   UNL     1     -17.070   2.641  38.715  1.00  0.00    -0.550 OA
ATOM      9  O   UNL     1     -19.226   1.889  38.535  1.00  0.00    -0.550 OA
ENDBRANCH   6   7
ENDBRANCH   5   6
ENDBRANCH   4   5
ENDBRANCH   3   4
ENDBRANCH   2   3
ENDBRANCH   1   2
BRANCH   1  10
ATOM     10  C   UNL     1     -14.355  -2.671  35.381  1.00  0.00     0.000 C 
BRANCH  10  11
ATOM     11  C   UNL     1     -13.890  -3.186  34.009  1.00  0.00    -0.000 C 
BRANCH  11  12
ATOM     12  C   UNL     1     -14.365  -2.298  32.846  1.00  0.00    -0.000 C 
BRANCH  12  13
ATOM     13  C   UNL     1     -15.004  -3.088  31.685  1.00  0.00    -0.000 C 
BRANCH  13  14
ATOM     14  C   UNL     1     -16.525  -3.242  31.857  1.00  0.00    -0.000 C 
BRANCH  14  15
ATOM     15  C   UNL     1     -17.268  -1.898  31.793  1.00  0.00    -0.003 C 
ATOM     16  C   UNL     1     -18.617  -1.935  32.509  1.00  0.00     0.004 C 
ENDBRANCH  14  15
ENDBRANCH  13  14
ENDBRANCH  12  13
ENDBRANCH  11  12
ENDBRANCH  10  11
ENDBRANCH   1  10
TORSDOF 12
ENDMDL
MODEL 2
REMARK VINA RESULT:    -4.591      1.257      1.950
REMARK INTER + INTRA:          -8.947
REMARK INTER:                  -8.116
REMARK INTRA:                  -0.831
REMARK UNBOUND:                -1.135
REMARK SMILES CCCCCCCCCCCCCC(=O)[O-]
REMARK SMILES IDX 8 1 9 2 10 3 11 4 12 5 13 6 14 7 15 8 16 9 7 10 6 11 5 12
REMARK SMILES IDX 4 13 3 14 2 15 1 16
REMARK H PARENT
REMARK Flexibility Score: inf
ROOT
ATOM      1  C   UNL     1     -15.166  -3.687  34.637  1.00  0.00     0.000 C 
ENDROOT
BRANCH   1   2
ATOM      2  C   UNL     1     -15.666  -2.538  35.525  1.00  0.00     0.000 C 
BRANCH   2   3
ATOM      3  C   UNL     1     -16.055  -3.049  36.917  1.00  0.00     0.000 C 
BRANCH   3   4
ATOM      4  C   UNL     1     -16.966  -2.044  37.638  1.00  0.00     0.000 C 
BRANCH   4   5
ATOM      5  C   UNL     1     -17.365  -0.854  36.745  1.00  0.00     0.006 C 
BRANCH   5   6
ATOM      6  C   UNL     1     -18.288   0.169  37.429  1.00  0.00     0.053 C 
BRANCH   6   7
ATOM      7  C   UNL     1     -17.948   1.576  37.046  1.00  0.00     0.041 C 
ATOM      8  O   UNL     1     -18.157   2.520  37.851  1.00  0.00    -0.550 OA
ATOM      9  O   UNL     1     -17.369   1.839  35.811  1.00  0.00    -0.550 OA
ENDBRANCH   6   7
ENDBRANCH   5   6
ENDBRANCH   4   5
ENDBRANCH   3   4
ENDBRANCH   2   3
ENDBRANCH   1   2
BRANCH   1  10
ATOM     10  C   UNL     1     -13.973  -3.281  33.755  1.00  0.00     0.000 C 
BRANCH  10  11
ATOM     11  C   UNL     1     -14.401  -2.466  32.524  1.00  0.00    -0.000 C 
BRANCH  11  12
ATOM     12  C   UNL     1     -15.543  -3.131  31.735  1.00  0.00    -0.000 C 
BRANCH  12  13
ATOM     13  C   UNL     1     -16.783  -2.230  31.562  1.00  0.00    -0.000 C 
BRANCH  13  14
ATOM     14  C   UNL     1     -18.066  -2.902  32.081  1.00  0.00    -0.000 C 
BRANCH  14  15
ATOM     15  C   UNL     1     -19.276  -1.956  32.071  1.00  0.00    -0.003 C 
ATOM     16  C   UNL     1     -20.054  -2.005  30.757  1.00  0.00     0.004 C 
ENDBRANCH  14  15
ENDBRANCH  13  14
ENDBRANCH  12  13
ENDBRANCH  11  12
ENDBRANCH  10  11
ENDBRANCH   1  10
TORSDOF 12
ENDMDL
MODEL 3
REMARK VINA RESULT:    -4.573     11.264     14.364
REMARK INTER + INTRA:          -8.916
REMARK INTER:                  -7.530
REMARK INTRA:                  -1.385
REMARK UNBOUND:                -1.135
REMARK SMILES CCCCCCCCCCCCCC(=O)[O-]
REMARK SMILES IDX 8 1 9 2 10 3 11 4 12 5 13 6 14 7 15 8 16 9 7 10 6 11 5 12
REMARK SMILES IDX 4 13 3 14 2 15 1 16
REMARK H PARENT
REMARK Flexibility Score: inf
ROOT
ATOM      1  C   UNL     1     -26.891  -3.124  23.386  1.00  0.00     0.000 C 
ENDROOT
BRANCH   1   2
ATOM      2  C   UNL     1     -25.424  -2.698  23.547  1.00  0.00     0.000 C 
BRANCH   2   3
ATOM      3  C   UNL     1     -25.216  -1.254  23.077  1.00  0.00     0.000 C 
BRANCH   3   4
ATOM      4  C   UNL     1     -24.834  -0.342  24.253  1.00  0.00     0.000 C 
BRANCH   4   5
ATOM      5  C   UNL     1     -23.329  -0.383  24.576  1.00  0.00     0.006 C 
BRANCH   5   6
ATOM      6  C   UNL     1     -22.449   0.407  23.592  1.00  0.00     0.053 C 
BRANCH   6   7
ATOM      7  C   UNL     1     -22.931   1.813  23.413  1.00  0.00     0.041 C 
ATOM      8  O   UNL     1     -22.949   2.607  24.390  1.00  0.00    -0.550 OA
ATOM      9  O   UNL     1     -23.328   2.257  22.157  1.00  0.00    -0.550 OA
ENDBRANCH   6   7
ENDBRANCH   5   6
ENDBRANCH   4   5
ENDBRANCH   3   4
ENDBRANCH   2   3
ENDBRANCH   1   2
BRANCH   1  10
ATOM     10  C   UNL     1     -27.470  -3.756  24.663  1.00  0.00     0.000 C 
BRANCH  10  11
ATOM     11  C   UNL     1     -28.574  -2.897  25.298  1.00  0.00    -0.000 C 
BRANCH  11  12
ATOM     12  C   UNL     1     -28.219  -2.423  26.719  1.00  0.00    -0.000 C 
BRANCH  12  13
ATOM     13  C   UNL     1     -26.988  -1.493  26.771  1.00  0.00    -0.000 C 
BRANCH  13  14
ATOM     14  C   UNL     1     -26.086  -1.793  27.981  1.00  0.00    -0.000 C 
BRANCH  14  15
ATOM     15  C   UNL     1     -24.664  -2.207  27.571  1.00  0.00    -0.003 C 
ATOM     16  C   UNL     1     -23.910  -2.922  28.691  1.00  0.00     0.004 C 
ENDBRANCH  14  15
ENDBRANCH  13  14
ENDBRANCH  12  13
ENDBRANCH  11  12
ENDBRANCH  10  11
ENDBRANCH   1  10
TORSDOF 12
ENDMDL
MODEL 4
REMARK VINA RESULT:    -4.569      2.839      6.314
REMARK INTER + INTRA:          -8.909
REMARK INTER:                  -7.952
REMARK INTRA:                  -0.957
REMARK UNBOUND:                -1.135
REMARK SMILES CCCCCCCCCCCCCC(=O)[O-]
REMARK SMILES IDX 8 1 9 2 10 3 11 4 12 5 13 6 14 7 15 8 16 9 7 10 6 11 5 12
REMARK SMILES IDX 4 13 3 14 2 15 1 16
REMARK H PARENT
REMARK Flexibility Score: inf
ROOT
ATOM      1  C   UNL     1     -18.602  -1.925  33.013  1.00  0.00     0.000 C 
ENDROOT
BRANCH   1   2
ATOM      2  C   UNL     1     -17.892  -2.003  31.652  1.00  0.00     0.000 C 
BRANCH   2   3
ATOM      3  C   UNL     1     -16.371  -1.910  31.819  1.00  0.00     0.000 C 
BRANCH   3   4
ATOM      4  C   UNL     1     -15.688  -3.211  31.373  1.00  0.00     0.000 C 
BRANCH   4   5
ATOM      5  C   UNL     1     -14.352  -3.462  32.096  1.00  0.00     0.006 C 
BRANCH   5   6
ATOM      6  C   UNL     1     -14.014  -2.424  33.180  1.00  0.00     0.053 C 
BRANCH   6   7
ATOM      7  C   UNL     1     -14.008  -3.025  34.551  1.00  0.00     0.041 C 
ATOM      8  O   UNL     1     -14.653  -4.081  34.783  1.00  0.00    -0.550 OA
ATOM      9  O   UNL     1     -13.262  -2.436  35.565  1.00  0.00    -0.550 OA
ENDBRANCH   6   7
ENDBRANCH   5   6
ENDBRANCH   4   5
ENDBRANCH   3   4
ENDBRANCH   2   3
ENDBRANCH   1   2
BRANCH   1  10
ATOM     10  C   UNL     1     -17.628  -2.040  34.197  1.00  0.00     0.000 C 
BRANCH  10  11
ATOM     11  C   UNL     1     -17.664  -0.805  35.111  1.00  0.00    -0.000 C 
BRANCH  11  12
ATOM     12  C   UNL     1     -17.184  -1.107  36.542  1.00  0.00    -0.000 C 
BRANCH  12  13
ATOM     13  C   UNL     1     -18.122  -0.558  37.637  1.00  0.00    -0.000 C 
BRANCH  13  14
ATOM     14  C   UNL     1     -18.905   0.679  37.164  1.00  0.00    -0.000 C 
BRANCH  14  15
ATOM     15  C   UNL     1     -18.030   1.941  37.090  1.00  0.00    -0.003 C 
ATOM     16  C   UNL     1     -17.523   2.390  38.459  1.00  0.00     0.004 C 
ENDBRANCH  14  15
ENDBRANCH  13  14
ENDBRANCH  12  13
ENDBRANCH  11  12
ENDBRANCH  10  11
ENDBRANCH   1  10
TORSDOF 12
ENDMDL
MODEL 5
REMARK VINA RESULT:    -4.484      2.098      3.789
REMARK INTER + INTRA:          -8.765
REMARK INTER:                  -7.492
REMARK INTRA:                  -1.274
REMARK UNBOUND:                -1.135
REMARK SMILES CCCCCCCCCCCCCC(=O)[O-]
REMARK SMILES IDX 8 1 9 2 10 3 11 4 12 5 13 6 14 7 15 8 16 9 7 10 6 11 5 12
REMARK SMILES IDX 4 13 3 14 2 15 1 16
REMARK H PARENT
REMARK Flexibility Score: inf
ROOT
ATOM      1  C   UNL     1     -16.013  -3.135  31.387  1.00  0.00     0.000 C 
ENDROOT
BRANCH   1   2
ATOM      2  C   UNL     1     -16.824  -1.840  31.552  1.00  0.00     0.000 C 
BRANCH   2   3
ATOM      3  C   UNL     1     -18.155  -2.113  32.263  1.00  0.00     0.000 C 
BRANCH   3   4
ATOM      4  C   UNL     1     -17.955  -2.227  33.781  1.00  0.00     0.000 C 
BRANCH   4   5
ATOM      5  C   UNL     1     -17.413  -0.930  34.411  1.00  0.00     0.006 C 
BRANCH   5   6
ATOM      6  C   UNL     1     -17.580  -0.850  35.938  1.00  0.00     0.053 C 
BRANCH   6   7
ATOM      7  C   UNL     1     -18.029   0.508  36.383  1.00  0.00     0.041 C 
ATOM      8  O   UNL     1     -17.472   1.541  35.929  1.00  0.00    -0.550 OA
ATOM      9  O   UNL     1     -19.087   0.631  37.275  1.00  0.00    -0.550 OA
ENDBRANCH   6   7
ENDBRANCH   5   6
ENDBRANCH   4   5
ENDBRANCH   3   4
ENDBRANCH   2   3
ENDBRANCH   1   2
BRANCH   1  10
ATOM     10  C   UNL     1     -14.542  -2.971  31.801  1.00  0.00     0.000 C 
BRANCH  10  11
ATOM     11  C   UNL     1     -14.330  -3.162  33.312  1.00  0.00    -0.000 C 
BRANCH  11  12
ATOM     12  C   UNL     1     -13.986  -4.614  33.688  1.00  0.00    -0.000 C 
BRANCH  12  13
ATOM     13  C   UNL     1     -12.793  -5.191  32.900  1.00  0.00    -0.000 C 
BRANCH  13  14
ATOM     14  C   UNL     1     -13.213  -6.350  31.979  1.00  0.00    -0.000 C 
BRANCH  14  15
ATOM     15  C   UNL     1     -14.633  -6.856  32.273  1.00  0.00    -0.003 C 
ATOM     16  C   UNL     1     -15.553  -6.776  31.055  1.00  0.00     0.004 C 
ENDBRANCH  14  15
ENDBRANCH  13  14
ENDBRANCH  12  13
ENDBRANCH  11  12
ENDBRANCH  10  11
ENDBRANCH   1  10
TORSDOF 12
ENDMDL
MODEL 6
REMARK VINA RESULT:    -4.441      2.312      3.508
REMARK INTER + INTRA:          -8.692
REMARK INTER:                  -8.060
REMARK INTRA:                  -0.632
REMARK UNBOUND:                -1.135
REMARK SMILES CCCCCCCCCCCCCC(=O)[O-]
REMARK SMILES IDX 8 1 9 2 10 3 11 4 12 5 13 6 14 7 15 8 16 9 7 10 6 11 5 12
REMARK SMILES IDX 4 13 3 14 2 15 1 16
REMARK H PARENT
REMARK Flexibility Score: inf
ROOT
ATOM      1  C   UNL     1     -16.842  -1.514  32.818  1.00  0.00     0.000 C 
ENDROOT
BRANCH   1   2
ATOM      2  C   UNL     1     -16.925  -2.174  34.202  1.00  0.00     0.000 C 
BRANCH   2   3
ATOM      3  C   UNL     1     -17.450  -1.187  35.252  1.00  0.00     0.000 C 
BRANCH   3   4
ATOM      4  C   UNL     1     -17.030  -1.612  36.666  1.00  0.00     0.000 C 
BRANCH   4   5
ATOM      5  C   UNL     1     -17.517  -0.635  37.752  1.00  0.00     0.006 C 
BRANCH   5   6
ATOM      6  C   UNL     1     -18.650   0.301  37.299  1.00  0.00     0.053 C 
BRANCH   6   7
ATOM      7  C   UNL     1     -18.218   1.735  37.276  1.00  0.00     0.041 C 
ATOM      8  O   UNL     1     -17.902   2.285  36.189  1.00  0.00    -0.550 OA
ATOM      9  O   UNL     1     -18.196   2.473  38.453  1.00  0.00    -0.550 OA
ENDBRANCH   6   7
ENDBRANCH   5   6
ENDBRANCH   4   5
ENDBRANCH   3   4
ENDBRANCH   2   3
ENDBRANCH   1   2
BRANCH   1  10
ATOM     10  C   UNL     1     -16.773  -2.539  31.674  1.00  0.00     0.000 C 
BRANCH  10  11
ATOM     11  C   UNL     1     -15.332  -2.972  31.358  1.00  0.00    -0.000 C 
BRANCH  11  12
ATOM     12  C   UNL     1     -14.977  -4.346  31.953  1.00  0.00    -0.000 C 
BRANCH  12  13
ATOM     13  C   UNL     1     -16.070  -5.414  31.739  1.00  0.00    -0.000 C 
BRANCH  13  14
ATOM     14  C   UNL     1     -15.502  -6.712  31.140  1.00  0.00    -0.000 C 
BRANCH  14  15
ATOM     15  C   UNL     1     -14.116  -7.067  31.701  1.00  0.00    -0.003 C 
ATOM     16  C   UNL     1     -14.032  -8.508  32.201  1.00  0.00     0.004 C 
ENDBRANCH  14  15
ENDBRANCH  13  14
ENDBRANCH  12  13
ENDBRANCH  11  12
ENDBRANCH  10  11
ENDBRANCH   1  10
TORSDOF 12
ENDMDL
MODEL 7
REMARK VINA RESULT:    -4.431      3.105      5.874
REMARK INTER + INTRA:          -8.675
REMARK INTER:                  -7.506
REMARK INTRA:                  -1.169
REMARK UNBOUND:                -1.135
REMARK SMILES CCCCCCCCCCCCCC(=O)[O-]
REMARK SMILES IDX 8 1 9 2 10 3 11 4 12 5 13 6 14 7 15 8 16 9 7 10 6 11 5 12
REMARK SMILES IDX 4 13 3 14 2 15 1 16
REMARK H PARENT
REMARK Flexibility Score: inf
ROOT
ATOM      1  C   UNL     1     -14.991  -4.017  35.339  1.00  0.00     0.000 C 
ENDROOT
BRANCH   1   2
ATOM      2  C   UNL     1     -14.270  -4.069  33.983  1.00  0.00     0.000 C 
BRANCH   2   3
ATOM      3  C   UNL     1     -15.050  -4.924  32.978  1.00  0.00     0.000 C 
BRANCH   3   4
ATOM      4  C   UNL     1     -16.122  -4.090  32.261  1.00  0.00     0.000 C 
BRANCH   4   5
ATOM      5  C   UNL     1     -15.657  -2.653  31.960  1.00  0.00     0.006 C 
BRANCH   5   6
ATOM      6  C   UNL     1     -16.692  -1.568  32.301  1.00  0.00     0.053 C 
BRANCH   6   7
ATOM      7  C   UNL     1     -17.943  -1.710  31.489  1.00  0.00     0.041 C 
ATOM      8  O   UNL     1     -17.898  -1.625  30.234  1.00  0.00    -0.550 OA
ATOM      9  O   UNL     1     -19.154  -1.971  32.119  1.00  0.00    -0.550 OA
ENDBRANCH   6   7
ENDBRANCH   5   6
ENDBRANCH   4   5
ENDBRANCH   3   4
ENDBRANCH   2   3
ENDBRANCH   1   2
BRANCH   1  10
ATOM     10  C   UNL     1     -15.189  -2.581  35.852  1.00  0.00     0.000 C 
BRANCH  10  11
ATOM     11  C   UNL     1     -16.672  -2.205  35.993  1.00  0.00    -0.000 C 
BRANCH  11  12
ATOM     12  C   UNL     1     -17.014  -1.635  37.381  1.00  0.00    -0.000 C 
BRANCH  12  13
ATOM     13  C   UNL     1     -17.985  -0.436  37.335  1.00  0.00    -0.000 C 
BRANCH  13  14
ATOM     14  C   UNL     1     -17.839   0.379  36.039  1.00  0.00    -0.000 C 
BRANCH  14  15
ATOM     15  C   UNL     1     -17.748   1.891  36.297  1.00  0.00    -0.003 C 
ATOM     16  C   UNL     1     -18.064   2.263  37.745  1.00  0.00     0.004 C 
ENDBRANCH  14  15
ENDBRANCH  13  14
ENDBRANCH  12  13
ENDBRANCH  11  12
ENDBRANCH  10  11
ENDBRANCH   1  10
TORSDOF 12
ENDMDL
MODEL 8
REMARK VINA RESULT:    -4.397      1.498      3.274
REMARK INTER + INTRA:          -8.617
REMARK INTER:                  -7.050
REMARK INTRA:                  -1.567
REMARK UNBOUND:                -1.135
REMARK SMILES CCCCCCCCCCCCCC(=O)[O-]
REMARK SMILES IDX 8 1 9 2 10 3 11 4 12 5 13 6 14 7 15 8 16 9 7 10 6 11 5 12
REMARK SMILES IDX 4 13 3 14 2 15 1 16
REMARK H PARENT
REMARK Flexibility Score: inf
ROOT
ATOM      1  C   UNL     1     -16.956  -2.892  32.035  1.00  0.00     0.000 C 
ENDROOT
BRANCH   1   2
ATOM      2  C   UNL     1     -17.196  -1.496  32.630  1.00  0.00     0.000 C 
BRANCH   2   3
ATOM      3  C   UNL     1     -17.876  -1.592  34.001  1.00  0.00     0.000 C 
BRANCH   3   4
ATOM      4  C   UNL     1     -16.851  -1.451  35.135  1.00  0.00     0.000 C 
BRANCH   4   5
ATOM      5  C   UNL     1     -17.489  -1.008  36.465  1.00  0.00     0.006 C 
BRANCH   5   6
ATOM      6  C   UNL     1     -18.522   0.123  36.325  1.00  0.00     0.053 C 
BRANCH   6   7
ATOM      7  C   UNL     1     -17.893   1.476  36.449  1.00  0.00     0.041 C 
ATOM      8  O   UNL     1     -17.132   1.907  35.543  1.00  0.00    -0.550 OA
ATOM      9  O   UNL     1     -18.175   2.276  37.549  1.00  0.00    -0.550 OA
ENDBRANCH   6   7
ENDBRANCH   5   6
ENDBRANCH   4   5
ENDBRANCH   3   4
ENDBRANCH   2   3
ENDBRANCH   1   2
BRANCH   1  10
ATOM     10  C   UNL     1     -15.590  -3.015  31.341  1.00  0.00     0.000 C 
BRANCH  10  11
ATOM     11  C   UNL     1     -14.423  -2.628  32.264  1.00  0.00    -0.000 C 
BRANCH  11  12
ATOM     12  C   UNL     1     -13.350  -3.726  32.363  1.00  0.00    -0.000 C 
BRANCH  12  13
ATOM     13  C   UNL     1     -13.416  -4.540  33.672  1.00  0.00    -0.000 C 
BRANCH  13  14
ATOM     14  C   UNL     1     -13.840  -3.676  34.871  1.00  0.00    -0.000 C 
BRANCH  14  15
ATOM     15  C   UNL     1     -14.794  -4.412  35.824  1.00  0.00    -0.003 C 
ATOM     16  C   UNL     1     -15.998  -5.019  35.104  1.00  0.00     0.004 C 
ENDBRANCH  14  15
ENDBRANCH  13  14
ENDBRANCH  12  13
ENDBRANCH  11  12
ENDBRANCH  10  11
ENDBRANCH   1  10
TORSDOF 12
ENDMDL
MODEL 9
REMARK VINA RESULT:    -4.356      3.229      5.405
REMARK INTER + INTRA:          -8.547
REMARK INTER:                  -6.585
REMARK INTRA:                  -1.962
REMARK UNBOUND:                -1.135
REMARK SMILES CCCCCCCCCCCCCC(=O)[O-]
REMARK SMILES IDX 8 1 9 2 10 3 11 4 12 5 13 6 14 7 15 8 16 9 7 10 6 11 5 12
REMARK SMILES IDX 4 13 3 14 2 15 1 16
REMARK H PARENT
REMARK Flexibility Score: inf
ROOT
ATOM      1  C   UNL     1     -15.400  -6.432  31.272  1.00  0.00     0.000 C 
ENDROOT
BRANCH   1   2
ATOM      2  C   UNL     1     -16.609  -6.276  32.208  1.00  0.00     0.000 C 
BRANCH   2   3
ATOM      3  C   UNL     1     -16.970  -4.798  32.398  1.00  0.00     0.000 C 
BRANCH   3   4
ATOM      4  C   UNL     1     -16.074  -3.897  31.536  1.00  0.00     0.000 C 
BRANCH   4   5
ATOM      5  C   UNL     1     -15.657  -2.603  32.259  1.00  0.00     0.006 C 
BRANCH   5   6
ATOM      6  C   UNL     1     -16.719  -1.491  32.229  1.00  0.00     0.053 C 
BRANCH   6   7
ATOM      7  C   UNL     1     -17.586  -1.510  33.449  1.00  0.00     0.041 C 
ATOM      8  O   UNL     1     -18.792  -1.862  33.365  1.00  0.00    -0.550 OA
ATOM      9  O   UNL     1     -17.053  -1.170  34.687  1.00  0.00    -0.550 OA
ENDBRANCH   6   7
ENDBRANCH   5   6
ENDBRANCH   4   5
ENDBRANCH   3   4
ENDBRANCH   2   3
ENDBRANCH   1   2
BRANCH   1  10
ATOM     10  C   UNL     1     -14.433  -7.535  31.731  1.00  0.00     0.000 C 
BRANCH  10  11
ATOM     11  C   UNL     1     -13.366  -7.015  32.708  1.00  0.00    -0.000 C 
BRANCH  11  12
ATOM     12  C   UNL     1     -12.992  -5.543  32.456  1.00  0.00    -0.000 C 
BRANCH  12  13
ATOM     13  C   UNL     1     -12.894  -4.700  33.744  1.00  0.00    -0.000 C 
BRANCH  13  14
ATOM     14  C   UNL     1     -13.955  -5.103  34.783  1.00  0.00    -0.000 C 
BRANCH  14  15
ATOM     15  C   UNL     1     -14.584  -3.891  35.488  1.00  0.00    -0.003 C 
ATOM     16  C   UNL     1     -13.711  -2.639  35.402  1.00  0.00     0.004 C 
ENDBRANCH  14  15
ENDBRANCH  13  14
ENDBRANCH  12  13
ENDBRANCH  11  12
ENDBRANCH  10  11
ENDBRANCH   1  10
TORSDOF 12
ENDMDL
