MODEL 1
REMARK VINA RESULT:    32.621      0.000      0.000
REMARK INTER + INTRA:          40.192
REMARK INTER:                  40.249
REMARK INTRA:                  -0.057
REMARK UNBOUND:                -0.057
REMARK SMILES COc1cc(-c2oc3cc(O)cc(O)c3c(=O)c2O)ccc1O
REMARK SMILES IDX 6 1 18 2 16 3 17 4 15 5 13 6 12 7 10 8 9 9 8 10 7 11 5 12
REMARK SMILES IDX 3 13 22 14 4 15 21 16 20 17 2 18 1 19 23 20 19 22 14 24
REMARK SMILES IDX 11 26
REMARK H PARENT 23 21 19 23 14 25 11 27
REMARK Flexibility Score: inf
ROOT
ATOM      1  C   UNL     1      16.267  52.980  24.302  1.00  0.00     0.180 A 
ATOM      2  C   UNL     1      15.262  53.679  24.993  1.00  0.00     0.208 A 
ATOM      3  C   UNL     1      14.813  54.908  24.482  1.00  0.00     0.238 A 
ATOM      4  O   UNL     1      13.952  55.555  25.134  1.00  0.00    -0.285 OA
ATOM      5  C   UNL     1      15.363  55.413  23.279  1.00  0.00     0.111 A 
ATOM      6  C   UNL     1      14.955  56.627  22.650  1.00  0.00     0.134 A 
ATOM      7  C   UNL     1      15.658  57.096  21.532  1.00  0.00     0.093 A 
ATOM      8  C   UNL     1      16.712  56.361  20.984  1.00  0.00     0.123 A 
ATOM      9  C   UNL     1      17.079  55.146  21.557  1.00  0.00     0.094 A 
ATOM     10  C   UNL     1      16.420  54.670  22.693  1.00  0.00     0.146 A 
ATOM     11  O   UNL     1      16.809  53.511  23.213  1.00  0.00    -0.452 OA
ENDROOT
BRANCH   1  12
ATOM     12  C   UNL     1      16.773  51.667  24.766  1.00  0.00     0.025 A 
ATOM     13  C   UNL     1      17.671  50.219  26.522  1.00  0.00     0.161 A 
ATOM     14  C   UNL     1      17.673  49.141  25.618  1.00  0.00     0.157 A 
ATOM     15  C   UNL     1      17.211  51.479  26.090  1.00  0.00     0.062 A 
ATOM     16  C   UNL     1      17.215  49.324  24.309  1.00  0.00     0.051 A 
ATOM     17  C   UNL     1      16.762  50.575  23.888  1.00  0.00     0.016 A 
BRANCH  13  18
ATOM     18  O   UNL     1      18.125  50.003  27.833  1.00  0.00    -0.493 OA
ATOM     19  C   UNL     1      18.002  50.942  28.896  1.00  0.00     0.278 C 
ENDBRANCH  13  18
BRANCH  14  20
ATOM     20  O   UNL     1      18.122  47.879  26.002  1.00  0.00    -0.504 OA
ATOM     21  H   UNL     1      17.682  47.351  26.747  1.00  0.00     0.293 HD
ENDBRANCH  14  20
ENDBRANCH   1  12
BRANCH   2  22
ATOM     22  O   UNL     1      14.748  53.172  26.190  1.00  0.00    -0.502 OA
ATOM     23  H   UNL     1      13.981  53.614  26.683  1.00  0.00     0.293 HD
ENDBRANCH   2  22
BRANCH   6  24
ATOM     24  O   UNL     1      13.857  57.389  23.061  1.00  0.00    -0.507 OA
ATOM     25  H   UNL     1      12.902  57.064  23.066  1.00  0.00     0.293 HD
ENDBRANCH   6  24
BRANCH   8  26
ATOM     26  O   UNL     1      17.396  56.827  19.864  1.00  0.00    -0.508 OA
ATOM     27  H   UNL     1      18.036  57.611  19.922  1.00  0.00     0.293 HD
ENDBRANCH   8  26
TORSDOF 6
ENDMDL
