MODEL 1
REMARK VINA RESULT:    -6.972      0.000      0.000
REMARK INTER + INTRA:         -11.830
REMARK INTER:                 -10.640
REMARK INTRA:                  -1.190
REMARK UNBOUND:                -1.190
REMARK SMILES OC[C@@H]1O[C@@H](O[C@]2(CO)O[C@@H](CO)[C@H](O)[C@H]2O)[C@H](O)[C@@H](O)[C@H]1O
REMARK SMILES IDX 6 1 5 2 3 3 22 4 4 5 20 6 18 7 2 8 1 9 23 11 21 13 19 15
REMARK SMILES IDX 7 17 16 18 10 19 14 20 11 21 8 22 9 23 17 25 15 27 12 29
REMARK SMILES IDX 13 30
REMARK H PARENT 1 10 23 12 21 14 19 16 9 24 17 26 15 28 13 31
REMARK Flexibility Score: inf
ROOT
ATOM      1  O   UNL     1      36.704   3.962  43.970  1.00  0.00    -0.313 OA
ENDROOT
BRANCH   1   2
ATOM      2  C   UNL     1      37.130   3.723  45.307  1.00  0.00     0.285 C 
ATOM      3  C   UNL     1      38.868   2.171  44.717  1.00  0.00     0.178 C 
ATOM      4  C   UNL     1      37.707   1.259  44.188  1.00  0.00     0.177 C 
ATOM      5  O   UNL     1      38.510   3.414  45.326  1.00  0.00    -0.341 OA
ATOM      6  C   UNL     1      36.402   1.324  45.050  1.00  0.00     0.179 C 
ATOM      7  C   UNL     1      36.337   2.579  45.944  1.00  0.00     0.202 C 
BRANCH   3   8
ATOM      8  C   UNL     1      39.779   1.394  45.677  1.00  0.00     0.191 C 
BRANCH   8   9
ATOM      9  O   UNL     1      39.766   1.996  46.946  1.00  0.00    -0.394 OA
ATOM     10  H   UNL     1      40.684   2.352  47.093  1.00  0.00     0.210 HD
ENDBRANCH   8   9
ENDBRANCH   3   8
BRANCH   4  11
ATOM     11  O   UNL     1      37.449   1.602  42.846  1.00  0.00    -0.387 OA
ATOM     12  H   UNL     1      37.119   0.779  42.395  1.00  0.00     0.211 HD
ENDBRANCH   4  11
BRANCH   6  13
ATOM     13  O   UNL     1      35.260   1.312  44.220  1.00  0.00    -0.387 OA
ATOM     14  H   UNL     1      35.554   0.935  43.349  1.00  0.00     0.211 HD
ENDBRANCH   6  13
BRANCH   7  15
ATOM     15  O   UNL     1      36.883   2.308  47.209  1.00  0.00    -0.385 OA
ATOM     16  H   UNL     1      36.137   2.276  47.857  1.00  0.00     0.211 HD
ENDBRANCH   7  15
ENDBRANCH   1   2
BRANCH   1  17
ATOM     17  C   UNL     1      36.450   5.331  43.653  1.00  0.00     0.224 C 
ATOM     18  C   UNL     1      36.702   6.257  44.882  1.00  0.00     0.208 C 
ATOM     19  O   UNL     1      37.379   5.690  42.647  1.00  0.00    -0.337 OA
ATOM     20  C   UNL     1      37.616   7.327  44.345  1.00  0.00     0.180 C 
ATOM     21  C   UNL     1      38.300   6.600  43.197  1.00  0.00     0.179 C 
BRANCH  17  22
ATOM     22  C   UNL     1      35.048   5.510  43.017  1.00  0.00     0.225 C 
BRANCH  22  23
ATOM     23  O   UNL     1      35.163   5.642  41.621  1.00  0.00    -0.391 OA
ATOM     24  H   UNL     1      35.623   6.503  41.430  1.00  0.00     0.210 HD
ENDBRANCH  22  23
ENDBRANCH  17  22
BRANCH  18  25
ATOM     25  O   UNL     1      35.515   6.820  45.386  1.00  0.00    -0.385 OA
ATOM     26  H   UNL     1      34.873   6.851  44.628  1.00  0.00     0.211 HD
ENDBRANCH  18  25
BRANCH  20  27
ATOM     27  O   UNL     1      38.541   7.717  45.327  1.00  0.00    -0.387 OA
ATOM     28  H   UNL     1      38.491   7.041  46.048  1.00  0.00     0.211 HD
ENDBRANCH  20  27
BRANCH  21  29
ATOM     29  C   UNL     1      38.813   7.555  42.111  1.00  0.00     0.191 C 
BRANCH  29  30
ATOM     30  O   UNL     1      38.269   7.244  40.856  1.00  0.00    -0.394 OA
ATOM     31  H   UNL     1      39.016   6.909  40.293  1.00  0.00     0.210 HD
ENDBRANCH  29  30
ENDBRANCH  21  29
ENDBRANCH   1  17
TORSDOF 13
ENDMDL
MODEL 2
REMARK VINA RESULT:    -6.907      2.331      6.521
REMARK INTER + INTRA:         -11.731
REMARK INTER:                 -10.340
REMARK INTRA:                  -1.391
REMARK UNBOUND:                -1.190
REMARK SMILES OC[C@@H]1O[C@@H](O[C@]2(CO)O[C@@H](CO)[C@H](O)[C@H]2O)[C@H](O)[C@@H](O)[C@H]1O
REMARK SMILES IDX 6 1 5 2 3 3 22 4 4 5 20 6 18 7 2 8 1 9 23 11 21 13 19 15
REMARK SMILES IDX 7 17 16 18 10 19 14 20 11 21 8 22 9 23 17 25 15 27 12 29
REMARK SMILES IDX 13 30
REMARK H PARENT 1 10 23 12 21 14 19 16 9 24 17 26 15 28 13 31
REMARK Flexibility Score: inf
ROOT
ATOM      1  O   UNL     1      37.676   1.532  44.281  1.00  0.00    -0.313 OA
ENDROOT
BRANCH   1   2
ATOM      2  C   UNL     1      36.426   1.943  44.821  1.00  0.00     0.285 C 
ATOM      3  C   UNL     1      35.846   3.378  42.982  1.00  0.00     0.178 C 
ATOM      4  C   UNL     1      37.095   4.226  43.408  1.00  0.00     0.177 C 
ATOM      5  O   UNL     1      35.520   2.233  43.775  1.00  0.00    -0.341 OA
ATOM      6  C   UNL     1      37.322   4.294  44.955  1.00  0.00     0.179 C 
ATOM      7  C   UNL     1      36.588   3.173  45.718  1.00  0.00     0.202 C 
BRANCH   3   8
ATOM      8  C   UNL     1      34.600   4.266  42.859  1.00  0.00     0.191 C 
BRANCH   8   9
ATOM      9  O   UNL     1      34.521   4.806  41.565  1.00  0.00    -0.394 OA
ATOM     10  H   UNL     1      34.363   5.782  41.682  1.00  0.00     0.210 HD
ENDBRANCH   8   9
ENDBRANCH   3   8
BRANCH   4  11
ATOM     11  O   UNL     1      38.228   3.708  42.749  1.00  0.00    -0.387 OA
ATOM     12  H   UNL     1      38.588   4.437  42.176  1.00  0.00     0.211 HD
ENDBRANCH   4  11
BRANCH   6  13
ATOM     13  O   UNL     1      38.699   4.210  45.258  1.00  0.00    -0.387 OA
ATOM     14  H   UNL     1      38.759   3.803  46.163  1.00  0.00     0.211 HD
ENDBRANCH   6  13
BRANCH   7  15
ATOM     15  O   UNL     1      35.314   3.605  46.118  1.00  0.00    -0.385 OA
ATOM     16  H   UNL     1      34.911   2.885  46.663  1.00  0.00     0.211 HD
ENDBRANCH   7  15
ENDBRANCH   1   2
BRANCH   1  17
ATOM     17  C   UNL     1      38.185   0.303  44.801  1.00  0.00     0.224 C 
ATOM     18  C   UNL     1      37.151  -0.387  45.744  1.00  0.00     0.208 C 
ATOM     19  O   UNL     1      38.388  -0.550  43.691  1.00  0.00    -0.337 OA
ATOM     20  C   UNL     1      37.059  -1.793  45.210  1.00  0.00     0.180 C 
ATOM     21  C   UNL     1      37.446  -1.594  43.753  1.00  0.00     0.179 C 
BRANCH  17  22
ATOM     22  C   UNL     1      39.580   0.498  45.446  1.00  0.00     0.225 C 
BRANCH  22  23
ATOM     23  O   UNL     1      39.535   1.540  46.390  1.00  0.00    -0.391 OA
ATOM     24  H   UNL     1      40.450   1.658  46.762  1.00  0.00     0.210 HD
ENDBRANCH  22  23
ENDBRANCH  17  22
BRANCH  18  25
ATOM     25  O   UNL     1      37.565  -0.389  47.089  1.00  0.00    -0.385 OA
ATOM     26  H   UNL     1      37.369   0.517  47.447  1.00  0.00     0.211 HD
ENDBRANCH  18  25
BRANCH  20  27
ATOM     27  O   UNL     1      35.745  -2.274  45.329  1.00  0.00    -0.387 OA
ATOM     28  H   UNL     1      35.696  -2.755  46.192  1.00  0.00     0.211 HD
ENDBRANCH  20  27
BRANCH  21  29
ATOM     29  C   UNL     1      38.022  -2.865  43.113  1.00  0.00     0.191 C 
BRANCH  29  30
ATOM     30  O   UNL     1      37.010  -3.776  42.780  1.00  0.00    -0.394 OA
ATOM     31  H   UNL     1      36.344  -3.281  42.233  1.00  0.00     0.210 HD
ENDBRANCH  29  30
ENDBRANCH  21  29
ENDBRANCH   1  17
TORSDOF 13
ENDMDL
MODEL 3
REMARK VINA RESULT:    -6.834      1.683      3.770
REMARK INTER + INTRA:         -11.620
REMARK INTER:                 -10.422
REMARK INTRA:                  -1.198
REMARK UNBOUND:                -1.190
REMARK SMILES OC[C@@H]1O[C@@H](O[C@]2(CO)O[C@@H](CO)[C@H](O)[C@H]2O)[C@H](O)[C@@H](O)[C@H]1O
REMARK SMILES IDX 6 1 5 2 3 3 22 4 4 5 20 6 18 7 2 8 1 9 23 11 21 13 19 15
REMARK SMILES IDX 7 17 16 18 10 19 14 20 11 21 8 22 9 23 17 25 15 27 12 29
REMARK SMILES IDX 13 30
REMARK H PARENT 1 10 23 12 21 14 19 16 9 24 17 26 15 28 13 31
REMARK Flexibility Score: inf
ROOT
ATOM      1  O   UNL     1      38.121   3.524  45.226  1.00  0.00    -0.313 OA
ENDROOT
BRANCH   1   2
ATOM      2  C   UNL     1      38.404   2.394  44.410  1.00  0.00     0.285 C 
ATOM      3  C   UNL     1      36.607   1.043  45.262  1.00  0.00     0.178 C 
ATOM      4  C   UNL     1      37.367   1.114  46.632  1.00  0.00     0.177 C 
ATOM      5  O   UNL     1      37.211   1.686  44.136  1.00  0.00    -0.341 OA
ATOM      6  C   UNL     1      38.926   1.087  46.499  1.00  0.00     0.179 C 
ATOM      7  C   UNL     1      39.413   1.462  45.085  1.00  0.00     0.202 C 
BRANCH   3   8
ATOM      8  C   UNL     1      36.286  -0.410  44.890  1.00  0.00     0.191 C 
BRANCH   8   9
ATOM      9  O   UNL     1      36.951  -0.761  43.703  1.00  0.00    -0.394 OA
ATOM     10  H   UNL     1      37.493  -1.567  43.917  1.00  0.00     0.210 HD
ENDBRANCH   8   9
ENDBRANCH   3   8
BRANCH   4  11
ATOM     11  O   UNL     1      36.934   2.264  47.321  1.00  0.00    -0.387 OA
ATOM     12  H   UNL     1      36.698   2.943  46.633  1.00  0.00     0.211 HD
ENDBRANCH   4  11
BRANCH   6  13
ATOM     13  O   UNL     1      39.517   1.977  47.422  1.00  0.00    -0.387 OA
ATOM     14  H   UNL     1      40.499   1.854  47.336  1.00  0.00     0.211 HD
ENDBRANCH   6  13
BRANCH   7  15
ATOM     15  O   UNL     1      39.556   0.311  44.294  1.00  0.00    -0.385 OA
ATOM     16  H   UNL     1      40.401   0.398  43.788  1.00  0.00     0.211 HD
ENDBRANCH   7  15
ENDBRANCH   1   2
BRANCH   1  17
ATOM     17  C   UNL     1      38.436   4.788  44.639  1.00  0.00     0.224 C 
ATOM     18  C   UNL     1      38.000   4.845  43.143  1.00  0.00     0.208 C 
ATOM     19  O   UNL     1      37.681   5.757  45.343  1.00  0.00    -0.337 OA
ATOM     20  C   UNL     1      37.192   6.114  43.051  1.00  0.00     0.180 C 
ATOM     21  C   UNL     1      36.693   6.265  44.480  1.00  0.00     0.179 C 
BRANCH  17  22
ATOM     22  C   UNL     1      39.922   5.161  44.868  1.00  0.00     0.225 C 
BRANCH  22  23
ATOM     23  O   UNL     1      40.035   6.059  45.944  1.00  0.00    -0.391 OA
ATOM     24  H   UNL     1      40.122   5.528  46.781  1.00  0.00     0.210 HD
ENDBRANCH  22  23
ENDBRANCH  17  22
BRANCH  18  25
ATOM     25  O   UNL     1      39.096   4.886  42.263  1.00  0.00    -0.385 OA
ATOM     26  H   UNL     1      39.010   5.729  41.742  1.00  0.00     0.211 HD
ENDBRANCH  18  25
BRANCH  20  27
ATOM     27  O   UNL     1      36.127   5.951  42.151  1.00  0.00    -0.387 OA
ATOM     28  H   UNL     1      36.494   5.485  41.359  1.00  0.00     0.211 HD
ENDBRANCH  20  27
BRANCH  21  29
ATOM     29  C   UNL     1      36.368   7.720  44.845  1.00  0.00     0.191 C 
BRANCH  29  30
ATOM     30  O   UNL     1      36.589   8.582  43.762  1.00  0.00    -0.394 OA
ATOM     31  H   UNL     1      35.727   8.659  43.273  1.00  0.00     0.210 HD
ENDBRANCH  29  30
ENDBRANCH  21  29
ENDBRANCH   1  17
TORSDOF 13
ENDMDL
MODEL 4
REMARK VINA RESULT:    -6.797      1.892      6.019
REMARK INTER + INTRA:         -11.564
REMARK INTER:                 -10.421
REMARK INTRA:                  -1.143
REMARK UNBOUND:                -1.190
REMARK SMILES OC[C@@H]1O[C@@H](O[C@]2(CO)O[C@@H](CO)[C@H](O)[C@H]2O)[C@H](O)[C@@H](O)[C@H]1O
REMARK SMILES IDX 6 1 5 2 3 3 22 4 4 5 20 6 18 7 2 8 1 9 23 11 21 13 19 15
REMARK SMILES IDX 7 17 16 18 10 19 14 20 11 21 8 22 9 23 17 25 15 27 12 29
REMARK SMILES IDX 13 30
REMARK H PARENT 1 10 23 12 21 14 19 16 9 24 17 26 15 28 13 31
REMARK Flexibility Score: inf
ROOT
ATOM      1  O   UNL     1      37.180   2.484  44.196  1.00  0.00    -0.313 OA
ENDROOT
BRANCH   1   2
ATOM      2  C   UNL     1      37.590   3.418  45.186  1.00  0.00     0.285 C 
ATOM      3  C   UNL     1      35.950   5.082  44.621  1.00  0.00     0.178 C 
ATOM      4  C   UNL     1      36.691   5.168  43.241  1.00  0.00     0.177 C 
ATOM      5  O   UNL     1      36.484   4.193  45.606  1.00  0.00    -0.341 OA
ATOM      6  C   UNL     1      38.244   5.003  43.340  1.00  0.00     0.179 C 
ATOM      7  C   UNL     1      38.693   4.339  44.657  1.00  0.00     0.202 C 
BRANCH   3   8
ATOM      8  C   UNL     1      35.793   6.475  45.244  1.00  0.00     0.191 C 
BRANCH   8   9
ATOM      9  O   UNL     1      35.002   6.398  46.403  1.00  0.00    -0.394 OA
ATOM     10  H   UNL     1      34.670   5.461  46.449  1.00  0.00     0.210 HD
ENDBRANCH   8   9
ENDBRANCH   3   8
BRANCH   4  11
ATOM     11  O   UNL     1      36.130   4.208  42.376  1.00  0.00    -0.387 OA
ATOM     12  H   UNL     1      36.144   4.598  41.461  1.00  0.00     0.211 HD
ENDBRANCH   4  11
BRANCH   6  13
ATOM     13  O   UNL     1      38.728   4.227  42.264  1.00  0.00    -0.387 OA
ATOM     14  H   UNL     1      38.151   4.443  41.485  1.00  0.00     0.211 HD
ENDBRANCH   6  13
BRANCH   7  15
ATOM     15  O   UNL     1      38.966   5.313  45.629  1.00  0.00    -0.385 OA
ATOM     16  H   UNL     1      38.363   6.079  45.464  1.00  0.00     0.211 HD
ENDBRANCH   7  15
ENDBRANCH   1   2
BRANCH   1  17
ATOM     17  C   UNL     1      37.750   1.180  44.321  1.00  0.00     0.224 C 
ATOM     18  C   UNL     1      38.233   0.908  45.779  1.00  0.00     0.208 C 
ATOM     19  O   UNL     1      36.715   0.259  44.034  1.00  0.00    -0.337 OA
ATOM     20  C   UNL     1      37.598  -0.413  46.129  1.00  0.00     0.180 C 
ATOM     21  C   UNL     1      36.377  -0.416  45.222  1.00  0.00     0.179 C 
BRANCH  17  22
ATOM     22  C   UNL     1      38.842   0.937  43.249  1.00  0.00     0.225 C 
BRANCH  22  23
ATOM     23  O   UNL     1      38.302   1.106  41.961  1.00  0.00    -0.391 OA
ATOM     24  H   UNL     1      38.222   0.208  41.541  1.00  0.00     0.210 HD
ENDBRANCH  22  23
ENDBRANCH  17  22
BRANCH  18  25
ATOM     25  O   UNL     1      39.635   0.830  45.877  1.00  0.00    -0.385 OA
ATOM     26  H   UNL     1      39.959   1.756  46.040  1.00  0.00     0.211 HD
ENDBRANCH  18  25
BRANCH  20  27
ATOM     27  O   UNL     1      37.229  -0.433  47.483  1.00  0.00    -0.387 OA
ATOM     28  H   UNL     1      37.500  -1.316  47.838  1.00  0.00     0.211 HD
ENDBRANCH  20  27
BRANCH  21  29
ATOM     29  C   UNL     1      35.879  -1.832  44.902  1.00  0.00     0.191 C 
BRANCH  29  30
ATOM     30  O   UNL     1      35.212  -2.401  45.996  1.00  0.00    -0.394 OA
ATOM     31  H   UNL     1      34.429  -2.894  45.633  1.00  0.00     0.210 HD
ENDBRANCH  29  30
ENDBRANCH  21  29
ENDBRANCH   1  17
TORSDOF 13
ENDMDL
MODEL 5
REMARK VINA RESULT:    -6.748      2.077      5.880
REMARK INTER + INTRA:         -11.488
REMARK INTER:                 -10.479
REMARK INTRA:                  -1.009
REMARK UNBOUND:                -1.190
REMARK SMILES OC[C@@H]1O[C@@H](O[C@]2(CO)O[C@@H](CO)[C@H](O)[C@H]2O)[C@H](O)[C@@H](O)[C@H]1O
REMARK SMILES IDX 6 1 5 2 3 3 22 4 4 5 20 6 18 7 2 8 1 9 23 11 21 13 19 15
REMARK SMILES IDX 7 17 16 18 10 19 14 20 11 21 8 22 9 23 17 25 15 27 12 29
REMARK SMILES IDX 13 30
REMARK H PARENT 1 10 23 12 21 14 19 16 9 24 17 26 15 28 13 31
REMARK Flexibility Score: inf
ROOT
ATOM      1  O   UNL     1      37.657   3.120  44.693  1.00  0.00    -0.313 OA
ENDROOT
BRANCH   1   2
ATOM      2  C   UNL     1      36.723   2.801  43.668  1.00  0.00     0.285 C 
ATOM      3  C   UNL     1      36.011   5.067  43.298  1.00  0.00     0.178 C 
ATOM      4  C   UNL     1      35.470   5.008  44.769  1.00  0.00     0.177 C 
ATOM      5  O   UNL     1      36.610   3.883  42.765  1.00  0.00    -0.341 OA
ATOM      6  C   UNL     1      34.877   3.618  45.175  1.00  0.00     0.179 C 
ATOM      7  C   UNL     1      35.347   2.474  44.254  1.00  0.00     0.202 C 
BRANCH   3   8
ATOM      8  C   UNL     1      34.919   5.547  42.333  1.00  0.00     0.191 C 
BRANCH   8   9
ATOM      9  O   UNL     1      34.681   4.570  41.352  1.00  0.00    -0.394 OA
ATOM     10  H   UNL     1      33.936   4.917  40.791  1.00  0.00     0.210 HD
ENDBRANCH   8   9
ENDBRANCH   3   8
BRANCH   4  11
ATOM     11  O   UNL     1      36.508   5.394  45.640  1.00  0.00    -0.387 OA
ATOM     12  H   UNL     1      36.970   4.561  45.927  1.00  0.00     0.211 HD
ENDBRANCH   4  11
BRANCH   6  13
ATOM     13  O   UNL     1      35.235   3.296  46.502  1.00  0.00    -0.387 OA
ATOM     14  H   UNL     1      34.390   3.295  47.025  1.00  0.00     0.211 HD
ENDBRANCH   6  13
BRANCH   7  15
ATOM     15  O   UNL     1      34.443   2.292  43.197  1.00  0.00    -0.385 OA
ATOM     16  H   UNL     1      34.144   3.186  42.901  1.00  0.00     0.211 HD
ENDBRANCH   7  15
ENDBRANCH   1   2
BRANCH   1  17
ATOM     17  C   UNL     1      38.575   2.076  45.021  1.00  0.00     0.224 C 
ATOM     18  C   UNL     1      38.385   1.592  46.491  1.00  0.00     0.208 C 
ATOM     19  O   UNL     1      38.268   0.988  44.169  1.00  0.00    -0.337 OA
ATOM     20  C   UNL     1      38.258   0.096  46.365  1.00  0.00     0.180 C 
ATOM     21  C   UNL     1      37.723  -0.048  44.948  1.00  0.00     0.179 C 
BRANCH  17  22
ATOM     22  C   UNL     1      40.033   2.480  44.683  1.00  0.00     0.225 C 
BRANCH  22  23
ATOM     23  O   UNL     1      40.124   3.876  44.531  1.00  0.00    -0.391 OA
ATOM     24  H   UNL     1      40.874   4.199  45.100  1.00  0.00     0.210 HD
ENDBRANCH  22  23
ENDBRANCH  17  22
BRANCH  18  25
ATOM     25  O   UNL     1      39.473   1.933  47.316  1.00  0.00    -0.385 OA
ATOM     26  H   UNL     1      39.101   2.087  48.225  1.00  0.00     0.211 HD
ENDBRANCH  18  25
BRANCH  20  27
ATOM     27  O   UNL     1      37.344  -0.397  47.309  1.00  0.00    -0.387 OA
ATOM     28  H   UNL     1      36.477   0.042  47.121  1.00  0.00     0.211 HD
ENDBRANCH  20  27
BRANCH  21  29
ATOM     29  C   UNL     1      38.054  -1.410  44.324  1.00  0.00     0.191 C 
BRANCH  29  30
ATOM     30  O   UNL     1      38.297  -2.380  45.307  1.00  0.00    -0.394 OA
ATOM     31  H   UNL     1      37.803  -3.198  45.034  1.00  0.00     0.210 HD
ENDBRANCH  29  30
ENDBRANCH  21  29
ENDBRANCH   1  17
TORSDOF 13
ENDMDL
MODEL 6
REMARK VINA RESULT:    -6.673      1.357      2.292
REMARK INTER + INTRA:         -11.373
REMARK INTER:                 -10.212
REMARK INTRA:                  -1.161
REMARK UNBOUND:                -1.190
REMARK SMILES OC[C@@H]1O[C@@H](O[C@]2(CO)O[C@@H](CO)[C@H](O)[C@H]2O)[C@H](O)[C@@H](O)[C@H]1O
REMARK SMILES IDX 6 1 5 2 3 3 22 4 4 5 20 6 18 7 2 8 1 9 23 11 21 13 19 15
REMARK SMILES IDX 7 17 16 18 10 19 14 20 11 21 8 22 9 23 17 25 15 27 12 29
REMARK SMILES IDX 13 30
REMARK H PARENT 1 10 23 12 21 14 19 16 9 24 17 26 15 28 13 31
REMARK Flexibility Score: inf
ROOT
ATOM      1  O   UNL     1      37.779   4.196  44.906  1.00  0.00    -0.313 OA
ENDROOT
BRANCH   1   2
ATOM      2  C   UNL     1      36.936   3.060  44.761  1.00  0.00     0.285 C 
ATOM      3  C   UNL     1      37.862   1.850  46.620  1.00  0.00     0.178 C 
ATOM      4  C   UNL     1      39.192   1.834  45.789  1.00  0.00     0.177 C 
ATOM      5  O   UNL     1      36.715   2.459  46.022  1.00  0.00    -0.341 OA
ATOM      6  C   UNL     1      38.979   1.678  44.247  1.00  0.00     0.179 C 
ATOM      7  C   UNL     1      37.546   2.035  43.802  1.00  0.00     0.202 C 
BRANCH   3   8
ATOM      8  C   UNL     1      37.489   0.436  47.082  1.00  0.00     0.191 C 
BRANCH   8   9
ATOM      9  O   UNL     1      37.089   0.459  48.428  1.00  0.00    -0.394 OA
ATOM     10  H   UNL     1      36.800  -0.468  48.647  1.00  0.00     0.210 HD
ENDBRANCH   8   9
ENDBRANCH   3   8
BRANCH   4  11
ATOM     11  O   UNL     1      39.917   3.004  46.088  1.00  0.00    -0.387 OA
ATOM     12  H   UNL     1      40.299   3.336  45.231  1.00  0.00     0.211 HD
ENDBRANCH   4  11
BRANCH   6  13
ATOM     13  O   UNL     1      39.881   2.500  43.537  1.00  0.00    -0.387 OA
ATOM     14  H   UNL     1      40.347   1.906  42.891  1.00  0.00     0.211 HD
ENDBRANCH   6  13
BRANCH   7  15
ATOM     15  O   UNL     1      36.735   0.890  43.797  1.00  0.00    -0.385 OA
ATOM     16  H   UNL     1      35.802   1.182  43.945  1.00  0.00     0.211 HD
ENDBRANCH   7  15
ENDBRANCH   1   2
BRANCH   1  17
ATOM     17  C   UNL     1      37.461   5.298  44.055  1.00  0.00     0.224 C 
ATOM     18  C   UNL     1      37.587   6.656  44.811  1.00  0.00     0.208 C 
ATOM     19  O   UNL     1      38.424   5.295  43.017  1.00  0.00    -0.337 OA
ATOM     20  C   UNL     1      38.465   7.489  43.913  1.00  0.00     0.180 C 
ATOM     21  C   UNL     1      39.256   6.418  43.178  1.00  0.00     0.179 C 
BRANCH  17  22
ATOM     22  C   UNL     1      36.090   5.097  43.361  1.00  0.00     0.225 C 
BRANCH  22  23
ATOM     23  O   UNL     1      36.011   5.897  42.207  1.00  0.00    -0.391 OA
ATOM     24  H   UNL     1      35.068   5.888  41.890  1.00  0.00     0.210 HD
ENDBRANCH  22  23
ENDBRANCH  17  22
BRANCH  18  25
ATOM     25  O   UNL     1      36.342   7.279  45.011  1.00  0.00    -0.385 OA
ATOM     26  H   UNL     1      36.283   7.489  45.981  1.00  0.00     0.211 HD
ENDBRANCH  18  25
BRANCH  20  27
ATOM     27  O   UNL     1      39.307   8.310  44.679  1.00  0.00    -0.387 OA
ATOM     28  H   UNL     1      39.601   9.046  44.087  1.00  0.00     0.211 HD
ENDBRANCH  20  27
BRANCH  21  29
ATOM     29  C   UNL     1      39.772   6.893  41.812  1.00  0.00     0.191 C 
BRANCH  29  30
ATOM     30  O   UNL     1      39.386   8.216  41.551  1.00  0.00    -0.394 OA
ATOM     31  H   UNL     1      39.254   8.658  42.430  1.00  0.00     0.210 HD
ENDBRANCH  29  30
ENDBRANCH  21  29
ENDBRANCH   1  17
TORSDOF 13
ENDMDL
MODEL 7
REMARK VINA RESULT:    -6.552      1.227      5.777
REMARK INTER + INTRA:         -11.189
REMARK INTER:                 -10.270
REMARK INTRA:                  -0.919
REMARK UNBOUND:                -1.190
REMARK SMILES OC[C@@H]1O[C@@H](O[C@]2(CO)O[C@@H](CO)[C@H](O)[C@H]2O)[C@H](O)[C@@H](O)[C@H]1O
REMARK SMILES IDX 6 1 5 2 3 3 22 4 4 5 20 6 18 7 2 8 1 9 23 11 21 13 19 15
REMARK SMILES IDX 7 17 16 18 10 19 14 20 11 21 8 22 9 23 17 25 15 27 12 29
REMARK SMILES IDX 13 30
REMARK H PARENT 1 10 23 12 21 14 19 16 9 24 17 26 15 28 13 31
REMARK Flexibility Score: inf
ROOT
ATOM      1  O   UNL     1      37.832   4.009  44.744  1.00  0.00    -0.313 OA
ENDROOT
BRANCH   1   2
ATOM      2  C   UNL     1      37.470   4.463  43.445  1.00  0.00     0.285 C 
ATOM      3  C   UNL     1      39.253   6.064  43.259  1.00  0.00     0.178 C 
ATOM      4  C   UNL     1      38.561   6.792  44.463  1.00  0.00     0.177 C 
ATOM      5  O   UNL     1      38.621   4.889  42.744  1.00  0.00    -0.341 OA
ATOM      6  C   UNL     1      36.998   6.733  44.432  1.00  0.00     0.179 C 
ATOM      7  C   UNL     1      36.460   5.611  43.521  1.00  0.00     0.202 C 
BRANCH   3   8
ATOM      8  C   UNL     1      39.503   7.039  42.101  1.00  0.00     0.191 C 
BRANCH   8   9
ATOM      9  O   UNL     1      38.678   8.168  42.237  1.00  0.00    -0.394 OA
ATOM     10  H   UNL     1      37.957   8.068  41.558  1.00  0.00     0.210 HD
ENDBRANCH   8   9
ENDBRANCH   3   8
BRANCH   4  11
ATOM     11  O   UNL     1      39.069   6.249  45.661  1.00  0.00    -0.387 OA
ATOM     12  H   UNL     1      39.797   5.620  45.408  1.00  0.00     0.211 HD
ENDBRANCH   4  11
BRANCH   6  13
ATOM     13  O   UNL     1      36.484   6.534  45.732  1.00  0.00    -0.387 OA
ATOM     14  H   UNL     1      37.268   6.535  46.343  1.00  0.00     0.211 HD
ENDBRANCH   6  13
BRANCH   7  15
ATOM     15  O   UNL     1      36.237   6.097  42.224  1.00  0.00    -0.385 OA
ATOM     16  H   UNL     1      36.052   7.065  42.294  1.00  0.00     0.211 HD
ENDBRANCH   7  15
ENDBRANCH   1   2
BRANCH   1  17
ATOM     17  C   UNL     1      37.550   2.633  45.004  1.00  0.00     0.224 C 
ATOM     18  C   UNL     1      37.057   1.901  43.719  1.00  0.00     0.208 C 
ATOM     19  O   UNL     1      38.774   2.039  45.393  1.00  0.00    -0.337 OA
ATOM     20  C   UNL     1      37.941   0.683  43.636  1.00  0.00     0.180 C 
ATOM     21  C   UNL     1      39.183   1.155  44.378  1.00  0.00     0.179 C 
BRANCH  17  22
ATOM     22  C   UNL     1      36.597   2.473  46.215  1.00  0.00     0.225 C 
BRANCH  22  23
ATOM     23  O   UNL     1      37.334   2.163  47.373  1.00  0.00    -0.391 OA
ATOM     24  H   UNL     1      37.051   1.263  47.686  1.00  0.00     0.210 HD
ENDBRANCH  22  23
ENDBRANCH  17  22
BRANCH  18  25
ATOM     25  O   UNL     1      35.702   1.529  43.796  1.00  0.00    -0.385 OA
ATOM     26  H   UNL     1      35.470   1.502  44.762  1.00  0.00     0.211 HD
ENDBRANCH  18  25
BRANCH  20  27
ATOM     27  O   UNL     1      38.231   0.381  42.296  1.00  0.00    -0.387 OA
ATOM     28  H   UNL     1      37.505   0.778  41.752  1.00  0.00     0.211 HD
ENDBRANCH  20  27
BRANCH  21  29
ATOM     29  C   UNL     1      39.991  -0.004  44.979  1.00  0.00     0.191 C 
BRANCH  29  30
ATOM     30  O   UNL     1      39.661  -0.215  46.325  1.00  0.00    -0.394 OA
ATOM     31  H   UNL     1      39.451  -1.182  46.423  1.00  0.00     0.210 HD
ENDBRANCH  29  30
ENDBRANCH  21  29
ENDBRANCH   1  17
TORSDOF 13
ENDMDL
MODEL 8
REMARK VINA RESULT:    -6.515      1.817      5.778
REMARK INTER + INTRA:         -11.132
REMARK INTER:                  -9.854
REMARK INTRA:                  -1.278
REMARK UNBOUND:                -1.190
REMARK SMILES OC[C@@H]1O[C@@H](O[C@]2(CO)O[C@@H](CO)[C@H](O)[C@H]2O)[C@H](O)[C@@H](O)[C@H]1O
REMARK SMILES IDX 6 1 5 2 3 3 22 4 4 5 20 6 18 7 2 8 1 9 23 11 21 13 19 15
REMARK SMILES IDX 7 17 16 18 10 19 14 20 11 21 8 22 9 23 17 25 15 27 12 29
REMARK SMILES IDX 13 30
REMARK H PARENT 1 10 23 12 21 14 19 16 9 24 17 26 15 28 13 31
REMARK Flexibility Score: inf
ROOT
ATOM      1  O   UNL     1      36.923   3.300  44.402  1.00  0.00    -0.313 OA
ENDROOT
BRANCH   1   2
ATOM      2  C   UNL     1      37.069   4.332  43.434  1.00  0.00     0.285 C 
ATOM      3  C   UNL     1      36.663   6.139  44.968  1.00  0.00     0.178 C 
ATOM      4  C   UNL     1      35.226   5.528  45.116  1.00  0.00     0.177 C 
ATOM      5  O   UNL     1      37.561   5.506  44.051  1.00  0.00    -0.341 OA
ATOM      6  C   UNL     1      34.647   4.931  43.791  1.00  0.00     0.179 C 
ATOM      7  C   UNL     1      35.738   4.634  42.741  1.00  0.00     0.202 C 
BRANCH   3   8
ATOM      8  C   UNL     1      36.590   7.635  44.635  1.00  0.00     0.191 C 
BRANCH   8   9
ATOM      9  O   UNL     1      37.398   7.921  43.523  1.00  0.00    -0.394 OA
ATOM     10  H   UNL     1      38.338   7.903  43.850  1.00  0.00     0.210 HD
ENDBRANCH   8   9
ENDBRANCH   3   8
BRANCH   4  11
ATOM     11  O   UNL     1      35.258   4.562  46.140  1.00  0.00    -0.387 OA
ATOM     12  H   UNL     1      35.913   3.866  45.863  1.00  0.00     0.211 HD
ENDBRANCH   4  11
BRANCH   6  13
ATOM     13  O   UNL     1      33.947   3.733  44.053  1.00  0.00    -0.387 OA
ATOM     14  H   UNL     1      33.663   3.780  45.004  1.00  0.00     0.211 HD
ENDBRANCH   6  13
BRANCH   7  15
ATOM     15  O   UNL     1      35.916   5.739  41.894  1.00  0.00    -0.385 OA
ATOM     16  H   UNL     1      36.016   5.396  40.972  1.00  0.00     0.211 HD
ENDBRANCH   7  15
ENDBRANCH   1   2
BRANCH   1  17
ATOM     17  C   UNL     1      37.790   2.178  44.225  1.00  0.00     0.224 C 
ATOM     18  C   UNL     1      38.720   1.978  45.460  1.00  0.00     0.208 C 
ATOM     19  O   UNL     1      36.957   1.039  44.125  1.00  0.00    -0.337 OA
ATOM     20  C   UNL     1      38.534   0.526  45.819  1.00  0.00     0.180 C 
ATOM     21  C   UNL     1      37.139   0.252  45.278  1.00  0.00     0.179 C 
BRANCH  17  22
ATOM     22  C   UNL     1      38.554   2.263  42.879  1.00  0.00     0.225 C 
BRANCH  22  23
ATOM     23  O   UNL     1      38.227   1.161  42.068  1.00  0.00    -0.391 OA
ATOM     24  H   UNL     1      38.430   0.332  42.578  1.00  0.00     0.210 HD
ENDBRANCH  22  23
ENDBRANCH  17  22
BRANCH  18  25
ATOM     25  O   UNL     1      40.069   2.252  45.170  1.00  0.00    -0.385 OA
ATOM     26  H   UNL     1      40.320   1.663  44.409  1.00  0.00     0.211 HD
ENDBRANCH  18  25
BRANCH  20  27
ATOM     27  O   UNL     1      38.584   0.358  47.212  1.00  0.00    -0.387 OA
ATOM     28  H   UNL     1      39.520   0.126  47.436  1.00  0.00     0.211 HD
ENDBRANCH  20  27
BRANCH  21  29
ATOM     29  C   UNL     1      36.911  -1.230  44.948  1.00  0.00     0.191 C 
BRANCH  29  30
ATOM     30  O   UNL     1      37.924  -2.037  45.484  1.00  0.00    -0.394 OA
ATOM     31  H   UNL     1      38.010  -1.794  46.444  1.00  0.00     0.210 HD
ENDBRANCH  29  30
ENDBRANCH  21  29
ENDBRANCH   1  17
TORSDOF 13
ENDMDL
MODEL 9
REMARK VINA RESULT:    -6.492      2.308      5.886
REMARK INTER + INTRA:         -11.098
REMARK INTER:                 -10.052
REMARK INTRA:                  -1.046
REMARK UNBOUND:                -1.190
REMARK SMILES OC[C@@H]1O[C@@H](O[C@]2(CO)O[C@@H](CO)[C@H](O)[C@H]2O)[C@H](O)[C@@H](O)[C@H]1O
REMARK SMILES IDX 6 1 5 2 3 3 22 4 4 5 20 6 18 7 2 8 1 9 23 11 21 13 19 15
REMARK SMILES IDX 7 17 16 18 10 19 14 20 11 21 8 22 9 23 17 25 15 27 12 29
REMARK SMILES IDX 13 30
REMARK H PARENT 1 10 23 12 21 14 19 16 9 24 17 26 15 28 13 31
REMARK Flexibility Score: inf
ROOT
ATOM      1  O   UNL     1      36.759   2.651  44.043  1.00  0.00    -0.313 OA
ENDROOT
BRANCH   1   2
ATOM      2  C   UNL     1      35.928   2.949  45.158  1.00  0.00     0.285 C 
ATOM      3  C   UNL     1      33.854   2.670  43.975  1.00  0.00     0.178 C 
ATOM      4  C   UNL     1      34.321   3.895  43.115  1.00  0.00     0.177 C 
ATOM      5  O   UNL     1      34.704   2.250  45.047  1.00  0.00    -0.341 OA
ATOM      6  C   UNL     1      35.099   4.984  43.926  1.00  0.00     0.179 C 
ATOM      7  C   UNL     1      35.656   4.452  45.261  1.00  0.00     0.202 C 
BRANCH   3   8
ATOM      8  C   UNL     1      32.439   2.894  44.524  1.00  0.00     0.191 C 
BRANCH   8   9
ATOM      9  O   UNL     1      31.982   1.732  45.167  1.00  0.00    -0.394 OA
ATOM     10  H   UNL     1      32.672   1.034  45.001  1.00  0.00     0.210 HD
ENDBRANCH   8   9
ENDBRANCH   3   8
BRANCH   4  11
ATOM     11  O   UNL     1      35.090   3.414  42.037  1.00  0.00    -0.387 OA
ATOM     12  H   UNL     1      35.713   2.732  42.408  1.00  0.00     0.211 HD
ENDBRANCH   4  11
BRANCH   6  13
ATOM     13  O   UNL     1      36.176   5.490  43.166  1.00  0.00    -0.387 OA
ATOM     14  H   UNL     1      35.874   5.485  42.219  1.00  0.00     0.211 HD
ENDBRANCH   6  13
BRANCH   7  15
ATOM     15  O   UNL     1      34.736   4.669  46.298  1.00  0.00    -0.385 OA
ATOM     16  H   UNL     1      34.524   5.634  46.314  1.00  0.00     0.211 HD
ENDBRANCH   7  15
ENDBRANCH   1   2
BRANCH   1  17
ATOM     17  C   UNL     1      37.810   1.719  44.303  1.00  0.00     0.224 C 
ATOM     18  C   UNL     1      37.987   1.474  45.832  1.00  0.00     0.208 C 
ATOM     19  O   UNL     1      37.414   0.494  43.715  1.00  0.00    -0.337 OA
ATOM     20  C   UNL     1      37.958  -0.027  45.962  1.00  0.00     0.180 C 
ATOM     21  C   UNL     1      37.140  -0.426  44.744  1.00  0.00     0.179 C 
BRANCH  17  22
ATOM     22  C   UNL     1      39.120   2.131  43.584  1.00  0.00     0.225 C 
BRANCH  22  23
ATOM     23  O   UNL     1      38.825   2.708  42.336  1.00  0.00    -0.391 OA
ATOM     24  H   UNL     1      39.085   2.059  41.628  1.00  0.00     0.210 HD
ENDBRANCH  22  23
ENDBRANCH  17  22
BRANCH  18  25
ATOM     25  O   UNL     1      39.196   1.995  46.327  1.00  0.00    -0.385 OA
ATOM     26  H   UNL     1      39.164   2.977  46.174  1.00  0.00     0.211 HD
ENDBRANCH  18  25
BRANCH  20  27
ATOM     27  O   UNL     1      37.317  -0.402  47.153  1.00  0.00    -0.387 OA
ATOM     28  H   UNL     1      37.863  -1.123  47.555  1.00  0.00     0.211 HD
ENDBRANCH  20  27
BRANCH  21  29
ATOM     29  C   UNL     1      37.438  -1.855  44.269  1.00  0.00     0.191 C 
BRANCH  29  30
ATOM     30  O   UNL     1      38.092  -2.598  45.261  1.00  0.00    -0.394 OA
ATOM     31  H   UNL     1      37.706  -3.514  45.238  1.00  0.00     0.210 HD
ENDBRANCH  29  30
ENDBRANCH  21  29
ENDBRANCH   1  17
TORSDOF 13
ENDMDL
