MODEL 1
REMARK VINA RESULT:    72.266      0.000      0.000
REMARK INTER + INTRA:         100.317
REMARK INTER:                  97.614
REMARK INTRA:                   2.703
REMARK UNBOUND:                 2.703
REMARK SMILES O=c1c(-c2ccc(O)cc2)coc2c([C@H]3O[C@@H](CO)[C@@H](O)[C@@H](O)[C@H]3O)c(O)ccc12
REMARK SMILES IDX 3 1 11 2 12 3 13 4 30 5 2 6 1 7 29 8 28 9 26 10 14 11 4 12
REMARK SMILES IDX 5 13 6 14 7 15 10 16 9 17 8 18 15 20 24 21 16 22 22 23 17 24
REMARK SMILES IDX 20 25 25 26 23 28 18 30 19 31 21 33 27 35
REMARK H PARENT 8 19 25 27 23 29 19 32 21 34 27 36
REMARK Flexibility Score: inf
ROOT
ATOM      1  C   UNL     1      11.980   3.544  18.981  1.00  0.00     0.065 A 
ATOM      2  C   UNL     1      11.221   4.700  18.751  1.00  0.00     0.208 A 
ATOM      3  O   UNL     1       9.923   4.621  18.484  1.00  0.00    -0.463 OA
ATOM      4  C   UNL     1       9.261   3.468  18.417  1.00  0.00     0.147 A 
ATOM      5  C   UNL     1       9.947   2.253  18.648  1.00  0.00     0.066 A 
ATOM      6  C   UNL     1      11.323   2.300  18.936  1.00  0.00     0.200 A 
ATOM      7  O   UNL     1      11.961   1.237  19.174  1.00  0.00    -0.288 OA
ATOM      8  C   UNL     1       9.244   1.039  18.598  1.00  0.00     0.020 A 
ATOM      9  C   UNL     1       7.877   1.032  18.336  1.00  0.00     0.047 A 
ATOM     10  C   UNL     1       7.185   2.228  18.110  1.00  0.00     0.125 A 
ATOM     11  C   UNL     1       7.878   3.463  18.122  1.00  0.00     0.069 A 
ENDROOT
BRANCH   1  12
ATOM     12  C   UNL     1      13.432   3.657  19.269  1.00  0.00    -0.011 A 
ATOM     13  C   UNL     1      13.901   4.623  20.175  1.00  0.00     0.013 A 
ATOM     14  C   UNL     1      15.270   4.737  20.442  1.00  0.00     0.047 A 
ATOM     15  C   UNL     1      16.184   3.894  19.805  1.00  0.00     0.115 A 
ATOM     16  C   UNL     1      14.358   2.815  18.627  1.00  0.00     0.013 A 
ATOM     17  C   UNL     1      15.725   2.932  18.895  1.00  0.00     0.047 A 
BRANCH  15  18
ATOM     18  O   UNL     1      17.543   4.020  20.081  1.00  0.00    -0.508 OA
ATOM     19  H   UNL     1      18.231   3.422  19.636  1.00  0.00     0.293 HD
ENDBRANCH  15  18
ENDBRANCH   1  12
BRANCH  11  20
ATOM     20  C   UNL     1       7.148   4.782  17.900  1.00  0.00     0.188 C 
ATOM     21  C   UNL     1       8.111   5.980  18.095  1.00  0.00     0.179 C 
ATOM     22  O   UNL     1       6.028   4.881  18.768  1.00  0.00    -0.362 OA
ATOM     23  C   UNL     1       7.344   7.296  17.877  1.00  0.00     0.177 C 
ATOM     24  C   UNL     1       5.251   6.027  18.459  1.00  0.00     0.176 C 
ATOM     25  C   UNL     1       6.053   7.324  18.722  1.00  0.00     0.177 C 
BRANCH  21  26
ATOM     26  O   UNL     1       8.668   5.966  19.386  1.00  0.00    -0.387 OA
ATOM     27  H   UNL     1       9.639   6.149  19.288  1.00  0.00     0.211 HD
ENDBRANCH  21  26
BRANCH  23  28
ATOM     28  O   UNL     1       8.171   8.387  18.193  1.00  0.00    -0.387 OA
ATOM     29  H   UNL     1       7.590   9.075  18.608  1.00  0.00     0.211 HD
ENDBRANCH  23  28
BRANCH  24  30
ATOM     30  C   UNL     1       3.940   5.987  19.262  1.00  0.00     0.191 C 
BRANCH  30  31
ATOM     31  O   UNL     1       3.878   4.858  20.091  1.00  0.00    -0.394 OA
ATOM     32  H   UNL     1       4.809   4.658  20.374  1.00  0.00     0.210 HD
ENDBRANCH  30  31
ENDBRANCH  24  30
BRANCH  25  33
ATOM     33  O   UNL     1       6.367   7.430  20.089  1.00  0.00    -0.388 OA
ATOM     34  H   UNL     1       6.142   6.559  20.505  1.00  0.00     0.211 HD
ENDBRANCH  25  33
ENDBRANCH  11  20
BRANCH  10  35
ATOM     35  O   UNL     1       5.809   2.187  17.881  1.00  0.00    -0.507 OA
ATOM     36  H   UNL     1       5.144   2.527  18.566  1.00  0.00     0.293 HD
ENDBRANCH  10  35
TORSDOF 9
ENDMDL
