MODEL 1
REMARK VINA RESULT:    -6.124      0.000      0.000
REMARK INTER + INTRA:          -7.562
REMARK INTER:                  -7.198
REMARK INTRA:                  -0.364
REMARK UNBOUND:                -0.364
REMARK SMILES C=C[C@@]1(C)CC[C@H](C(=C)C)C[C@@H]1C(=C)C
REMARK SMILES IDX 7 1 6 2 5 3 3 4 12 5 11 6 4 7 8 8 10 9 9 10 13 11 14 12
REMARK SMILES IDX 15 13 2 14 1 15
REMARK H PARENT
REMARK Flexibility Score: inf
ROOT
ATOM      1  C   UNL     1      12.809  33.418  21.358  1.00  0.00     0.015 C 
ATOM      2  C   UNL     1      11.911  32.834  20.253  1.00  0.00     0.009 C 
ATOM      3  C   UNL     1      10.489  33.407  20.341  1.00  0.00     0.012 C 
ATOM      4  C   UNL     1       9.813  33.166  21.724  1.00  0.00    -0.008 C 
ATOM      5  C   UNL     1      10.770  33.707  22.854  1.00  0.00     0.024 C 
ATOM      6  C   UNL     1      12.209  33.149  22.749  1.00  0.00     0.017 C 
ATOM      7  C   UNL     1       9.489  31.660  21.899  1.00  0.00     0.016 C 
ENDROOT
BRANCH   1   8
ATOM      8  C   UNL     1      14.233  32.886  21.253  1.00  0.00    -0.077 C 
ATOM      9  C   UNL     1      14.627  31.631  21.987  1.00  0.00     0.039 C 
ATOM     10  C   UNL     1      15.162  33.516  20.513  1.00  0.00     0.008 C 
ENDBRANCH   1   8
BRANCH   5  11
ATOM     11  C   UNL     1      10.216  33.561  24.276  1.00  0.00    -0.077 C 
ATOM     12  C   UNL     1      10.533  32.517  25.063  1.00  0.00     0.008 C 
ATOM     13  C   UNL     1       9.332  34.638  24.855  1.00  0.00     0.039 C 
ENDBRANCH   5  11
BRANCH   4  14
ATOM     14  C   UNL     1       8.505  33.957  21.758  1.00  0.00    -0.028 C 
ATOM     15  C   UNL     1       7.306  33.387  21.940  1.00  0.00     0.004 C 
ENDBRANCH   4  14
TORSDOF 3
ENDMDL
MODEL 2
REMARK VINA RESULT:    -5.909      1.595      4.815
REMARK INTER + INTRA:          -7.309
REMARK INTER:                  -7.095
REMARK INTRA:                  -0.214
REMARK UNBOUND:                -0.364
REMARK SMILES C=C[C@@]1(C)CC[C@H](C(=C)C)C[C@@H]1C(=C)C
REMARK SMILES IDX 7 1 6 2 5 3 3 4 12 5 11 6 4 7 8 8 10 9 9 10 13 11 14 12
REMARK SMILES IDX 15 13 2 14 1 15
REMARK H PARENT
REMARK Flexibility Score: inf
ROOT
ATOM      1  C   UNL     1       9.908  33.419  23.983  1.00  0.00     0.015 C 
ATOM      2  C   UNL     1      11.127  32.553  23.621  1.00  0.00     0.009 C 
ATOM      3  C   UNL     1      11.797  33.056  22.334  1.00  0.00     0.012 C 
ATOM      4  C   UNL     1      10.829  33.105  21.114  1.00  0.00    -0.008 C 
ATOM      5  C   UNL     1       9.554  33.939  21.516  1.00  0.00     0.024 C 
ATOM      6  C   UNL     1       8.894  33.446  22.825  1.00  0.00     0.017 C 
ATOM      7  C   UNL     1      10.473  31.664  20.665  1.00  0.00     0.016 C 
ENDROOT
BRANCH   1   8
ATOM      8  C   UNL     1       9.261  32.952  25.280  1.00  0.00    -0.077 C 
ATOM      9  C   UNL     1       7.770  32.743  25.348  1.00  0.00     0.039 C 
ATOM     10  C   UNL     1       9.993  32.716  26.382  1.00  0.00     0.008 C 
ENDBRANCH   1   8
BRANCH   5  11
ATOM     11  C   UNL     1       8.521  34.095  20.393  1.00  0.00    -0.077 C 
ATOM     12  C   UNL     1       8.733  34.894  19.333  1.00  0.00     0.008 C 
ATOM     13  C   UNL     1       7.244  33.293  20.428  1.00  0.00     0.039 C 
ENDBRANCH   5  11
BRANCH   4  14
ATOM     14  C   UNL     1      11.547  33.814  19.966  1.00  0.00    -0.028 C 
ATOM     15  C   UNL     1      12.880  33.824  19.826  1.00  0.00     0.004 C 
ENDBRANCH   4  14
TORSDOF 3
ENDMDL
MODEL 3
REMARK VINA RESULT:    -5.768      1.373      3.209
REMARK INTER + INTRA:          -7.143
REMARK INTER:                  -7.052
REMARK INTRA:                  -0.092
REMARK UNBOUND:                -0.364
REMARK SMILES C=C[C@@]1(C)CC[C@H](C(=C)C)C[C@@H]1C(=C)C
REMARK SMILES IDX 7 1 6 2 5 3 3 4 12 5 11 6 4 7 8 8 10 9 9 10 13 11 14 12
REMARK SMILES IDX 15 13 2 14 1 15
REMARK H PARENT
REMARK Flexibility Score: inf
ROOT
ATOM      1  C   UNL     1      11.874  32.877  21.616  1.00  0.00     0.015 C 
ATOM      2  C   UNL     1      11.857  33.149  23.130  1.00  0.00     0.009 C 
ATOM      3  C   UNL     1      10.537  32.677  23.759  1.00  0.00     0.012 C 
ATOM      4  C   UNL     1       9.279  33.330  23.112  1.00  0.00    -0.008 C 
ATOM      5  C   UNL     1       9.339  33.104  21.554  1.00  0.00     0.024 C 
ATOM      6  C   UNL     1      10.678  33.557  20.925  1.00  0.00     0.017 C 
ATOM      7  C   UNL     1       9.213  34.834  23.487  1.00  0.00     0.016 C 
ENDROOT
BRANCH   1   8
ATOM      8  C   UNL     1      13.195  33.304  20.990  1.00  0.00    -0.077 C 
ATOM      9  C   UNL     1      13.226  33.841  19.583  1.00  0.00     0.039 C 
ATOM     10  C   UNL     1      14.352  33.214  21.669  1.00  0.00     0.008 C 
ENDBRANCH   1   8
BRANCH   5  11
ATOM     11  C   UNL     1       8.140  33.673  20.785  1.00  0.00    -0.077 C 
ATOM     12  C   UNL     1       8.284  34.604  19.825  1.00  0.00     0.008 C 
ATOM     13  C   UNL     1       6.753  33.146  21.055  1.00  0.00     0.039 C 
ENDBRANCH   5  11
BRANCH   4  14
ATOM     14  C   UNL     1       8.040  32.630  23.670  1.00  0.00    -0.028 C 
ATOM     15  C   UNL     1       7.616  32.782  24.932  1.00  0.00     0.004 C 
ENDBRANCH   4  14
TORSDOF 3
ENDMDL
MODEL 4
REMARK VINA RESULT:    -5.715      1.594      3.302
REMARK INTER + INTRA:          -7.081
REMARK INTER:                  -6.655
REMARK INTRA:                  -0.426
REMARK UNBOUND:                -0.364
REMARK SMILES C=C[C@@]1(C)CC[C@H](C(=C)C)C[C@@H]1C(=C)C
REMARK SMILES IDX 7 1 6 2 5 3 3 4 12 5 11 6 4 7 8 8 10 9 9 10 13 11 14 12
REMARK SMILES IDX 15 13 2 14 1 15
REMARK H PARENT
REMARK Flexibility Score: inf
ROOT
ATOM      1  C   UNL     1      11.690  32.076  22.660  1.00  0.00     0.015 C 
ATOM      2  C   UNL     1      11.466  33.507  23.180  1.00  0.00     0.009 C 
ATOM      3  C   UNL     1      10.122  33.622  23.915  1.00  0.00     0.012 C 
ATOM      4  C   UNL     1       8.904  33.204  23.037  1.00  0.00    -0.008 C 
ATOM      5  C   UNL     1       9.171  31.764  22.455  1.00  0.00     0.024 C 
ATOM      6  C   UNL     1      10.536  31.644  21.737  1.00  0.00     0.017 C 
ATOM      7  C   UNL     1       8.671  34.256  21.922  1.00  0.00     0.016 C 
ENDROOT
BRANCH   1   8
ATOM      8  C   UNL     1      13.039  31.943  21.966  1.00  0.00    -0.077 C 
ATOM      9  C   UNL     1      13.854  33.172  21.656  1.00  0.00     0.039 C 
ATOM     10  C   UNL     1      13.531  30.742  21.618  1.00  0.00     0.008 C 
ENDBRANCH   1   8
BRANCH   5  11
ATOM     11  C   UNL     1       8.034  31.210  21.589  1.00  0.00    -0.077 C 
ATOM     12  C   UNL     1       7.962  31.446  20.267  1.00  0.00     0.008 C 
ATOM     13  C   UNL     1       6.982  30.322  22.205  1.00  0.00     0.039 C 
ENDBRANCH   5  11
BRANCH   4  14
ATOM     14  C   UNL     1       7.666  33.157  23.933  1.00  0.00    -0.028 C 
ATOM     15  C   UNL     1       7.665  32.611  25.157  1.00  0.00     0.004 C 
ENDBRANCH   4  14
TORSDOF 3
ENDMDL
MODEL 5
REMARK VINA RESULT:    -5.707      1.639      5.296
REMARK INTER + INTRA:          -7.071
REMARK INTER:                  -6.705
REMARK INTRA:                  -0.366
REMARK UNBOUND:                -0.364
REMARK SMILES C=C[C@@]1(C)CC[C@H](C(=C)C)C[C@@H]1C(=C)C
REMARK SMILES IDX 7 1 6 2 5 3 3 4 12 5 11 6 4 7 8 8 10 9 9 10 13 11 14 12
REMARK SMILES IDX 15 13 2 14 1 15
REMARK H PARENT
REMARK Flexibility Score: inf
ROOT
ATOM      1  C   UNL     1      11.286  32.655  21.978  1.00  0.00     0.015 C 
ATOM      2  C   UNL     1      11.865  33.679  20.987  1.00  0.00     0.009 C 
ATOM      3  C   UNL     1      12.673  32.981  19.883  1.00  0.00     0.012 C 
ATOM      4  C   UNL     1      13.832  32.098  20.434  1.00  0.00    -0.008 C 
ATOM      5  C   UNL     1      13.241  31.096  21.498  1.00  0.00     0.024 C 
ATOM      6  C   UNL     1      12.406  31.798  22.595  1.00  0.00     0.017 C 
ATOM      7  C   UNL     1      14.945  32.999  21.030  1.00  0.00     0.016 C 
ENDROOT
BRANCH   1   8
ATOM      8  C   UNL     1      10.448  33.335  23.053  1.00  0.00    -0.077 C 
ATOM      9  C   UNL     1      10.686  33.022  24.507  1.00  0.00     0.039 C 
ATOM     10  C   UNL     1       9.489  34.221  22.736  1.00  0.00     0.008 C 
ENDBRANCH   1   8
BRANCH   5  11
ATOM     11  C   UNL     1      14.272  30.138  22.107  1.00  0.00    -0.077 C 
ATOM     12  C   UNL     1      15.084  30.509  23.113  1.00  0.00     0.008 C 
ATOM     13  C   UNL     1      14.357  28.713  21.620  1.00  0.00     0.039 C 
ENDBRANCH   5  11
BRANCH   4  14
ATOM     14  C   UNL     1      14.417  31.300  19.269  1.00  0.00    -0.028 C 
ATOM     15  C   UNL     1      15.671  31.460  18.826  1.00  0.00     0.004 C 
ENDBRANCH   4  14
TORSDOF 3
ENDMDL
MODEL 6
REMARK VINA RESULT:    -5.705      1.523      5.122
REMARK INTER + INTRA:          -7.070
REMARK INTER:                  -6.708
REMARK INTRA:                  -0.361
REMARK UNBOUND:                -0.364
REMARK SMILES C=C[C@@]1(C)CC[C@H](C(=C)C)C[C@@H]1C(=C)C
REMARK SMILES IDX 7 1 6 2 5 3 3 4 12 5 11 6 4 7 8 8 10 9 9 10 13 11 14 12
REMARK SMILES IDX 15 13 2 14 1 15
REMARK H PARENT
REMARK Flexibility Score: inf
ROOT
ATOM      1  C   UNL     1      11.077  32.489  22.786  1.00  0.00     0.015 C 
ATOM      2  C   UNL     1      10.474  31.649  21.646  1.00  0.00     0.009 C 
ATOM      3  C   UNL     1      11.440  30.537  21.212  1.00  0.00     0.012 C 
ATOM      4  C   UNL     1      12.834  31.071  20.766  1.00  0.00    -0.008 C 
ATOM      5  C   UNL     1      13.415  31.984  21.912  1.00  0.00     0.024 C 
ATOM      6  C   UNL     1      12.431  33.089  22.365  1.00  0.00     0.017 C 
ATOM      7  C   UNL     1      12.702  31.830  19.419  1.00  0.00     0.016 C 
ENDROOT
BRANCH   1   8
ATOM      8  C   UNL     1      10.109  33.570  23.250  1.00  0.00    -0.077 C 
ATOM      9  C   UNL     1      10.020  33.927  24.711  1.00  0.00     0.039 C 
ATOM     10  C   UNL     1       9.321  34.224  22.380  1.00  0.00     0.008 C 
ENDBRANCH   1   8
BRANCH   5  11
ATOM     11  C   UNL     1      14.805  32.560  21.619  1.00  0.00    -0.077 C 
ATOM     12  C   UNL     1      14.994  33.558  20.737  1.00  0.00     0.008 C 
ATOM     13  C   UNL     1      16.007  32.048  22.373  1.00  0.00     0.039 C 
ENDBRANCH   5  11
BRANCH   4  14
ATOM     14  C   UNL     1      13.761  29.872  20.565  1.00  0.00    -0.028 C 
ATOM     15  C   UNL     1      14.053  28.999  21.538  1.00  0.00     0.004 C 
ENDBRANCH   4  14
TORSDOF 3
ENDMDL
MODEL 7
REMARK VINA RESULT:    -5.589      1.378      5.347
REMARK INTER + INTRA:          -6.932
REMARK INTER:                  -6.625
REMARK INTRA:                  -0.307
REMARK UNBOUND:                -0.364
REMARK SMILES C=C[C@@]1(C)CC[C@H](C(=C)C)C[C@@H]1C(=C)C
REMARK SMILES IDX 7 1 6 2 5 3 3 4 12 5 11 6 4 7 8 8 10 9 9 10 13 11 14 12
REMARK SMILES IDX 15 13 2 14 1 15
REMARK H PARENT
REMARK Flexibility Score: inf
ROOT
ATOM      1  C   UNL     1       9.686  33.661  22.577  1.00  0.00     0.015 C 
ATOM      2  C   UNL     1      10.705  32.728  23.255  1.00  0.00     0.009 C 
ATOM      3  C   UNL     1      12.132  33.027  22.771  1.00  0.00     0.012 C 
ATOM      4  C   UNL     1      12.293  32.918  21.226  1.00  0.00    -0.008 C 
ATOM      5  C   UNL     1      11.203  33.825  20.539  1.00  0.00     0.024 C 
ATOM      6  C   UNL     1       9.769  33.539  21.045  1.00  0.00     0.017 C 
ATOM      7  C   UNL     1      12.185  31.434  20.787  1.00  0.00     0.016 C 
ENDROOT
BRANCH   1   8
ATOM      8  C   UNL     1       8.273  33.399  23.081  1.00  0.00    -0.077 C 
ATOM      9  C   UNL     1       7.990  33.378  24.561  1.00  0.00     0.039 C 
ATOM     10  C   UNL     1       7.255  33.184  22.230  1.00  0.00     0.008 C 
ENDBRANCH   1   8
BRANCH   5  11
ATOM     11  C   UNL     1      11.263  33.836  19.007  1.00  0.00    -0.077 C 
ATOM     12  C   UNL     1      10.580  32.951  18.258  1.00  0.00     0.008 C 
ATOM     13  C   UNL     1      12.058  34.900  18.291  1.00  0.00     0.039 C 
ENDBRANCH   5  11
BRANCH   4  14
ATOM     14  C   UNL     1      13.681  33.439  20.854  1.00  0.00    -0.028 C 
ATOM     15  C   UNL     1      14.800  33.071  21.494  1.00  0.00     0.004 C 
ENDBRANCH   4  14
TORSDOF 3
ENDMDL
MODEL 8
REMARK VINA RESULT:    -5.487      3.437      5.574
REMARK INTER + INTRA:          -6.812
REMARK INTER:                  -6.430
REMARK INTRA:                  -0.382
REMARK UNBOUND:                -0.364
REMARK SMILES C=C[C@@]1(C)CC[C@H](C(=C)C)C[C@@H]1C(=C)C
REMARK SMILES IDX 7 1 6 2 5 3 3 4 12 5 11 6 4 7 8 8 10 9 9 10 13 11 14 12
REMARK SMILES IDX 15 13 2 14 1 15
REMARK H PARENT
REMARK Flexibility Score: inf
ROOT
ATOM      1  C   UNL     1      15.050  30.294  23.150  1.00  0.00     0.015 C 
ATOM      2  C   UNL     1      14.902  31.514  22.223  1.00  0.00     0.009 C 
ATOM      3  C   UNL     1      13.541  31.501  21.511  1.00  0.00     0.012 C 
ATOM      4  C   UNL     1      13.290  30.204  20.686  1.00  0.00    -0.008 C 
ATOM      5  C   UNL     1      13.509  28.958  21.627  1.00  0.00     0.024 C 
ATOM      6  C   UNL     1      14.870  28.984  22.362  1.00  0.00     0.017 C 
ATOM      7  C   UNL     1      14.223  30.177  19.447  1.00  0.00     0.016 C 
ENDROOT
BRANCH   1   8
ATOM      8  C   UNL     1      16.380  30.320  23.892  1.00  0.00    -0.077 C 
ATOM      9  C   UNL     1      16.832  29.114  24.675  1.00  0.00     0.039 C 
ATOM     10  C   UNL     1      17.175  31.404  23.866  1.00  0.00     0.008 C 
ENDBRANCH   1   8
BRANCH   5  11
ATOM     11  C   UNL     1      13.266  27.604  20.950  1.00  0.00    -0.077 C 
ATOM     12  C   UNL     1      14.140  27.075  20.075  1.00  0.00     0.008 C 
ATOM     13  C   UNL     1      12.045  26.792  21.304  1.00  0.00     0.039 C 
ENDBRANCH   5  11
BRANCH   4  14
ATOM     14  C   UNL     1      11.839  30.218  20.208  1.00  0.00    -0.028 C 
ATOM     15  C   UNL     1      10.800  30.455  21.019  1.00  0.00     0.004 C 
ENDBRANCH   4  14
TORSDOF 3
ENDMDL
MODEL 9
REMARK VINA RESULT:    -5.480      1.960      5.013
REMARK INTER + INTRA:          -6.805
REMARK INTER:                  -6.619
REMARK INTRA:                  -0.185
REMARK UNBOUND:                -0.364
REMARK SMILES C=C[C@@]1(C)CC[C@H](C(=C)C)C[C@@H]1C(=C)C
REMARK SMILES IDX 7 1 6 2 5 3 3 4 12 5 11 6 4 7 8 8 10 9 9 10 13 11 14 12
REMARK SMILES IDX 15 13 2 14 1 15
REMARK H PARENT
REMARK Flexibility Score: inf
ROOT
ATOM      1  C   UNL     1       8.080  30.652  22.517  1.00  0.00     0.015 C 
ATOM      2  C   UNL     1       8.698  31.079  21.174  1.00  0.00     0.009 C 
ATOM      3  C   UNL     1      10.160  31.513  21.354  1.00  0.00     0.012 C 
ATOM      4  C   UNL     1      10.336  32.669  22.383  1.00  0.00    -0.008 C 
ATOM      5  C   UNL     1       9.643  32.251  23.735  1.00  0.00     0.024 C 
ATOM      6  C   UNL     1       8.177  31.790  23.549  1.00  0.00     0.017 C 
ATOM      7  C   UNL     1       9.752  33.984  21.805  1.00  0.00     0.016 C 
ENDROOT
BRANCH   1   8
ATOM      8  C   UNL     1       6.642  30.181  22.342  1.00  0.00    -0.077 C 
ATOM      9  C   UNL     1       5.977  29.365  23.420  1.00  0.00     0.039 C 
ATOM     10  C   UNL     1       5.939  30.478  21.235  1.00  0.00     0.008 C 
ENDBRANCH   1   8
BRANCH   5  11
ATOM     11  C   UNL     1       9.763  33.290  24.856  1.00  0.00    -0.077 C 
ATOM     12  C   UNL     1       9.164  34.492  24.784  1.00  0.00     0.008 C 
ATOM     13  C   UNL     1      10.524  32.955  26.115  1.00  0.00     0.039 C 
ENDBRANCH   5  11
BRANCH   4  14
ATOM     14  C   UNL     1      11.832  32.862  22.630  1.00  0.00    -0.028 C 
ATOM     15  C   UNL     1      12.678  33.315  21.695  1.00  0.00     0.004 C 
ENDBRANCH   4  14
TORSDOF 3
ENDMDL
