MODEL 1
REMARK VINA RESULT:    -3.826      0.000      0.000
REMARK INTER + INTRA:          -4.762
REMARK INTER:                  -4.497
REMARK INTRA:                  -0.265
REMARK UNBOUND:                -0.265
REMARK SMILES O=c1cc(-c2ccc(O)c(O)c2)oc2cc(O)cc(O)c12
REMARK SMILES IDX 4 1 3 2 2 3 1 4 21 5 19 6 18 7 16 8 15 9 14 10 13 11 5 12
REMARK SMILES IDX 6 13 7 14 8 15 12 16 10 17 9 18 11 20 20 22 17 24
REMARK H PARENT 9 19 11 21 20 23 17 25
REMARK Flexibility Score: inf
ROOT
ATOM      1  C   UNL     1      24.168 -12.886  54.816  1.00  0.00     0.138 A 
ATOM      2  C   UNL     1      23.000 -12.116  54.743  1.00  0.00     0.100 A 
ATOM      3  C   UNL     1      22.628 -11.321  55.828  1.00  0.00     0.197 A 
ATOM      4  O   UNL     1      21.608 -10.594  55.710  1.00  0.00    -0.289 OA
ATOM      5  C   UNL     1      23.414 -11.326  57.006  1.00  0.00     0.107 A 
ATOM      6  C   UNL     1      23.109 -10.588  58.188  1.00  0.00     0.134 A 
ATOM      7  C   UNL     1      24.022 -10.579  59.251  1.00  0.00     0.093 A 
ATOM      8  C   UNL     1      25.200 -11.328  59.194  1.00  0.00     0.123 A 
ATOM      9  C   UNL     1      25.480 -12.094  58.066  1.00  0.00     0.094 A 
ATOM     10  C   UNL     1      24.606 -12.097  56.976  1.00  0.00     0.146 A 
ATOM     11  O   UNL     1      24.918 -12.830  55.913  1.00  0.00    -0.456 OA
ENDROOT
BRANCH   1  12
ATOM     12  C   UNL     1      24.611 -13.750  53.692  1.00  0.00     0.021 A 
ATOM     13  C   UNL     1      25.356 -13.235  52.614  1.00  0.00     0.016 A 
ATOM     14  C   UNL     1      25.751 -14.069  51.565  1.00  0.00     0.051 A 
ATOM     15  C   UNL     1      25.404 -15.425  51.568  1.00  0.00     0.157 A 
ATOM     16  C   UNL     1      24.254 -15.110  53.681  1.00  0.00     0.062 A 
ATOM     17  C   UNL     1      24.649 -15.946  52.631  1.00  0.00     0.158 A 
BRANCH  15  18
ATOM     18  O   UNL     1      25.800 -16.253  50.519  1.00  0.00    -0.504 OA
ATOM     19  H   UNL     1      25.401 -17.176  50.391  1.00  0.00     0.293 HD
ENDBRANCH  15  18
BRANCH  17  20
ATOM     20  O   UNL     1      24.283 -17.292  52.663  1.00  0.00    -0.504 OA
ATOM     21  H   UNL     1      23.439 -17.630  52.217  1.00  0.00     0.293 HD
ENDBRANCH  17  20
ENDBRANCH   1  12
BRANCH   6  22
ATOM     22  O   UNL     1      21.922  -9.875  58.381  1.00  0.00    -0.507 OA
ATOM     23  H   UNL     1      21.392  -9.860  59.240  1.00  0.00     0.293 HD
ENDBRANCH   6  22
BRANCH   8  24
ATOM     24  O   UNL     1      26.096 -11.325  60.262  1.00  0.00    -0.508 OA
ATOM     25  H   UNL     1      27.033 -10.953  60.166  1.00  0.00     0.293 HD
ENDBRANCH   8  24
TORSDOF 5
ENDMDL
MODEL 2
REMARK VINA RESULT:    -1.888      2.240      7.486
REMARK INTER + INTRA:          -2.484
REMARK INTER:                  -2.223
REMARK INTRA:                  -0.261
REMARK UNBOUND:                -0.265
REMARK SMILES O=c1cc(-c2ccc(O)c(O)c2)oc2cc(O)cc(O)c12
REMARK SMILES IDX 4 1 3 2 2 3 1 4 21 5 19 6 18 7 16 8 15 9 14 10 13 11 5 12
REMARK SMILES IDX 6 13 7 14 8 15 12 16 10 17 9 18 11 20 20 22 17 24
REMARK H PARENT 9 19 11 21 20 23 17 25
REMARK Flexibility Score: inf
ROOT
ATOM      1  C   UNL     1      24.381 -11.142  57.892  1.00  0.00     0.138 A 
ATOM      2  C   UNL     1      25.226 -10.365  57.089  1.00  0.00     0.100 A 
ATOM      3  C   UNL     1      25.410 -10.705  55.748  1.00  0.00     0.197 A 
ATOM      4  O   UNL     1      26.125  -9.953  55.037  1.00  0.00    -0.289 OA
ATOM      5  C   UNL     1      24.768 -11.851  55.219  1.00  0.00     0.107 A 
ATOM      6  C   UNL     1      24.915 -12.317  53.878  1.00  0.00     0.134 A 
ATOM      7  C   UNL     1      24.140 -13.396  53.435  1.00  0.00     0.093 A 
ATOM      8  C   UNL     1      23.268 -14.061  54.301  1.00  0.00     0.123 A 
ATOM      9  C   UNL     1      23.158 -13.647  55.625  1.00  0.00     0.094 A 
ATOM     10  C   UNL     1      23.893 -12.553  56.088  1.00  0.00     0.146 A 
ATOM     11  O   UNL     1      23.747 -12.180  57.356  1.00  0.00    -0.456 OA
ENDROOT
BRANCH   1  12
ATOM     12  C   UNL     1      24.150 -10.825  59.324  1.00  0.00     0.021 A 
ATOM     13  C   UNL     1      22.981 -10.172  59.758  1.00  0.00     0.016 A 
ATOM     14  C   UNL     1      22.795  -9.878  61.111  1.00  0.00     0.051 A 
ATOM     15  C   UNL     1      23.772 -10.223  62.052  1.00  0.00     0.157 A 
ATOM     16  C   UNL     1      25.133 -11.157  60.274  1.00  0.00     0.062 A 
ATOM     17  C   UNL     1      24.947 -10.864  61.630  1.00  0.00     0.158 A 
BRANCH  15  18
ATOM     18  O   UNL     1      23.582  -9.929  63.401  1.00  0.00    -0.504 OA
ATOM     19  H   UNL     1      23.037 -10.534  64.005  1.00  0.00     0.293 HD
ENDBRANCH  15  18
BRANCH  17  20
ATOM     20  O   UNL     1      25.943 -11.218  62.541  1.00  0.00    -0.504 OA
ATOM     21  H   UNL     1      26.927 -11.180  62.305  1.00  0.00     0.293 HD
ENDBRANCH  17  20
ENDBRANCH   1  12
BRANCH   6  22
ATOM     22  O   UNL     1      25.818 -11.779  52.957  1.00  0.00    -0.507 OA
ATOM     23  H   UNL     1      26.272 -12.301  52.222  1.00  0.00     0.293 HD
ENDBRANCH   6  22
BRANCH   8  24
ATOM     24  O   UNL     1      22.512 -15.143  53.854  1.00  0.00    -0.508 OA
ATOM     25  H   UNL     1      22.736 -15.627  52.993  1.00  0.00     0.293 HD
ENDBRANCH   8  24
TORSDOF 5
ENDMDL
MODEL 3
REMARK VINA RESULT:    -1.408      2.447      7.449
REMARK INTER + INTRA:          -1.920
REMARK INTER:                  -1.643
REMARK INTRA:                  -0.277
REMARK UNBOUND:                -0.265
REMARK SMILES O=c1cc(-c2ccc(O)c(O)c2)oc2cc(O)cc(O)c12
REMARK SMILES IDX 4 1 3 2 2 3 1 4 21 5 19 6 18 7 16 8 15 9 14 10 13 11 5 12
REMARK SMILES IDX 6 13 7 14 8 15 12 16 10 17 9 18 11 20 20 22 17 24
REMARK H PARENT 9 19 11 21 20 23 17 25
REMARK Flexibility Score: inf
ROOT
ATOM      1  C   UNL     1      24.850 -11.162  57.876  1.00  0.00     0.138 A 
ATOM      2  C   UNL     1      25.567 -10.401  56.944  1.00  0.00     0.100 A 
ATOM      3  C   UNL     1      25.521 -10.744  55.591  1.00  0.00     0.197 A 
ATOM      4  O   UNL     1      26.125 -10.006  54.771  1.00  0.00    -0.289 OA
ATOM      5  C   UNL     1      24.779 -11.876  55.178  1.00  0.00     0.107 A 
ATOM      6  C   UNL     1      24.694 -12.344  53.832  1.00  0.00     0.134 A 
ATOM      7  C   UNL     1      23.835 -13.407  53.524  1.00  0.00     0.093 A 
ATOM      8  C   UNL     1      23.104 -14.055  54.523  1.00  0.00     0.123 A 
ATOM      9  C   UNL     1      23.222 -13.640  55.847  1.00  0.00     0.094 A 
ATOM     10  C   UNL     1      24.044 -12.561  56.181  1.00  0.00     0.146 A 
ATOM     11  O   UNL     1      24.116 -12.187  57.454  1.00  0.00    -0.456 OA
ENDROOT
BRANCH   1  12
ATOM     12  C   UNL     1      24.864 -10.842  59.327  1.00  0.00     0.021 A 
ATOM     13  C   UNL     1      26.050 -10.891  60.083  1.00  0.00     0.016 A 
ATOM     14  C   UNL     1      26.032 -10.595  61.448  1.00  0.00     0.051 A 
ATOM     15  C   UNL     1      24.833 -10.252  62.083  1.00  0.00     0.157 A 
ATOM     16  C   UNL     1      23.660 -10.511  59.974  1.00  0.00     0.062 A 
ATOM     17  C   UNL     1      23.641 -10.213  61.342  1.00  0.00     0.158 A 
BRANCH  15  18
ATOM     18  O   UNL     1      24.819  -9.957  63.445  1.00  0.00    -0.504 OA
ATOM     19  H   UNL     1      25.608  -9.511  63.899  1.00  0.00     0.293 HD
ENDBRANCH  15  18
BRANCH  17  20
ATOM     20  O   UNL     1      22.428  -9.880  61.944  1.00  0.00    -0.504 OA
ATOM     21  H   UNL     1      22.380  -9.483  62.875  1.00  0.00     0.293 HD
ENDBRANCH  17  20
ENDBRANCH   1  12
BRANCH   6  22
ATOM     22  O   UNL     1      25.444 -11.823  52.774  1.00  0.00    -0.507 OA
ATOM     23  H   UNL     1      26.352 -11.391  52.869  1.00  0.00     0.293 HD
ENDBRANCH   6  22
BRANCH   8  24
ATOM     24  O   UNL     1      22.264 -15.121  54.209  1.00  0.00    -0.508 OA
ATOM     25  H   UNL     1      22.322 -15.596  53.316  1.00  0.00     0.293 HD
ENDBRANCH   8  24
TORSDOF 5
ENDMDL
MODEL 4
REMARK VINA RESULT:    -1.247      1.377      7.058
REMARK INTER + INTRA:          -1.730
REMARK INTER:                  -1.460
REMARK INTRA:                  -0.270
REMARK UNBOUND:                -0.265
REMARK SMILES O=c1cc(-c2ccc(O)c(O)c2)oc2cc(O)cc(O)c12
REMARK SMILES IDX 4 1 3 2 2 3 1 4 21 5 19 6 18 7 16 8 15 9 14 10 13 11 5 12
REMARK SMILES IDX 6 13 7 14 8 15 12 16 10 17 9 18 11 20 20 22 17 24
REMARK H PARENT 9 19 11 21 20 23 17 25
REMARK Flexibility Score: inf
ROOT
ATOM      1  C   UNL     1      24.398 -12.485  55.174  1.00  0.00     0.138 A 
ATOM      2  C   UNL     1      25.035 -11.811  54.123  1.00  0.00     0.100 A 
ATOM      3  C   UNL     1      25.349 -12.500  52.951  1.00  0.00     0.197 A 
ATOM      4  O   UNL     1      25.865 -11.854  52.002  1.00  0.00    -0.289 OA
ATOM      5  C   UNL     1      25.053 -13.881  52.845  1.00  0.00     0.107 A 
ATOM      6  C   UNL     1      25.365 -14.693  51.715  1.00  0.00     0.134 A 
ATOM      7  C   UNL     1      24.918 -16.021  51.676  1.00  0.00     0.093 A 
ATOM      8  C   UNL     1      24.223 -16.579  52.752  1.00  0.00     0.123 A 
ATOM      9  C   UNL     1      23.961 -15.808  53.881  1.00  0.00     0.094 A 
ATOM     10  C   UNL     1      24.363 -14.472  53.936  1.00  0.00     0.146 A 
ATOM     11  O   UNL     1      24.081 -13.768  55.027  1.00  0.00    -0.456 OA
ENDROOT
BRANCH   1  12
ATOM     12  C   UNL     1      24.041 -11.801  56.443  1.00  0.00     0.021 A 
ATOM     13  C   UNL     1      22.996 -10.861  56.507  1.00  0.00     0.016 A 
ATOM     14  C   UNL     1      22.688 -10.225  57.713  1.00  0.00     0.051 A 
ATOM     15  C   UNL     1      23.421 -10.510  58.871  1.00  0.00     0.157 A 
ATOM     16  C   UNL     1      24.782 -12.072  57.607  1.00  0.00     0.062 A 
ATOM     17  C   UNL     1      24.475 -11.437  58.816  1.00  0.00     0.158 A 
BRANCH  15  18
ATOM     18  O   UNL     1      23.111  -9.875  60.072  1.00  0.00    -0.504 OA
ATOM     19  H   UNL     1      22.515  -9.056  60.101  1.00  0.00     0.293 HD
ENDBRANCH  15  18
BRANCH  17  20
ATOM     20  O   UNL     1      25.228 -11.741  59.950  1.00  0.00    -0.504 OA
ATOM     21  H   UNL     1      25.899 -12.500  59.964  1.00  0.00     0.293 HD
ENDBRANCH  17  20
ENDBRANCH   1  12
BRANCH   6  22
ATOM     22  O   UNL     1      26.125 -14.260  50.625  1.00  0.00    -0.507 OA
ATOM     23  H   UNL     1      25.877 -14.400  49.657  1.00  0.00     0.293 HD
ENDBRANCH   6  22
BRANCH   8  24
ATOM     24  O   UNL     1      23.796 -17.905  52.710  1.00  0.00    -0.508 OA
ATOM     25  H   UNL     1      23.097 -18.216  52.045  1.00  0.00     0.293 HD
ENDBRANCH   8  24
TORSDOF 5
ENDMDL
