MODEL 1
REMARK VINA RESULT:    -3.353      0.000      0.000
REMARK INTER + INTRA:          -4.196
REMARK INTER:                  -4.137
REMARK INTRA:                  -0.060
REMARK UNBOUND:                -0.060
REMARK SMILES O=c1c(O)c(-c2cc(O)c(O)c(O)c2)oc2cc(O)cc(O)c12
REMARK SMILES IDX 5 1 3 2 2 3 1 4 23 5 21 6 20 7 18 8 17 9 16 10 15 11 6 12
REMARK SMILES IDX 7 13 8 14 14 15 10 16 12 17 9 18 11 20 13 22 4 24 22 26
REMARK SMILES IDX 19 28
REMARK H PARENT 9 19 11 21 13 23 4 25 22 27 19 29
REMARK Flexibility Score: inf
ROOT
ATOM      1  C   UNL     1     -20.216  -6.578  -1.116  1.00  0.00     0.180 A 
ATOM      2  C   UNL     1     -21.555  -6.742  -0.722  1.00  0.00     0.208 A 
ATOM      3  C   UNL     1     -22.436  -7.424  -1.576  1.00  0.00     0.238 A 
ATOM      4  O   UNL     1     -23.647  -7.521  -1.243  1.00  0.00    -0.285 OA
ATOM      5  C   UNL     1     -21.964  -7.949  -2.803  1.00  0.00     0.111 A 
ATOM      6  C   UNL     1     -22.760  -8.693  -3.726  1.00  0.00     0.134 A 
ATOM      7  C   UNL     1     -22.222  -9.050  -4.968  1.00  0.00     0.093 A 
ATOM      8  C   UNL     1     -20.898  -8.748  -5.295  1.00  0.00     0.123 A 
ATOM      9  C   UNL     1     -20.096  -8.076  -4.377  1.00  0.00     0.094 A 
ATOM     10  C   UNL     1     -20.614  -7.674  -3.143  1.00  0.00     0.146 A 
ATOM     11  O   UNL     1     -19.819  -7.025  -2.302  1.00  0.00    -0.452 OA
ENDROOT
BRANCH   1  12
ATOM     12  C   UNL     1     -19.222  -5.893  -0.259  1.00  0.00     0.029 A 
ATOM     13  C   UNL     1     -19.467  -4.581   0.170  1.00  0.00     0.062 A 
ATOM     14  C   UNL     1     -18.540  -3.895   0.963  1.00  0.00     0.162 A 
ATOM     15  C   UNL     1     -18.009  -6.507   0.088  1.00  0.00     0.062 A 
ATOM     16  C   UNL     1     -17.329  -4.529   1.329  1.00  0.00     0.200 A 
ATOM     17  C   UNL     1     -17.071  -5.836   0.879  1.00  0.00     0.162 A 
BRANCH  14  18
ATOM     18  O   UNL     1     -18.863  -2.595   1.359  1.00  0.00    -0.504 OA
ATOM     19  H   UNL     1     -19.366  -2.369   2.205  1.00  0.00     0.293 HD
ENDBRANCH  14  18
BRANCH  16  20
ATOM     20  O   UNL     1     -16.368  -3.898   2.125  1.00  0.00    -0.502 OA
ATOM     21  H   UNL     1     -16.401  -2.924   2.388  1.00  0.00     0.293 HD
ENDBRANCH  16  20
BRANCH  17  22
ATOM     22  O   UNL     1     -15.882  -6.489   1.204  1.00  0.00    -0.504 OA
ATOM     23  H   UNL     1     -15.866  -7.437   1.562  1.00  0.00     0.293 HD
ENDBRANCH  17  22
ENDBRANCH   1  12
BRANCH   2  24
ATOM     24  O   UNL     1     -22.005  -6.197   0.483  1.00  0.00    -0.502 OA
ATOM     25  H   UNL     1     -22.358  -6.769   1.241  1.00  0.00     0.293 HD
ENDBRANCH   2  24
BRANCH   6  26
ATOM     26  O   UNL     1     -24.063  -9.125  -3.462  1.00  0.00    -0.507 OA
ATOM     27  H   UNL     1     -24.897  -8.694  -3.832  1.00  0.00     0.293 HD
ENDBRANCH   6  26
BRANCH   8  28
ATOM     28  O   UNL     1     -20.366  -9.122  -6.527  1.00  0.00    -0.508 OA
ATOM     29  H   UNL     1     -20.948  -9.521  -7.256  1.00  0.00     0.293 HD
ENDBRANCH   8  28
TORSDOF 7
ENDMDL
MODEL 2
REMARK VINA RESULT:    -1.565     23.284     24.800
REMARK INTER + INTRA:          -1.991
REMARK INTER:                  -2.119
REMARK INTRA:                   0.128
REMARK UNBOUND:                -0.060
REMARK SMILES O=c1c(O)c(-c2cc(O)c(O)c(O)c2)oc2cc(O)cc(O)c12
REMARK SMILES IDX 5 1 3 2 2 3 1 4 23 5 21 6 20 7 18 8 17 9 16 10 15 11 6 12
REMARK SMILES IDX 7 13 8 14 14 15 10 16 12 17 9 18 11 20 13 22 4 24 22 26
REMARK SMILES IDX 19 28
REMARK H PARENT 9 19 11 21 13 23 4 25 22 27 19 29
REMARK Flexibility Score: inf
ROOT
ATOM      1  C   UNL     1     -10.770   9.405 -16.428  1.00  0.00     0.180 A 
ATOM      2  C   UNL     1     -10.465   8.292 -17.230  1.00  0.00     0.208 A 
ATOM      3  C   UNL     1      -9.125   7.895 -17.362  1.00  0.00     0.238 A 
ATOM      4  O   UNL     1      -8.853   6.932 -18.125  1.00  0.00    -0.285 OA
ATOM      5  C   UNL     1      -8.109   8.605 -16.677  1.00  0.00     0.111 A 
ATOM      6  C   UNL     1      -6.723   8.265 -16.706  1.00  0.00     0.134 A 
ATOM      7  C   UNL     1      -5.791   9.115 -16.097  1.00  0.00     0.093 A 
ATOM      8  C   UNL     1      -6.202  10.256 -15.404  1.00  0.00     0.123 A 
ATOM      9  C   UNL     1      -7.557  10.563 -15.319  1.00  0.00     0.094 A 
ATOM     10  C   UNL     1      -8.508   9.755 -15.947  1.00  0.00     0.146 A 
ATOM     11  O   UNL     1      -9.789  10.089 -15.851  1.00  0.00    -0.452 OA
ENDROOT
BRANCH   1  12
ATOM     12  C   UNL     1     -12.161   9.869 -16.220  1.00  0.00     0.029 A 
ATOM     13  C   UNL     1     -12.576  10.256 -14.939  1.00  0.00     0.062 A 
ATOM     14  C   UNL     1     -13.889  10.679 -14.702  1.00  0.00     0.162 A 
ATOM     15  C   UNL     1     -13.094   9.875 -17.269  1.00  0.00     0.062 A 
ATOM     16  C   UNL     1     -14.818  10.706 -15.769  1.00  0.00     0.200 A 
ATOM     17  C   UNL     1     -14.409  10.294 -17.050  1.00  0.00     0.162 A 
BRANCH  14  18
ATOM     18  O   UNL     1     -14.222  11.060 -13.400  1.00  0.00    -0.504 OA
ATOM     19  H   UNL     1     -14.817  10.521 -12.787  1.00  0.00     0.293 HD
ENDBRANCH  14  18
BRANCH  16  20
ATOM     20  O   UNL     1     -16.140  11.125 -15.596  1.00  0.00    -0.502 OA
ATOM     21  H   UNL     1     -16.933  10.705 -16.059  1.00  0.00     0.293 HD
ENDBRANCH  16  20
BRANCH  17  22
ATOM     22  O   UNL     1     -15.299  10.290 -18.124  1.00  0.00    -0.504 OA
ATOM     23  H   UNL     1     -15.880  11.089 -18.348  1.00  0.00     0.293 HD
ENDBRANCH  17  22
ENDBRANCH   1  12
BRANCH   2  24
ATOM     24  O   UNL     1     -11.481   7.620 -17.915  1.00  0.00    -0.502 OA
ATOM     25  H   UNL     1     -12.411   7.502 -17.530  1.00  0.00     0.293 HD
ENDBRANCH   2  24
BRANCH   6  26
ATOM     26  O   UNL     1      -6.216   7.101 -17.293  1.00  0.00    -0.507 OA
ATOM     27  H   UNL     1      -6.755   6.461 -17.857  1.00  0.00     0.293 HD
ENDBRANCH   6  26
BRANCH   8  28
ATOM     28  O   UNL     1      -5.270  11.087 -14.787  1.00  0.00    -0.508 OA
ATOM     29  H   UNL     1      -5.190  11.136 -13.777  1.00  0.00     0.293 HD
ENDBRANCH   8  28
TORSDOF 7
ENDMDL
MODEL 3
REMARK VINA RESULT:    -0.861     23.782     25.418
REMARK INTER + INTRA:          -1.122
REMARK INTER:                  -0.964
REMARK INTRA:                  -0.158
REMARK UNBOUND:                -0.060
REMARK SMILES O=c1c(O)c(-c2cc(O)c(O)c(O)c2)oc2cc(O)cc(O)c12
REMARK SMILES IDX 5 1 3 2 2 3 1 4 23 5 21 6 20 7 18 8 17 9 16 10 15 11 6 12
REMARK SMILES IDX 7 13 8 14 14 15 10 16 12 17 9 18 11 20 13 22 4 24 22 26
REMARK SMILES IDX 19 28
REMARK H PARENT 9 19 11 21 13 23 4 25 22 27 19 29
REMARK Flexibility Score: inf
ROOT
ATOM      1  C   UNL     1      -8.844   9.323 -16.105  1.00  0.00     0.180 A 
ATOM      2  C   UNL     1      -8.242   8.545 -17.109  1.00  0.00     0.208 A 
ATOM      3  C   UNL     1      -6.848   8.378 -17.095  1.00  0.00     0.238 A 
ATOM      4  O   UNL     1      -6.309   7.726 -18.027  1.00  0.00    -0.285 OA
ATOM      5  C   UNL     1      -6.077   8.976 -16.070  1.00  0.00     0.111 A 
ATOM      6  C   UNL     1      -4.662   8.838 -15.935  1.00  0.00     0.134 A 
ATOM      7  C   UNL     1      -3.986   9.580 -14.958  1.00  0.00     0.093 A 
ATOM      8  C   UNL     1      -4.681  10.403 -14.070  1.00  0.00     0.123 A 
ATOM      9  C   UNL     1      -6.068  10.497 -14.155  1.00  0.00     0.094 A 
ATOM     10  C   UNL     1      -6.767   9.798 -15.141  1.00  0.00     0.146 A 
ATOM     11  O   UNL     1      -8.087   9.924 -15.195  1.00  0.00    -0.452 OA
ENDROOT
BRANCH   1  12
ATOM     12  C   UNL     1     -10.310   9.525 -16.039  1.00  0.00     0.029 A 
ATOM     13  C   UNL     1     -10.961  10.206 -17.076  1.00  0.00     0.062 A 
ATOM     14  C   UNL     1     -12.342  10.434 -17.036  1.00  0.00     0.162 A 
ATOM     15  C   UNL     1     -11.057   9.098 -14.930  1.00  0.00     0.062 A 
ATOM     16  C   UNL     1     -13.093   9.980 -15.926  1.00  0.00     0.200 A 
ATOM     17  C   UNL     1     -12.436   9.317 -14.873  1.00  0.00     0.162 A 
BRANCH  14  18
ATOM     18  O   UNL     1     -12.918  11.110 -18.114  1.00  0.00    -0.504 OA
ATOM     19  H   UNL     1     -13.650  11.799 -18.023  1.00  0.00     0.293 HD
ENDBRANCH  14  18
BRANCH  16  20
ATOM     20  O   UNL     1     -14.474  10.170 -15.832  1.00  0.00    -0.502 OA
ATOM     21  H   UNL     1     -14.924  11.074 -15.836  1.00  0.00     0.293 HD
ENDBRANCH  16  20
BRANCH  17  22
ATOM     22  O   UNL     1     -13.138   8.869 -13.754  1.00  0.00    -0.504 OA
ATOM     23  H   UNL     1     -13.374   9.483 -12.983  1.00  0.00     0.293 HD
ENDBRANCH  17  22
ENDBRANCH   1  12
BRANCH   2  24
ATOM     24  O   UNL     1      -9.020   7.983 -18.125  1.00  0.00    -0.502 OA
ATOM     25  H   UNL     1      -9.096   6.983 -18.261  1.00  0.00     0.293 HD
ENDBRANCH   2  24
BRANCH   6  26
ATOM     26  O   UNL     1      -3.884   7.973 -16.711  1.00  0.00    -0.507 OA
ATOM     27  H   UNL     1      -4.173   7.053 -17.011  1.00  0.00     0.293 HD
ENDBRANCH   6  26
BRANCH   8  28
ATOM     28  O   UNL     1      -4.003  11.125 -13.090  1.00  0.00    -0.508 OA
ATOM     29  H   UNL     1      -3.006  11.011 -12.943  1.00  0.00     0.293 HD
ENDBRANCH   8  28
TORSDOF 7
ENDMDL
