MODEL 1
REMARK VINA RESULT:    -4.467      0.000      0.000
REMARK INTER + INTRA:          -5.976
REMARK INTER:                  -5.772
REMARK INTRA:                  -0.204
REMARK UNBOUND:                -0.204
REMARK SMILES C=CC(=O)CCCCC
REMARK SMILES IDX 6 1 7 2 8 3 9 4 5 5 3 6 4 7 2 8 1 9
REMARK H PARENT
REMARK Flexibility Score: inf
ROOT
ATOM      1  C   UNL     1      13.391  31.710  28.802  1.00  0.00     0.008 C 
ENDROOT
BRANCH   1   2
ATOM      2  C   UNL     1      11.886  32.008  28.877  1.00  0.00     0.000 C 
BRANCH   2   3
ATOM      3  C   UNL     1      11.479  33.211  28.012  1.00  0.00    -0.003 C 
ATOM      4  C   UNL     1      12.563  33.615  27.013  1.00  0.00     0.004 C 
ENDBRANCH   2   3
ENDBRANCH   1   2
BRANCH   1   5
ATOM      5  C   UNL     1      13.869  30.983  30.064  1.00  0.00     0.080 C 
BRANCH   5   6
ATOM      6  C   UNL     1      15.366  30.905  30.091  1.00  0.00     0.155 C 
ATOM      7  O   UNL     1      15.931  29.794  29.891  1.00  0.00    -0.295 OA
BRANCH   6   8
ATOM      8  C   UNL     1      16.167  32.125  30.305  1.00  0.00     0.039 C 
ATOM      9  C   UNL     1      17.021  32.590  29.395  1.00  0.00     0.012 C 
ENDBRANCH   6   8
ENDBRANCH   5   6
ENDBRANCH   1   5
TORSDOF 5
ENDMDL
MODEL 2
REMARK VINA RESULT:    -4.287      1.712      4.242
REMARK INTER + INTRA:          -5.744
REMARK INTER:                  -5.415
REMARK INTRA:                  -0.328
REMARK UNBOUND:                -0.204
REMARK SMILES C=CC(=O)CCCCC
REMARK SMILES IDX 6 1 7 2 8 3 9 4 5 5 3 6 4 7 2 8 1 9
REMARK H PARENT
REMARK Flexibility Score: inf
ROOT
ATOM      1  C   UNL     1      15.058  30.263  29.865  1.00  0.00     0.008 C 
ENDROOT
BRANCH   1   2
ATOM      2  C   UNL     1      16.422  30.936  30.088  1.00  0.00     0.000 C 
BRANCH   2   3
ATOM      3  C   UNL     1      16.378  32.453  29.845  1.00  0.00    -0.003 C 
ATOM      4  C   UNL     1      17.079  33.248  30.946  1.00  0.00     0.004 C 
ENDBRANCH   2   3
ENDBRANCH   1   2
BRANCH   1   5
ATOM      5  C   UNL     1      13.948  31.018  30.604  1.00  0.00     0.080 C 
BRANCH   5   6
ATOM      6  C   UNL     1      12.692  31.039  29.784  1.00  0.00     0.155 C 
ATOM      7  O   UNL     1      11.647  30.501  30.241  1.00  0.00    -0.295 OA
BRANCH   6   8
ATOM      8  C   UNL     1      12.673  31.722  28.476  1.00  0.00     0.039 C 
ATOM      9  C   UNL     1      11.999  32.851  28.267  1.00  0.00     0.012 C 
ENDBRANCH   6   8
ENDBRANCH   5   6
ENDBRANCH   1   5
TORSDOF 5
ENDMDL
MODEL 3
REMARK VINA RESULT:    -4.125      1.805      4.570
REMARK INTER + INTRA:          -5.534
REMARK INTER:                  -5.339
REMARK INTRA:                  -0.195
REMARK UNBOUND:                -0.204
REMARK SMILES C=CC(=O)CCCCC
REMARK SMILES IDX 6 1 7 2 8 3 9 4 5 5 3 6 4 7 2 8 1 9
REMARK H PARENT
REMARK Flexibility Score: inf
ROOT
ATOM      1  C   UNL     1      14.132  30.990  30.081  1.00  0.00     0.008 C 
ENDROOT
BRANCH   1   2
ATOM      2  C   UNL     1      15.459  31.741  30.268  1.00  0.00     0.000 C 
BRANCH   2   3
ATOM      3  C   UNL     1      16.682  30.863  29.963  1.00  0.00    -0.003 C 
ATOM      4  C   UNL     1      16.334  29.378  29.864  1.00  0.00     0.004 C 
ENDBRANCH   2   3
ENDBRANCH   1   2
BRANCH   1   5
ATOM      5  C   UNL     1      13.461  31.380  28.759  1.00  0.00     0.080 C 
BRANCH   5   6
ATOM      6  C   UNL     1      12.058  31.853  29.001  1.00  0.00     0.155 C 
ATOM      7  O   UNL     1      11.372  31.311  29.910  1.00  0.00    -0.295 OA
BRANCH   6   8
ATOM      8  C   UNL     1      11.507  32.969  28.209  1.00  0.00     0.039 C 
ATOM      9  C   UNL     1      12.199  33.573  27.245  1.00  0.00     0.012 C 
ENDBRANCH   6   8
ENDBRANCH   5   6
ENDBRANCH   1   5
TORSDOF 5
ENDMDL
MODEL 4
REMARK VINA RESULT:    -4.034      1.312      1.679
REMARK INTER + INTRA:          -5.417
REMARK INTER:                  -5.229
REMARK INTRA:                  -0.188
REMARK UNBOUND:                -0.204
REMARK SMILES C=CC(=O)CCCCC
REMARK SMILES IDX 6 1 7 2 8 3 9 4 5 5 3 6 4 7 2 8 1 9
REMARK H PARENT
REMARK Flexibility Score: inf
ROOT
ATOM      1  C   UNL     1      13.616  31.773  28.891  1.00  0.00     0.008 C 
ENDROOT
BRANCH   1   2
ATOM      2  C   UNL     1      12.080  31.768  28.916  1.00  0.00     0.000 C 
BRANCH   2   3
ATOM      3  C   UNL     1      11.474  32.995  28.217  1.00  0.00    -0.003 C 
ATOM      4  C   UNL     1      12.384  33.566  27.131  1.00  0.00     0.004 C 
ENDBRANCH   2   3
ENDBRANCH   1   2
BRANCH   1   5
ATOM      5  C   UNL     1      14.188  31.303  30.233  1.00  0.00     0.080 C 
BRANCH   5   6
ATOM      6  C   UNL     1      15.667  31.548  30.289  1.00  0.00     0.155 C 
ATOM      7  O   UNL     1      16.092  32.708  30.543  1.00  0.00    -0.295 OA
BRANCH   6   8
ATOM      8  C   UNL     1      16.610  30.431  30.091  1.00  0.00     0.039 C 
ATOM      9  C   UNL     1      16.208  29.205  29.761  1.00  0.00     0.012 C 
ENDBRANCH   6   8
ENDBRANCH   5   6
ENDBRANCH   1   5
TORSDOF 5
ENDMDL
MODEL 5
REMARK VINA RESULT:    -4.002      1.525      2.249
REMARK INTER + INTRA:          -5.375
REMARK INTER:                  -5.115
REMARK INTRA:                  -0.261
REMARK UNBOUND:                -0.204
REMARK SMILES C=CC(=O)CCCCC
REMARK SMILES IDX 6 1 7 2 8 3 9 4 5 5 3 6 4 7 2 8 1 9
REMARK H PARENT
REMARK Flexibility Score: inf
ROOT
ATOM      1  C   UNL     1      11.732  32.494  28.550  1.00  0.00     0.008 C 
ENDROOT
BRANCH   1   2
ATOM      2  C   UNL     1      11.811  33.597  27.483  1.00  0.00     0.000 C 
BRANCH   2   3
ATOM      3  C   UNL     1      13.249  33.852  27.004  1.00  0.00    -0.003 C 
ATOM      4  C   UNL     1      13.306  34.439  25.594  1.00  0.00     0.004 C 
ENDBRANCH   2   3
ENDBRANCH   1   2
BRANCH   1   5
ATOM      5  C   UNL     1      12.982  31.608  28.517  1.00  0.00     0.080 C 
BRANCH   5   6
ATOM      6  C   UNL     1      13.269  31.053  29.881  1.00  0.00     0.155 C 
ATOM      7  O   UNL     1      12.307  30.742  30.635  1.00  0.00    -0.295 OA
BRANCH   6   8
ATOM      8  C   UNL     1      14.662  30.833  30.312  1.00  0.00     0.039 C 
ATOM      9  C   UNL     1      15.615  31.750  30.149  1.00  0.00     0.012 C 
ENDBRANCH   6   8
ENDBRANCH   5   6
ENDBRANCH   1   5
TORSDOF 5
ENDMDL
MODEL 6
REMARK VINA RESULT:    -3.715      1.416      2.134
REMARK INTER + INTRA:          -5.004
REMARK INTER:                  -4.778
REMARK INTRA:                  -0.226
REMARK UNBOUND:                -0.204
REMARK SMILES C=CC(=O)CCCCC
REMARK SMILES IDX 6 1 7 2 8 3 9 4 5 5 3 6 4 7 2 8 1 9
REMARK H PARENT
REMARK Flexibility Score: inf
ROOT
ATOM      1  C   UNL     1      14.166  30.977  30.152  1.00  0.00     0.008 C 
ENDROOT
BRANCH   1   2
ATOM      2  C   UNL     1      13.421  31.684  29.009  1.00  0.00     0.000 C 
BRANCH   2   3
ATOM      3  C   UNL     1      11.894  31.589  29.152  1.00  0.00    -0.003 C 
ATOM      4  C   UNL     1      11.463  30.660  30.286  1.00  0.00     0.004 C 
ENDBRANCH   2   3
ENDBRANCH   1   2
BRANCH   1   5
ATOM      5  C   UNL     1      15.354  30.172  29.616  1.00  0.00     0.080 C 
BRANCH   5   6
ATOM      6  C   UNL     1      16.648  30.770  30.084  1.00  0.00     0.155 C 
ATOM      7  O   UNL     1      17.477  30.045  30.699  1.00  0.00    -0.295 OA
BRANCH   6   8
ATOM      8  C   UNL     1      16.961  32.181  29.787  1.00  0.00     0.039 C 
ATOM      9  C   UNL     1      16.935  33.132  30.719  1.00  0.00     0.012 C 
ENDBRANCH   6   8
ENDBRANCH   5   6
ENDBRANCH   1   5
TORSDOF 5
ENDMDL
MODEL 7
REMARK VINA RESULT:    -3.609      2.381      4.542
REMARK INTER + INTRA:          -4.867
REMARK INTER:                  -4.638
REMARK INTRA:                  -0.230
REMARK UNBOUND:                -0.204
REMARK SMILES C=CC(=O)CCCCC
REMARK SMILES IDX 6 1 7 2 8 3 9 4 5 5 3 6 4 7 2 8 1 9
REMARK H PARENT
REMARK Flexibility Score: inf
ROOT
ATOM      1  C   UNL     1      13.365  31.496  28.811  1.00  0.00     0.008 C 
ENDROOT
BRANCH   1   2
ATOM      2  C   UNL     1      13.709  30.983  30.218  1.00  0.00     0.000 C 
BRANCH   2   3
ATOM      3  C   UNL     1      15.213  30.722  30.399  1.00  0.00    -0.003 C 
ATOM      4  C   UNL     1      16.059  31.979  30.200  1.00  0.00     0.004 C 
ENDBRANCH   2   3
ENDBRANCH   1   2
BRANCH   1   5
ATOM      5  C   UNL     1      12.004  32.202  28.803  1.00  0.00     0.080 C 
BRANCH   5   6
ATOM      6  C   UNL     1      11.876  33.083  27.596  1.00  0.00     0.155 C 
ATOM      7  O   UNL     1      10.796  33.702  27.396  1.00  0.00    -0.295 OA
BRANCH   6   8
ATOM      8  C   UNL     1      13.020  33.254  26.680  1.00  0.00     0.039 C 
ATOM      9  C   UNL     1      13.396  34.445  26.219  1.00  0.00     0.012 C 
ENDBRANCH   6   8
ENDBRANCH   5   6
ENDBRANCH   1   5
TORSDOF 5
ENDMDL
MODEL 8
REMARK VINA RESULT:    -3.277      2.428      4.791
REMARK INTER + INTRA:          -4.438
REMARK INTER:                  -4.285
REMARK INTRA:                  -0.153
REMARK UNBOUND:                -0.204
REMARK SMILES C=CC(=O)CCCCC
REMARK SMILES IDX 6 1 7 2 8 3 9 4 5 5 3 6 4 7 2 8 1 9
REMARK H PARENT
REMARK Flexibility Score: inf
ROOT
ATOM      1  C   UNL     1      12.617  32.285  27.875  1.00  0.00     0.008 C 
ENDROOT
BRANCH   1   2
ATOM      2  C   UNL     1      11.796  31.952  29.131  1.00  0.00     0.000 C 
BRANCH   2   3
ATOM      3  C   UNL     1      12.519  30.970  30.065  1.00  0.00    -0.003 C 
ATOM      4  C   UNL     1      14.041  31.057  29.952  1.00  0.00     0.004 C 
ENDBRANCH   2   3
ENDBRANCH   1   2
BRANCH   1   5
ATOM      5  C   UNL     1      12.102  33.564  27.207  1.00  0.00     0.080 C 
BRANCH   5   6
ATOM      6  C   UNL     1      13.220  34.279  26.507  1.00  0.00     0.155 C 
ATOM      7  O   UNL     1      14.378  34.250  27.005  1.00  0.00    -0.295 OA
BRANCH   6   8
ATOM      8  C   UNL     1      12.970  34.971  25.229  1.00  0.00     0.039 C 
ATOM      9  C   UNL     1      11.840  35.630  24.980  1.00  0.00     0.012 C 
ENDBRANCH   6   8
ENDBRANCH   5   6
ENDBRANCH   1   5
TORSDOF 5
ENDMDL
MODEL 9
REMARK VINA RESULT:    -3.201     14.043     16.015
REMARK INTER + INTRA:          -4.340
REMARK INTER:                  -3.730
REMARK INTRA:                  -0.610
REMARK UNBOUND:                -0.204
REMARK SMILES C=CC(=O)CCCCC
REMARK SMILES IDX 6 1 7 2 8 3 9 4 5 5 3 6 4 7 2 8 1 9
REMARK H PARENT
REMARK Flexibility Score: inf
ROOT
ATOM      1  C   UNL     1      26.376  38.170  21.488  1.00  0.00     0.008 C 
ENDROOT
BRANCH   1   2
ATOM      2  C   UNL     1      25.196  39.121  21.235  1.00  0.00     0.000 C 
BRANCH   2   3
ATOM      3  C   UNL     1      23.850  38.517  21.662  1.00  0.00    -0.003 C 
ATOM      4  C   UNL     1      23.969  37.059  22.103  1.00  0.00     0.004 C 
ENDBRANCH   2   3
ENDBRANCH   1   2
BRANCH   1   5
ATOM      5  C   UNL     1      27.314  38.126  20.276  1.00  0.00     0.080 C 
BRANCH   5   6
ATOM      6  C   UNL     1      26.591  37.602  19.071  1.00  0.00     0.155 C 
ATOM      7  O   UNL     1      26.505  38.323  18.040  1.00  0.00    -0.295 OA
BRANCH   6   8
ATOM      8  C   UNL     1      26.025  36.239  19.082  1.00  0.00     0.039 C 
ATOM      9  C   UNL     1      24.773  35.980  18.708  1.00  0.00     0.012 C 
ENDBRANCH   6   8
ENDBRANCH   5   6
ENDBRANCH   1   5
TORSDOF 5
ENDMDL
