MODEL 1
REMARK VINA RESULT:    -6.253      0.000      0.000
REMARK INTER + INTRA:          -6.253
REMARK INTER:                  -6.253
REMARK INTRA:                   0.000
REMARK UNBOUND:                 0.000
REMARK SMILES CC(C)=C1CC[C@H](C)CC1=O
REMARK SMILES IDX 8 1 7 2 6 3 5 4 4 5 2 6 1 7 3 8 10 9 11 10 9 11
REMARK H PARENT
REMARK Flexibility Score: inf
ROOT
ATOM      1  C   UNL     1      32.689  20.764  21.301  1.00  0.00     0.008 C 
ATOM      2  C   UNL     1      32.766  20.505  19.792  1.00  0.00    -0.006 C 
ATOM      3  C   UNL     1      34.087  21.044  19.218  1.00  0.00     0.008 C 
ATOM      4  C   UNL     1      34.138  20.885  17.693  1.00  0.00     0.039 C 
ATOM      5  C   UNL     1      33.842  19.460  17.244  1.00  0.00    -0.006 C 
ATOM      6  C   UNL     1      34.418  18.936  16.122  1.00  0.00    -0.070 C 
ATOM      7  C   UNL     1      35.359  19.755  15.269  1.00  0.00     0.039 C 
ATOM      8  C   UNL     1      34.177  17.506  15.698  1.00  0.00     0.039 C 
ATOM      9  C   UNL     1      32.807  18.727  18.032  1.00  0.00     0.159 C 
ATOM     10  O   UNL     1      32.056  17.871  17.490  1.00  0.00    -0.295 OA
ATOM     11  C   UNL     1      32.639  19.004  19.497  1.00  0.00     0.084 C 
ENDROOT
TORSDOF 0
ENDMDL
MODEL 2
REMARK VINA RESULT:    -6.180      1.647      2.478
REMARK INTER + INTRA:          -6.180
REMARK INTER:                  -6.180
REMARK INTRA:                   0.000
REMARK UNBOUND:                 0.000
REMARK SMILES CC(C)=C1CC[C@H](C)CC1=O
REMARK SMILES IDX 8 1 7 2 6 3 5 4 4 5 2 6 1 7 3 8 10 9 11 10 9 11
REMARK H PARENT
REMARK Flexibility Score: inf
ROOT
ATOM      1  C   UNL     1      33.165  21.609  21.221  1.00  0.00     0.008 C 
ATOM      2  C   UNL     1      33.544  20.671  20.070  1.00  0.00    -0.006 C 
ATOM      3  C   UNL     1      32.382  19.717  19.745  1.00  0.00     0.008 C 
ATOM      4  C   UNL     1      32.779  18.704  18.664  1.00  0.00     0.039 C 
ATOM      5  C   UNL     1      33.353  19.371  17.421  1.00  0.00    -0.006 C 
ATOM      6  C   UNL     1      33.179  18.827  16.180  1.00  0.00    -0.070 C 
ATOM      7  C   UNL     1      32.425  17.532  15.991  1.00  0.00     0.039 C 
ATOM      8  C   UNL     1      33.694  19.509  14.934  1.00  0.00     0.039 C 
ATOM      9  C   UNL     1      34.205  20.574  17.657  1.00  0.00     0.159 C 
ATOM     10  O   UNL     1      35.172  20.851  16.897  1.00  0.00    -0.295 OA
ATOM     11  C   UNL     1      33.922  21.479  18.820  1.00  0.00     0.084 C 
ENDROOT
TORSDOF 0
ENDMDL
MODEL 3
REMARK VINA RESULT:    -6.079      1.266      4.221
REMARK INTER + INTRA:          -6.079
REMARK INTER:                  -6.079
REMARK INTRA:                   0.000
REMARK UNBOUND:                 0.000
REMARK SMILES CC(C)=C1CC[C@H](C)CC1=O
REMARK SMILES IDX 8 1 7 2 6 3 5 4 4 5 2 6 1 7 3 8 10 9 11 10 9 11
REMARK H PARENT
REMARK Flexibility Score: inf
ROOT
ATOM      1  C   UNL     1      34.623  20.118  15.359  1.00  0.00     0.008 C 
ATOM      2  C   UNL     1      34.552  20.083  16.889  1.00  0.00    -0.006 C 
ATOM      3  C   UNL     1      34.450  21.507  17.460  1.00  0.00     0.008 C 
ATOM      4  C   UNL     1      34.480  21.497  18.993  1.00  0.00     0.039 C 
ATOM      5  C   UNL     1      33.447  20.552  19.592  1.00  0.00    -0.006 C 
ATOM      6  C   UNL     1      32.855  20.817  20.794  1.00  0.00    -0.070 C 
ATOM      7  C   UNL     1      33.216  22.051  21.589  1.00  0.00     0.039 C 
ATOM      8  C   UNL     1      31.787  19.917  21.370  1.00  0.00     0.039 C 
ATOM      9  C   UNL     1      33.214  19.279  18.847  1.00  0.00     0.159 C 
ATOM     10  O   UNL     1      32.905  18.215  19.448  1.00  0.00    -0.295 OA
ATOM     11  C   UNL     1      33.351  19.246  17.353  1.00  0.00     0.084 C 
ENDROOT
TORSDOF 0
ENDMDL
MODEL 4
REMARK VINA RESULT:    -6.078      7.380     10.631
REMARK INTER + INTRA:          -6.078
REMARK INTER:                  -6.078
REMARK INTRA:                   0.000
REMARK UNBOUND:                 0.000
REMARK SMILES CC(C)=C1CC[C@H](C)CC1=O
REMARK SMILES IDX 8 1 7 2 6 3 5 4 4 5 2 6 1 7 3 8 10 9 11 10 9 11
REMARK H PARENT
REMARK Flexibility Score: inf
ROOT
ATOM      1  C   UNL     1      30.426  19.672  23.262  1.00  0.00     0.008 C 
ATOM      2  C   UNL     1      29.761  19.053  24.496  1.00  0.00    -0.006 C 
ATOM      3  C   UNL     1      30.812  18.392  25.404  1.00  0.00     0.008 C 
ATOM      4  C   UNL     1      30.153  17.680  26.592  1.00  0.00     0.039 C 
ATOM      5  C   UNL     1      29.201  18.586  27.362  1.00  0.00    -0.006 C 
ATOM      6  C   UNL     1      29.017  18.441  28.708  1.00  0.00    -0.070 C 
ATOM      7  C   UNL     1      29.737  17.363  29.486  1.00  0.00     0.039 C 
ATOM      8  C   UNL     1      28.120  19.370  29.492  1.00  0.00     0.039 C 
ATOM      9  C   UNL     1      28.407  19.549  26.543  1.00  0.00     0.159 C 
ATOM     10  O   UNL     1      27.245  19.897  26.885  1.00  0.00    -0.295 OA
ATOM     11  C   UNL     1      28.986  20.121  25.283  1.00  0.00     0.084 C 
ENDROOT
TORSDOF 0
ENDMDL
MODEL 5
REMARK VINA RESULT:    -5.877      1.977      4.687
REMARK INTER + INTRA:          -5.877
REMARK INTER:                  -5.877
REMARK INTRA:                   0.000
REMARK UNBOUND:                 0.000
REMARK SMILES CC(C)=C1CC[C@H](C)CC1=O
REMARK SMILES IDX 8 1 7 2 6 3 5 4 4 5 2 6 1 7 3 8 10 9 11 10 9 11
REMARK H PARENT
REMARK Flexibility Score: inf
ROOT
ATOM      1  C   UNL     1      34.229  19.732  14.876  1.00  0.00     0.008 C 
ATOM      2  C   UNL     1      33.578  20.202  16.182  1.00  0.00    -0.006 C 
ATOM      3  C   UNL     1      32.818  19.046  16.854  1.00  0.00     0.008 C 
ATOM      4  C   UNL     1      32.076  19.522  18.110  1.00  0.00     0.039 C 
ATOM      5  C   UNL     1      32.985  20.268  19.078  1.00  0.00    -0.006 C 
ATOM      6  C   UNL     1      32.777  20.217  20.427  1.00  0.00    -0.070 C 
ATOM      7  C   UNL     1      31.625  19.434  21.014  1.00  0.00     0.039 C 
ATOM      8  C   UNL     1      33.705  20.905  21.401  1.00  0.00     0.039 C 
ATOM      9  C   UNL     1      34.028  21.138  18.459  1.00  0.00     0.159 C 
ATOM     10  O   UNL     1      34.413  22.198  19.021  1.00  0.00    -0.295 OA
ATOM     11  C   UNL     1      34.638  20.760  17.141  1.00  0.00     0.084 C 
ENDROOT
TORSDOF 0
ENDMDL
MODEL 6
REMARK VINA RESULT:    -5.680      7.995     10.541
REMARK INTER + INTRA:          -5.680
REMARK INTER:                  -5.680
REMARK INTRA:                   0.000
REMARK UNBOUND:                 0.000
REMARK SMILES CC(C)=C1CC[C@H](C)CC1=O
REMARK SMILES IDX 8 1 7 2 6 3 5 4 4 5 2 6 1 7 3 8 10 9 11 10 9 11
REMARK H PARENT
REMARK Flexibility Score: inf
ROOT
ATOM      1  C   UNL     1      26.737  20.360  29.892  1.00  0.00     0.008 C 
ATOM      2  C   UNL     1      27.289  19.549  28.715  1.00  0.00    -0.006 C 
ATOM      3  C   UNL     1      27.464  20.444  27.476  1.00  0.00     0.008 C 
ATOM      4  C   UNL     1      27.920  19.628  26.260  1.00  0.00     0.039 C 
ATOM      5  C   UNL     1      29.154  18.784  26.551  1.00  0.00    -0.006 C 
ATOM      6  C   UNL     1      30.073  18.513  25.578  1.00  0.00    -0.070 C 
ATOM      7  C   UNL     1      29.896  19.025  24.168  1.00  0.00     0.039 C 
ATOM      8  C   UNL     1      31.329  17.725  25.869  1.00  0.00     0.039 C 
ATOM      9  C   UNL     1      29.229  18.183  27.916  1.00  0.00     0.159 C 
ATOM     10  O   UNL     1      29.785  17.070  28.111  1.00  0.00    -0.295 OA
ATOM     11  C   UNL     1      28.631  18.903  29.089  1.00  0.00     0.084 C 
ENDROOT
TORSDOF 0
ENDMDL
MODEL 7
REMARK VINA RESULT:    -5.658      1.827      2.742
REMARK INTER + INTRA:          -5.658
REMARK INTER:                  -5.658
REMARK INTRA:                   0.000
REMARK UNBOUND:                 0.000
REMARK SMILES CC(C)=C1CC[C@H](C)CC1=O
REMARK SMILES IDX 8 1 7 2 6 3 5 4 4 5 2 6 1 7 3 8 10 9 11 10 9 11
REMARK H PARENT
REMARK Flexibility Score: inf
ROOT
ATOM      1  C   UNL     1      32.711  21.391  22.416  1.00  0.00     0.008 C 
ATOM      2  C   UNL     1      33.186  20.648  21.162  1.00  0.00    -0.006 C 
ATOM      3  C   UNL     1      32.126  19.635  20.699  1.00  0.00     0.008 C 
ATOM      4  C   UNL     1      32.627  18.811  19.506  1.00  0.00     0.039 C 
ATOM      5  C   UNL     1      33.140  19.683  18.368  1.00  0.00    -0.006 C 
ATOM      6  C   UNL     1      33.028  19.287  17.065  1.00  0.00    -0.070 C 
ATOM      7  C   UNL     1      32.405  17.959  16.701  1.00  0.00     0.039 C 
ATOM      8  C   UNL     1      33.481  20.169  15.925  1.00  0.00     0.039 C 
ATOM      9  C   UNL     1      33.868  20.923  18.770  1.00  0.00     0.159 C 
ATOM     10  O   UNL     1      34.808  21.386  18.069  1.00  0.00    -0.295 OA
ATOM     11  C   UNL     1      33.491  21.641  20.032  1.00  0.00     0.084 C 
ENDROOT
TORSDOF 0
ENDMDL
MODEL 8
REMARK VINA RESULT:    -5.472      1.396      2.400
REMARK INTER + INTRA:          -5.472
REMARK INTER:                  -5.472
REMARK INTRA:                   0.000
REMARK UNBOUND:                 0.000
REMARK SMILES CC(C)=C1CC[C@H](C)CC1=O
REMARK SMILES IDX 8 1 7 2 6 3 5 4 4 5 2 6 1 7 3 8 10 9 11 10 9 11
REMARK H PARENT
REMARK Flexibility Score: inf
ROOT
ATOM      1  C   UNL     1      31.809  19.981  23.409  1.00  0.00     0.008 C 
ATOM      2  C   UNL     1      32.004  20.391  21.945  1.00  0.00    -0.006 C 
ATOM      3  C   UNL     1      33.340  21.131  21.763  1.00  0.00     0.008 C 
ATOM      4  C   UNL     1      33.505  21.637  20.325  1.00  0.00     0.039 C 
ATOM      5  C   UNL     1      33.300  20.538  19.291  1.00  0.00    -0.006 C 
ATOM      6  C   UNL     1      33.975  20.547  18.104  1.00  0.00    -0.070 C 
ATOM      7  C   UNL     1      34.942  21.656  17.760  1.00  0.00     0.039 C 
ATOM      8  C   UNL     1      33.823  19.432  17.095  1.00  0.00     0.039 C 
ATOM      9  C   UNL     1      32.242  19.533  19.605  1.00  0.00     0.159 C 
ATOM     10  O   UNL     1      31.567  18.986  18.692  1.00  0.00    -0.295 OA
ATOM     11  C   UNL     1      31.959  19.158  21.030  1.00  0.00     0.084 C 
ENDROOT
TORSDOF 0
ENDMDL
MODEL 9
REMARK VINA RESULT:    -5.440      7.792     10.638
REMARK INTER + INTRA:          -5.440
REMARK INTER:                  -5.440
REMARK INTRA:                   0.000
REMARK UNBOUND:                 0.000
REMARK SMILES CC(C)=C1CC[C@H](C)CC1=O
REMARK SMILES IDX 8 1 7 2 6 3 5 4 4 5 2 6 1 7 3 8 10 9 11 10 9 11
REMARK H PARENT
REMARK Flexibility Score: inf
ROOT
ATOM      1  C   UNL     1      31.869  17.901  24.453  1.00  0.00     0.008 C 
ATOM      2  C   UNL     1      30.991  18.585  25.507  1.00  0.00    -0.006 C 
ATOM      3  C   UNL     1      29.860  19.380  24.835  1.00  0.00     0.008 C 
ATOM      4  C   UNL     1      29.032  20.154  25.869  1.00  0.00     0.039 C 
ATOM      5  C   UNL     1      28.531  19.265  26.999  1.00  0.00    -0.006 C 
ATOM      6  C   UNL     1      27.342  19.515  27.624  1.00  0.00    -0.070 C 
ATOM      7  C   UNL     1      26.483  20.695  27.231  1.00  0.00     0.039 C 
ATOM      8  C   UNL     1      26.807  18.608  28.707  1.00  0.00     0.039 C 
ATOM      9  C   UNL     1      29.464  18.191  27.451  1.00  0.00     0.159 C 
ATOM     10  O   UNL     1      29.490  17.809  28.652  1.00  0.00    -0.295 OA
ATOM     11  C   UNL     1      30.400  17.546  26.471  1.00  0.00     0.084 C 
ENDROOT
TORSDOF 0
ENDMDL
