MODEL 1
REMARK VINA RESULT:    -5.157      0.000      0.000
REMARK INTER + INTRA:          -6.818
REMARK INTER:                  -6.212
REMARK INTRA:                  -0.606
REMARK UNBOUND:                -0.606
REMARK SMILES O=c1ccn([C@H]2O[C@@H](CO)[C@@H](O)[C@@H]2O)c(=O)[nH]1
REMARK SMILES IDX 6 1 13 2 11 3 8 4 7 5 5 6 3 7 4 8 2 9 17 10 1 11 15 12 16 14
REMARK SMILES IDX 14 15 12 17 9 19 10 20
REMARK H PARENT 17 13 14 16 12 18 10 21
REMARK Flexibility Score: inf
ROOT
ATOM      1  C   UNL     1      32.777   8.285   8.170  1.00  0.00     0.255 C 
ATOM      2  C   UNL     1      32.139   8.857   9.446  1.00  0.00     0.196 C 
ATOM      3  C   UNL     1      31.206   9.938   8.935  1.00  0.00     0.179 C 
ATOM      4  C   UNL     1      31.650  10.107   7.482  1.00  0.00     0.178 C 
ATOM      5  O   UNL     1      32.164   8.875   7.044  1.00  0.00    -0.347 OA
ENDROOT
BRANCH   1   6
ATOM      6  N   UNL     1      32.641   6.814   8.121  1.00  0.00    -0.271 N 
ATOM      7  C   UNL     1      31.228   4.881   8.254  1.00  0.00     0.090 A 
ATOM      8  C   UNL     1      31.406   6.259   8.312  1.00  0.00     0.099 A 
ATOM      9  C   UNL     1      32.330   4.077   7.984  1.00  0.00     0.253 A 
ATOM     10  N   UNL     1      33.546   4.646   7.779  1.00  0.00    -0.274 N 
ATOM     11  O   UNL     1      32.199   2.826   7.925  1.00  0.00    -0.269 OA
ATOM     12  C   UNL     1      33.711   5.997   7.837  1.00  0.00     0.330 A 
ATOM     13  H   UNL     1      34.370   4.036   7.568  1.00  0.00     0.175 HD
ATOM     14  O   UNL     1      34.854   6.485   7.622  1.00  0.00    -0.248 OA
ENDBRANCH   1   6
BRANCH   2  15
ATOM     15  O   UNL     1      33.119   9.421  10.279  1.00  0.00    -0.386 OA
ATOM     16  H   UNL     1      32.854   9.205  11.211  1.00  0.00     0.211 HD
ENDBRANCH   2  15
BRANCH   3  17
ATOM     17  O   UNL     1      29.873   9.502   9.011  1.00  0.00    -0.387 OA
ATOM     18  H   UNL     1      29.447  10.020   9.744  1.00  0.00     0.211 HD
ENDBRANCH   3  17
BRANCH   4  19
ATOM     19  C   UNL     1      30.526  10.577   6.546  1.00  0.00     0.191 C 
BRANCH  19  20
ATOM     20  O   UNL     1      29.938   9.479   5.901  1.00  0.00    -0.394 OA
ATOM     21  H   UNL     1      30.436   8.674   6.202  1.00  0.00     0.210 HD
ENDBRANCH  19  20
ENDBRANCH   4  19
TORSDOF 5
ENDMDL
MODEL 2
REMARK VINA RESULT:    -5.147      3.386      5.411
REMARK INTER + INTRA:          -6.806
REMARK INTER:                  -6.247
REMARK INTRA:                  -0.560
REMARK UNBOUND:                -0.606
REMARK SMILES O=c1ccn([C@H]2O[C@@H](CO)[C@@H](O)[C@@H]2O)c(=O)[nH]1
REMARK SMILES IDX 6 1 13 2 11 3 8 4 7 5 5 6 3 7 4 8 2 9 17 10 1 11 15 12 16 14
REMARK SMILES IDX 14 15 12 17 9 19 10 20
REMARK H PARENT 17 13 14 16 12 18 10 21
REMARK Flexibility Score: inf
ROOT
ATOM      1  C   UNL     1      31.312   9.256   5.470  1.00  0.00     0.255 C 
ATOM      2  C   UNL     1      31.488  10.412   4.472  1.00  0.00     0.196 C 
ATOM      3  C   UNL     1      30.912   9.868   3.178  1.00  0.00     0.179 C 
ATOM      4  C   UNL     1      30.785   8.373   3.468  1.00  0.00     0.178 C 
ATOM      5  O   UNL     1      30.582   8.219   4.851  1.00  0.00    -0.347 OA
ENDROOT
BRANCH   1   6
ATOM      6  N   UNL     1      30.624   9.711   6.696  1.00  0.00    -0.271 N 
ATOM      7  C   UNL     1      29.031  11.176   7.728  1.00  0.00     0.090 A 
ATOM      8  C   UNL     1      29.717  10.730   6.603  1.00  0.00     0.099 A 
ATOM      9  C   UNL     1      29.276  10.557   8.948  1.00  0.00     0.253 A 
ATOM     10  N   UNL     1      30.168   9.535   9.019  1.00  0.00    -0.274 N 
ATOM     11  O   UNL     1      28.670  10.941   9.983  1.00  0.00    -0.269 OA
ATOM     12  C   UNL     1      30.834   9.104   7.913  1.00  0.00     0.330 A 
ATOM     13  H   UNL     1      30.341   9.068   9.940  1.00  0.00     0.175 HD
ATOM     14  O   UNL     1      31.640   8.139   8.020  1.00  0.00    -0.248 OA
ENDBRANCH   1   6
BRANCH   2  15
ATOM     15  O   UNL     1      32.847  10.718   4.303  1.00  0.00    -0.386 OA
ATOM     16  H   UNL     1      33.032  11.505   4.879  1.00  0.00     0.211 HD
ENDBRANCH   2  15
BRANCH   3  17
ATOM     17  O   UNL     1      29.656  10.446   2.927  1.00  0.00    -0.387 OA
ATOM     18  H   UNL     1      29.796  11.133   2.224  1.00  0.00     0.211 HD
ENDBRANCH   3  17
BRANCH   4  19
ATOM     19  C   UNL     1      29.654   7.688   2.686  1.00  0.00     0.191 C 
BRANCH  19  20
ATOM     20  O   UNL     1      28.538   7.492   3.514  1.00  0.00    -0.394 OA
ATOM     21  H   UNL     1      27.886   8.204   3.283  1.00  0.00     0.210 HD
ENDBRANCH  19  20
ENDBRANCH   4  19
TORSDOF 5
ENDMDL
MODEL 3
REMARK VINA RESULT:    -5.134      3.415      5.969
REMARK INTER + INTRA:          -6.791
REMARK INTER:                  -6.176
REMARK INTRA:                  -0.615
REMARK UNBOUND:                -0.606
REMARK SMILES O=c1ccn([C@H]2O[C@@H](CO)[C@@H](O)[C@@H]2O)c(=O)[nH]1
REMARK SMILES IDX 6 1 13 2 11 3 8 4 7 5 5 6 3 7 4 8 2 9 17 10 1 11 15 12 16 14
REMARK SMILES IDX 14 15 12 17 9 19 10 20
REMARK H PARENT 17 13 14 16 12 18 10 21
REMARK Flexibility Score: inf
ROOT
ATOM      1  C   UNL     1      31.408   9.270   4.833  1.00  0.00     0.255 C 
ATOM      2  C   UNL     1      30.877   7.915   4.339  1.00  0.00     0.196 C 
ATOM      3  C   UNL     1      32.109   7.032   4.302  1.00  0.00     0.179 C 
ATOM      4  C   UNL     1      33.250   8.038   4.443  1.00  0.00     0.178 C 
ATOM      5  O   UNL     1      32.769   9.133   5.181  1.00  0.00    -0.347 OA
ENDROOT
BRANCH   1   6
ATOM      6  N   UNL     1      30.626   9.760   5.988  1.00  0.00    -0.271 N 
ATOM      7  C   UNL     1      30.244   9.751   8.355  1.00  0.00     0.090 A 
ATOM      8  C   UNL     1      30.940   9.301   7.238  1.00  0.00     0.099 A 
ATOM      9  C   UNL     1      29.231  10.687   8.179  1.00  0.00     0.253 A 
ATOM     10  N   UNL     1      28.945  11.144   6.932  1.00  0.00    -0.274 N 
ATOM     11  O   UNL     1      28.584  11.112   9.172  1.00  0.00    -0.269 OA
ATOM     12  C   UNL     1      29.632  10.699   5.844  1.00  0.00     0.330 A 
ATOM     13  H   UNL     1      28.186  11.855   6.807  1.00  0.00     0.175 HD
ATOM     14  O   UNL     1      29.346  11.165   4.706  1.00  0.00    -0.248 OA
ENDBRANCH   1   6
BRANCH   2  15
ATOM     15  O   UNL     1      30.332   8.037   3.051  1.00  0.00    -0.386 OA
ATOM     16  H   UNL     1      30.082   7.120   2.764  1.00  0.00     0.211 HD
ENDBRANCH   2  15
BRANCH   3  17
ATOM     17  O   UNL     1      32.091   6.131   5.381  1.00  0.00    -0.387 OA
ATOM     18  H   UNL     1      32.304   5.236   5.006  1.00  0.00     0.211 HD
ENDBRANCH   3  17
BRANCH   4  19
ATOM     19  C   UNL     1      34.506   7.457   5.112  1.00  0.00     0.191 C 
BRANCH  19  20
ATOM     20  O   UNL     1      34.870   6.250   4.497  1.00  0.00    -0.394 OA
ATOM     21  H   UNL     1      34.329   6.179   3.668  1.00  0.00     0.210 HD
ENDBRANCH  19  20
ENDBRANCH   4  19
TORSDOF 5
ENDMDL
MODEL 4
REMARK VINA RESULT:    -5.066      5.195      8.010
REMARK INTER + INTRA:          -6.708
REMARK INTER:                  -6.069
REMARK INTRA:                  -0.639
REMARK UNBOUND:                -0.606
REMARK SMILES O=c1ccn([C@H]2O[C@@H](CO)[C@@H](O)[C@@H]2O)c(=O)[nH]1
REMARK SMILES IDX 6 1 13 2 11 3 8 4 7 5 5 6 3 7 4 8 2 9 17 10 1 11 15 12 16 14
REMARK SMILES IDX 14 15 12 17 9 19 10 20
REMARK H PARENT 17 13 14 16 12 18 10 21
REMARK Flexibility Score: inf
ROOT
ATOM      1  C   UNL     1      29.883  11.461   3.782  1.00  0.00     0.255 C 
ATOM      2  C   UNL     1      29.984  10.944   5.226  1.00  0.00     0.196 C 
ATOM      3  C   UNL     1      30.175   9.448   5.065  1.00  0.00     0.179 C 
ATOM      4  C   UNL     1      29.825   9.220   3.595  1.00  0.00     0.178 C 
ATOM      5  O   UNL     1      30.136  10.397   2.891  1.00  0.00    -0.347 OA
ENDROOT
BRANCH   1   6
ATOM      6  N   UNL     1      30.832  12.569   3.546  1.00  0.00    -0.271 N 
ATOM      7  C   UNL     1      33.103  13.329   3.414  1.00  0.00     0.090 A 
ATOM      8  C   UNL     1      32.173  12.321   3.649  1.00  0.00     0.099 A 
ATOM      9  C   UNL     1      32.642  14.592   3.061  1.00  0.00     0.253 A 
ATOM     10  N   UNL     1      31.308  14.816   2.946  1.00  0.00    -0.274 N 
ATOM     11  O   UNL     1      33.461  15.524   2.843  1.00  0.00    -0.269 OA
ATOM     12  C   UNL     1      30.405  13.824   3.177  1.00  0.00     0.330 A 
ATOM     13  H   UNL     1      30.968  15.768   2.672  1.00  0.00     0.175 HD
ATOM     14  O   UNL     1      29.175  14.070   3.041  1.00  0.00    -0.248 OA
ENDBRANCH   1   6
BRANCH   2  15
ATOM     15  O   UNL     1      28.798  11.205   5.931  1.00  0.00    -0.386 OA
ATOM     16  H   UNL     1      28.064  10.786   5.411  1.00  0.00     0.211 HD
ENDBRANCH   2  15
BRANCH   3  17
ATOM     17  O   UNL     1      31.510   9.099   5.329  1.00  0.00    -0.387 OA
ATOM     18  H   UNL     1      32.001   9.949   5.476  1.00  0.00     0.211 HD
ENDBRANCH   3  17
BRANCH   4  19
ATOM     19  C   UNL     1      30.550   8.019   2.968  1.00  0.00     0.191 C 
BRANCH  19  20
ATOM     20  O   UNL     1      31.864   8.370   2.623  1.00  0.00    -0.394 OA
ATOM     21  H   UNL     1      31.867   9.352   2.482  1.00  0.00     0.210 HD
ENDBRANCH  19  20
ENDBRANCH   4  19
TORSDOF 5
ENDMDL
MODEL 5
REMARK VINA RESULT:    -5.020      2.855      4.770
REMARK INTER + INTRA:          -6.653
REMARK INTER:                  -6.038
REMARK INTRA:                  -0.615
REMARK UNBOUND:                -0.606
REMARK SMILES O=c1ccn([C@H]2O[C@@H](CO)[C@@H](O)[C@@H]2O)c(=O)[nH]1
REMARK SMILES IDX 6 1 13 2 11 3 8 4 7 5 5 6 3 7 4 8 2 9 17 10 1 11 15 12 16 14
REMARK SMILES IDX 14 15 12 17 9 19 10 20
REMARK H PARENT 17 13 14 16 12 18 10 21
REMARK Flexibility Score: inf
ROOT
ATOM      1  C   UNL     1      32.808   7.841   6.172  1.00  0.00     0.255 C 
ATOM      2  C   UNL     1      32.237   6.771   7.117  1.00  0.00     0.196 C 
ATOM      3  C   UNL     1      32.380   7.388   8.495  1.00  0.00     0.179 C 
ATOM      4  C   UNL     1      33.312   8.572   8.239  1.00  0.00     0.178 C 
ATOM      5  O   UNL     1      33.108   9.001   6.916  1.00  0.00    -0.347 OA
ENDROOT
BRANCH   1   6
ATOM      6  N   UNL     1      31.855   8.155   5.086  1.00  0.00    -0.271 N 
ATOM      7  C   UNL     1      29.964   9.416   4.321  1.00  0.00     0.090 A 
ATOM      8  C   UNL     1      30.869   9.074   5.321  1.00  0.00     0.099 A 
ATOM      9  C   UNL     1      30.088   8.815   3.074  1.00  0.00     0.253 A 
ATOM     10  N   UNL     1      31.084   7.918   2.854  1.00  0.00    -0.274 N 
ATOM     11  O   UNL     1      29.283   9.105   2.150  1.00  0.00    -0.269 OA
ATOM     12  C   UNL     1      31.967   7.589   3.837  1.00  0.00     0.330 A 
ATOM     13  H   UNL     1      31.177   7.475   1.910  1.00  0.00     0.175 HD
ATOM     14  O   UNL     1      32.888   6.766   3.584  1.00  0.00    -0.248 OA
ENDBRANCH   1   6
BRANCH   2  15
ATOM     15  O   UNL     1      32.989   5.588   7.038  1.00  0.00    -0.386 OA
ATOM     16  H   UNL     1      33.038   5.224   7.959  1.00  0.00     0.211 HD
ENDBRANCH   2  15
BRANCH   3  17
ATOM     17  O   UNL     1      31.128   7.819   8.965  1.00  0.00    -0.387 OA
ATOM     18  H   UNL     1      30.621   7.001   9.210  1.00  0.00     0.211 HD
ENDBRANCH   3  17
BRANCH   4  19
ATOM     19  C   UNL     1      33.104   9.741   9.215  1.00  0.00     0.191 C 
BRANCH  19  20
ATOM     20  O   UNL     1      33.158   9.284  10.540  1.00  0.00    -0.394 OA
ATOM     21  H   UNL     1      33.564   8.379  10.512  1.00  0.00     0.210 HD
ENDBRANCH  19  20
ENDBRANCH   4  19
TORSDOF 5
ENDMDL
MODEL 6
REMARK VINA RESULT:    -5.013      4.106      7.024
REMARK INTER + INTRA:          -6.645
REMARK INTER:                  -6.269
REMARK INTRA:                  -0.376
REMARK UNBOUND:                -0.606
REMARK SMILES O=c1ccn([C@H]2O[C@@H](CO)[C@@H](O)[C@@H]2O)c(=O)[nH]1
REMARK SMILES IDX 6 1 13 2 11 3 8 4 7 5 5 6 3 7 4 8 2 9 17 10 1 11 15 12 16 14
REMARK SMILES IDX 14 15 12 17 9 19 10 20
REMARK H PARENT 17 13 14 16 12 18 10 21
REMARK Flexibility Score: inf
ROOT
ATOM      1  C   UNL     1      31.716   8.371   3.449  1.00  0.00     0.255 C 
ATOM      2  C   UNL     1      31.000   7.568   4.548  1.00  0.00     0.196 C 
ATOM      3  C   UNL     1      32.129   6.881   5.292  1.00  0.00     0.179 C 
ATOM      4  C   UNL     1      33.320   7.078   4.354  1.00  0.00     0.178 C 
ATOM      5  O   UNL     1      33.110   8.270   3.637  1.00  0.00    -0.347 OA
ENDROOT
BRANCH   1   6
ATOM      6  N   UNL     1      31.293   9.787   3.464  1.00  0.00    -0.271 N 
ATOM      7  C   UNL     1      31.761  12.058   4.077  1.00  0.00     0.090 A 
ATOM      8  C   UNL     1      32.109  10.711   4.058  1.00  0.00     0.099 A 
ATOM      9  C   UNL     1      30.574  12.449   3.468  1.00  0.00     0.253 A 
ATOM     10  N   UNL     1      29.786  11.520   2.868  1.00  0.00    -0.274 N 
ATOM     11  O   UNL     1      30.233  13.662   3.470  1.00  0.00    -0.269 OA
ATOM     12  C   UNL     1      30.134  10.204   2.853  1.00  0.00     0.330 A 
ATOM     13  H   UNL     1      28.897  11.823   2.404  1.00  0.00     0.175 HD
ATOM     14  O   UNL     1      29.381   9.377   2.268  1.00  0.00    -0.248 OA
ENDBRANCH   1   6
BRANCH   2  15
ATOM     15  O   UNL     1      30.143   6.611   3.983  1.00  0.00    -0.386 OA
ATOM     16  H   UNL     1      29.460   7.114   3.468  1.00  0.00     0.211 HD
ENDBRANCH   2  15
BRANCH   3  17
ATOM     17  O   UNL     1      32.348   7.511   6.529  1.00  0.00    -0.387 OA
ATOM     18  H   UNL     1      31.634   7.189   7.139  1.00  0.00     0.211 HD
ENDBRANCH   3  17
BRANCH   4  19
ATOM     19  C   UNL     1      34.674   7.125   5.078  1.00  0.00     0.191 C 
BRANCH  19  20
ATOM     20  O   UNL     1      35.448   6.006   4.738  1.00  0.00    -0.394 OA
ATOM     21  H   UNL     1      34.895   5.455   4.125  1.00  0.00     0.210 HD
ENDBRANCH  19  20
ENDBRANCH   4  19
TORSDOF 5
ENDMDL
MODEL 7
REMARK VINA RESULT:    -4.964      2.461      4.164
REMARK INTER + INTRA:          -6.585
REMARK INTER:                  -5.983
REMARK INTRA:                  -0.602
REMARK UNBOUND:                -0.606
REMARK SMILES O=c1ccn([C@H]2O[C@@H](CO)[C@@H](O)[C@@H]2O)c(=O)[nH]1
REMARK SMILES IDX 6 1 13 2 11 3 8 4 7 5 5 6 3 7 4 8 2 9 17 10 1 11 15 12 16 14
REMARK SMILES IDX 14 15 12 17 9 19 10 20
REMARK H PARENT 17 13 14 16 12 18 10 21
REMARK Flexibility Score: inf
ROOT
ATOM      1  C   UNL     1      30.795  10.656   6.638  1.00  0.00     0.255 C 
ATOM      2  C   UNL     1      29.577  10.650   5.700  1.00  0.00     0.196 C 
ATOM      3  C   UNL     1      30.044  11.435   4.489  1.00  0.00     0.179 C 
ATOM      4  C   UNL     1      31.332  12.090   4.989  1.00  0.00     0.178 C 
ATOM      5  O   UNL     1      31.887  11.252   5.972  1.00  0.00    -0.347 OA
ENDROOT
BRANCH   1   6
ATOM      6  N   UNL     1      31.139   9.285   7.070  1.00  0.00    -0.271 N 
ATOM      7  C   UNL     1      32.092   7.148   6.543  1.00  0.00     0.090 A 
ATOM      8  C   UNL     1      31.731   8.440   6.173  1.00  0.00     0.099 A 
ATOM      9  C   UNL     1      31.850   6.737   7.849  1.00  0.00     0.253 A 
ATOM     10  N   UNL     1      31.277   7.595   8.732  1.00  0.00    -0.274 N 
ATOM     11  O   UNL     1      32.166   5.573   8.212  1.00  0.00    -0.269 OA
ATOM     12  C   UNL     1      30.928   8.858   8.361  1.00  0.00     0.330 A 
ATOM     13  H   UNL     1      31.105   7.281   9.716  1.00  0.00     0.175 HD
ATOM     14  O   UNL     1      30.415   9.629   9.218  1.00  0.00    -0.248 OA
ENDBRANCH   1   6
BRANCH   2  15
ATOM     15  O   UNL     1      28.485  11.297   6.301  1.00  0.00    -0.386 OA
ATOM     16  H   UNL     1      28.282  12.089   5.738  1.00  0.00     0.211 HD
ENDBRANCH   2  15
BRANCH   3  17
ATOM     17  O   UNL     1      30.301  10.564   3.417  1.00  0.00    -0.387 OA
ATOM     18  H   UNL     1      30.698   9.743   3.809  1.00  0.00     0.211 HD
ENDBRANCH   3  17
BRANCH   4  19
ATOM     19  C   UNL     1      32.358  12.358   3.878  1.00  0.00     0.191 C 
BRANCH  19  20
ATOM     20  O   UNL     1      31.767  13.083   2.833  1.00  0.00    -0.394 OA
ATOM     21  H   UNL     1      32.310  12.905   2.022  1.00  0.00     0.210 HD
ENDBRANCH  19  20
ENDBRANCH   4  19
TORSDOF 5
ENDMDL
MODEL 8
REMARK VINA RESULT:    -4.886      3.283      6.307
REMARK INTER + INTRA:          -6.491
REMARK INTER:                  -5.929
REMARK INTRA:                  -0.562
REMARK UNBOUND:                -0.606
REMARK SMILES O=c1ccn([C@H]2O[C@@H](CO)[C@@H](O)[C@@H]2O)c(=O)[nH]1
REMARK SMILES IDX 6 1 13 2 11 3 8 4 7 5 5 6 3 7 4 8 2 9 17 10 1 11 15 12 16 14
REMARK SMILES IDX 14 15 12 17 9 19 10 20
REMARK H PARENT 17 13 14 16 12 18 10 21
REMARK Flexibility Score: inf
ROOT
ATOM      1  C   UNL     1      30.126  10.152   6.330  1.00  0.00     0.255 C 
ATOM      2  C   UNL     1      29.725  10.812   7.659  1.00  0.00     0.196 C 
ATOM      3  C   UNL     1      30.345   9.916   8.714  1.00  0.00     0.179 C 
ATOM      4  C   UNL     1      30.735   8.674   7.913  1.00  0.00     0.178 C 
ATOM      5  O   UNL     1      31.003   9.079   6.594  1.00  0.00    -0.347 OA
ENDROOT
BRANCH   1   6
ATOM      6  N   UNL     1      30.762  11.128   5.421  1.00  0.00    -0.271 N 
ATOM      7  C   UNL     1      32.321  12.924   5.110  1.00  0.00     0.090 A 
ATOM      8  C   UNL     1      31.682  12.002   5.933  1.00  0.00     0.099 A 
ATOM      9  C   UNL     1      32.017  12.931   3.754  1.00  0.00     0.253 A 
ATOM     10  N   UNL     1      31.114  12.044   3.260  1.00  0.00    -0.274 N 
ATOM     11  O   UNL     1      32.580  13.755   2.985  1.00  0.00    -0.269 OA
ATOM     12  C   UNL     1      30.493  11.145   4.072  1.00  0.00     0.330 A 
ATOM     13  H   UNL     1      30.895  12.050   2.236  1.00  0.00     0.175 HD
ATOM     14  O   UNL     1      29.675  10.326   3.569  1.00  0.00    -0.248 OA
ENDBRANCH   1   6
BRANCH   2  15
ATOM     15  O   UNL     1      28.328  10.829   7.802  1.00  0.00    -0.386 OA
ATOM     16  H   UNL     1      28.028  11.732   7.521  1.00  0.00     0.211 HD
ENDBRANCH   2  15
BRANCH   3  17
ATOM     17  O   UNL     1      31.476  10.536   9.271  1.00  0.00    -0.387 OA
ATOM     18  H   UNL     1      32.252   9.953   9.061  1.00  0.00     0.211 HD
ENDBRANCH   3  17
BRANCH   4  19
ATOM     19  C   UNL     1      31.943   7.921   8.493  1.00  0.00     0.191 C 
BRANCH  19  20
ATOM     20  O   UNL     1      31.657   7.468   9.790  1.00  0.00    -0.394 OA
ATOM     21  H   UNL     1      31.154   6.618   9.689  1.00  0.00     0.210 HD
ENDBRANCH  19  20
ENDBRANCH   4  19
TORSDOF 5
ENDMDL
MODEL 9
REMARK VINA RESULT:    -4.884      3.181      4.577
REMARK INTER + INTRA:          -6.489
REMARK INTER:                  -5.899
REMARK INTRA:                  -0.590
REMARK UNBOUND:                -0.606
REMARK SMILES O=c1ccn([C@H]2O[C@@H](CO)[C@@H](O)[C@@H]2O)c(=O)[nH]1
REMARK SMILES IDX 6 1 13 2 11 3 8 4 7 5 5 6 3 7 4 8 2 9 17 10 1 11 15 12 16 14
REMARK SMILES IDX 14 15 12 17 9 19 10 20
REMARK H PARENT 17 13 14 16 12 18 10 21
REMARK Flexibility Score: inf
ROOT
ATOM      1  C   UNL     1      31.911   8.799   6.907  1.00  0.00     0.255 C 
ATOM      2  C   UNL     1      30.973   9.050   8.098  1.00  0.00     0.196 C 
ATOM      3  C   UNL     1      31.634  10.190   8.849  1.00  0.00     0.179 C 
ATOM      4  C   UNL     1      33.026  10.244   8.222  1.00  0.00     0.178 C 
ATOM      5  O   UNL     1      32.919   9.786   6.897  1.00  0.00    -0.347 OA
ENDROOT
BRANCH   1   6
ATOM      6  N   UNL     1      31.165   8.809   5.631  1.00  0.00    -0.271 N 
ATOM      7  C   UNL     1      29.797  10.006   4.067  1.00  0.00     0.090 A 
ATOM      8  C   UNL     1      30.495   9.945   5.269  1.00  0.00     0.099 A 
ATOM      9  C   UNL     1      29.805   8.894   3.233  1.00  0.00     0.253 A 
ATOM     10  N   UNL     1      30.491   7.780   3.601  1.00  0.00    -0.274 N 
ATOM     11  O   UNL     1      29.182   8.921   2.139  1.00  0.00    -0.269 OA
ATOM     12  C   UNL     1      31.171   7.729   4.779  1.00  0.00     0.330 A 
ATOM     13  H   UNL     1      30.499   6.949   2.965  1.00  0.00     0.175 HD
ATOM     14  O   UNL     1      31.810   6.681   5.073  1.00  0.00    -0.248 OA
ENDBRANCH   1   6
BRANCH   2  15
ATOM     15  O   UNL     1      30.898   7.913   8.919  1.00  0.00    -0.386 OA
ATOM     16  H   UNL     1      31.731   7.900   9.458  1.00  0.00     0.211 HD
ENDBRANCH   2  15
BRANCH   3  17
ATOM     17  O   UNL     1      30.930  11.387   8.629  1.00  0.00    -0.387 OA
ATOM     18  H   UNL     1      30.067  11.301   9.112  1.00  0.00     0.211 HD
ENDBRANCH   3  17
BRANCH   4  19
ATOM     19  C   UNL     1      33.660  11.644   8.249  1.00  0.00     0.191 C 
BRANCH  19  20
ATOM     20  O   UNL     1      33.523  12.215   9.523  1.00  0.00    -0.394 OA
ATOM     21  H   UNL     1      33.350  11.468  10.152  1.00  0.00     0.210 HD
ENDBRANCH  19  20
ENDBRANCH   4  19
TORSDOF 5
ENDMDL
