MODEL 1
REMARK VINA RESULT:    -4.976      0.000      0.000
REMARK INTER + INTRA:          -5.789
REMARK INTER:                  -5.703
REMARK INTRA:                  -0.086
REMARK UNBOUND:                -0.086
REMARK SMILES COc1cc(C(=O)[O-])ccc1O
REMARK SMILES IDX 5 1 9 2 4 3 10 4 3 5 11 6 6 7 7 8 8 9 2 10 1 11 12 12
REMARK H PARENT 12 13
REMARK Flexibility Score: inf
ROOT
ATOM      1  C   UNL     1      -1.908 -19.139  -9.592  1.00  0.00     0.001 A 
ATOM      2  C   UNL     1      -1.907 -18.297  -8.470  1.00  0.00     0.014 A 
ATOM      3  C   UNL     1      -2.895 -20.136  -9.700  1.00  0.00     0.060 A 
ATOM      4  C   UNL     1      -2.874 -18.447  -7.474  1.00  0.00     0.051 A 
ATOM      5  C   UNL     1      -3.873 -20.292  -8.697  1.00  0.00     0.161 A 
ATOM      6  C   UNL     1      -3.855 -19.438  -7.580  1.00  0.00     0.157 A 
ENDROOT
BRANCH   1   7
ATOM      7  C   UNL     1      -0.882 -18.976 -10.646  1.00  0.00     0.072 C 
ATOM      8  O   UNL     1       0.146 -19.705 -10.660  1.00  0.00    -0.545 OA
ATOM      9  O   UNL     1      -1.038 -18.013 -11.637  1.00  0.00    -0.545 OA
ENDBRANCH   1   7
BRANCH   5  10
ATOM     10  O   UNL     1      -4.870 -21.278  -8.778  1.00  0.00    -0.493 OA
ATOM     11  C   UNL     1      -4.738 -22.605  -8.281  1.00  0.00     0.278 C 
ENDBRANCH   5  10
BRANCH   6  12
ATOM     12  O   UNL     1      -4.803 -19.558  -6.565  1.00  0.00    -0.504 OA
ATOM     13  H   UNL     1      -5.505 -18.848  -6.394  1.00  0.00     0.293 HD
ENDBRANCH   6  12
TORSDOF 3
ENDMDL
MODEL 2
REMARK VINA RESULT:    -4.862      1.946      2.601
REMARK INTER + INTRA:          -5.658
REMARK INTER:                  -5.559
REMARK INTRA:                  -0.099
REMARK UNBOUND:                -0.086
REMARK SMILES COc1cc(C(=O)[O-])ccc1O
REMARK SMILES IDX 5 1 9 2 4 3 10 4 3 5 11 6 6 7 7 8 8 9 2 10 1 11 12 12
REMARK H PARENT 12 13
REMARK Flexibility Score: inf
ROOT
ATOM      1  C   UNL     1      -0.929 -19.498  -9.320  1.00  0.00     0.001 A 
ATOM      2  C   UNL     1      -0.484 -20.638  -8.633  1.00  0.00     0.014 A 
ATOM      3  C   UNL     1      -1.953 -18.716  -8.756  1.00  0.00     0.060 A 
ATOM      4  C   UNL     1      -1.050 -20.990  -7.406  1.00  0.00     0.051 A 
ATOM      5  C   UNL     1      -2.529 -19.067  -7.518  1.00  0.00     0.161 A 
ATOM      6  C   UNL     1      -2.068 -20.213  -6.846  1.00  0.00     0.157 A 
ENDROOT
BRANCH   1   7
ATOM      7  C   UNL     1      -0.325 -19.128 -10.619  1.00  0.00     0.072 C 
ATOM      8  O   UNL     1      -0.943 -18.384 -11.426  1.00  0.00    -0.545 OA
ATOM      9  O   UNL     1       0.936 -19.599 -10.969  1.00  0.00    -0.545 OA
ENDBRANCH   1   7
BRANCH   5  10
ATOM     10  O   UNL     1      -3.553 -18.305  -6.932  1.00  0.00    -0.493 OA
ATOM     11  C   UNL     1      -4.939 -18.456  -7.218  1.00  0.00     0.278 C 
ENDBRANCH   5  10
BRANCH   6  12
ATOM     12  O   UNL     1      -2.611 -20.597  -5.620  1.00  0.00    -0.504 OA
ATOM     13  H   UNL     1      -3.013 -19.928  -4.974  1.00  0.00     0.293 HD
ENDBRANCH   6  12
TORSDOF 3
ENDMDL
MODEL 3
REMARK VINA RESULT:    -4.809      2.364      3.540
REMARK INTER + INTRA:          -5.598
REMARK INTER:                  -5.518
REMARK INTRA:                  -0.081
REMARK UNBOUND:                -0.086
REMARK SMILES COc1cc(C(=O)[O-])ccc1O
REMARK SMILES IDX 5 1 9 2 4 3 10 4 3 5 11 6 6 7 7 8 8 9 2 10 1 11 12 12
REMARK H PARENT 12 13
REMARK Flexibility Score: inf
ROOT
ATOM      1  C   UNL     1      -3.062 -19.743  -8.484  1.00  0.00     0.001 A 
ATOM      2  C   UNL     1      -2.945 -20.883  -9.294  1.00  0.00     0.014 A 
ATOM      3  C   UNL     1      -4.277 -19.034  -8.473  1.00  0.00     0.060 A 
ATOM      4  C   UNL     1      -4.020 -21.307 -10.077  1.00  0.00     0.051 A 
ATOM      5  C   UNL     1      -5.366 -19.457  -9.262  1.00  0.00     0.161 A 
ATOM      6  C   UNL     1      -5.227 -20.602 -10.066  1.00  0.00     0.157 A 
ENDROOT
BRANCH   1   7
ATOM      7  C   UNL     1      -1.921 -19.298  -7.655  1.00  0.00     0.072 C 
ATOM      8  O   UNL     1      -0.786 -19.829  -7.786  1.00  0.00    -0.545 OA
ATOM      9  O   UNL     1      -2.085 -18.285  -6.716  1.00  0.00    -0.545 OA
ENDBRANCH   1   7
BRANCH   5  10
ATOM     10  O   UNL     1      -6.590 -18.769  -9.270  1.00  0.00    -0.493 OA
ATOM     11  C   UNL     1      -6.959 -17.761  -8.335  1.00  0.00     0.278 C 
ENDBRANCH   5  10
BRANCH   6  12
ATOM     12  O   UNL     1      -6.279 -21.055 -10.863  1.00  0.00    -0.504 OA
ATOM     13  H   UNL     1      -6.470 -22.041 -10.995  1.00  0.00     0.293 HD
ENDBRANCH   6  12
TORSDOF 3
ENDMDL
MODEL 4
REMARK VINA RESULT:    -4.778      1.757      2.003
REMARK INTER + INTRA:          -5.562
REMARK INTER:                  -5.472
REMARK INTRA:                  -0.090
REMARK UNBOUND:                -0.086
REMARK SMILES COc1cc(C(=O)[O-])ccc1O
REMARK SMILES IDX 5 1 9 2 4 3 10 4 3 5 11 6 6 7 7 8 8 9 2 10 1 11 12 12
REMARK H PARENT 12 13
REMARK Flexibility Score: inf
ROOT
ATOM      1  C   UNL     1      -1.064 -19.910  -9.833  1.00  0.00     0.001 A 
ATOM      2  C   UNL     1      -0.627 -20.096  -8.513  1.00  0.00     0.014 A 
ATOM      3  C   UNL     1      -2.324 -20.408 -10.213  1.00  0.00     0.060 A 
ATOM      4  C   UNL     1      -1.433 -20.765  -7.589  1.00  0.00     0.051 A 
ATOM      5  C   UNL     1      -3.142 -21.084  -9.285  1.00  0.00     0.161 A 
ATOM      6  C   UNL     1      -2.685 -21.259  -7.967  1.00  0.00     0.157 A 
ENDROOT
BRANCH   1   7
ATOM      7  C   UNL     1      -0.207 -19.200 -10.809  1.00  0.00     0.072 C 
ATOM      8  O   UNL     1      -0.670 -18.255 -11.501  1.00  0.00    -0.545 OA
ATOM      9  O   UNL     1       1.123 -19.568 -10.975  1.00  0.00    -0.545 OA
ENDBRANCH   1   7
BRANCH   5  10
ATOM     10  O   UNL     1      -4.403 -21.590  -9.636  1.00  0.00    -0.493 OA
ATOM     11  C   UNL     1      -5.479 -20.806 -10.139  1.00  0.00     0.278 C 
ENDBRANCH   5  10
BRANCH   6  12
ATOM     12  O   UNL     1      -3.461 -21.922  -7.016  1.00  0.00    -0.504 OA
ATOM     13  H   UNL     1      -3.520 -22.932  -6.977  1.00  0.00     0.293 HD
ENDBRANCH   6  12
TORSDOF 3
ENDMDL
MODEL 5
REMARK VINA RESULT:    -4.776      2.218      4.668
REMARK INTER + INTRA:          -5.560
REMARK INTER:                  -5.473
REMARK INTRA:                  -0.087
REMARK UNBOUND:                -0.086
REMARK SMILES COc1cc(C(=O)[O-])ccc1O
REMARK SMILES IDX 5 1 9 2 4 3 10 4 3 5 11 6 6 7 7 8 8 9 2 10 1 11 12 12
REMARK H PARENT 12 13
REMARK Flexibility Score: inf
ROOT
ATOM      1  C   UNL     1      -3.017 -21.468  -7.161  1.00  0.00     0.001 A 
ATOM      2  C   UNL     1      -4.271 -22.006  -7.489  1.00  0.00     0.014 A 
ATOM      3  C   UNL     1      -2.216 -20.928  -8.184  1.00  0.00     0.060 A 
ATOM      4  C   UNL     1      -4.717 -22.004  -8.812  1.00  0.00     0.051 A 
ATOM      5  C   UNL     1      -2.661 -20.924  -9.522  1.00  0.00     0.161 A 
ATOM      6  C   UNL     1      -3.921 -21.468  -9.828  1.00  0.00     0.157 A 
ENDROOT
BRANCH   1   7
ATOM      7  C   UNL     1      -2.549 -21.471  -5.758  1.00  0.00     0.072 C 
ATOM      8  O   UNL     1      -2.922 -22.370  -4.958  1.00  0.00    -0.545 OA
ATOM      9  O   UNL     1      -1.688 -20.479  -5.301  1.00  0.00    -0.545 OA
ENDBRANCH   1   7
BRANCH   5  10
ATOM     10  O   UNL     1      -1.884 -20.392 -10.563  1.00  0.00    -0.493 OA
ATOM     11  C   UNL     1      -1.260 -19.113 -10.535  1.00  0.00     0.278 C 
ENDBRANCH   5  10
BRANCH   6  12
ATOM     12  O   UNL     1      -4.401 -21.485 -11.138  1.00  0.00    -0.504 OA
ATOM     13  H   UNL     1      -3.841 -21.172 -11.921  1.00  0.00     0.293 HD
ENDBRANCH   6  12
TORSDOF 3
ENDMDL
MODEL 6
REMARK VINA RESULT:    -4.762      1.984      3.846
REMARK INTER + INTRA:          -5.544
REMARK INTER:                  -5.467
REMARK INTRA:                  -0.077
REMARK UNBOUND:                -0.086
REMARK SMILES COc1cc(C(=O)[O-])ccc1O
REMARK SMILES IDX 5 1 9 2 4 3 10 4 3 5 11 6 6 7 7 8 8 9 2 10 1 11 12 12
REMARK H PARENT 12 13
REMARK Flexibility Score: inf
ROOT
ATOM      1  C   UNL     1      -4.402 -19.532  -9.202  1.00  0.00     0.001 A 
ATOM      2  C   UNL     1      -4.833 -18.912  -8.019  1.00  0.00     0.014 A 
ATOM      3  C   UNL     1      -3.022 -19.659  -9.445  1.00  0.00     0.060 A 
ATOM      4  C   UNL     1      -3.904 -18.429  -7.096  1.00  0.00     0.051 A 
ATOM      5  C   UNL     1      -2.080 -19.172  -8.516  1.00  0.00     0.161 A 
ATOM      6  C   UNL     1      -2.533 -18.555  -7.337  1.00  0.00     0.157 A 
ENDROOT
BRANCH   1   7
ATOM      7  C   UNL     1      -5.390 -20.044 -10.177  1.00  0.00     0.072 C 
ATOM      8  O   UNL     1      -5.298 -21.216 -10.631  1.00  0.00    -0.545 OA
ATOM      9  O   UNL     1      -6.437 -19.236 -10.609  1.00  0.00    -0.545 OA
ENDBRANCH   1   7
BRANCH   5  10
ATOM     10  O   UNL     1      -0.697 -19.286  -8.731  1.00  0.00    -0.493 OA
ATOM     11  C   UNL     1      -0.090 -19.496 -10.002  1.00  0.00     0.278 C 
ENDBRANCH   5  10
BRANCH   6  12
ATOM     12  O   UNL     1      -1.635 -18.059  -6.391  1.00  0.00    -0.504 OA
ATOM     13  H   UNL     1      -1.831 -17.230  -5.844  1.00  0.00     0.293 HD
ENDBRANCH   6  12
TORSDOF 3
ENDMDL
MODEL 7
REMARK VINA RESULT:    -4.756      2.314      2.485
REMARK INTER + INTRA:          -5.537
REMARK INTER:                  -5.435
REMARK INTRA:                  -0.102
REMARK UNBOUND:                -0.086
REMARK SMILES COc1cc(C(=O)[O-])ccc1O
REMARK SMILES IDX 5 1 9 2 4 3 10 4 3 5 11 6 6 7 7 8 8 9 2 10 1 11 12 12
REMARK H PARENT 12 13
REMARK Flexibility Score: inf
ROOT
ATOM      1  C   UNL     1      -0.894 -19.309  -9.549  1.00  0.00     0.001 A 
ATOM      2  C   UNL     1      -2.007 -18.550  -9.157  1.00  0.00     0.014 A 
ATOM      3  C   UNL     1      -0.525 -20.430  -8.782  1.00  0.00     0.060 A 
ATOM      4  C   UNL     1      -2.739 -18.903  -8.022  1.00  0.00     0.051 A 
ATOM      5  C   UNL     1      -1.261 -20.791  -7.635  1.00  0.00     0.161 A 
ATOM      6  C   UNL     1      -2.373 -20.017  -7.260  1.00  0.00     0.157 A 
ENDROOT
BRANCH   1   7
ATOM      7  C   UNL     1      -0.121 -18.931 -10.753  1.00  0.00     0.072 C 
ATOM      8  O   UNL     1       1.019 -19.423 -10.965  1.00  0.00    -0.545 OA
ATOM      9  O   UNL     1      -0.644 -18.026 -11.670  1.00  0.00    -0.545 OA
ENDBRANCH   1   7
BRANCH   5  10
ATOM     10  O   UNL     1      -0.917 -21.904  -6.851  1.00  0.00    -0.493 OA
ATOM     11  C   UNL     1       0.061 -21.894  -5.817  1.00  0.00     0.278 C 
ENDBRANCH   5  10
BRANCH   6  12
ATOM     12  O   UNL     1      -3.129 -20.338  -6.132  1.00  0.00    -0.504 OA
ATOM     13  H   UNL     1      -3.186 -19.725  -5.329  1.00  0.00     0.293 HD
ENDBRANCH   6  12
TORSDOF 3
ENDMDL
MODEL 8
REMARK VINA RESULT:    -4.707      2.872      4.338
REMARK INTER + INTRA:          -5.481
REMARK INTER:                  -5.392
REMARK INTRA:                  -0.089
REMARK UNBOUND:                -0.086
REMARK SMILES COc1cc(C(=O)[O-])ccc1O
REMARK SMILES IDX 5 1 9 2 4 3 10 4 3 5 11 6 6 7 7 8 8 9 2 10 1 11 12 12
REMARK H PARENT 12 13
REMARK Flexibility Score: inf
ROOT
ATOM      1  C   UNL     1      -0.966 -20.811  -7.367  1.00  0.00     0.001 A 
ATOM      2  C   UNL     1      -2.234 -21.397  -7.240  1.00  0.00     0.014 A 
ATOM      3  C   UNL     1      -0.584 -20.267  -8.607  1.00  0.00     0.060 A 
ATOM      4  C   UNL     1      -3.106 -21.438  -8.329  1.00  0.00     0.051 A 
ATOM      5  C   UNL     1      -1.460 -20.307  -9.711  1.00  0.00     0.161 A 
ATOM      6  C   UNL     1      -2.727 -20.898  -9.562  1.00  0.00     0.157 A 
ENDROOT
BRANCH   1   7
ATOM      7  C   UNL     1      -0.045 -20.768  -6.209  1.00  0.00     0.072 C 
ATOM      8  O   UNL     1       0.403 -21.832  -5.705  1.00  0.00    -0.545 OA
ATOM      9  O   UNL     1       0.337 -19.550  -5.658  1.00  0.00    -0.545 OA
ENDBRANCH   1   7
BRANCH   5  10
ATOM     10  O   UNL     1      -1.107 -19.772 -10.960  1.00  0.00    -0.493 OA
ATOM     11  C   UNL     1      -0.789 -18.404 -11.195  1.00  0.00     0.278 C 
ENDBRANCH   5  10
BRANCH   6  12
ATOM     12  O   UNL     1      -3.625 -20.959 -10.628  1.00  0.00    -0.504 OA
ATOM     13  H   UNL     1      -4.590 -21.237 -10.506  1.00  0.00     0.293 HD
ENDBRANCH   6  12
TORSDOF 3
ENDMDL
MODEL 9
REMARK VINA RESULT:    -4.689      2.448      3.375
REMARK INTER + INTRA:          -5.460
REMARK INTER:                  -5.387
REMARK INTRA:                  -0.073
REMARK UNBOUND:                -0.086
REMARK SMILES COc1cc(C(=O)[O-])ccc1O
REMARK SMILES IDX 5 1 9 2 4 3 10 4 3 5 11 6 6 7 7 8 8 9 2 10 1 11 12 12
REMARK H PARENT 12 13
REMARK Flexibility Score: inf
ROOT
ATOM      1  C   UNL     1      -1.485 -20.281  -7.651  1.00  0.00     0.001 A 
ATOM      2  C   UNL     1      -1.096 -19.950  -8.958  1.00  0.00     0.014 A 
ATOM      3  C   UNL     1      -2.658 -21.032  -7.456  1.00  0.00     0.060 A 
ATOM      4  C   UNL     1      -1.863 -20.362 -10.049  1.00  0.00     0.051 A 
ATOM      5  C   UNL     1      -3.437 -21.450  -8.554  1.00  0.00     0.161 A 
ATOM      6  C   UNL     1      -3.029 -21.108  -9.855  1.00  0.00     0.157 A 
ENDROOT
BRANCH   1   7
ATOM      7  C   UNL     1      -0.668 -19.843  -6.497  1.00  0.00     0.072 C 
ATOM      8  O   UNL     1       0.339 -20.507  -6.134  1.00  0.00    -0.545 OA
ATOM      9  O   UNL     1      -1.002 -18.689  -5.796  1.00  0.00    -0.545 OA
ENDBRANCH   1   7
BRANCH   5  10
ATOM     10  O   UNL     1      -4.612 -22.201  -8.389  1.00  0.00    -0.493 OA
ATOM     11  C   UNL     1      -4.981 -22.875  -7.191  1.00  0.00     0.278 C 
ENDBRANCH   5  10
BRANCH   6  12
ATOM     12  O   UNL     1      -3.770 -21.501 -10.970  1.00  0.00    -0.504 OA
ATOM     13  H   UNL     1      -4.700 -21.892 -10.889  1.00  0.00     0.293 HD
ENDBRANCH   6  12
TORSDOF 3
ENDMDL
