MODEL 1
REMARK VINA RESULT:    -5.889      0.000      0.000
REMARK INTER + INTRA:         -12.325
REMARK INTER:                 -10.709
REMARK INTRA:                  -1.616
REMARK UNBOUND:                -1.616
REMARK SMILES CCCCCCCCCCCCCC[C@H](C)C(=O)[O-]
REMARK SMILES IDX 9 1 10 2 11 3 12 4 13 5 14 6 15 7 16 8 17 9 18 10 19 11 8 12
REMARK SMILES IDX 7 13 6 14 5 15 4 16 3 17 2 18 1 19
REMARK H PARENT
REMARK Flexibility Score: inf
ROOT
ATOM      1  C   UNL     1     -22.229  39.180   7.278  1.00  0.00     0.000 C 
ENDROOT
BRANCH   1   2
ATOM      2  C   UNL     1     -23.199  38.117   6.734  1.00  0.00     0.000 C 
BRANCH   2   3
ATOM      3  C   UNL     1     -23.588  37.067   7.791  1.00  0.00     0.000 C 
BRANCH   3   4
ATOM      4  C   UNL     1     -23.137  37.385   9.231  1.00  0.00     0.000 C 
BRANCH   4   5
ATOM      5  C   UNL     1     -21.993  36.507   9.770  1.00  0.00     0.001 C 
BRANCH   5   6
ATOM      6  C   UNL     1     -21.459  35.513   8.724  1.00  0.00     0.009 C 
BRANCH   6   7
ATOM      7  C   UNL     1     -19.989  35.799   8.351  1.00  0.00     0.032 C 
ATOM      8  C   UNL     1     -19.391  36.863   9.279  1.00  0.00     0.014 C 
BRANCH   7   9
ATOM      9  C   UNL     1     -19.858  36.239   6.917  1.00  0.00     0.044 C 
ATOM     10  O   UNL     1     -18.917  36.998   6.562  1.00  0.00    -0.550 OA
ATOM     11  O   UNL     1     -20.778  35.802   5.973  1.00  0.00    -0.550 OA
ENDBRANCH   7   9
ENDBRANCH   6   7
ENDBRANCH   5   6
ENDBRANCH   4   5
ENDBRANCH   3   4
ENDBRANCH   2   3
ENDBRANCH   1   2
BRANCH   1  12
ATOM     12  C   UNL     1     -21.162  39.585   6.249  1.00  0.00     0.000 C 
BRANCH  12  13
ATOM     13  C   UNL     1     -21.620  39.352   4.798  1.00  0.00    -0.000 C 
BRANCH  13  14
ATOM     14  C   UNL     1     -21.602  40.642   3.963  1.00  0.00    -0.000 C 
BRANCH  14  15
ATOM     15  C   UNL     1     -20.244  41.365   4.018  1.00  0.00    -0.000 C 
BRANCH  15  16
ATOM     16  C   UNL     1     -20.157  42.524   3.004  1.00  0.00    -0.000 C 
BRANCH  16  17
ATOM     17  C   UNL     1     -19.212  43.664   3.430  1.00  0.00    -0.000 C 
BRANCH  17  18
ATOM     18  C   UNL     1     -18.668  43.527   4.866  1.00  0.00    -0.003 C 
ATOM     19  C   UNL     1     -18.159  44.853   5.431  1.00  0.00     0.004 C 
ENDBRANCH  17  18
ENDBRANCH  16  17
ENDBRANCH  15  16
ENDBRANCH  14  15
ENDBRANCH  13  14
ENDBRANCH  12  13
ENDBRANCH   1  12
TORSDOF 14
ENDMDL
MODEL 2
REMARK VINA RESULT:    -5.799      1.743      2.946
REMARK INTER + INTRA:         -12.161
REMARK INTER:                 -10.686
REMARK INTRA:                  -1.475
REMARK UNBOUND:                -1.616
REMARK SMILES CCCCCCCCCCCCCC[C@H](C)C(=O)[O-]
REMARK SMILES IDX 9 1 10 2 11 3 12 4 13 5 14 6 15 7 16 8 17 9 18 10 19 11 8 12
REMARK SMILES IDX 7 13 6 14 5 15 4 16 3 17 2 18 1 19
REMARK H PARENT
REMARK Flexibility Score: inf
ROOT
ATOM      1  C   UNL     1     -21.066  38.152   5.384  1.00  0.00     0.000 C 
ENDROOT
BRANCH   1   2
ATOM      2  C   UNL     1     -19.688  37.671   5.871  1.00  0.00     0.000 C 
BRANCH   2   3
ATOM      3  C   UNL     1     -19.747  36.297   6.565  1.00  0.00     0.000 C 
BRANCH   3   4
ATOM      4  C   UNL     1     -19.110  36.241   7.968  1.00  0.00     0.000 C 
BRANCH   4   5
ATOM      5  C   UNL     1     -20.106  36.228   9.142  1.00  0.00     0.001 C 
BRANCH   5   6
ATOM      6  C   UNL     1     -21.558  35.996   8.689  1.00  0.00     0.009 C 
BRANCH   6   7
ATOM      7  C   UNL     1     -22.510  37.095   9.208  1.00  0.00     0.032 C 
ATOM      8  C   UNL     1     -22.781  36.913  10.707  1.00  0.00     0.014 C 
BRANCH   7   9
ATOM      9  C   UNL     1     -23.812  37.102   8.451  1.00  0.00     0.044 C 
ATOM     10  O   UNL     1     -23.870  36.661   7.273  1.00  0.00    -0.550 OA
ATOM     11  O   UNL     1     -24.961  37.596   9.055  1.00  0.00    -0.550 OA
ENDBRANCH   7   9
ENDBRANCH   6   7
ENDBRANCH   5   6
ENDBRANCH   4   5
ENDBRANCH   3   4
ENDBRANCH   2   3
ENDBRANCH   1   2
BRANCH   1  12
ATOM     12  C   UNL     1     -21.663  39.241   6.289  1.00  0.00     0.000 C 
BRANCH  12  13
ATOM     13  C   UNL     1     -22.191  40.449   5.493  1.00  0.00    -0.000 C 
BRANCH  13  14
ATOM     14  C   UNL     1     -21.770  40.406   4.015  1.00  0.00    -0.000 C 
BRANCH  14  15
ATOM     15  C   UNL     1     -20.803  41.543   3.641  1.00  0.00    -0.000 C 
BRANCH  15  16
ATOM     16  C   UNL     1     -19.497  41.495   4.461  1.00  0.00    -0.000 C 
BRANCH  16  17
ATOM     17  C   UNL     1     -18.561  42.696   4.226  1.00  0.00    -0.000 C 
BRANCH  17  18
ATOM     18  C   UNL     1     -19.067  44.017   4.838  1.00  0.00    -0.003 C 
ATOM     19  C   UNL     1     -17.967  44.785   5.571  1.00  0.00     0.004 C 
ENDBRANCH  17  18
ENDBRANCH  16  17
ENDBRANCH  15  16
ENDBRANCH  14  15
ENDBRANCH  13  14
ENDBRANCH  12  13
ENDBRANCH   1  12
TORSDOF 14
ENDMDL
MODEL 3
REMARK VINA RESULT:    -5.693      2.401      6.675
REMARK INTER + INTRA:         -11.969
REMARK INTER:                  -9.879
REMARK INTRA:                  -2.090
REMARK UNBOUND:                -1.616
REMARK SMILES CCCCCCCCCCCCCC[C@H](C)C(=O)[O-]
REMARK SMILES IDX 9 1 10 2 11 3 12 4 13 5 14 6 15 7 16 8 17 9 18 10 19 11 8 12
REMARK SMILES IDX 7 13 6 14 5 15 4 16 3 17 2 18 1 19
REMARK H PARENT
REMARK Flexibility Score: inf
ROOT
ATOM      1  C   UNL     1     -23.175  37.760   7.069  1.00  0.00     0.000 C 
ENDROOT
BRANCH   1   2
ATOM      2  C   UNL     1     -22.393  38.956   7.639  1.00  0.00     0.000 C 
BRANCH   2   3
ATOM      3  C   UNL     1     -22.144  40.058   6.593  1.00  0.00     0.000 C 
BRANCH   3   4
ATOM      4  C   UNL     1     -22.409  39.649   5.130  1.00  0.00     0.000 C 
BRANCH   4   5
ATOM      5  C   UNL     1     -21.179  39.683   4.205  1.00  0.00     0.001 C 
BRANCH   5   6
ATOM      6  C   UNL     1     -20.051  40.580   4.745  1.00  0.00     0.009 C 
BRANCH   6   7
ATOM      7  C   UNL     1     -20.239  42.057   4.336  1.00  0.00     0.032 C 
ATOM      8  C   UNL     1     -20.859  42.157   2.937  1.00  0.00     0.014 C 
BRANCH   7   9
ATOM      9  C   UNL     1     -18.937  42.811   4.373  1.00  0.00     0.044 C 
ATOM     10  O   UNL     1     -17.904  42.334   3.831  1.00  0.00    -0.550 OA
ATOM     11  O   UNL     1     -18.870  44.045   5.007  1.00  0.00    -0.550 OA
ENDBRANCH   7   9
ENDBRANCH   6   7
ENDBRANCH   5   6
ENDBRANCH   4   5
ENDBRANCH   3   4
ENDBRANCH   2   3
ENDBRANCH   1   2
BRANCH   1  12
ATOM     12  C   UNL     1     -23.502  36.706   8.139  1.00  0.00     0.000 C 
BRANCH  12  13
ATOM     13  C   UNL     1     -22.754  36.954   9.462  1.00  0.00    -0.000 C 
BRANCH  13  14
ATOM     14  C   UNL     1     -21.560  36.003   9.646  1.00  0.00    -0.000 C 
BRANCH  14  15
ATOM     15  C   UNL     1     -20.212  36.677   9.331  1.00  0.00    -0.000 C 
BRANCH  15  16
ATOM     16  C   UNL     1     -19.480  35.999   8.155  1.00  0.00    -0.000 C 
BRANCH  16  17
ATOM     17  C   UNL     1     -19.393  36.864   6.883  1.00  0.00    -0.000 C 
BRANCH  17  18
ATOM     18  C   UNL     1     -20.396  36.467   5.782  1.00  0.00    -0.003 C 
ATOM     19  C   UNL     1     -20.977  35.069   5.992  1.00  0.00     0.004 C 
ENDBRANCH  17  18
ENDBRANCH  16  17
ENDBRANCH  15  16
ENDBRANCH  14  15
ENDBRANCH  13  14
ENDBRANCH  12  13
ENDBRANCH   1  12
TORSDOF 14
ENDMDL
MODEL 4
REMARK VINA RESULT:    -5.653      1.757      2.952
REMARK INTER + INTRA:         -11.896
REMARK INTER:                 -10.901
REMARK INTRA:                  -0.996
REMARK UNBOUND:                -1.616
REMARK SMILES CCCCCCCCCCCCCC[C@H](C)C(=O)[O-]
REMARK SMILES IDX 9 1 10 2 11 3 12 4 13 5 14 6 15 7 16 8 17 9 18 10 19 11 8 12
REMARK SMILES IDX 7 13 6 14 5 15 4 16 3 17 2 18 1 19
REMARK H PARENT
REMARK Flexibility Score: inf
ROOT
ATOM      1  C   UNL     1     -20.257  37.567   5.732  1.00  0.00     0.000 C 
ENDROOT
BRANCH   1   2
ATOM      2  C   UNL     1     -19.063  37.207   6.633  1.00  0.00     0.000 C 
BRANCH   2   3
ATOM      3  C   UNL     1     -19.390  36.087   7.638  1.00  0.00     0.000 C 
BRANCH   3   4
ATOM      4  C   UNL     1     -19.933  36.564   9.001  1.00  0.00     0.000 C 
BRANCH   4   5
ATOM      5  C   UNL     1     -21.453  36.408   9.193  1.00  0.00     0.001 C 
BRANCH   5   6
ATOM      6  C   UNL     1     -22.099  35.504   8.129  1.00  0.00     0.009 C 
BRANCH   6   7
ATOM      7  C   UNL     1     -23.395  36.117   7.556  1.00  0.00     0.032 C 
ATOM      8  C   UNL     1     -23.298  36.265   6.033  1.00  0.00     0.014 C 
BRANCH   7   9
ATOM      9  C   UNL     1     -23.697  37.454   8.181  1.00  0.00     0.044 C 
ATOM     10  O   UNL     1     -23.148  38.502   7.749  1.00  0.00    -0.550 OA
ATOM     11  O   UNL     1     -24.591  37.536   9.241  1.00  0.00    -0.550 OA
ENDBRANCH   7   9
ENDBRANCH   6   7
ENDBRANCH   5   6
ENDBRANCH   4   5
ENDBRANCH   3   4
ENDBRANCH   2   3
ENDBRANCH   1   2
BRANCH   1  12
ATOM     12  C   UNL     1     -20.484  39.083   5.632  1.00  0.00     0.000 C 
BRANCH  12  13
ATOM     13  C   UNL     1     -21.758  39.442   4.846  1.00  0.00    -0.000 C 
BRANCH  13  14
ATOM     14  C   UNL     1     -21.627  40.777   4.095  1.00  0.00    -0.000 C 
BRANCH  14  15
ATOM     15  C   UNL     1     -20.214  41.378   4.198  1.00  0.00    -0.000 C 
BRANCH  15  16
ATOM     16  C   UNL     1     -19.958  42.457   3.125  1.00  0.00    -0.000 C 
BRANCH  16  17
ATOM     17  C   UNL     1     -19.014  43.586   3.581  1.00  0.00    -0.000 C 
BRANCH  17  18
ATOM     18  C   UNL     1     -19.038  43.853   5.099  1.00  0.00    -0.003 C 
ATOM     19  C   UNL     1     -18.005  44.894   5.529  1.00  0.00     0.004 C 
ENDBRANCH  17  18
ENDBRANCH  16  17
ENDBRANCH  15  16
ENDBRANCH  14  15
ENDBRANCH  13  14
ENDBRANCH  12  13
ENDBRANCH   1  12
TORSDOF 14
ENDMDL
MODEL 5
REMARK VINA RESULT:    -5.550     12.397     14.510
REMARK INTER + INTRA:         -11.708
REMARK INTER:                 -10.012
REMARK INTRA:                  -1.697
REMARK UNBOUND:                -1.616
REMARK SMILES CCCCCCCCCCCCCC[C@H](C)C(=O)[O-]
REMARK SMILES IDX 9 1 10 2 11 3 12 4 13 5 14 6 15 7 16 8 17 9 18 10 19 11 8 12
REMARK SMILES IDX 7 13 6 14 5 15 4 16 3 17 2 18 1 19
REMARK H PARENT
REMARK Flexibility Score: inf
ROOT
ATOM      1  C   UNL     1     -20.128  41.491  -8.295  1.00  0.00     0.000 C 
ENDROOT
BRANCH   1   2
ATOM      2  C   UNL     1     -20.031  40.410  -7.203  1.00  0.00     0.000 C 
BRANCH   2   3
ATOM      3  C   UNL     1     -20.855  40.755  -5.948  1.00  0.00     0.000 C 
BRANCH   3   4
ATOM      4  C   UNL     1     -22.267  41.311  -6.220  1.00  0.00     0.000 C 
BRANCH   4   5
ATOM      5  C   UNL     1     -22.506  42.756  -5.746  1.00  0.00     0.001 C 
BRANCH   5   6
ATOM      6  C   UNL     1     -23.904  43.282  -6.116  1.00  0.00     0.009 C 
BRANCH   6   7
ATOM      7  C   UNL     1     -23.925  44.819  -6.260  1.00  0.00     0.032 C 
ATOM      8  C   UNL     1     -25.356  45.322  -6.486  1.00  0.00     0.014 C 
BRANCH   7   9
ATOM      9  C   UNL     1     -23.037  45.282  -7.384  1.00  0.00     0.044 C 
ATOM     10  O   UNL     1     -23.117  44.752  -8.524  1.00  0.00    -0.550 OA
ATOM     11  O   UNL     1     -22.123  46.305  -7.168  1.00  0.00    -0.550 OA
ENDBRANCH   7   9
ENDBRANCH   6   7
ENDBRANCH   5   6
ENDBRANCH   4   5
ENDBRANCH   3   4
ENDBRANCH   2   3
ENDBRANCH   1   2
BRANCH   1  12
ATOM     12  C   UNL     1     -18.998  42.527  -8.199  1.00  0.00     0.000 C 
BRANCH  12  13
ATOM     13  C   UNL     1     -19.462  43.855  -7.574  1.00  0.00    -0.000 C 
BRANCH  13  14
ATOM     14  C   UNL     1     -18.681  44.207  -6.298  1.00  0.00    -0.000 C 
BRANCH  14  15
ATOM     15  C   UNL     1     -17.892  43.009  -5.737  1.00  0.00    -0.000 C 
BRANCH  15  16
ATOM     16  C   UNL     1     -17.839  43.014  -4.195  1.00  0.00    -0.000 C 
BRANCH  16  17
ATOM     17  C   UNL     1     -16.481  42.579  -3.610  1.00  0.00    -0.000 C 
BRANCH  17  18
ATOM     18  C   UNL     1     -15.888  41.317  -4.268  1.00  0.00    -0.003 C 
ATOM     19  C   UNL     1     -16.685  40.054  -3.942  1.00  0.00     0.004 C 
ENDBRANCH  17  18
ENDBRANCH  16  17
ENDBRANCH  15  16
ENDBRANCH  14  15
ENDBRANCH  13  14
ENDBRANCH  12  13
ENDBRANCH   1  12
TORSDOF 14
ENDMDL
MODEL 6
REMARK VINA RESULT:    -5.497     11.806     14.390
REMARK INTER + INTRA:         -11.611
REMARK INTER:                  -9.309
REMARK INTRA:                  -2.302
REMARK UNBOUND:                -1.616
REMARK SMILES CCCCCCCCCCCCCC[C@H](C)C(=O)[O-]
REMARK SMILES IDX 9 1 10 2 11 3 12 4 13 5 14 6 15 7 16 8 17 9 18 10 19 11 8 12
REMARK SMILES IDX 7 13 6 14 5 15 4 16 3 17 2 18 1 19
REMARK H PARENT
REMARK Flexibility Score: inf
ROOT
ATOM      1  C   UNL     1     -21.985  45.336  -8.199  1.00  0.00     0.000 C 
ENDROOT
BRANCH   1   2
ATOM      2  C   UNL     1     -20.727  44.671  -8.783  1.00  0.00     0.000 C 
BRANCH   2   3
ATOM      3  C   UNL     1     -19.710  44.263  -7.701  1.00  0.00     0.000 C 
BRANCH   3   4
ATOM      4  C   UNL     1     -18.937  42.959  -7.981  1.00  0.00     0.000 C 
BRANCH   4   5
ATOM      5  C   UNL     1     -18.292  42.300  -6.748  1.00  0.00     0.001 C 
BRANCH   5   6
ATOM      6  C   UNL     1     -18.457  43.137  -5.469  1.00  0.00     0.009 C 
BRANCH   6   7
ATOM      7  C   UNL     1     -17.793  42.466  -4.247  1.00  0.00     0.032 C 
ATOM      8  C   UNL     1     -16.300  42.808  -4.187  1.00  0.00     0.014 C 
BRANCH   7   9
ATOM      9  C   UNL     1     -17.976  40.972  -4.270  1.00  0.00     0.044 C 
ATOM     10  O   UNL     1     -16.980  40.206  -4.356  1.00  0.00    -0.550 OA
ATOM     11  O   UNL     1     -19.252  40.430  -4.193  1.00  0.00    -0.550 OA
ENDBRANCH   7   9
ENDBRANCH   6   7
ENDBRANCH   5   6
ENDBRANCH   4   5
ENDBRANCH   3   4
ENDBRANCH   2   3
ENDBRANCH   1   2
BRANCH   1  12
ATOM     12  C   UNL     1     -23.282  44.779  -8.806  1.00  0.00     0.000 C 
BRANCH  12  13
ATOM     13  C   UNL     1     -24.277  44.295  -7.735  1.00  0.00    -0.000 C 
BRANCH  13  14
ATOM     14  C   UNL     1     -23.659  44.273  -6.328  1.00  0.00    -0.000 C 
BRANCH  14  15
ATOM     15  C   UNL     1     -23.492  42.846  -5.777  1.00  0.00    -0.000 C 
BRANCH  15  16
ATOM     16  C   UNL     1     -22.095  42.262  -6.077  1.00  0.00    -0.000 C 
BRANCH  16  17
ATOM     17  C   UNL     1     -22.072  40.729  -6.225  1.00  0.00    -0.000 C 
BRANCH  17  18
ATOM     18  C   UNL     1     -21.680  40.239  -7.633  1.00  0.00    -0.003 C 
ATOM     19  C   UNL     1     -22.120  41.202  -8.735  1.00  0.00     0.004 C 
ENDBRANCH  17  18
ENDBRANCH  16  17
ENDBRANCH  15  16
ENDBRANCH  14  15
ENDBRANCH  13  14
ENDBRANCH  12  13
ENDBRANCH   1  12
TORSDOF 14
ENDMDL
MODEL 7
REMARK VINA RESULT:    -5.468     11.512     13.577
REMARK INTER + INTRA:         -11.559
REMARK INTER:                  -9.506
REMARK INTRA:                  -2.053
REMARK UNBOUND:                -1.616
REMARK SMILES CCCCCCCCCCCCCC[C@H](C)C(=O)[O-]
REMARK SMILES IDX 9 1 10 2 11 3 12 4 13 5 14 6 15 7 16 8 17 9 18 10 19 11 8 12
REMARK SMILES IDX 7 13 6 14 5 15 4 16 3 17 2 18 1 19
REMARK H PARENT
REMARK Flexibility Score: inf
ROOT
ATOM      1  C   UNL     1     -21.613  40.103  -6.784  1.00  0.00     0.000 C 
ENDROOT
BRANCH   1   2
ATOM      2  C   UNL     1     -21.181  40.398  -8.231  1.00  0.00     0.000 C 
BRANCH   2   3
ATOM      3  C   UNL     1     -19.768  39.875  -8.551  1.00  0.00     0.000 C 
BRANCH   3   4
ATOM      4  C   UNL     1     -18.614  40.639  -7.871  1.00  0.00     0.000 C 
BRANCH   4   5
ATOM      5  C   UNL     1     -17.983  39.933  -6.657  1.00  0.00     0.001 C 
BRANCH   5   6
ATOM      6  C   UNL     1     -17.112  40.872  -5.806  1.00  0.00     0.009 C 
BRANCH   6   7
ATOM      7  C   UNL     1     -17.586  40.930  -4.338  1.00  0.00     0.032 C 
ATOM      8  C   UNL     1     -19.104  40.731  -4.250  1.00  0.00     0.014 C 
BRANCH   7   9
ATOM      9  C   UNL     1     -17.202  42.231  -3.684  1.00  0.00     0.044 C 
ATOM     10  O   UNL     1     -18.022  42.848  -2.954  1.00  0.00    -0.550 OA
ATOM     11  O   UNL     1     -15.931  42.756  -3.882  1.00  0.00    -0.550 OA
ENDBRANCH   7   9
ENDBRANCH   6   7
ENDBRANCH   5   6
ENDBRANCH   4   5
ENDBRANCH   3   4
ENDBRANCH   2   3
ENDBRANCH   1   2
BRANCH   1  12
ATOM     12  C   UNL     1     -23.065  40.523  -6.506  1.00  0.00     0.000 C 
BRANCH  12  13
ATOM     13  C   UNL     1     -23.343  41.986  -6.895  1.00  0.00    -0.000 C 
BRANCH  13  14
ATOM     14  C   UNL     1     -23.011  42.968  -5.759  1.00  0.00    -0.000 C 
BRANCH  14  15
ATOM     15  C   UNL     1     -22.293  44.234  -6.261  1.00  0.00    -0.000 C 
BRANCH  15  16
ATOM     16  C   UNL     1     -21.761  44.073  -7.700  1.00  0.00    -0.000 C 
BRANCH  16  17
ATOM     17  C   UNL     1     -20.321  44.583  -7.899  1.00  0.00    -0.000 C 
BRANCH  17  18
ATOM     18  C   UNL     1     -19.256  43.775  -7.132  1.00  0.00    -0.003 C 
ATOM     19  C   UNL     1     -18.597  44.583  -6.014  1.00  0.00     0.004 C 
ENDBRANCH  17  18
ENDBRANCH  16  17
ENDBRANCH  15  16
ENDBRANCH  14  15
ENDBRANCH  13  14
ENDBRANCH  12  13
ENDBRANCH   1  12
TORSDOF 14
ENDMDL
MODEL 8
REMARK VINA RESULT:    -5.433     11.873     14.335
REMARK INTER + INTRA:         -11.496
REMARK INTER:                  -8.910
REMARK INTRA:                  -2.586
REMARK UNBOUND:                -1.616
REMARK SMILES CCCCCCCCCCCCCC[C@H](C)C(=O)[O-]
REMARK SMILES IDX 9 1 10 2 11 3 12 4 13 5 14 6 15 7 16 8 17 9 18 10 19 11 8 12
REMARK SMILES IDX 7 13 6 14 5 15 4 16 3 17 2 18 1 19
REMARK H PARENT
REMARK Flexibility Score: inf
ROOT
ATOM      1  C   UNL     1     -23.349  43.544  -8.468  1.00  0.00     0.000 C 
ENDROOT
BRANCH   1   2
ATOM      2  C   UNL     1     -21.922  43.999  -8.821  1.00  0.00     0.000 C 
BRANCH   2   3
ATOM      3  C   UNL     1     -21.088  44.363  -7.578  1.00  0.00     0.000 C 
BRANCH   3   4
ATOM      4  C   UNL     1     -19.705  43.686  -7.494  1.00  0.00     0.000 C 
BRANCH   4   5
ATOM      5  C   UNL     1     -19.277  43.241  -6.083  1.00  0.00     0.001 C 
BRANCH   5   6
ATOM      6  C   UNL     1     -17.814  42.769  -6.024  1.00  0.00     0.009 C 
BRANCH   6   7
ATOM      7  C   UNL     1     -17.655  41.478  -5.192  1.00  0.00     0.032 C 
ATOM      8  C   UNL     1     -18.998  41.058  -4.583  1.00  0.00     0.014 C 
BRANCH   7   9
ATOM      9  C   UNL     1     -16.629  41.646  -4.102  1.00  0.00     0.044 C 
ATOM     10  O   UNL     1     -16.338  40.685  -3.343  1.00  0.00    -0.550 OA
ATOM     11  O   UNL     1     -15.994  42.869  -3.933  1.00  0.00    -0.550 OA
ENDBRANCH   7   9
ENDBRANCH   6   7
ENDBRANCH   5   6
ENDBRANCH   4   5
ENDBRANCH   3   4
ENDBRANCH   2   3
ENDBRANCH   1   2
BRANCH   1  12
ATOM     12  C   UNL     1     -23.545  43.340  -6.957  1.00  0.00     0.000 C 
BRANCH  12  13
ATOM     13  C   UNL     1     -23.674  41.855  -6.572  1.00  0.00    -0.000 C 
BRANCH  13  14
ATOM     14  C   UNL     1     -22.336  41.249  -6.120  1.00  0.00    -0.000 C 
BRANCH  14  15
ATOM     15  C   UNL     1     -21.934  40.016  -6.950  1.00  0.00    -0.000 C 
BRANCH  15  16
ATOM     16  C   UNL     1     -21.281  40.403  -8.293  1.00  0.00    -0.000 C 
BRANCH  16  17
ATOM     17  C   UNL     1     -20.110  39.493  -8.709  1.00  0.00    -0.000 C 
BRANCH  17  18
ATOM     18  C   UNL     1     -18.717  40.111  -8.474  1.00  0.00    -0.003 C 
ATOM     19  C   UNL     1     -17.705  39.096  -7.943  1.00  0.00     0.004 C 
ENDBRANCH  17  18
ENDBRANCH  16  17
ENDBRANCH  15  16
ENDBRANCH  14  15
ENDBRANCH  13  14
ENDBRANCH  12  13
ENDBRANCH   1  12
TORSDOF 14
ENDMDL
MODEL 9
REMARK VINA RESULT:    -5.376     12.333     14.280
REMARK INTER + INTRA:         -11.392
REMARK INTER:                  -9.170
REMARK INTRA:                  -2.222
REMARK UNBOUND:                -1.616
REMARK SMILES CCCCCCCCCCCCCC[C@H](C)C(=O)[O-]
REMARK SMILES IDX 9 1 10 2 11 3 12 4 13 5 14 6 15 7 16 8 17 9 18 10 19 11 8 12
REMARK SMILES IDX 7 13 6 14 5 15 4 16 3 17 2 18 1 19
REMARK H PARENT
REMARK Flexibility Score: inf
ROOT
ATOM      1  C   UNL     1     -21.822  40.673  -6.375  1.00  0.00     0.000 C 
ENDROOT
BRANCH   1   2
ATOM      2  C   UNL     1     -21.220  40.015  -7.629  1.00  0.00     0.000 C 
BRANCH   2   3
ATOM      3  C   UNL     1     -21.337  40.902  -8.882  1.00  0.00     0.000 C 
BRANCH   3   4
ATOM      4  C   UNL     1     -20.406  42.131  -8.908  1.00  0.00     0.000 C 
BRANCH   4   5
ATOM      5  C   UNL     1     -18.983  41.888  -8.372  1.00  0.00     0.001 C 
BRANCH   5   6
ATOM      6  C   UNL     1     -18.678  42.698  -7.100  1.00  0.00     0.009 C 
BRANCH   6   7
ATOM      7  C   UNL     1     -17.804  41.905  -6.104  1.00  0.00     0.032 C 
ATOM      8  C   UNL     1     -17.788  40.415  -6.465  1.00  0.00     0.014 C 
BRANCH   7   9
ATOM      9  C   UNL     1     -18.283  42.082  -4.687  1.00  0.00     0.044 C 
ATOM     10  O   UNL     1     -17.944  43.094  -4.018  1.00  0.00    -0.550 OA
ATOM     11  O   UNL     1     -19.108  41.125  -4.111  1.00  0.00    -0.550 OA
ENDBRANCH   7   9
ENDBRANCH   6   7
ENDBRANCH   5   6
ENDBRANCH   4   5
ENDBRANCH   3   4
ENDBRANCH   2   3
ENDBRANCH   1   2
BRANCH   1  12
ATOM     12  C   UNL     1     -23.329  40.940  -6.517  1.00  0.00     0.000 C 
BRANCH  12  13
ATOM     13  C   UNL     1     -23.669  42.441  -6.490  1.00  0.00    -0.000 C 
BRANCH  13  14
ATOM     14  C   UNL     1     -22.662  43.256  -5.663  1.00  0.00    -0.000 C 
BRANCH  14  15
ATOM     15  C   UNL     1     -21.967  44.354  -6.490  1.00  0.00    -0.000 C 
BRANCH  15  16
ATOM     16  C   UNL     1     -22.976  45.305  -7.166  1.00  0.00    -0.000 C 
BRANCH  16  17
ATOM     17  C   UNL     1     -23.754  46.200  -6.182  1.00  0.00    -0.000 C 
BRANCH  17  18
ATOM     18  C   UNL     1     -25.280  45.986  -6.208  1.00  0.00    -0.003 C 
ATOM     19  C   UNL     1     -25.762  45.346  -7.510  1.00  0.00     0.004 C 
ENDBRANCH  17  18
ENDBRANCH  16  17
ENDBRANCH  15  16
ENDBRANCH  14  15
ENDBRANCH  13  14
ENDBRANCH  12  13
ENDBRANCH   1  12
TORSDOF 14
ENDMDL
