MODEL 1
REMARK VINA RESULT:    -4.137      0.000      0.000
REMARK INTER + INTRA:          -7.676
REMARK INTER:                  -6.434
REMARK INTRA:                  -1.242
REMARK UNBOUND:                -1.242
REMARK SMILES COc1cc(CNC(=O)CCCCC=CC(C)C)ccc1O
REMARK SMILES IDX 11 1 12 2 13 3 14 4 15 5 16 6 17 7 18 8 10 9 8 10 9 11 7 12
REMARK SMILES IDX 6 14 5 15 4 16 19 17 3 18 20 19 21 20 2 21 1 22 22 23
REMARK H PARENT 7 13 22 24
REMARK Flexibility Score: inf
ROOT
ATOM      1  C   UNL     1     206.985 191.525 206.543  1.00  0.00     0.010 C 
ENDROOT
BRANCH   1   2
ATOM      2  C   UNL     1     208.422 191.966 206.857  1.00  0.00     0.005 C 
BRANCH   2   3
ATOM      3  C   UNL     1     208.943 191.286 208.127  1.00  0.00     0.027 C 
BRANCH   3   4
ATOM      4  C   UNL     1     209.775 192.251 208.933  1.00  0.00    -0.031 C 
ATOM      5  C   UNL     1     209.353 193.020 209.960  1.00  0.00    -0.028 C 
BRANCH   5   6
ATOM      6  C   UNL     1     207.989 193.031 210.629  1.00  0.00     0.005 C 
ATOM      7  C   UNL     1     208.048 193.066 212.162  1.00  0.00     0.012 C 
ATOM      8  C   UNL     1     207.064 194.108 210.053  1.00  0.00     0.012 C 
ENDBRANCH   5   6
ENDBRANCH   3   4
ENDBRANCH   2   3
ENDBRANCH   1   2
BRANCH   1   9
ATOM      9  C   UNL     1     206.181 191.225 207.815  1.00  0.00     0.100 C 
BRANCH   9  10
ATOM     10  C   UNL     1     204.874 191.964 207.825  1.00  0.00     0.220 C 
ATOM     11  O   UNL     1     204.849 193.182 207.502  1.00  0.00    -0.275 OA
ATOM     12  N   UNL     1     203.657 191.276 208.152  1.00  0.00    -0.352 N 
ATOM     13  H   UNL     1     203.700 190.266 208.414  1.00  0.00     0.163 HD
BRANCH  12  14
ATOM     14  C   UNL     1     202.347 191.916 208.060  1.00  0.00     0.151 C 
BRANCH  14  15
ATOM     15  C   UNL     1     201.730 192.047 209.426  1.00  0.00    -0.025 A 
ATOM     16  C   UNL     1     200.357 191.819 209.600  1.00  0.00     0.056 A 
ATOM     17  C   UNL     1     202.522 192.376 210.536  1.00  0.00     0.009 A 
ATOM     18  C   UNL     1     199.769 191.923 210.878  1.00  0.00     0.160 A 
ATOM     19  C   UNL     1     201.946 192.480 211.804  1.00  0.00     0.050 A 
ATOM     20  C   UNL     1     200.577 192.258 211.980  1.00  0.00     0.157 A 
BRANCH  18  21
ATOM     21  O   UNL     1     198.397 191.701 211.085  1.00  0.00    -0.493 OA
ATOM     22  C   UNL     1     197.808 190.420 211.288  1.00  0.00     0.278 C 
ENDBRANCH  18  21
BRANCH  20  23
ATOM     23  O   UNL     1     200.036 192.372 213.261  1.00  0.00    -0.504 OA
ATOM     24  H   UNL     1     200.585 192.207 214.096  1.00  0.00     0.293 HD
ENDBRANCH  20  23
ENDBRANCH  14  15
ENDBRANCH  12  14
ENDBRANCH   9  10
ENDBRANCH   1   9
TORSDOF 10
ENDMDL
MODEL 2
REMARK VINA RESULT:    -4.038      2.405      4.619
REMARK INTER + INTRA:          -7.522
REMARK INTER:                  -6.198
REMARK INTRA:                  -1.324
REMARK UNBOUND:                -1.242
REMARK SMILES COc1cc(CNC(=O)CCCCC=CC(C)C)ccc1O
REMARK SMILES IDX 11 1 12 2 13 3 14 4 15 5 16 6 17 7 18 8 10 9 8 10 9 11 7 12
REMARK SMILES IDX 6 14 5 15 4 16 19 17 3 18 20 19 21 20 2 21 1 22 22 23
REMARK H PARENT 7 13 22 24
REMARK Flexibility Score: inf
ROOT
ATOM      1  C   UNL     1     205.057 192.599 210.652  1.00  0.00     0.010 C 
ENDROOT
BRANCH   1   2
ATOM      2  C   UNL     1     206.439 192.955 210.084  1.00  0.00     0.005 C 
BRANCH   2   3
ATOM      3  C   UNL     1     206.409 193.012 208.554  1.00  0.00     0.027 C 
BRANCH   3   4
ATOM      4  C   UNL     1     206.423 191.619 207.978  1.00  0.00    -0.031 C 
ATOM      5  C   UNL     1     205.431 191.021 207.284  1.00  0.00    -0.028 C 
BRANCH   5   6
ATOM      6  C   UNL     1     204.116 191.621 206.815  1.00  0.00     0.005 C 
ATOM      7  C   UNL     1     203.656 191.116 205.441  1.00  0.00     0.012 C 
ATOM      8  C   UNL     1     203.015 191.517 207.877  1.00  0.00     0.012 C 
ENDBRANCH   5   6
ENDBRANCH   3   4
ENDBRANCH   2   3
ENDBRANCH   1   2
BRANCH   1   9
ATOM      9  C   UNL     1     204.174 193.838 210.847  1.00  0.00     0.100 C 
BRANCH   9  10
ATOM     10  C   UNL     1     202.980 193.532 211.704  1.00  0.00     0.220 C 
ATOM     11  O   UNL     1     202.834 194.138 212.800  1.00  0.00    -0.275 OA
ATOM     12  N   UNL     1     201.989 192.596 211.256  1.00  0.00    -0.352 N 
ATOM     13  H   UNL     1     202.128 192.107 210.343  1.00  0.00     0.163 HD
BRANCH  12  14
ATOM     14  C   UNL     1     200.752 192.353 211.992  1.00  0.00     0.151 C 
BRANCH  14  15
ATOM     15  C   UNL     1     199.673 191.869 211.061  1.00  0.00    -0.025 A 
ATOM     16  C   UNL     1     199.825 192.019 209.674  1.00  0.00     0.056 A 
ATOM     17  C   UNL     1     198.521 191.250 211.566  1.00  0.00     0.009 A 
ATOM     18  C   UNL     1     198.829 191.556 208.789  1.00  0.00     0.160 A 
ATOM     19  C   UNL     1     197.531 190.790 210.696  1.00  0.00     0.050 A 
ATOM     20  C   UNL     1     197.678 190.940 209.314  1.00  0.00     0.157 A 
BRANCH  18  21
ATOM     21  O   UNL     1     198.952 191.690 207.397  1.00  0.00    -0.493 OA
ATOM     22  C   UNL     1     199.628 190.763 206.552  1.00  0.00     0.278 C 
ENDBRANCH  18  21
BRANCH  20  23
ATOM     23  O   UNL     1     196.668 190.469 208.475  1.00  0.00    -0.504 OA
ATOM     24  H   UNL     1     195.877 189.940 208.823  1.00  0.00     0.293 HD
ENDBRANCH  20  23
ENDBRANCH  14  15
ENDBRANCH  12  14
ENDBRANCH   9  10
ENDBRANCH   1   9
TORSDOF 10
ENDMDL
MODEL 3
REMARK VINA RESULT:    -3.967      4.092      6.092
REMARK INTER + INTRA:          -7.412
REMARK INTER:                  -6.079
REMARK INTRA:                  -1.333
REMARK UNBOUND:                -1.242
REMARK SMILES COc1cc(CNC(=O)CCCCC=CC(C)C)ccc1O
REMARK SMILES IDX 11 1 12 2 13 3 14 4 15 5 16 6 17 7 18 8 10 9 8 10 9 11 7 12
REMARK SMILES IDX 6 14 5 15 4 16 19 17 3 18 20 19 21 20 2 21 1 22 22 23
REMARK H PARENT 7 13 22 24
REMARK Flexibility Score: inf
ROOT
ATOM      1  C   UNL     1     203.217 192.877 210.880  1.00  0.00     0.010 C 
ENDROOT
BRANCH   1   2
ATOM      2  C   UNL     1     203.092 193.644 209.555  1.00  0.00     0.005 C 
BRANCH   2   3
ATOM      3  C   UNL     1     202.050 192.995 208.638  1.00  0.00     0.027 C 
BRANCH   3   4
ATOM      4  C   UNL     1     202.618 191.754 207.998  1.00  0.00    -0.031 C 
ATOM      5  C   UNL     1     202.271 191.229 206.803  1.00  0.00    -0.028 C 
BRANCH   5   6
ATOM      6  C   UNL     1     201.320 191.802 205.765  1.00  0.00     0.005 C 
ATOM      7  C   UNL     1     201.863 191.755 204.331  1.00  0.00     0.012 C 
ATOM      8  C   UNL     1     199.909 191.214 205.877  1.00  0.00     0.012 C 
ENDBRANCH   5   6
ENDBRANCH   3   4
ENDBRANCH   2   3
ENDBRANCH   1   2
BRANCH   1   9
ATOM      9  C   UNL     1     202.951 193.773 212.096  1.00  0.00     0.100 C 
BRANCH   9  10
ATOM     10  C   UNL     1     201.506 193.732 212.502  1.00  0.00     0.220 C 
ATOM     11  O   UNL     1     200.846 194.805 212.547  1.00  0.00    -0.275 OA
ATOM     12  N   UNL     1     200.871 192.478 212.789  1.00  0.00    -0.352 N 
ATOM     13  H   UNL     1     201.436 191.600 212.743  1.00  0.00     0.163 HD
BRANCH  12  14
ATOM     14  C   UNL     1     199.442 192.370 213.071  1.00  0.00     0.151 C 
BRANCH  14  15
ATOM     15  C   UNL     1     198.711 191.821 211.874  1.00  0.00    -0.025 A 
ATOM     16  C   UNL     1     197.486 191.159 212.044  1.00  0.00     0.056 A 
ATOM     17  C   UNL     1     199.237 191.982 210.585  1.00  0.00     0.009 A 
ATOM     18  C   UNL     1     196.784 190.654 210.930  1.00  0.00     0.160 A 
ATOM     19  C   UNL     1     198.547 191.484 209.477  1.00  0.00     0.050 A 
ATOM     20  C   UNL     1     197.327 190.822 209.643  1.00  0.00     0.157 A 
BRANCH  18  21
ATOM     21  O   UNL     1     195.555 189.988 211.067  1.00  0.00    -0.493 OA
ATOM     22  C   UNL     1     194.293 190.637 211.189  1.00  0.00     0.278 C 
ENDBRANCH  18  21
BRANCH  20  23
ATOM     23  O   UNL     1     196.666 190.336 208.514  1.00  0.00    -0.504 OA
ATOM     24  H   UNL     1     195.737 189.935 208.562  1.00  0.00     0.293 HD
ENDBRANCH  20  23
ENDBRANCH  14  15
ENDBRANCH  12  14
ENDBRANCH   9  10
ENDBRANCH   1   9
TORSDOF 10
ENDMDL
MODEL 4
REMARK VINA RESULT:    -3.966      2.931      4.597
REMARK INTER + INTRA:          -7.410
REMARK INTER:                  -6.354
REMARK INTRA:                  -1.056
REMARK UNBOUND:                -1.242
REMARK SMILES COc1cc(CNC(=O)CCCCC=CC(C)C)ccc1O
REMARK SMILES IDX 11 1 12 2 13 3 14 4 15 5 16 6 17 7 18 8 10 9 8 10 9 11 7 12
REMARK SMILES IDX 6 14 5 15 4 16 19 17 3 18 20 19 21 20 2 21 1 22 22 23
REMARK H PARENT 7 13 22 24
REMARK Flexibility Score: inf
ROOT
ATOM      1  C   UNL     1     203.957 194.037 211.051  1.00  0.00     0.010 C 
ENDROOT
BRANCH   1   2
ATOM      2  C   UNL     1     204.996 192.917 210.889  1.00  0.00     0.005 C 
BRANCH   2   3
ATOM      3  C   UNL     1     206.392 193.493 210.630  1.00  0.00     0.027 C 
BRANCH   3   4
ATOM      4  C   UNL     1     207.417 192.776 211.470  1.00  0.00    -0.031 C 
ATOM      5  C   UNL     1     208.233 193.326 212.396  1.00  0.00    -0.028 C 
BRANCH   5   6
ATOM      6  C   UNL     1     208.250 194.759 212.902  1.00  0.00     0.005 C 
ATOM      7  C   UNL     1     207.079 195.106 213.830  1.00  0.00     0.012 C 
ATOM      8  C   UNL     1     209.607 195.152 213.497  1.00  0.00     0.012 C 
ENDBRANCH   5   6
ENDBRANCH   3   4
ENDBRANCH   2   3
ENDBRANCH   1   2
BRANCH   1   9
ATOM      9  C   UNL     1     203.641 194.325 212.524  1.00  0.00     0.100 C 
BRANCH   9  10
ATOM     10  C   UNL     1     202.182 194.129 212.821  1.00  0.00     0.220 C 
ATOM     11  O   UNL     1     201.509 195.093 213.274  1.00  0.00    -0.275 OA
ATOM     12  N   UNL     1     201.551 192.870 212.545  1.00  0.00    -0.352 N 
ATOM     13  H   UNL     1     202.128 192.085 212.167  1.00  0.00     0.163 HD
BRANCH  12  14
ATOM     14  C   UNL     1     200.114 192.664 212.702  1.00  0.00     0.151 C 
BRANCH  14  15
ATOM     15  C   UNL     1     199.518 192.132 211.426  1.00  0.00    -0.025 A 
ATOM     16  C   UNL     1     200.126 192.421 210.194  1.00  0.00     0.056 A 
ATOM     17  C   UNL     1     198.368 191.331 211.457  1.00  0.00     0.009 A 
ATOM     18  C   UNL     1     199.587 191.916 208.993  1.00  0.00     0.160 A 
ATOM     19  C   UNL     1     197.829 190.828 210.271  1.00  0.00     0.050 A 
ATOM     20  C   UNL     1     198.430 191.117 209.043  1.00  0.00     0.157 A 
BRANCH  18  21
ATOM     21  O   UNL     1     200.171 192.187 207.745  1.00  0.00    -0.493 OA
ATOM     22  C   UNL     1     201.438 191.691 207.321  1.00  0.00     0.278 C 
ENDBRANCH  18  21
BRANCH  20  23
ATOM     23  O   UNL     1     197.863 190.598 207.878  1.00  0.00    -0.504 OA
ATOM     24  H   UNL     1     196.972 190.921 207.520  1.00  0.00     0.293 HD
ENDBRANCH  20  23
ENDBRANCH  14  15
ENDBRANCH  12  14
ENDBRANCH   9  10
ENDBRANCH   1   9
TORSDOF 10
ENDMDL
MODEL 5
REMARK VINA RESULT:    -3.950      2.339      4.412
REMARK INTER + INTRA:          -7.385
REMARK INTER:                  -6.036
REMARK INTRA:                  -1.349
REMARK UNBOUND:                -1.242
REMARK SMILES COc1cc(CNC(=O)CCCCC=CC(C)C)ccc1O
REMARK SMILES IDX 11 1 12 2 13 3 14 4 15 5 16 6 17 7 18 8 10 9 8 10 9 11 7 12
REMARK SMILES IDX 6 14 5 15 4 16 19 17 3 18 20 19 21 20 2 21 1 22 22 23
REMARK H PARENT 7 13 22 24
REMARK Flexibility Score: inf
ROOT
ATOM      1  C   UNL     1     208.378 193.140 209.375  1.00  0.00     0.010 C 
ENDROOT
BRANCH   1   2
ATOM      2  C   UNL     1     208.749 193.279 210.859  1.00  0.00     0.005 C 
BRANCH   2   3
ATOM      3  C   UNL     1     207.525 193.071 211.755  1.00  0.00     0.027 C 
BRANCH   3   4
ATOM      4  C   UNL     1     206.287 192.889 210.915  1.00  0.00    -0.031 C 
ATOM      5  C   UNL     1     205.086 193.476 211.107  1.00  0.00    -0.028 C 
BRANCH   5   6
ATOM      6  C   UNL     1     204.709 194.536 212.128  1.00  0.00     0.005 C 
ATOM      7  C   UNL     1     204.987 195.973 211.667  1.00  0.00     0.012 C 
ATOM      8  C   UNL     1     203.282 194.356 212.658  1.00  0.00     0.012 C 
ENDBRANCH   5   6
ENDBRANCH   3   4
ENDBRANCH   2   3
ENDBRANCH   1   2
BRANCH   1   9
ATOM      9  C   UNL     1     209.141 191.998 208.692  1.00  0.00     0.100 C 
BRANCH   9  10
ATOM     10  C   UNL     1     208.364 191.433 207.537  1.00  0.00     0.220 C 
ATOM     11  O   UNL     1     208.983 190.895 206.580  1.00  0.00    -0.275 OA
ATOM     12  N   UNL     1     206.929 191.461 207.548  1.00  0.00    -0.352 N 
ATOM     13  H   UNL     1     206.436 191.910 208.352  1.00  0.00     0.163 HD
BRANCH  12  14
ATOM     14  C   UNL     1     206.126 190.820 206.510  1.00  0.00     0.151 C 
BRANCH  14  15
ATOM     15  C   UNL     1     204.663 191.091 206.738  1.00  0.00    -0.025 A 
ATOM     16  C   UNL     1     204.225 191.578 207.978  1.00  0.00     0.056 A 
ATOM     17  C   UNL     1     203.733 190.878 205.711  1.00  0.00     0.009 A 
ATOM     18  C   UNL     1     202.859 191.851 208.199  1.00  0.00     0.160 A 
ATOM     19  C   UNL     1     202.378 191.146 205.923  1.00  0.00     0.050 A 
ATOM     20  C   UNL     1     201.937 191.629 207.159  1.00  0.00     0.157 A 
BRANCH  18  21
ATOM     21  O   UNL     1     202.388 192.340 209.429  1.00  0.00    -0.493 OA
ATOM     22  C   UNL     1     201.948 191.522 210.509  1.00  0.00     0.278 C 
ENDBRANCH  18  21
BRANCH  20  23
ATOM     23  O   UNL     1     200.577 191.884 207.335  1.00  0.00    -0.504 OA
ATOM     24  H   UNL     1     199.998 192.263 206.596  1.00  0.00     0.293 HD
ENDBRANCH  20  23
ENDBRANCH  14  15
ENDBRANCH  12  14
ENDBRANCH   9  10
ENDBRANCH   1   9
TORSDOF 10
ENDMDL
MODEL 6
REMARK VINA RESULT:    -3.947      2.790      4.185
REMARK INTER + INTRA:          -7.381
REMARK INTER:                  -6.126
REMARK INTRA:                  -1.254
REMARK UNBOUND:                -1.242
REMARK SMILES COc1cc(CNC(=O)CCCCC=CC(C)C)ccc1O
REMARK SMILES IDX 11 1 12 2 13 3 14 4 15 5 16 6 17 7 18 8 10 9 8 10 9 11 7 12
REMARK SMILES IDX 6 14 5 15 4 16 19 17 3 18 20 19 21 20 2 21 1 22 22 23
REMARK H PARENT 7 13 22 24
REMARK Flexibility Score: inf
ROOT
ATOM      1  C   UNL     1     203.721 194.416 210.652  1.00  0.00     0.010 C 
ENDROOT
BRANCH   1   2
ATOM      2  C   UNL     1     204.223 193.208 209.848  1.00  0.00     0.005 C 
BRANCH   2   3
ATOM      3  C   UNL     1     205.277 192.422 210.634  1.00  0.00     0.027 C 
BRANCH   3   4
ATOM      4  C   UNL     1     206.654 192.709 210.094  1.00  0.00    -0.031 C 
ATOM      5  C   UNL     1     207.670 193.313 210.748  1.00  0.00    -0.028 C 
BRANCH   5   6
ATOM      6  C   UNL     1     207.724 193.750 212.203  1.00  0.00     0.005 C 
ATOM      7  C   UNL     1     209.103 193.576 212.854  1.00  0.00     0.012 C 
ATOM      8  C   UNL     1     207.149 195.155 212.414  1.00  0.00     0.012 C 
ENDBRANCH   5   6
ENDBRANCH   3   4
ENDBRANCH   2   3
ENDBRANCH   1   2
BRANCH   1   9
ATOM      9  C   UNL     1     203.544 194.087 212.141  1.00  0.00     0.100 C 
BRANCH   9  10
ATOM     10  C   UNL     1     202.098 193.886 212.491  1.00  0.00     0.220 C 
ATOM     11  O   UNL     1     201.395 194.882 212.813  1.00  0.00    -0.275 OA
ATOM     12  N   UNL     1     201.510 192.579 212.412  1.00  0.00    -0.352 N 
ATOM     13  H   UNL     1     202.110 191.768 212.140  1.00  0.00     0.163 HD
BRANCH  12  14
ATOM     14  C   UNL     1     200.084 192.348 212.624  1.00  0.00     0.151 C 
BRANCH  14  15
ATOM     15  C   UNL     1     199.429 191.898 211.346  1.00  0.00    -0.025 A 
ATOM     16  C   UNL     1     198.091 191.475 211.354  1.00  0.00     0.056 A 
ATOM     17  C   UNL     1     200.141 191.914 210.138  1.00  0.00     0.009 A 
ATOM     18  C   UNL     1     197.462 191.066 210.160  1.00  0.00     0.160 A 
ATOM     19  C   UNL     1     199.524 191.509 208.953  1.00  0.00     0.050 A 
ATOM     20  C   UNL     1     198.192 191.085 208.957  1.00  0.00     0.157 A 
BRANCH  18  21
ATOM     21  O   UNL     1     196.124 190.639 210.135  1.00  0.00    -0.493 OA
ATOM     22  C   UNL     1     195.385 190.228 211.281  1.00  0.00     0.278 C 
ENDBRANCH  18  21
BRANCH  20  23
ATOM     23  O   UNL     1     197.608 190.687 207.755  1.00  0.00    -0.504 OA
ATOM     24  H   UNL     1     197.620 189.724 207.440  1.00  0.00     0.293 HD
ENDBRANCH  20  23
ENDBRANCH  14  15
ENDBRANCH  12  14
ENDBRANCH   9  10
ENDBRANCH   1   9
TORSDOF 10
ENDMDL
MODEL 7
REMARK VINA RESULT:    -3.894      1.601      2.166
REMARK INTER + INTRA:          -7.298
REMARK INTER:                  -5.906
REMARK INTRA:                  -1.392
REMARK UNBOUND:                -1.242
REMARK SMILES COc1cc(CNC(=O)CCCCC=CC(C)C)ccc1O
REMARK SMILES IDX 11 1 12 2 13 3 14 4 15 5 16 6 17 7 18 8 10 9 8 10 9 11 7 12
REMARK SMILES IDX 6 14 5 15 4 16 19 17 3 18 20 19 21 20 2 21 1 22 22 23
REMARK H PARENT 7 13 22 24
REMARK Flexibility Score: inf
ROOT
ATOM      1  C   UNL     1     205.952 191.293 207.834  1.00  0.00     0.010 C 
ENDROOT
BRANCH   1   2
ATOM      2  C   UNL     1     207.153 192.246 207.924  1.00  0.00     0.005 C 
BRANCH   2   3
ATOM      3  C   UNL     1     207.043 193.156 209.151  1.00  0.00     0.027 C 
BRANCH   3   4
ATOM      4  C   UNL     1     206.066 192.581 210.143  1.00  0.00    -0.031 C 
ATOM      5  C   UNL     1     205.498 193.225 211.186  1.00  0.00    -0.028 C 
BRANCH   5   6
ATOM      6  C   UNL     1     205.608 194.695 211.557  1.00  0.00     0.005 C 
ATOM      7  C   UNL     1     204.270 195.342 211.937  1.00  0.00     0.012 C 
ATOM      8  C   UNL     1     206.702 194.955 212.599  1.00  0.00     0.012 C 
ENDBRANCH   5   6
ENDBRANCH   3   4
ENDBRANCH   2   3
ENDBRANCH   1   2
BRANCH   1   9
ATOM      9  C   UNL     1     205.354 191.248 206.422  1.00  0.00     0.100 C 
BRANCH   9  10
ATOM     10  C   UNL     1     203.853 191.242 206.461  1.00  0.00     0.220 C 
ATOM     11  O   UNL     1     203.214 190.625 205.567  1.00  0.00    -0.275 OA
ATOM     12  N   UNL     1     203.155 191.891 207.534  1.00  0.00    -0.352 N 
ATOM     13  H   UNL     1     203.705 192.394 208.266  1.00  0.00     0.163 HD
BRANCH  12  14
ATOM     14  C   UNL     1     201.705 191.812 207.686  1.00  0.00     0.151 C 
BRANCH  14  15
ATOM     15  C   UNL     1     201.320 191.950 209.135  1.00  0.00    -0.025 A 
ATOM     16  C   UNL     1     199.990 191.741 209.530  1.00  0.00     0.056 A 
ATOM     17  C   UNL     1     202.287 192.266 210.100  1.00  0.00     0.009 A 
ATOM     18  C   UNL     1     199.620 191.851 210.886  1.00  0.00     0.160 A 
ATOM     19  C   UNL     1     201.926 192.378 211.444  1.00  0.00     0.050 A 
ATOM     20  C   UNL     1     200.602 192.173 211.842  1.00  0.00     0.157 A 
BRANCH  18  21
ATOM     21  O   UNL     1     198.298 191.648 211.314  1.00  0.00    -0.493 OA
ATOM     22  C   UNL     1     197.638 190.386 211.328  1.00  0.00     0.278 C 
ENDBRANCH  18  21
BRANCH  20  23
ATOM     23  O   UNL     1     200.278 192.294 213.193  1.00  0.00    -0.504 OA
ATOM     24  H   UNL     1     200.698 191.707 213.904  1.00  0.00     0.293 HD
ENDBRANCH  20  23
ENDBRANCH  14  15
ENDBRANCH  12  14
ENDBRANCH   9  10
ENDBRANCH   1   9
TORSDOF 10
ENDMDL
MODEL 8
REMARK VINA RESULT:    -3.851      2.357      4.466
REMARK INTER + INTRA:          -7.231
REMARK INTER:                  -5.507
REMARK INTRA:                  -1.725
REMARK UNBOUND:                -1.242
REMARK SMILES COc1cc(CNC(=O)CCCCC=CC(C)C)ccc1O
REMARK SMILES IDX 11 1 12 2 13 3 14 4 15 5 16 6 17 7 18 8 10 9 8 10 9 11 7 12
REMARK SMILES IDX 6 14 5 15 4 16 19 17 3 18 20 19 21 20 2 21 1 22 22 23
REMARK H PARENT 7 13 22 24
REMARK Flexibility Score: inf
ROOT
ATOM      1  C   UNL     1     207.323 194.083 210.204  1.00  0.00     0.010 C 
ENDROOT
BRANCH   1   2
ATOM      2  C   UNL     1     208.663 193.854 209.489  1.00  0.00     0.005 C 
BRANCH   2   3
ATOM      3  C   UNL     1     208.943 192.359 209.309  1.00  0.00     0.027 C 
BRANCH   3   4
ATOM      4  C   UNL     1     209.134 192.035 207.849  1.00  0.00    -0.031 C 
ATOM      5  C   UNL     1     208.172 191.704 206.961  1.00  0.00    -0.028 C 
BRANCH   5   6
ATOM      6  C   UNL     1     206.666 191.683 207.170  1.00  0.00     0.005 C 
ATOM      7  C   UNL     1     205.968 193.000 206.807  1.00  0.00     0.012 C 
ATOM      8  C   UNL     1     206.002 190.467 206.513  1.00  0.00     0.012 C 
ENDBRANCH   5   6
ENDBRANCH   3   4
ENDBRANCH   2   3
ENDBRANCH   1   2
BRANCH   1   9
ATOM      9  C   UNL     1     206.626 192.765 210.564  1.00  0.00     0.100 C 
BRANCH   9  10
ATOM     10  C   UNL     1     205.169 192.977 210.860  1.00  0.00     0.220 C 
ATOM     11  O   UNL     1     204.828 193.884 211.666  1.00  0.00    -0.275 OA
ATOM     12  N   UNL     1     204.173 192.187 210.194  1.00  0.00    -0.352 N 
ATOM     13  H   UNL     1     204.478 191.442 209.527  1.00  0.00     0.163 HD
BRANCH  12  14
ATOM     14  C   UNL     1     202.743 192.433 210.354  1.00  0.00     0.151 C 
BRANCH  14  15
ATOM     15  C   UNL     1     201.996 192.013 209.116  1.00  0.00    -0.025 A 
ATOM     16  C   UNL     1     202.703 191.646 207.962  1.00  0.00     0.056 A 
ATOM     17  C   UNL     1     200.595 191.967 209.113  1.00  0.00     0.009 A 
ATOM     18  C   UNL     1     202.017 191.235 206.801  1.00  0.00     0.160 A 
ATOM     19  C   UNL     1     199.909 191.561 207.966  1.00  0.00     0.050 A 
ATOM     20  C   UNL     1     200.610 191.197 206.813  1.00  0.00     0.157 A 
BRANCH  18  21
ATOM     21  O   UNL     1     202.695 190.860 205.630  1.00  0.00    -0.493 OA
ATOM     22  C   UNL     1     203.097 191.763 204.604  1.00  0.00     0.278 C 
ENDBRANCH  18  21
BRANCH  20  23
ATOM     23  O   UNL     1     199.891 190.799 205.685  1.00  0.00    -0.504 OA
ATOM     24  H   UNL     1     200.113 191.134 204.756  1.00  0.00     0.293 HD
ENDBRANCH  20  23
ENDBRANCH  14  15
ENDBRANCH  12  14
ENDBRANCH   9  10
ENDBRANCH   1   9
TORSDOF 10
ENDMDL
MODEL 9
REMARK VINA RESULT:    -3.825      4.336      6.774
REMARK INTER + INTRA:          -7.191
REMARK INTER:                  -4.770
REMARK INTRA:                  -2.421
REMARK UNBOUND:                -1.242
REMARK SMILES COc1cc(CNC(=O)CCCCC=CC(C)C)ccc1O
REMARK SMILES IDX 11 1 12 2 13 3 14 4 15 5 16 6 17 7 18 8 10 9 8 10 9 11 7 12
REMARK SMILES IDX 6 14 5 15 4 16 19 17 3 18 20 19 21 20 2 21 1 22 22 23
REMARK H PARENT 7 13 22 24
REMARK Flexibility Score: inf
ROOT
ATOM      1  C   UNL     1     205.540 194.823 211.356  1.00  0.00     0.010 C 
ENDROOT
BRANCH   1   2
ATOM      2  C   UNL     1     204.996 193.419 211.057  1.00  0.00     0.005 C 
BRANCH   2   3
ATOM      3  C   UNL     1     206.122 192.468 210.640  1.00  0.00     0.027 C 
BRANCH   3   4
ATOM      4  C   UNL     1     207.449 192.978 211.141  1.00  0.00    -0.031 C 
ATOM      5  C   UNL     1     208.591 193.093 210.431  1.00  0.00    -0.028 C 
BRANCH   5   6
ATOM      6  C   UNL     1     208.805 192.851 208.945  1.00  0.00     0.005 C 
ATOM      7  C   UNL     1     209.676 193.911 208.260  1.00  0.00     0.012 C 
ATOM      8  C   UNL     1     209.276 191.423 208.648  1.00  0.00     0.012 C 
ENDBRANCH   5   6
ENDBRANCH   3   4
ENDBRANCH   2   3
ENDBRANCH   1   2
BRANCH   1   9
ATOM      9  C   UNL     1     205.126 195.844 210.287  1.00  0.00     0.100 C 
BRANCH   9  10
ATOM     10  C   UNL     1     205.972 195.721 209.053  1.00  0.00     0.220 C 
ATOM     11  O   UNL     1     207.180 196.076 209.094  1.00  0.00    -0.275 OA
ATOM     12  N   UNL     1     205.422 195.157 207.853  1.00  0.00    -0.352 N 
ATOM     13  H   UNL     1     204.418 194.867 207.842  1.00  0.00     0.163 HD
BRANCH  12  14
ATOM     14  C   UNL     1     206.232 194.904 206.665  1.00  0.00     0.151 C 
BRANCH  14  15
ATOM     15  C   UNL     1     206.358 193.424 206.421  1.00  0.00    -0.025 A 
ATOM     16  C   UNL     1     207.344 192.938 205.549  1.00  0.00     0.056 A 
ATOM     17  C   UNL     1     205.508 192.521 207.075  1.00  0.00     0.009 A 
ATOM     18  C   UNL     1     207.483 191.553 205.325  1.00  0.00     0.160 A 
ATOM     19  C   UNL     1     205.639 191.148 206.856  1.00  0.00     0.050 A 
ATOM     20  C   UNL     1     206.619 190.661 205.986  1.00  0.00     0.157 A 
BRANCH  18  21
ATOM     21  O   UNL     1     208.460 191.035 204.459  1.00  0.00    -0.493 OA
ATOM     22  C   UNL     1     209.842 191.376 204.504  1.00  0.00     0.278 C 
ENDBRANCH  18  21
BRANCH  20  23
ATOM     23  O   UNL     1     206.721 189.283 205.792  1.00  0.00    -0.504 OA
ATOM     24  H   UNL     1     207.504 188.862 205.308  1.00  0.00     0.293 HD
ENDBRANCH  20  23
ENDBRANCH  14  15
ENDBRANCH  12  14
ENDBRANCH   9  10
ENDBRANCH   1   9
TORSDOF 10
ENDMDL
