MODEL 1
REMARK VINA RESULT:    -4.861      0.000      0.000
REMARK INTER + INTRA:          -7.986
REMARK INTER:                  -7.419
REMARK INTRA:                  -0.568
REMARK UNBOUND:                -0.568
REMARK SMILES CCCCCCCCCCC(=O)[O-]
REMARK SMILES IDX 7 1 8 2 9 3 10 4 11 5 12 6 13 7 6 8 5 9 4 10 3 11 2 12 1 13
REMARK H PARENT
REMARK Flexibility Score: inf
ROOT
ATOM      1  C   UNL     1      15.188  16.545  62.100  1.00  0.00     0.000 C 
ENDROOT
BRANCH   1   2
ATOM      2  C   UNL     1      14.529  15.468  62.983  1.00  0.00     0.000 C 
BRANCH   2   3
ATOM      3  C   UNL     1      14.525  14.046  62.386  1.00  0.00     0.006 C 
BRANCH   3   4
ATOM      4  C   UNL     1      13.477  13.101  62.994  1.00  0.00     0.053 C 
BRANCH   4   5
ATOM      5  C   UNL     1      14.109  11.947  63.708  1.00  0.00     0.041 C 
ATOM      6  O   UNL     1      13.468  11.320  64.592  1.00  0.00    -0.550 OA
ATOM      7  O   UNL     1      15.419  11.584  63.423  1.00  0.00    -0.550 OA
ENDBRANCH   4   5
ENDBRANCH   3   4
ENDBRANCH   2   3
ENDBRANCH   1   2
BRANCH   1   8
ATOM      8  C   UNL     1      15.266  16.140  60.621  1.00  0.00     0.000 C 
BRANCH   8   9
ATOM      9  C   UNL     1      16.559  16.656  59.978  1.00  0.00    -0.000 C 
BRANCH   9  10
ATOM     10  C   UNL     1      17.784  16.266  60.813  1.00  0.00    -0.000 C 
BRANCH  10  11
ATOM     11  C   UNL     1      19.054  16.932  60.272  1.00  0.00    -0.000 C 
BRANCH  11  12
ATOM     12  C   UNL     1      20.081  17.147  61.389  1.00  0.00    -0.003 C 
ATOM     13  C   UNL     1      19.414  17.665  62.660  1.00  0.00     0.004 C 
ENDBRANCH  11  12
ENDBRANCH  10  11
ENDBRANCH   9  10
ENDBRANCH   8   9
ENDBRANCH   1   8
TORSDOF 9
ENDMDL
MODEL 2
REMARK VINA RESULT:    -4.823     10.650     12.003
REMARK INTER + INTRA:          -7.928
REMARK INTER:                  -7.517
REMARK INTRA:                  -0.411
REMARK UNBOUND:                -0.568
REMARK SMILES CCCCCCCCCCC(=O)[O-]
REMARK SMILES IDX 7 1 8 2 9 3 10 4 11 5 12 6 13 7 6 8 5 9 4 10 3 11 2 12 1 13
REMARK H PARENT
REMARK Flexibility Score: inf
ROOT
ATOM      1  C   UNL     1      18.073  21.901  71.020  1.00  0.00     0.000 C 
ENDROOT
BRANCH   1   2
ATOM      2  C   UNL     1      16.694  21.552  71.611  1.00  0.00     0.000 C 
BRANCH   2   3
ATOM      3  C   UNL     1      15.917  20.455  70.855  1.00  0.00     0.006 C 
BRANCH   3   4
ATOM      4  C   UNL     1      15.638  19.188  71.679  1.00  0.00     0.053 C 
BRANCH   4   5
ATOM      5  C   UNL     1      16.343  17.990  71.122  1.00  0.00     0.041 C 
ATOM      6  O   UNL     1      16.693  17.966  69.913  1.00  0.00    -0.550 OA
ATOM      7  O   UNL     1      16.583  16.885  71.929  1.00  0.00    -0.550 OA
ENDBRANCH   4   5
ENDBRANCH   3   4
ENDBRANCH   2   3
ENDBRANCH   1   2
BRANCH   1   8
ATOM      8  C   UNL     1      18.205  23.382  70.642  1.00  0.00     0.000 C 
BRANCH   8   9
ATOM      9  C   UNL     1      17.212  24.242  71.435  1.00  0.00    -0.000 C 
BRANCH   9  10
ATOM     10  C   UNL     1      17.781  25.641  71.698  1.00  0.00    -0.000 C 
BRANCH  10  11
ATOM     11  C   UNL     1      18.909  25.971  70.715  1.00  0.00    -0.000 C 
BRANCH  11  12
ATOM     12  C   UNL     1      19.070  27.486  70.549  1.00  0.00    -0.003 C 
ATOM     13  C   UNL     1      20.072  28.047  71.555  1.00  0.00     0.004 C 
ENDBRANCH  11  12
ENDBRANCH  10  11
ENDBRANCH   9  10
ENDBRANCH   8   9
ENDBRANCH   1   8
TORSDOF 9
ENDMDL
MODEL 3
REMARK VINA RESULT:    -4.688      1.241      2.164
REMARK INTER + INTRA:          -7.723
REMARK INTER:                  -7.229
REMARK INTRA:                  -0.494
REMARK UNBOUND:                -0.568
REMARK SMILES CCCCCCCCCCC(=O)[O-]
REMARK SMILES IDX 7 1 8 2 9 3 10 4 11 5 12 6 13 7 6 8 5 9 4 10 3 11 2 12 1 13
REMARK H PARENT
REMARK Flexibility Score: inf
ROOT
ATOM      1  C   UNL     1      13.908  15.978  62.858  1.00  0.00     0.000 C 
ENDROOT
BRANCH   1   2
ATOM      2  C   UNL     1      14.309  15.581  64.291  1.00  0.00     0.000 C 
BRANCH   2   3
ATOM      3  C   UNL     1      13.848  14.177  64.732  1.00  0.00     0.006 C 
BRANCH   3   4
ATOM      4  C   UNL     1      13.611  13.191  63.577  1.00  0.00     0.053 C 
BRANCH   4   5
ATOM      5  C   UNL     1      14.274  11.871  63.821  1.00  0.00     0.041 C 
ATOM      6  O   UNL     1      15.402  11.626  63.318  1.00  0.00    -0.550 OA
ATOM      7  O   UNL     1      13.633  10.897  64.576  1.00  0.00    -0.550 OA
ENDBRANCH   4   5
ENDBRANCH   3   4
ENDBRANCH   2   3
ENDBRANCH   1   2
BRANCH   1   8
ATOM      8  C   UNL     1      15.085  16.522  62.036  1.00  0.00     0.000 C 
BRANCH   8   9
ATOM      9  C   UNL     1      15.640  15.446  61.093  1.00  0.00    -0.000 C 
BRANCH   9  10
ATOM     10  C   UNL     1      15.438  15.842  59.626  1.00  0.00    -0.000 C 
BRANCH  10  11
ATOM     11  C   UNL     1      16.766  15.823  58.862  1.00  0.00    -0.000 C 
BRANCH  11  12
ATOM     12  C   UNL     1      17.631  17.033  59.231  1.00  0.00    -0.003 C 
ATOM     13  C   UNL     1      18.784  16.628  60.146  1.00  0.00     0.004 C 
ENDBRANCH  11  12
ENDBRANCH  10  11
ENDBRANCH   9  10
ENDBRANCH   8   9
ENDBRANCH   1   8
TORSDOF 9
ENDMDL
MODEL 4
REMARK VINA RESULT:    -4.667      1.454      2.012
REMARK INTER + INTRA:          -7.690
REMARK INTER:                  -7.122
REMARK INTRA:                  -0.568
REMARK UNBOUND:                -0.568
REMARK SMILES CCCCCCCCCCC(=O)[O-]
REMARK SMILES IDX 7 1 8 2 9 3 10 4 11 5 12 6 13 7 6 8 5 9 4 10 3 11 2 12 1 13
REMARK H PARENT
REMARK Flexibility Score: inf
ROOT
ATOM      1  C   UNL     1      15.623  14.765  59.483  1.00  0.00     0.000 C 
ENDROOT
BRANCH   1   2
ATOM      2  C   UNL     1      15.368  14.479  60.975  1.00  0.00     0.000 C 
BRANCH   2   3
ATOM      3  C   UNL     1      14.891  13.047  61.292  1.00  0.00     0.006 C 
BRANCH   3   4
ATOM      4  C   UNL     1      14.170  12.899  62.642  1.00  0.00     0.053 C 
BRANCH   4   5
ATOM      5  C   UNL     1      14.651  11.705  63.407  1.00  0.00     0.041 C 
ATOM      6  O   UNL     1      15.797  11.232  63.189  1.00  0.00    -0.550 OA
ATOM      7  O   UNL     1      13.820  11.091  64.336  1.00  0.00    -0.550 OA
ENDBRANCH   4   5
ENDBRANCH   3   4
ENDBRANCH   2   3
ENDBRANCH   1   2
BRANCH   1   8
ATOM      8  C   UNL     1      16.886  14.075  58.949  1.00  0.00     0.000 C 
BRANCH   8   9
ATOM      9  C   UNL     1      18.009  15.093  58.711  1.00  0.00    -0.000 C 
BRANCH   9  10
ATOM     10  C   UNL     1      17.535  16.519  59.016  1.00  0.00    -0.000 C 
BRANCH  10  11
ATOM     11  C   UNL     1      18.571  17.276  59.854  1.00  0.00    -0.000 C 
BRANCH  11  12
ATOM     12  C   UNL     1      19.137  16.386  60.966  1.00  0.00    -0.003 C 
ATOM     13  C   UNL     1      19.901  17.212  61.997  1.00  0.00     0.004 C 
ENDBRANCH  11  12
ENDBRANCH  10  11
ENDBRANCH   9  10
ENDBRANCH   8   9
ENDBRANCH   1   8
TORSDOF 9
ENDMDL
MODEL 5
REMARK VINA RESULT:    -4.639      1.469      1.815
REMARK INTER + INTRA:          -7.647
REMARK INTER:                  -6.992
REMARK INTRA:                  -0.656
REMARK UNBOUND:                -0.568
REMARK SMILES CCCCCCCCCCC(=O)[O-]
REMARK SMILES IDX 7 1 8 2 9 3 10 4 11 5 12 6 13 7 6 8 5 9 4 10 3 11 2 12 1 13
REMARK H PARENT
REMARK Flexibility Score: inf
ROOT
ATOM      1  C   UNL     1      15.362  15.603  61.354  1.00  0.00     0.000 C 
ENDROOT
BRANCH   1   2
ATOM      2  C   UNL     1      15.408  16.677  62.458  1.00  0.00     0.000 C 
BRANCH   2   3
ATOM      3  C   UNL     1      14.455  16.433  63.646  1.00  0.00     0.006 C 
BRANCH   3   4
ATOM      4  C   UNL     1      13.656  15.122  63.564  1.00  0.00     0.053 C 
BRANCH   4   5
ATOM      5  C   UNL     1      14.051  14.156  64.639  1.00  0.00     0.041 C 
ATOM      6  O   UNL     1      13.879  14.453  65.851  1.00  0.00    -0.550 OA
ATOM      7  O   UNL     1      14.641  12.944  64.305  1.00  0.00    -0.550 OA
ENDBRANCH   4   5
ENDBRANCH   3   4
ENDBRANCH   2   3
ENDBRANCH   1   2
BRANCH   1   8
ATOM      8  C   UNL     1      15.314  16.200  59.941  1.00  0.00     0.000 C 
BRANCH   8   9
ATOM      9  C   UNL     1      16.534  15.764  59.119  1.00  0.00    -0.000 C 
BRANCH   9  10
ATOM     10  C   UNL     1      17.660  16.800  59.210  1.00  0.00    -0.000 C 
BRANCH  10  11
ATOM     11  C   UNL     1      18.835  16.266  60.036  1.00  0.00    -0.000 C 
BRANCH  11  12
ATOM     12  C   UNL     1      19.606  17.411  60.701  1.00  0.00    -0.003 C 
ATOM     13  C   UNL     1      19.602  17.270  62.221  1.00  0.00     0.004 C 
ENDBRANCH  11  12
ENDBRANCH  10  11
ENDBRANCH   9  10
ENDBRANCH   8   9
ENDBRANCH   1   8
TORSDOF 9
ENDMDL
MODEL 6
REMARK VINA RESULT:    -4.604      3.685      6.234
REMARK INTER + INTRA:          -7.595
REMARK INTER:                  -6.789
REMARK INTRA:                  -0.805
REMARK UNBOUND:                -0.568
REMARK SMILES CCCCCCCCCCC(=O)[O-]
REMARK SMILES IDX 7 1 8 2 9 3 10 4 11 5 12 6 13 7 6 8 5 9 4 10 3 11 2 12 1 13
REMARK H PARENT
REMARK Flexibility Score: inf
ROOT
ATOM      1  C   UNL     1      15.051  16.377  61.503  1.00  0.00     0.000 C 
ENDROOT
BRANCH   1   2
ATOM      2  C   UNL     1      16.221  15.425  61.193  1.00  0.00     0.000 C 
BRANCH   2   3
ATOM      3  C   UNL     1      17.620  16.074  61.235  1.00  0.00     0.006 C 
BRANCH   3   4
ATOM      4  C   UNL     1      18.470  15.840  59.977  1.00  0.00     0.053 C 
BRANCH   4   5
ATOM      5  C   UNL     1      17.938  16.588  58.793  1.00  0.00     0.041 C 
ATOM      6  O   UNL     1      17.350  17.690  58.952  1.00  0.00    -0.550 OA
ATOM      7  O   UNL     1      18.060  16.052  57.518  1.00  0.00    -0.550 OA
ENDBRANCH   4   5
ENDBRANCH   3   4
ENDBRANCH   2   3
ENDBRANCH   1   2
BRANCH   1   8
ATOM      8  C   UNL     1      15.151  17.014  62.896  1.00  0.00     0.000 C 
BRANCH   8   9
ATOM      9  C   UNL     1      13.758  17.237  63.500  1.00  0.00    -0.000 C 
BRANCH   9  10
ATOM     10  C   UNL     1      12.951  15.934  63.519  1.00  0.00    -0.000 C 
BRANCH  10  11
ATOM     11  C   UNL     1      13.155  15.179  64.837  1.00  0.00    -0.000 C 
BRANCH  11  12
ATOM     12  C   UNL     1      13.786  13.804  64.592  1.00  0.00    -0.003 C 
ATOM     13  C   UNL     1      13.428  13.272  63.207  1.00  0.00     0.004 C 
ENDBRANCH  11  12
ENDBRANCH  10  11
ENDBRANCH   9  10
ENDBRANCH   8   9
ENDBRANCH   1   8
TORSDOF 9
ENDMDL
MODEL 7
REMARK VINA RESULT:    -4.525     11.873     13.899
REMARK INTER + INTRA:          -7.473
REMARK INTER:                  -7.017
REMARK INTRA:                  -0.457
REMARK UNBOUND:                -0.568
REMARK SMILES CCCCCCCCCCC(=O)[O-]
REMARK SMILES IDX 7 1 8 2 9 3 10 4 11 5 12 6 13 7 6 8 5 9 4 10 3 11 2 12 1 13
REMARK H PARENT
REMARK Flexibility Score: inf
ROOT
ATOM      1  C   UNL     1      17.269  24.013  71.724  1.00  0.00     0.000 C 
ENDROOT
BRANCH   1   2
ATOM      2  C   UNL     1      18.052  24.659  70.566  1.00  0.00     0.000 C 
BRANCH   2   3
ATOM      3  C   UNL     1      18.546  26.096  70.833  1.00  0.00     0.006 C 
BRANCH   3   4
ATOM      4  C   UNL     1      17.457  27.175  70.723  1.00  0.00     0.053 C 
BRANCH   4   5
ATOM      5  C   UNL     1      17.648  28.044  69.518  1.00  0.00     0.041 C 
ATOM      6  O   UNL     1      17.453  29.285  69.595  1.00  0.00    -0.550 OA
ATOM      7  O   UNL     1      18.006  27.478  68.301  1.00  0.00    -0.550 OA
ENDBRANCH   4   5
ENDBRANCH   3   4
ENDBRANCH   2   3
ENDBRANCH   1   2
BRANCH   1   8
ATOM      8  C   UNL     1      17.533  22.506  71.857  1.00  0.00     0.000 C 
BRANCH   8   9
ATOM      9  C   UNL     1      18.428  22.003  70.718  1.00  0.00    -0.000 C 
BRANCH   9  10
ATOM     10  C   UNL     1      18.093  20.552  70.353  1.00  0.00    -0.000 C 
BRANCH  10  11
ATOM     11  C   UNL     1      16.686  20.175  70.829  1.00  0.00    -0.000 C 
BRANCH  11  12
ATOM     12  C   UNL     1      16.325  18.748  70.403  1.00  0.00    -0.003 C 
ATOM     13  C   UNL     1      16.085  17.853  71.616  1.00  0.00     0.004 C 
ENDBRANCH  11  12
ENDBRANCH  10  11
ENDBRANCH   9  10
ENDBRANCH   8   9
ENDBRANCH   1   8
TORSDOF 9
ENDMDL
MODEL 8
REMARK VINA RESULT:    -4.467     13.306     14.777
REMARK INTER + INTRA:          -7.385
REMARK INTER:                  -7.110
REMARK INTRA:                  -0.276
REMARK UNBOUND:                -0.568
REMARK SMILES CCCCCCCCCCC(=O)[O-]
REMARK SMILES IDX 7 1 8 2 9 3 10 4 11 5 12 6 13 7 6 8 5 9 4 10 3 11 2 12 1 13
REMARK H PARENT
REMARK Flexibility Score: inf
ROOT
ATOM      1  C   UNL     1      10.405  27.629  57.749  1.00  0.00     0.000 C 
ENDROOT
BRANCH   1   2
ATOM      2  C   UNL     1      10.761  29.092  57.423  1.00  0.00     0.000 C 
BRANCH   2   3
ATOM      3  C   UNL     1      10.970  29.394  55.925  1.00  0.00     0.006 C 
BRANCH   3   4
ATOM      4  C   UNL     1      10.767  28.187  54.995  1.00  0.00     0.053 C 
BRANCH   4   5
ATOM      5  C   UNL     1      11.305  28.440  53.621  1.00  0.00     0.041 C 
ATOM      6  O   UNL     1      12.117  27.630  53.100  1.00  0.00    -0.550 OA
ATOM      7  O   UNL     1      10.939  29.587  52.929  1.00  0.00    -0.550 OA
ENDBRANCH   4   5
ENDBRANCH   3   4
ENDBRANCH   2   3
ENDBRANCH   1   2
BRANCH   1   8
ATOM      8  C   UNL     1      10.967  27.164  59.100  1.00  0.00     0.000 C 
BRANCH   8   9
ATOM      9  C   UNL     1      10.585  25.705  59.380  1.00  0.00    -0.000 C 
BRANCH   9  10
ATOM     10  C   UNL     1      11.823  24.800  59.373  1.00  0.00    -0.000 C 
BRANCH  10  11
ATOM     11  C   UNL     1      12.281  24.482  60.800  1.00  0.00    -0.000 C 
BRANCH  11  12
ATOM     12  C   UNL     1      13.663  23.819  60.800  1.00  0.00    -0.003 C 
ATOM     13  C   UNL     1      13.549  22.304  60.945  1.00  0.00     0.004 C 
ENDBRANCH  11  12
ENDBRANCH  10  11
ENDBRANCH   9  10
ENDBRANCH   8   9
ENDBRANCH   1   8
TORSDOF 9
ENDMDL
MODEL 9
REMARK VINA RESULT:    -4.467      2.007      2.519
REMARK INTER + INTRA:          -7.385
REMARK INTER:                  -6.619
REMARK INTRA:                  -0.766
REMARK UNBOUND:                -0.568
REMARK SMILES CCCCCCCCCCC(=O)[O-]
REMARK SMILES IDX 7 1 8 2 9 3 10 4 11 5 12 6 13 7 6 8 5 9 4 10 3 11 2 12 1 13
REMARK H PARENT
REMARK Flexibility Score: inf
ROOT
ATOM      1  C   UNL     1      15.393  15.664  59.836  1.00  0.00     0.000 C 
ENDROOT
BRANCH   1   2
ATOM      2  C   UNL     1      15.354  15.263  61.323  1.00  0.00     0.000 C 
BRANCH   2   3
ATOM      3  C   UNL     1      15.748  16.380  62.311  1.00  0.00     0.006 C 
BRANCH   3   4
ATOM      4  C   UNL     1      14.703  16.665  63.402  1.00  0.00     0.053 C 
BRANCH   4   5
ATOM      5  C   UNL     1      14.123  15.404  63.966  1.00  0.00     0.041 C 
ATOM      6  O   UNL     1      12.894  15.161  63.839  1.00  0.00    -0.550 OA
ATOM      7  O   UNL     1      14.931  14.514  64.661  1.00  0.00    -0.550 OA
ENDBRANCH   4   5
ENDBRANCH   3   4
ENDBRANCH   2   3
ENDBRANCH   1   2
BRANCH   1   8
ATOM      8  C   UNL     1      16.382  14.824  59.016  1.00  0.00     0.000 C 
BRANCH   8   9
ATOM      9  C   UNL     1      17.409  15.718  58.310  1.00  0.00    -0.000 C 
BRANCH   9  10
ATOM     10  C   UNL     1      17.948  16.795  59.258  1.00  0.00    -0.000 C 
BRANCH  10  11
ATOM     11  C   UNL     1      19.013  16.219  60.197  1.00  0.00    -0.000 C 
BRANCH  11  12
ATOM     12  C   UNL     1      19.804  17.338  60.884  1.00  0.00    -0.003 C 
ATOM     13  C   UNL     1      19.514  17.379  62.381  1.00  0.00     0.004 C 
ENDBRANCH  11  12
ENDBRANCH  10  11
ENDBRANCH   9  10
ENDBRANCH   8   9
ENDBRANCH   1   8
TORSDOF 9
ENDMDL
