MODEL 1
REMARK VINA RESULT:    -5.204      0.000      0.000
REMARK INTER + INTRA:          -5.852
REMARK INTER:                  -5.812
REMARK INTRA:                  -0.040
REMARK UNBOUND:                -0.040
REMARK SMILES O=C([O-])c1ccc(O)c(O)c1
REMARK SMILES IDX 4 1 11 2 5 3 9 4 6 5 7 6 2 7 1 8 3 9 10 10 8 12
REMARK H PARENT 10 11 8 13
REMARK Flexibility Score: inf
ROOT
ATOM      1  C   UNL     1       8.256  28.085  -0.963  1.00  0.00     0.001 A 
ATOM      2  C   UNL     1       8.610  27.521  -2.202  1.00  0.00     0.060 A 
ATOM      3  C   UNL     1       9.263  28.343  -0.022  1.00  0.00     0.014 A 
ATOM      4  C   UNL     1       9.944  27.218  -2.501  1.00  0.00     0.158 A 
ATOM      5  C   UNL     1      10.596  28.044  -0.312  1.00  0.00     0.051 A 
ATOM      6  C   UNL     1      10.951  27.483  -1.544  1.00  0.00     0.157 A 
ENDROOT
BRANCH   1   7
ATOM      7  C   UNL     1       6.844  28.402  -0.654  1.00  0.00     0.072 C 
ATOM      8  O   UNL     1       6.536  29.501  -0.119  1.00  0.00    -0.545 OA
ATOM      9  O   UNL     1       5.836  27.491  -0.950  1.00  0.00    -0.545 OA
ENDBRANCH   1   7
BRANCH   4  10
ATOM     10  O   UNL     1      10.221  26.660  -3.751  1.00  0.00    -0.504 OA
ATOM     11  H   UNL     1      11.065  26.149  -3.967  1.00  0.00     0.293 HD
ENDBRANCH   4  10
BRANCH   6  12
ATOM     12  O   UNL     1      12.300  27.209  -1.771  1.00  0.00    -0.504 OA
ATOM     13  H   UNL     1      13.059  27.648  -1.267  1.00  0.00     0.293 HD
ENDBRANCH   6  12
TORSDOF 3
ENDMDL
MODEL 2
REMARK VINA RESULT:    -5.172     11.355     13.692
REMARK INTER + INTRA:          -5.817
REMARK INTER:                  -5.776
REMARK INTRA:                  -0.040
REMARK UNBOUND:                -0.040
REMARK SMILES O=C([O-])c1ccc(O)c(O)c1
REMARK SMILES IDX 4 1 11 2 5 3 9 4 6 5 7 6 2 7 1 8 3 9 10 10 8 12
REMARK H PARENT 10 11 8 13
REMARK Flexibility Score: inf
ROOT
ATOM      1  C   UNL     1       3.002  36.639   5.080  1.00  0.00     0.001 A 
ATOM      2  C   UNL     1       2.663  37.138   6.350  1.00  0.00     0.060 A 
ATOM      3  C   UNL     1       3.707  37.465   4.192  1.00  0.00     0.014 A 
ATOM      4  C   UNL     1       3.019  38.437   6.732  1.00  0.00     0.158 A 
ATOM      5  C   UNL     1       4.066  38.762   4.565  1.00  0.00     0.051 A 
ATOM      6  C   UNL     1       3.730  39.260   5.828  1.00  0.00     0.157 A 
ENDROOT
BRANCH   1   7
ATOM      7  C   UNL     1       2.623  35.265   4.682  1.00  0.00     0.072 C 
ATOM      8  O   UNL     1       3.443  34.524   4.076  1.00  0.00    -0.545 OA
ATOM      9  O   UNL     1       1.356  34.772   4.972  1.00  0.00    -0.545 OA
ENDBRANCH   1   7
BRANCH   4  10
ATOM     10  O   UNL     1       2.648  38.865   8.010  1.00  0.00    -0.504 OA
ATOM     11  H   UNL     1       1.713  39.153   8.259  1.00  0.00     0.293 HD
ENDBRANCH   4  10
BRANCH   6  12
ATOM     12  O   UNL     1       4.119  40.565   6.139  1.00  0.00    -0.504 OA
ATOM     13  H   UNL     1       5.006  40.968   5.874  1.00  0.00     0.293 HD
ENDBRANCH   6  12
TORSDOF 3
ENDMDL
MODEL 3
REMARK VINA RESULT:    -5.008      1.818      4.395
REMARK INTER + INTRA:          -5.634
REMARK INTER:                  -5.591
REMARK INTRA:                  -0.042
REMARK UNBOUND:                -0.040
REMARK SMILES O=C([O-])c1ccc(O)c(O)c1
REMARK SMILES IDX 4 1 11 2 5 3 9 4 6 5 7 6 2 7 1 8 3 9 10 10 8 12
REMARK H PARENT 10 11 8 13
REMARK Flexibility Score: inf
ROOT
ATOM      1  C   UNL     1       8.831  28.406  -0.128  1.00  0.00     0.001 A 
ATOM      2  C   UNL     1       8.137  27.620  -1.064  1.00  0.00     0.060 A 
ATOM      3  C   UNL     1       8.121  29.360   0.616  1.00  0.00     0.014 A 
ATOM      4  C   UNL     1       6.759  27.779  -1.260  1.00  0.00     0.158 A 
ATOM      5  C   UNL     1       6.747  29.526   0.428  1.00  0.00     0.051 A 
ATOM      6  C   UNL     1       6.055  28.745  -0.504  1.00  0.00     0.157 A 
ENDROOT
BRANCH   1   7
ATOM      7  C   UNL     1      10.286  28.232   0.074  1.00  0.00     0.072 C 
ATOM      8  O   UNL     1      10.838  27.124  -0.158  1.00  0.00    -0.545 OA
ATOM      9  O   UNL     1      11.067  29.293   0.522  1.00  0.00    -0.545 OA
ENDBRANCH   1   7
BRANCH   4  10
ATOM     10  O   UNL     1       6.137  26.963  -2.208  1.00  0.00    -0.504 OA
ATOM     11  H   UNL     1       6.294  25.968  -2.286  1.00  0.00     0.293 HD
ENDBRANCH   4  10
BRANCH   6  12
ATOM     12  O   UNL     1       4.683  28.960  -0.644  1.00  0.00    -0.504 OA
ATOM     13  H   UNL     1       4.016  28.863   0.110  1.00  0.00     0.293 HD
ENDBRANCH   6  12
TORSDOF 3
ENDMDL
MODEL 4
REMARK VINA RESULT:    -4.966      1.639      3.784
REMARK INTER + INTRA:          -5.586
REMARK INTER:                  -5.550
REMARK INTRA:                  -0.037
REMARK UNBOUND:                -0.040
REMARK SMILES O=C([O-])c1ccc(O)c(O)c1
REMARK SMILES IDX 4 1 11 2 5 3 9 4 6 5 7 6 2 7 1 8 3 9 10 10 8 12
REMARK H PARENT 10 11 8 13
REMARK Flexibility Score: inf
ROOT
ATOM      1  C   UNL     1      10.150  28.241  -0.173  1.00  0.00     0.001 A 
ATOM      2  C   UNL     1      10.175  27.464  -1.344  1.00  0.00     0.060 A 
ATOM      3  C   UNL     1       8.915  28.698   0.312  1.00  0.00     0.014 A 
ATOM      4  C   UNL     1       8.993  27.146  -2.024  1.00  0.00     0.158 A 
ATOM      5  C   UNL     1       7.731  28.385  -0.359  1.00  0.00     0.051 A 
ATOM      6  C   UNL     1       7.755  27.612  -1.525  1.00  0.00     0.157 A 
ENDROOT
BRANCH   1   7
ATOM      7  C   UNL     1      11.402  28.574   0.541  1.00  0.00     0.072 C 
ATOM      8  O   UNL     1      11.838  29.757   0.554  1.00  0.00    -0.545 OA
ATOM      9  O   UNL     1      12.117  27.585   1.208  1.00  0.00    -0.545 OA
ENDBRANCH   1   7
BRANCH   4  10
ATOM     10  O   UNL     1       9.095  26.369  -3.181  1.00  0.00    -0.504 OA
ATOM     11  H   UNL     1       9.964  26.185  -3.661  1.00  0.00     0.293 HD
ENDBRANCH   4  10
BRANCH   6  12
ATOM     12  O   UNL     1       6.536  27.334  -2.147  1.00  0.00    -0.504 OA
ATOM     13  H   UNL     1       6.359  26.507  -2.700  1.00  0.00     0.293 HD
ENDBRANCH   6  12
TORSDOF 3
ENDMDL
MODEL 5
REMARK VINA RESULT:    -4.921     10.507     12.755
REMARK INTER + INTRA:          -5.536
REMARK INTER:                  -5.498
REMARK INTRA:                  -0.039
REMARK UNBOUND:                -0.040
REMARK SMILES O=C([O-])c1ccc(O)c(O)c1
REMARK SMILES IDX 4 1 11 2 5 3 9 4 6 5 7 6 2 7 1 8 3 9 10 10 8 12
REMARK H PARENT 10 11 8 13
REMARK Flexibility Score: inf
ROOT
ATOM      1  C   UNL     1       3.496  37.856   4.347  1.00  0.00     0.001 A 
ATOM      2  C   UNL     1       2.606  37.191   5.209  1.00  0.00     0.060 A 
ATOM      3  C   UNL     1       4.281  37.097   3.466  1.00  0.00     0.014 A 
ATOM      4  C   UNL     1       2.498  35.794   5.197  1.00  0.00     0.158 A 
ATOM      5  C   UNL     1       4.179  35.705   3.447  1.00  0.00     0.051 A 
ATOM      6  C   UNL     1       3.295  35.041   4.304  1.00  0.00     0.157 A 
ENDROOT
BRANCH   1   7
ATOM      7  C   UNL     1       3.605  39.331   4.365  1.00  0.00     0.072 C 
ATOM      8  O   UNL     1       3.480  39.997   3.303  1.00  0.00    -0.545 OA
ATOM      9  O   UNL     1       3.847  40.005   5.558  1.00  0.00    -0.545 OA
ENDBRANCH   1   7
BRANCH   4  10
ATOM     10  O   UNL     1       1.593  35.203   6.082  1.00  0.00    -0.504 OA
ATOM     11  H   UNL     1       0.614  35.062   5.878  1.00  0.00     0.293 HD
ENDBRANCH   4  10
BRANCH   6  12
ATOM     12  O   UNL     1       3.241  33.648   4.234  1.00  0.00    -0.504 OA
ATOM     13  H   UNL     1       2.388  33.121   4.113  1.00  0.00     0.293 HD
ENDBRANCH   6  12
TORSDOF 3
ENDMDL
MODEL 6
REMARK VINA RESULT:    -4.886      6.820      7.354
REMARK INTER + INTRA:          -5.497
REMARK INTER:                  -5.457
REMARK INTRA:                  -0.039
REMARK UNBOUND:                -0.040
REMARK SMILES O=C([O-])c1ccc(O)c(O)c1
REMARK SMILES IDX 4 1 11 2 5 3 9 4 6 5 7 6 2 7 1 8 3 9 10 10 8 12
REMARK H PARENT 10 11 8 13
REMARK Flexibility Score: inf
ROOT
ATOM      1  C   UNL     1       7.526  33.618   2.337  1.00  0.00     0.001 A 
ATOM      2  C   UNL     1       7.577  34.691   1.430  1.00  0.00     0.060 A 
ATOM      3  C   UNL     1       8.724  33.000   2.725  1.00  0.00     0.014 A 
ATOM      4  C   UNL     1       8.799  35.144   0.917  1.00  0.00     0.158 A 
ATOM      5  C   UNL     1       9.947  33.445   2.219  1.00  0.00     0.051 A 
ATOM      6  C   UNL     1      10.000  34.513   1.316  1.00  0.00     0.157 A 
ENDROOT
BRANCH   1   7
ATOM      7  C   UNL     1       6.232  33.144   2.875  1.00  0.00     0.072 C 
ATOM      8  O   UNL     1       5.957  31.914   2.895  1.00  0.00    -0.545 OA
ATOM      9  O   UNL     1       5.300  34.051   3.369  1.00  0.00    -0.545 OA
ENDBRANCH   1   7
BRANCH   4  10
ATOM     10  O   UNL     1       8.772  36.216   0.021  1.00  0.00    -0.504 OA
ATOM     11  H   UNL     1       8.939  37.176   0.284  1.00  0.00     0.293 HD
ENDBRANCH   4  10
BRANCH   6  12
ATOM     12  O   UNL     1      11.254  34.910   0.848  1.00  0.00    -0.504 OA
ATOM     13  H   UNL     1      11.866  35.546   1.340  1.00  0.00     0.293 HD
ENDBRANCH   6  12
TORSDOF 3
ENDMDL
MODEL 7
REMARK VINA RESULT:    -4.835      1.393      4.666
REMARK INTER + INTRA:          -5.441
REMARK INTER:                  -5.401
REMARK INTRA:                  -0.040
REMARK UNBOUND:                -0.040
REMARK SMILES O=C([O-])c1ccc(O)c(O)c1
REMARK SMILES IDX 4 1 11 2 5 3 9 4 6 5 7 6 2 7 1 8 3 9 10 10 8 12
REMARK H PARENT 10 11 8 13
REMARK Flexibility Score: inf
ROOT
ATOM      1  C   UNL     1      10.173  27.712  -0.417  1.00  0.00     0.001 A 
ATOM      2  C   UNL     1       9.571  28.629   0.462  1.00  0.00     0.060 A 
ATOM      3  C   UNL     1       9.437  27.241  -1.514  1.00  0.00     0.014 A 
ATOM      4  C   UNL     1       8.258  29.071   0.255  1.00  0.00     0.158 A 
ATOM      5  C   UNL     1       8.128  27.676  -1.728  1.00  0.00     0.051 A 
ATOM      6  C   UNL     1       7.527  28.588  -0.854  1.00  0.00     0.157 A 
ENDROOT
BRANCH   1   7
ATOM      7  C   UNL     1      11.560  27.250  -0.193  1.00  0.00     0.072 C 
ATOM      8  O   UNL     1      11.939  26.889   0.954  1.00  0.00    -0.545 OA
ATOM      9  O   UNL     1      12.467  27.205  -1.247  1.00  0.00    -0.545 OA
ENDBRANCH   1   7
BRANCH   4  10
ATOM     10  O   UNL     1       7.726  29.983   1.170  1.00  0.00    -0.504 OA
ATOM     11  H   UNL     1       8.284  30.607   1.736  1.00  0.00     0.293 HD
ENDBRANCH   4  10
BRANCH   6  12
ATOM     12  O   UNL     1       6.216  28.984  -1.125  1.00  0.00    -0.504 OA
ATOM     13  H   UNL     1       5.527  29.184  -0.413  1.00  0.00     0.293 HD
ENDBRANCH   6  12
TORSDOF 3
ENDMDL
MODEL 8
REMARK VINA RESULT:    -4.830     10.511     12.621
REMARK INTER + INTRA:          -5.434
REMARK INTER:                  -5.397
REMARK INTRA:                  -0.037
REMARK UNBOUND:                -0.040
REMARK SMILES O=C([O-])c1ccc(O)c(O)c1
REMARK SMILES IDX 4 1 11 2 5 3 9 4 6 5 7 6 2 7 1 8 3 9 10 10 8 12
REMARK H PARENT 10 11 8 13
REMARK Flexibility Score: inf
ROOT
ATOM      1  C   UNL     1       3.499  38.138   4.370  1.00  0.00     0.001 A 
ATOM      2  C   UNL     1       4.127  37.244   3.485  1.00  0.00     0.060 A 
ATOM      3  C   UNL     1       2.739  37.624   5.430  1.00  0.00     0.014 A 
ATOM      4  C   UNL     1       4.001  35.859   3.651  1.00  0.00     0.158 A 
ATOM      5  C   UNL     1       2.609  36.244   5.604  1.00  0.00     0.051 A 
ATOM      6  C   UNL     1       3.232  35.352   4.724  1.00  0.00     0.157 A 
ENDROOT
BRANCH   1   7
ATOM      7  C   UNL     1       3.636  39.600   4.189  1.00  0.00     0.072 C 
ATOM      8  O   UNL     1       3.177  40.165   3.160  1.00  0.00    -0.545 OA
ATOM      9  O   UNL     1       4.273  40.373   5.154  1.00  0.00    -0.545 OA
ENDBRANCH   1   7
BRANCH   4  10
ATOM     10  O   UNL     1       4.653  35.031   2.734  1.00  0.00    -0.504 OA
ATOM     11  H   UNL     1       4.457  34.046   2.624  1.00  0.00     0.293 HD
ENDBRANCH   4  10
BRANCH   6  12
ATOM     12  O   UNL     1       3.062  33.985   4.953  1.00  0.00    -0.504 OA
ATOM     13  H   UNL     1       3.483  33.485   5.723  1.00  0.00     0.293 HD
ENDBRANCH   6  12
TORSDOF 3
ENDMDL
MODEL 9
REMARK VINA RESULT:    -4.802      5.595      7.087
REMARK INTER + INTRA:          -5.403
REMARK INTER:                  -5.363
REMARK INTRA:                  -0.040
REMARK UNBOUND:                -0.040
REMARK SMILES O=C([O-])c1ccc(O)c(O)c1
REMARK SMILES IDX 4 1 11 2 5 3 9 4 6 5 7 6 2 7 1 8 3 9 10 10 8 12
REMARK H PARENT 10 11 8 13
REMARK Flexibility Score: inf
ROOT
ATOM      1  C   UNL     1       7.156  32.793   1.638  1.00  0.00     0.001 A 
ATOM      2  C   UNL     1       8.311  32.405   2.340  1.00  0.00     0.060 A 
ATOM      3  C   UNL     1       6.909  34.159   1.439  1.00  0.00     0.014 A 
ATOM      4  C   UNL     1       9.206  33.361   2.838  1.00  0.00     0.158 A 
ATOM      5  C   UNL     1       7.796  35.118   1.931  1.00  0.00     0.051 A 
ATOM      6  C   UNL     1       8.946  34.735   2.630  1.00  0.00     0.157 A 
ENDROOT
BRANCH   1   7
ATOM      7  C   UNL     1       6.215  31.779   1.115  1.00  0.00     0.072 C 
ATOM      8  O   UNL     1       4.970  31.963   1.183  1.00  0.00    -0.545 OA
ATOM      9  O   UNL     1       6.691  30.606   0.538  1.00  0.00    -0.545 OA
ENDBRANCH   1   7
BRANCH   4  10
ATOM     10  O   UNL     1      10.333  32.902   3.526  1.00  0.00    -0.504 OA
ATOM     11  H   UNL     1      10.379  32.802   4.529  1.00  0.00     0.293 HD
ENDBRANCH   4  10
BRANCH   6  12
ATOM     12  O   UNL     1       9.792  35.743   3.096  1.00  0.00    -0.504 OA
ATOM     13  H   UNL     1      10.203  36.454   2.506  1.00  0.00     0.293 HD
ENDBRANCH   6  12
TORSDOF 3
ENDMDL
