MODEL 1
REMARK VINA RESULT:    -4.986      0.000      0.000
REMARK INTER + INTRA:          -5.626
REMARK INTER:                  -5.423
REMARK INTRA:                  -0.202
REMARK UNBOUND:                -0.202
REMARK SMILES CC(C)(C)[C@H]1C=C[C@@H](O)CC1
REMARK SMILES IDX 5 1 11 2 10 3 8 4 7 5 6 6 2 7 1 8 3 9 4 10 9 11
REMARK H PARENT 9 12
REMARK Flexibility Score: inf
ROOT
ATOM      1  C   UNL     1      -4.679  23.154  49.559  1.00  0.00     0.017 C 
ATOM      2  C   UNL     1      -3.186  22.747  49.354  1.00  0.00     0.011 C 
ATOM      3  C   UNL     1      -2.971  21.534  48.406  1.00  0.00     0.037 C 
ATOM      4  C   UNL     1      -4.274  20.812  48.031  1.00  0.00     0.137 C 
ATOM      5  C   UNL     1      -5.282  21.828  47.562  1.00  0.00     0.000 C 
ATOM      6  C   UNL     1      -5.458  22.951  48.269  1.00  0.00    -0.025 C 
ENDROOT
BRANCH   1   7
ATOM      7  C   UNL     1      -4.880  24.579  50.201  1.00  0.00    -0.032 C 
ATOM      8  C   UNL     1      -3.906  25.595  49.561  1.00  0.00     0.011 C 
ATOM      9  C   UNL     1      -4.556  24.519  51.714  1.00  0.00     0.011 C 
ATOM     10  C   UNL     1      -6.325  25.106  50.026  1.00  0.00     0.011 C 
ENDBRANCH   1   7
BRANCH   4  11
ATOM     11  O   UNL     1      -4.019  19.877  47.017  1.00  0.00    -0.389 OA
ATOM     12  H   UNL     1      -4.289  20.302  46.161  1.00  0.00     0.211 HD
ENDBRANCH   4  11
TORSDOF 2
ENDMDL
MODEL 2
REMARK VINA RESULT:    -4.798      2.285      3.783
REMARK INTER + INTRA:          -5.421
REMARK INTER:                  -5.218
REMARK INTRA:                  -0.203
REMARK UNBOUND:                -0.202
REMARK SMILES CC(C)(C)[C@H]1C=C[C@@H](O)CC1
REMARK SMILES IDX 5 1 11 2 10 3 8 4 7 5 6 6 2 7 1 8 3 9 4 10 9 11
REMARK H PARENT 9 12
REMARK Flexibility Score: inf
ROOT
ATOM      1  C   UNL     1      -3.076  20.800  48.152  1.00  0.00     0.017 C 
ATOM      2  C   UNL     1      -2.226  20.557  46.865  1.00  0.00     0.011 C 
ATOM      3  C   UNL     1      -1.699  19.105  46.702  1.00  0.00     0.037 C 
ATOM      4  C   UNL     1      -1.912  18.233  47.950  1.00  0.00     0.137 C 
ATOM      5  C   UNL     1      -3.345  18.355  48.397  1.00  0.00     0.000 C 
ATOM      6  C   UNL     1      -3.908  19.567  48.468  1.00  0.00    -0.025 C 
ENDROOT
BRANCH   1   7
ATOM      7  C   UNL     1      -3.909  22.137  48.137  1.00  0.00    -0.032 C 
ATOM      8  C   UNL     1      -5.388  21.842  47.793  1.00  0.00     0.011 C 
ATOM      9  C   UNL     1      -3.359  23.081  47.039  1.00  0.00     0.011 C 
ATOM     10  C   UNL     1      -3.859  22.878  49.495  1.00  0.00     0.011 C 
ENDBRANCH   1   7
BRANCH   4  11
ATOM     11  O   UNL     1      -1.608  16.898  47.648  1.00  0.00    -0.389 OA
ATOM     12  H   UNL     1      -1.144  16.523  48.442  1.00  0.00     0.211 HD
ENDBRANCH   4  11
TORSDOF 2
ENDMDL
MODEL 3
REMARK VINA RESULT:    -4.761      0.623      2.076
REMARK INTER + INTRA:          -5.381
REMARK INTER:                  -5.177
REMARK INTRA:                  -0.204
REMARK UNBOUND:                -0.202
REMARK SMILES CC(C)(C)[C@H]1C=C[C@@H](O)CC1
REMARK SMILES IDX 5 1 11 2 10 3 8 4 7 5 6 6 2 7 1 8 3 9 4 10 9 11
REMARK H PARENT 9 12
REMARK Flexibility Score: inf
ROOT
ATOM      1  C   UNL     1      -4.527  23.850  49.071  1.00  0.00     0.017 C 
ATOM      2  C   UNL     1      -5.744  23.297  48.265  1.00  0.00     0.011 C 
ATOM      3  C   UNL     1      -5.440  22.028  47.422  1.00  0.00     0.037 C 
ATOM      4  C   UNL     1      -3.943  21.685  47.352  1.00  0.00     0.137 C 
ATOM      5  C   UNL     1      -3.371  21.689  48.745  1.00  0.00     0.000 C 
ATOM      6  C   UNL     1      -3.667  22.700  49.571  1.00  0.00    -0.025 C 
ENDROOT
BRANCH   1   7
ATOM      7  C   UNL     1      -4.910  24.887  50.193  1.00  0.00    -0.032 C 
ATOM      8  C   UNL     1      -4.697  24.263  51.593  1.00  0.00     0.011 C 
ATOM      9  C   UNL     1      -6.409  25.254  50.075  1.00  0.00     0.011 C 
ATOM     10  C   UNL     1      -4.075  26.188  50.104  1.00  0.00     0.011 C 
ENDBRANCH   1   7
BRANCH   4  11
ATOM     11  O   UNL     1      -3.777  20.423  46.762  1.00  0.00    -0.389 OA
ATOM     12  H   UNL     1      -3.938  20.539  45.788  1.00  0.00     0.211 HD
ENDBRANCH   4  11
TORSDOF 2
ENDMDL
MODEL 4
REMARK VINA RESULT:    -4.759      2.594      4.518
REMARK INTER + INTRA:          -5.379
REMARK INTER:                  -5.178
REMARK INTRA:                  -0.201
REMARK UNBOUND:                -0.202
REMARK SMILES CC(C)(C)[C@H]1C=C[C@@H](O)CC1
REMARK SMILES IDX 5 1 11 2 10 3 8 4 7 5 6 6 2 7 1 8 3 9 4 10 9 11
REMARK H PARENT 9 12
REMARK Flexibility Score: inf
ROOT
ATOM      1  C   UNL     1      -4.852  23.020  48.884  1.00  0.00     0.017 C 
ATOM      2  C   UNL     1      -5.279  24.107  47.847  1.00  0.00     0.011 C 
ATOM      3  C   UNL     1      -6.068  25.301  48.451  1.00  0.00     0.037 C 
ATOM      4  C   UNL     1      -6.487  25.082  49.913  1.00  0.00     0.137 C 
ATOM      5  C   UNL     1      -5.288  24.632  50.706  1.00  0.00     0.000 C 
ATOM      6  C   UNL     1      -4.496  23.674  50.210  1.00  0.00    -0.025 C 
ENDROOT
BRANCH   1   7
ATOM      7  C   UNL     1      -3.755  22.019  48.358  1.00  0.00    -0.032 C 
ATOM      8  C   UNL     1      -4.237  20.559  48.532  1.00  0.00     0.011 C 
ATOM      9  C   UNL     1      -2.460  22.180  49.191  1.00  0.00     0.011 C 
ATOM     10  C   UNL     1      -3.414  22.248  46.866  1.00  0.00     0.011 C 
ENDBRANCH   1   7
BRANCH   4  11
ATOM     11  O   UNL     1      -6.998  26.276  50.440  1.00  0.00    -0.389 OA
ATOM     12  H   UNL     1      -7.953  26.108  50.658  1.00  0.00     0.211 HD
ENDBRANCH   4  11
TORSDOF 2
ENDMDL
MODEL 5
REMARK VINA RESULT:    -4.747      2.387      3.918
REMARK INTER + INTRA:          -5.366
REMARK INTER:                  -5.164
REMARK INTRA:                  -0.202
REMARK UNBOUND:                -0.202
REMARK SMILES CC(C)(C)[C@H]1C=C[C@@H](O)CC1
REMARK SMILES IDX 5 1 11 2 10 3 8 4 7 5 6 6 2 7 1 8 3 9 4 10 9 11
REMARK H PARENT 9 12
REMARK Flexibility Score: inf
ROOT
ATOM      1  C   UNL     1      -3.522  20.600  47.558  1.00  0.00     0.017 C 
ATOM      2  C   UNL     1      -3.878  19.623  48.723  1.00  0.00     0.011 C 
ATOM      3  C   UNL     1      -3.144  18.254  48.666  1.00  0.00     0.037 C 
ATOM      4  C   UNL     1      -2.383  18.022  47.351  1.00  0.00     0.137 C 
ATOM      5  C   UNL     1      -1.529  19.227  47.058  1.00  0.00     0.000 C 
ATOM      6  C   UNL     1      -2.057  20.451  47.181  1.00  0.00    -0.025 C 
ENDROOT
BRANCH   1   7
ATOM      7  C   UNL     1      -3.962  22.092  47.807  1.00  0.00    -0.032 C 
ATOM      8  C   UNL     1      -3.581  22.529  49.241  1.00  0.00     0.011 C 
ATOM      9  C   UNL     1      -5.500  22.210  47.682  1.00  0.00     0.011 C 
ATOM     10  C   UNL     1      -3.308  23.074  46.805  1.00  0.00     0.011 C 
ENDBRANCH   1   7
BRANCH   4  11
ATOM     11  O   UNL     1      -1.584  16.875  47.466  1.00  0.00    -0.389 OA
ATOM     12  H   UNL     1      -1.557  16.642  48.432  1.00  0.00     0.211 HD
ENDBRANCH   4  11
TORSDOF 2
ENDMDL
MODEL 6
REMARK VINA RESULT:    -4.689      2.618      4.386
REMARK INTER + INTRA:          -5.303
REMARK INTER:                  -5.105
REMARK INTRA:                  -0.198
REMARK UNBOUND:                -0.202
REMARK SMILES CC(C)(C)[C@H]1C=C[C@@H](O)CC1
REMARK SMILES IDX 5 1 11 2 10 3 8 4 7 5 6 6 2 7 1 8 3 9 4 10 9 11
REMARK H PARENT 9 12
REMARK Flexibility Score: inf
ROOT
ATOM      1  C   UNL     1      -4.293  23.585  48.835  1.00  0.00     0.017 C 
ATOM      2  C   UNL     1      -4.111  23.733  50.379  1.00  0.00     0.011 C 
ATOM      3  C   UNL     1      -5.040  24.786  51.042  1.00  0.00     0.037 C 
ATOM      4  C   UNL     1      -5.801  25.655  50.028  1.00  0.00     0.137 C 
ATOM      5  C   UNL     1      -6.459  24.762  49.010  1.00  0.00     0.000 C 
ATOM      6  C   UNL     1      -5.756  23.763  48.463  1.00  0.00    -0.025 C 
ENDROOT
BRANCH   1   7
ATOM      7  C   UNL     1      -3.639  22.288  48.227  1.00  0.00    -0.032 C 
ATOM      8  C   UNL     1      -2.408  21.867  49.063  1.00  0.00     0.011 C 
ATOM      9  C   UNL     1      -3.143  22.579  46.789  1.00  0.00     0.011 C 
ATOM     10  C   UNL     1      -4.627  21.097  48.176  1.00  0.00     0.011 C 
ENDBRANCH   1   7
BRANCH   4  11
ATOM     11  O   UNL     1      -6.765  26.424  50.697  1.00  0.00    -0.389 OA
ATOM     12  H   UNL     1      -7.608  25.898  50.685  1.00  0.00     0.211 HD
ENDBRANCH   4  11
TORSDOF 2
ENDMDL
MODEL 7
REMARK VINA RESULT:    -4.568      2.649      4.651
REMARK INTER + INTRA:          -5.171
REMARK INTER:                  -4.970
REMARK INTRA:                  -0.201
REMARK UNBOUND:                -0.202
REMARK SMILES CC(C)(C)[C@H]1C=C[C@@H](O)CC1
REMARK SMILES IDX 5 1 11 2 10 3 8 4 7 5 6 6 2 7 1 8 3 9 4 10 9 11
REMARK H PARENT 9 12
REMARK Flexibility Score: inf
ROOT
ATOM      1  C   UNL     1      -4.325  22.894  49.588  1.00  0.00     0.017 C 
ATOM      2  C   UNL     1      -5.427  23.995  49.490  1.00  0.00     0.011 C 
ATOM      3  C   UNL     1      -5.431  25.012  50.665  1.00  0.00     0.037 C 
ATOM      4  C   UNL     1      -4.504  24.612  51.824  1.00  0.00     0.137 C 
ATOM      5  C   UNL     1      -3.146  24.268  51.271  1.00  0.00     0.000 C 
ATOM      6  C   UNL     1      -3.058  23.475  50.196  1.00  0.00    -0.025 C 
ENDROOT
BRANCH   1   7
ATOM      7  C   UNL     1      -4.077  22.104  48.247  1.00  0.00    -0.032 C 
ATOM      8  C   UNL     1      -3.035  22.843  47.376  1.00  0.00     0.011 C 
ATOM      9  C   UNL     1      -5.392  22.033  47.434  1.00  0.00     0.011 C 
ATOM     10  C   UNL     1      -3.573  20.662  48.497  1.00  0.00     0.011 C 
ENDBRANCH   1   7
BRANCH   4  11
ATOM     11  O   UNL     1      -4.404  25.675  52.734  1.00  0.00    -0.389 OA
ATOM     12  H   UNL     1      -5.248  25.683  53.258  1.00  0.00     0.211 HD
ENDBRANCH   4  11
TORSDOF 2
ENDMDL
MODEL 8
REMARK VINA RESULT:    -4.533      3.322      6.034
REMARK INTER + INTRA:          -5.133
REMARK INTER:                  -4.933
REMARK INTRA:                  -0.200
REMARK UNBOUND:                -0.202
REMARK SMILES CC(C)(C)[C@H]1C=C[C@@H](O)CC1
REMARK SMILES IDX 5 1 11 2 10 3 8 4 7 5 6 6 2 7 1 8 3 9 4 10 9 11
REMARK H PARENT 9 12
REMARK Flexibility Score: inf
ROOT
ATOM      1  C   UNL     1      -3.032  19.173  46.767  1.00  0.00     0.017 C 
ATOM      2  C   UNL     1      -2.482  20.509  46.173  1.00  0.00     0.011 C 
ATOM      3  C   UNL     1      -3.242  21.783  46.634  1.00  0.00     0.037 C 
ATOM      4  C   UNL     1      -4.537  21.479  47.403  1.00  0.00     0.137 C 
ATOM      5  C   UNL     1      -4.243  20.474  48.485  1.00  0.00     0.000 C 
ATOM      6  C   UNL     1      -3.507  19.394  48.194  1.00  0.00    -0.025 C 
ENDROOT
BRANCH   1   7
ATOM      7  C   UNL     1      -2.060  17.944  46.607  1.00  0.00    -0.032 C 
ATOM      8  C   UNL     1      -2.280  17.264  45.235  1.00  0.00     0.011 C 
ATOM      9  C   UNL     1      -2.366  16.892  47.699  1.00  0.00     0.011 C 
ATOM     10  C   UNL     1      -0.570  18.352  46.718  1.00  0.00     0.011 C 
ENDBRANCH   1   7
BRANCH   4  11
ATOM     11  O   UNL     1      -5.042  22.662  47.962  1.00  0.00    -0.389 OA
ATOM     12  H   UNL     1      -5.181  22.485  48.929  1.00  0.00     0.211 HD
ENDBRANCH   4  11
TORSDOF 2
ENDMDL
MODEL 9
REMARK VINA RESULT:    -4.494      3.200      5.570
REMARK INTER + INTRA:          -5.090
REMARK INTER:                  -4.888
REMARK INTRA:                  -0.202
REMARK UNBOUND:                -0.202
REMARK SMILES CC(C)(C)[C@H]1C=C[C@@H](O)CC1
REMARK SMILES IDX 5 1 11 2 10 3 8 4 7 5 6 6 2 7 1 8 3 9 4 10 9 11
REMARK H PARENT 9 12
REMARK Flexibility Score: inf
ROOT
ATOM      1  C   UNL     1      -2.880  19.817  47.623  1.00  0.00     0.017 C 
ATOM      2  C   UNL     1      -4.353  20.045  48.088  1.00  0.00     0.011 C 
ATOM      3  C   UNL     1      -4.960  21.412  47.669  1.00  0.00     0.037 C 
ATOM      4  C   UNL     1      -3.926  22.385  47.079  1.00  0.00     0.137 C 
ATOM      5  C   UNL     1      -3.134  21.675  46.013  1.00  0.00     0.000 C 
ATOM      6  C   UNL     1      -2.660  20.448  46.257  1.00  0.00    -0.025 C 
ENDROOT
BRANCH   1   7
ATOM      7  C   UNL     1      -2.395  18.322  47.715  1.00  0.00    -0.032 C 
ATOM      8  C   UNL     1      -0.860  18.246  47.539  1.00  0.00     0.011 C 
ATOM      9  C   UNL     1      -3.032  17.496  46.571  1.00  0.00     0.011 C 
ATOM     10  C   UNL     1      -2.766  17.663  49.066  1.00  0.00     0.011 C 
ENDBRANCH   1   7
BRANCH   4  11
ATOM     11  O   UNL     1      -4.584  23.498  46.536  1.00  0.00    -0.389 OA
ATOM     12  H   UNL     1      -5.047  23.952  47.289  1.00  0.00     0.211 HD
ENDBRANCH   4  11
TORSDOF 2
ENDMDL
