MODEL 1
REMARK VINA RESULT:    -3.171      0.000      0.000
REMARK INTER + INTRA:          -4.320
REMARK INTER:                  -4.469
REMARK INTRA:                   0.149
REMARK UNBOUND:                 0.149
REMARK SMILES CC1=CCC(=C(C)C)C(=O)CC(C)=CCC1
REMARK SMILES IDX 12 1 14 2 13 3 15 4 16 5 2 6 1 7 3 8 11 10 9 11 10 12 5 13
REMARK SMILES IDX 6 14 7 15 8 16 4 17
REMARK H PARENT
REMARK Flexibility Score: 60.00
ROOT
ATOM      1  C   UNL     1     183.973 177.347 199.682  1.00  0.00    -0.070 C 
ATOM      2  C   UNL     1     183.316 176.605 198.763  1.00  0.00    -0.027 C 
ATOM      3  C   UNL     1     183.808 176.978 201.135  1.00  0.00     0.039 C 
ENDROOT
BRANCH   2   4
ATOM      4  C   UNL     1     183.428 176.756 197.261  1.00  0.00     0.032 C 
BRANCH   4   5
ATOM      5  C   UNL     1     184.604 175.991 196.619  1.00  0.00     0.034 C 
BRANCH   5   6
ATOM      6  C   UNL     1     185.465 176.863 195.723  1.00  0.00    -0.077 C 
ATOM      7  C   UNL     1     184.900 177.265 194.385  1.00  0.00     0.039 C 
ATOM      8  C   UNL     1     186.677 177.358 196.074  1.00  0.00    -0.023 CG0
ATOM      9  G   UNL     1     187.447 177.074 197.349  1.00  0.00     0.000 G0
ENDBRANCH   5   6
ENDBRANCH   4   5
ENDBRANCH   2   4
BRANCH   1  10
ATOM     10  C   UNL     1     184.930 178.463 199.319  1.00  0.00     0.111 C 
BRANCH  10  11
ATOM     11  C   UNL     1     186.367 178.032 199.466  1.00  0.00     0.163 C 
ATOM     12  O   UNL     1     186.710 177.470 200.541  1.00  0.00    -0.294 OA
BRANCH  11  13
ATOM     13  C   UNL     1     187.367 178.191 198.370  1.00  0.00    -0.002 C 
ATOM     14  C   UNL     1     188.207 179.269 198.342  1.00  0.00    -0.069 C 
ATOM     15  C   UNL     1     189.334 179.380 197.339  1.00  0.00     0.039 C 
ATOM     16  C   UNL     1     188.049 180.412 199.321  1.00  0.00     0.039 C 
BRANCH  13  17
ATOM     17  C   UNL     1     187.473 177.064 197.355  1.00  0.00     0.066 CG0
ATOM     18  G   UNL     1     186.680 177.349 196.094  1.00  0.00     0.000 G0
ENDBRANCH  13  17
ENDBRANCH  11  13
ENDBRANCH  10  11
ENDBRANCH   1  10
TORSDOF 0
ENDMDL
MODEL 2
REMARK VINA RESULT:    -2.988      1.387      4.046
REMARK INTER + INTRA:          -4.062
REMARK INTER:                  -4.472
REMARK INTRA:                   0.410
REMARK UNBOUND:                 0.149
REMARK SMILES CC1=CCC(=C(C)C)C(=O)CC(C)=CCC1
REMARK SMILES IDX 12 1 14 2 13 3 15 4 16 5 2 6 1 7 3 8 11 10 9 11 10 12 5 13
REMARK SMILES IDX 6 14 7 15 8 16 4 17
REMARK H PARENT
REMARK Flexibility Score: 60.00
ROOT
ATOM      1  C   UNL     1     187.485 179.404 199.776  1.00  0.00    -0.070 C 
ATOM      2  C   UNL     1     187.863 180.049 198.651  1.00  0.00    -0.027 C 
ATOM      3  C   UNL     1     188.500 179.262 200.883  1.00  0.00     0.039 C 
ENDROOT
BRANCH   2   4
ATOM      4  C   UNL     1     186.967 180.375 197.475  1.00  0.00     0.032 C 
BRANCH   4   5
ATOM      5  C   UNL     1     187.348 179.673 196.156  1.00  0.00     0.034 C 
BRANCH   5   6
ATOM      6  C   UNL     1     187.650 178.195 196.331  1.00  0.00    -0.077 C 
ATOM      7  C   UNL     1     189.070 177.739 196.111  1.00  0.00     0.039 C 
ATOM      8  C   UNL     1     186.744 177.273 196.738  1.00  0.00    -0.023 CG0
ATOM      9  G   UNL     1     185.266 177.495 196.997  1.00  0.00     0.000 G0
ENDBRANCH   5   6
ENDBRANCH   4   5
ENDBRANCH   2   4
BRANCH   1  10
ATOM     10  C   UNL     1     186.075 178.903 200.014  1.00  0.00     0.111 C 
BRANCH  10  11
ATOM     11  C   UNL     1     185.889 177.501 199.496  1.00  0.00     0.163 C 
ATOM     12  O   UNL     1     186.572 176.579 200.020  1.00  0.00    -0.294 OA
BRANCH  11  13
ATOM     13  C   UNL     1     184.890 177.162 198.440  1.00  0.00    -0.002 C 
ATOM     14  C   UNL     1     183.654 176.684 198.776  1.00  0.00    -0.069 C 
ATOM     15  C   UNL     1     182.566 176.482 197.744  1.00  0.00     0.039 C 
ATOM     16  C   UNL     1     183.312 176.331 200.207  1.00  0.00     0.039 C 
BRANCH  13  17
ATOM     17  C   UNL     1     185.270 177.463 197.000  1.00  0.00     0.066 CG0
ATOM     18  G   UNL     1     186.755 177.288 196.748  1.00  0.00     0.000 G0
ENDBRANCH  13  17
ENDBRANCH  11  13
ENDBRANCH  10  11
ENDBRANCH   1  10
TORSDOF 0
ENDMDL
MODEL 3
REMARK VINA RESULT:    -2.956      8.889     10.596
REMARK INTER + INTRA:          -4.017
REMARK INTER:                  -4.356
REMARK INTRA:                   0.339
REMARK UNBOUND:                 0.149
REMARK SMILES CC1=CCC(=C(C)C)C(=O)CC(C)=CCC1
REMARK SMILES IDX 12 1 14 2 13 3 15 4 16 5 2 6 1 7 3 8 11 10 9 11 10 12 5 13
REMARK SMILES IDX 6 14 7 15 8 16 4 17
REMARK H PARENT
REMARK Flexibility Score: 60.00
ROOT
ATOM      1  C   UNL     1     186.202 184.009 193.852  1.00  0.00    -0.070 C 
ATOM      2  C   UNL     1     187.100 183.844 194.849  1.00  0.00    -0.027 C 
ATOM      3  C   UNL     1     186.303 183.099 192.654  1.00  0.00     0.039 C 
ENDROOT
BRANCH   2   4
ATOM      4  C   UNL     1     187.105 184.588 196.166  1.00  0.00     0.032 C 
BRANCH   4   5
ATOM      5  C   UNL     1     187.409 186.097 196.057  1.00  0.00     0.034 C 
BRANCH   5   6
ATOM      6  C   UNL     1     186.338 186.969 196.685  1.00  0.00    -0.077 C 
ATOM      7  C   UNL     1     186.007 186.737 198.137  1.00  0.00     0.039 C 
ATOM      8  C   UNL     1     185.709 187.986 196.046  1.00  0.00    -0.023 CG0
ATOM      9  G   UNL     1     185.864 188.388 194.593  1.00  0.00     0.000 G0
ENDBRANCH   5   6
ENDBRANCH   4   5
ENDBRANCH   2   4
BRANCH   1  10
ATOM     10  C   UNL     1     185.052 184.991 193.924  1.00  0.00     0.111 C 
BRANCH  10  11
ATOM     11  C   UNL     1     185.361 186.264 193.179  1.00  0.00     0.163 C 
ATOM     12  O   UNL     1     185.976 186.174 192.082  1.00  0.00    -0.294 OA
BRANCH  11  13
ATOM     13  C   UNL     1     184.913 187.604 193.661  1.00  0.00    -0.002 C 
ATOM     14  C   UNL     1     183.667 188.075 193.354  1.00  0.00    -0.069 C 
ATOM     15  C   UNL     1     183.124 189.353 193.955  1.00  0.00     0.039 C 
ATOM     16  C   UNL     1     182.764 187.335 192.390  1.00  0.00     0.039 C 
BRANCH  13  17
ATOM     17  C   UNL     1     185.856 188.365 194.577  1.00  0.00     0.066 CG0
ATOM     18  G   UNL     1     185.701 187.958 196.030  1.00  0.00     0.000 G0
ENDBRANCH  13  17
ENDBRANCH  11  13
ENDBRANCH  10  11
ENDBRANCH   1  10
TORSDOF 0
ENDMDL
MODEL 4
REMARK VINA RESULT:    -2.922      9.324     10.675
REMARK INTER + INTRA:          -3.969
REMARK INTER:                  -4.171
REMARK INTRA:                   0.202
REMARK UNBOUND:                 0.149
REMARK SMILES CC1=CCC(=C(C)C)C(=O)CC(C)=CCC1
REMARK SMILES IDX 12 1 14 2 13 3 15 4 16 5 2 6 1 7 3 8 11 10 9 11 10 12 5 13
REMARK SMILES IDX 6 14 7 15 8 16 4 17
REMARK H PARENT
REMARK Flexibility Score: 60.00
ROOT
ATOM      1  C   UNL     1     185.928 186.390 196.706  1.00  0.00    -0.070 C 
ATOM      2  C   UNL     1     186.894 185.449 196.609  1.00  0.00    -0.027 C 
ATOM      3  C   UNL     1     185.746 187.079 198.036  1.00  0.00     0.039 C 
ENDROOT
BRANCH   2   4
ATOM      4  C   UNL     1     187.292 184.719 195.345  1.00  0.00     0.032 C 
BRANCH   4   5
ATOM      5  C   UNL     1     188.126 185.554 194.351  1.00  0.00     0.034 C 
BRANCH   5   6
ATOM      6  C   UNL     1     187.567 185.537 192.940  1.00  0.00    -0.077 C 
ATOM      7  C   UNL     1     187.515 184.212 192.223  1.00  0.00     0.039 C 
ATOM      8  C   UNL     1     187.049 186.620 192.310  1.00  0.00    -0.023 CG0
ATOM      9  G   UNL     1     187.013 188.046 192.823  1.00  0.00     0.000 G0
ENDBRANCH   5   6
ENDBRANCH   4   5
ENDBRANCH   2   4
BRANCH   1  10
ATOM     10  C   UNL     1     185.091 186.846 195.530  1.00  0.00     0.111 C 
BRANCH  10  11
ATOM     11  C   UNL     1     185.595 188.148 194.961  1.00  0.00     0.163 C 
ATOM     12  O   UNL     1     185.993 189.032 195.766  1.00  0.00    -0.294 OA
BRANCH  11  13
ATOM     13  C   UNL     1     185.694 188.395 193.492  1.00  0.00    -0.002 C 
ATOM     14  C   UNL     1     184.665 188.986 192.813  1.00  0.00    -0.069 C 
ATOM     15  C   UNL     1     184.794 189.394 191.362  1.00  0.00     0.039 C 
ATOM     16  C   UNL     1     183.338 189.263 193.485  1.00  0.00     0.039 C 
BRANCH  13  17
ATOM     17  C   UNL     1     187.011 188.053 192.816  1.00  0.00     0.066 CG0
ATOM     18  G   UNL     1     187.048 186.622 192.317  1.00  0.00     0.000 G0
ENDBRANCH  13  17
ENDBRANCH  11  13
ENDBRANCH  10  11
ENDBRANCH   1  10
TORSDOF 0
ENDMDL
MODEL 5
REMARK VINA RESULT:    -2.920      1.961      4.242
REMARK INTER + INTRA:          -3.966
REMARK INTER:                  -4.530
REMARK INTRA:                   0.564
REMARK UNBOUND:                 0.149
REMARK SMILES CC1=CCC(=C(C)C)C(=O)CC(C)=CCC1
REMARK SMILES IDX 12 1 14 2 13 3 15 4 16 5 2 6 1 7 3 8 11 10 9 11 10 12 5 13
REMARK SMILES IDX 6 14 7 15 8 16 4 17
REMARK H PARENT
REMARK Flexibility Score: 60.00
ROOT
ATOM      1  C   UNL     1     188.017 179.756 199.662  1.00  0.00    -0.070 C 
ATOM      2  C   UNL     1     187.544 178.823 200.519  1.00  0.00    -0.027 C 
ATOM      3  C   UNL     1     188.314 181.129 200.210  1.00  0.00     0.039 C 
ENDROOT
BRANCH   2   4
ATOM      4  C   UNL     1     187.278 177.371 200.185  1.00  0.00     0.032 C 
BRANCH   4   5
ATOM      5  C   UNL     1     185.812 176.924 200.362  1.00  0.00     0.034 C 
BRANCH   5   6
ATOM      6  C   UNL     1     184.818 177.859 199.698  1.00  0.00    -0.077 C 
ATOM      7  C   UNL     1     183.776 178.509 200.572  1.00  0.00     0.039 C 
ATOM      8  C   UNL     1     184.849 178.200 198.387  1.00  0.00    -0.023 CG0
ATOM      9  G   UNL     1     185.786 177.662 197.323  1.00  0.00     0.000 G0
ENDBRANCH   5   6
ENDBRANCH   4   5
ENDBRANCH   2   4
BRANCH   1  10
ATOM     10  C   UNL     1     188.346 179.463 198.214  1.00  0.00     0.111 C 
BRANCH  10  11
ATOM     11  C   UNL     1     187.199 179.811 197.302  1.00  0.00     0.163 C 
ATOM     12  O   UNL     1     186.898 181.027 197.164  1.00  0.00    -0.294 OA
BRANCH  11  13
ATOM     13  C   UNL     1     186.457 178.778 196.518  1.00  0.00    -0.002 C 
ATOM     14  C   UNL     1     186.476 178.792 195.151  1.00  0.00    -0.069 C 
ATOM     15  C   UNL     1     185.871 177.675 194.330  1.00  0.00     0.039 C 
ATOM     16  C   UNL     1     187.109 179.936 194.387  1.00  0.00     0.039 C 
BRANCH  13  17
ATOM     17  C   UNL     1     185.772 177.670 197.300  1.00  0.00     0.066 CG0
ATOM     18  G   UNL     1     184.863 178.210 198.387  1.00  0.00     0.000 G0
ENDBRANCH  13  17
ENDBRANCH  11  13
ENDBRANCH  10  11
ENDBRANCH   1  10
TORSDOF 0
ENDMDL
MODEL 6
REMARK VINA RESULT:    -2.882      8.481      9.876
REMARK INTER + INTRA:          -3.912
REMARK INTER:                  -4.157
REMARK INTRA:                   0.245
REMARK UNBOUND:                 0.149
REMARK SMILES CC1=CCC(=C(C)C)C(=O)CC(C)=CCC1
REMARK SMILES IDX 12 1 14 2 13 3 15 4 16 5 2 6 1 7 3 8 11 10 9 11 10 12 5 13
REMARK SMILES IDX 6 14 7 15 8 16 4 17
REMARK H PARENT
REMARK Flexibility Score: 60.00
ROOT
ATOM      1  C   UNL     1     186.337 187.231 196.544  1.00  0.00    -0.070 C 
ATOM      2  C   UNL     1     185.426 188.142 196.136  1.00  0.00    -0.027 C 
ATOM      3  C   UNL     1     186.239 186.720 197.960  1.00  0.00     0.039 C 
ENDROOT
BRANCH   2   4
ATOM      4  C   UNL     1     185.299 188.698 194.735  1.00  0.00     0.032 C 
BRANCH   4   5
ATOM      5  C   UNL     1     184.246 187.997 193.852  1.00  0.00     0.034 C 
BRANCH   5   6
ATOM      6  C   UNL     1     184.792 187.561 192.504  1.00  0.00    -0.077 C 
ATOM      7  C   UNL     1     184.833 188.587 191.401  1.00  0.00     0.039 C 
ATOM      8  C   UNL     1     185.305 186.333 192.248  1.00  0.00    -0.023 CG0
ATOM      9  G   UNL     1     185.351 185.146 193.190  1.00  0.00     0.000 G0
ENDBRANCH   5   6
ENDBRANCH   4   5
ENDBRANCH   2   4
BRANCH   1  10
ATOM     10  C   UNL     1     187.384 186.634 195.626  1.00  0.00     0.111 C 
BRANCH  10  11
ATOM     11  C   UNL     1     187.002 185.248 195.174  1.00  0.00     0.163 C 
ATOM     12  O   UNL     1     186.831 184.363 196.055  1.00  0.00    -0.294 OA
BRANCH  11  13
ATOM     13  C   UNL     1     186.761 184.912 193.740  1.00  0.00    -0.002 C 
ATOM     14  C   UNL     1     187.743 184.336 192.983  1.00  0.00    -0.069 C 
ATOM     15  C   UNL     1     187.483 183.839 191.578  1.00  0.00     0.039 C 
ATOM     16  C   UNL     1     189.148 184.167 193.519  1.00  0.00     0.039 C 
BRANCH  13  17
ATOM     17  C   UNL     1     185.361 185.146 193.196  1.00  0.00     0.066 CG0
ATOM     18  G   UNL     1     185.302 186.329 192.249  1.00  0.00     0.000 G0
ENDBRANCH  13  17
ENDBRANCH  11  13
ENDBRANCH  10  11
ENDBRANCH   1  10
TORSDOF 0
ENDMDL
MODEL 7
REMARK VINA RESULT:    -2.873     17.612     18.652
REMARK INTER + INTRA:          -3.899
REMARK INTER:                  -4.175
REMARK INTRA:                   0.276
REMARK UNBOUND:                 0.149
REMARK SMILES CC1=CCC(=C(C)C)C(=O)CC(C)=CCC1
REMARK SMILES IDX 12 1 14 2 13 3 15 4 16 5 2 6 1 7 3 8 11 10 9 11 10 12 5 13
REMARK SMILES IDX 6 14 7 15 8 16 4 17
REMARK H PARENT
REMARK Flexibility Score: 60.00
ROOT
ATOM      1  C   UNL     1     178.758 191.918 194.140  1.00  0.00    -0.070 C 
ATOM      2  C   UNL     1     179.225 192.664 195.166  1.00  0.00    -0.027 C 
ATOM      3  C   UNL     1     179.631 190.800 193.626  1.00  0.00     0.039 C 
ENDROOT
BRANCH   2   4
ATOM      4  C   UNL     1     178.463 193.760 195.879  1.00  0.00     0.032 C 
BRANCH   4   5
ATOM      5  C   UNL     1     178.089 194.969 194.996  1.00  0.00     0.034 C 
BRANCH   5   6
ATOM      6  C   UNL     1     179.250 195.485 194.166  1.00  0.00    -0.077 C 
ATOM      7  C   UNL     1     180.434 196.062 194.900  1.00  0.00     0.039 C 
ATOM      8  C   UNL     1     179.322 195.397 192.815  1.00  0.00    -0.023 CG0
ATOM      9  G   UNL     1     178.254 194.877 191.874  1.00  0.00     0.000 G0
ENDBRANCH   5   6
ENDBRANCH   4   5
ENDBRANCH   2   4
BRANCH   1  10
ATOM     10  C   UNL     1     177.374 192.090 193.550  1.00  0.00     0.111 C 
BRANCH  10  11
ATOM     11  C   UNL     1     177.433 192.438 192.086  1.00  0.00     0.163 C 
ATOM     12  O   UNL     1     176.563 191.941 191.321  1.00  0.00    -0.294 OA
BRANCH  11  13
ATOM     13  C   UNL     1     178.440 193.391 191.529  1.00  0.00    -0.002 C 
ATOM     14  C   UNL     1     179.434 192.951 190.701  1.00  0.00    -0.069 C 
ATOM     15  C   UNL     1     180.370 193.907 189.996  1.00  0.00     0.039 C 
ATOM     16  C   UNL     1     179.647 191.474 190.446  1.00  0.00     0.039 C 
BRANCH  13  17
ATOM     17  C   UNL     1     178.251 194.865 191.845  1.00  0.00     0.066 CG0
ATOM     18  G   UNL     1     179.304 195.389 192.802  1.00  0.00     0.000 G0
ENDBRANCH  13  17
ENDBRANCH  11  13
ENDBRANCH  10  11
ENDBRANCH   1  10
TORSDOF 0
ENDMDL
MODEL 8
REMARK VINA RESULT:    -2.833      8.676     10.004
REMARK INTER + INTRA:          -3.844
REMARK INTER:                  -3.974
REMARK INTRA:                   0.130
REMARK UNBOUND:                 0.149
REMARK SMILES CC1=CCC(=C(C)C)C(=O)CC(C)=CCC1
REMARK SMILES IDX 12 1 14 2 13 3 15 4 16 5 2 6 1 7 3 8 11 10 9 11 10 12 5 13
REMARK SMILES IDX 6 14 7 15 8 16 4 17
REMARK H PARENT
REMARK Flexibility Score: 60.00
ROOT
ATOM      1  C   UNL     1     186.669 185.951 195.846  1.00  0.00    -0.070 C 
ATOM      2  C   UNL     1     185.389 186.231 195.516  1.00  0.00    -0.027 C 
ATOM      3  C   UNL     1     186.909 185.020 197.009  1.00  0.00     0.039 C 
ENDROOT
BRANCH   2   4
ATOM      4  C   UNL     1     184.944 187.060 194.330  1.00  0.00     0.032 C 
BRANCH   4   5
ATOM      5  C   UNL     1     184.791 186.275 193.011  1.00  0.00     0.034 C 
BRANCH   5   6
ATOM      6  C   UNL     1     185.482 186.941 191.836  1.00  0.00    -0.077 C 
ATOM      7  C   UNL     1     184.852 188.187 191.267  1.00  0.00     0.039 C 
ATOM      8  C   UNL     1     186.662 186.530 191.310  1.00  0.00    -0.023 CG0
ATOM      9  G   UNL     1     187.461 185.303 191.704  1.00  0.00     0.000 G0
ENDBRANCH   5   6
ENDBRANCH   4   5
ENDBRANCH   2   4
BRANCH   1  10
ATOM     10  C   UNL     1     187.860 186.448 195.055  1.00  0.00     0.111 C 
BRANCH  10  11
ATOM     11  C   UNL     1     188.388 185.390 194.121  1.00  0.00     0.163 C 
ATOM     12  O   UNL     1     188.591 184.236 194.586  1.00  0.00    -0.294 OA
BRANCH  11  13
ATOM     13  C   UNL     1     188.615 185.645 192.668  1.00  0.00    -0.002 C 
ATOM     14  C   UNL     1     189.827 186.090 192.218  1.00  0.00    -0.069 C 
ATOM     15  C   UNL     1     190.140 186.206 190.743  1.00  0.00     0.039 C 
ATOM     16  C   UNL     1     190.923 186.489 193.182  1.00  0.00     0.039 C 
BRANCH  13  17
ATOM     17  C   UNL     1     187.483 185.298 191.715  1.00  0.00     0.066 CG0
ATOM     18  G   UNL     1     186.684 186.519 191.302  1.00  0.00     0.000 G0
ENDBRANCH  13  17
ENDBRANCH  11  13
ENDBRANCH  10  11
ENDBRANCH   1  10
TORSDOF 0
ENDMDL
MODEL 9
REMARK VINA RESULT:    -2.597      3.955      5.740
REMARK INTER + INTRA:          -3.511
REMARK INTER:                  -3.705
REMARK INTRA:                   0.194
REMARK UNBOUND:                 0.149
REMARK SMILES CC1=CCC(=C(C)C)C(=O)CC(C)=CCC1
REMARK SMILES IDX 12 1 14 2 13 3 15 4 16 5 2 6 1 7 3 8 11 10 9 11 10 12 5 13
REMARK SMILES IDX 6 14 7 15 8 16 4 17
REMARK H PARENT
REMARK Flexibility Score: 60.00
ROOT
ATOM      1  C   UNL     1     191.452 177.301 199.822  1.00  0.00    -0.070 C 
ATOM      2  C   UNL     1     190.134 177.370 200.114  1.00  0.00    -0.027 C 
ATOM      3  C   UNL     1     192.301 176.342 200.618  1.00  0.00     0.039 C 
ENDROOT
BRANCH   2   4
ATOM      4  C   UNL     1     189.106 178.194 199.370  1.00  0.00     0.032 C 
BRANCH   4   5
ATOM      5  C   UNL     1     188.651 177.597 198.022  1.00  0.00     0.034 C 
BRANCH   5   6
ATOM      6  C   UNL     1     188.722 178.590 196.875  1.00  0.00    -0.077 C 
ATOM      7  C   UNL     1     187.825 179.800 196.940  1.00  0.00     0.039 C 
ATOM      8  C   UNL     1     189.584 178.494 195.834  1.00  0.00    -0.023 CG0
ATOM      9  G   UNL     1     190.557 177.365 195.552  1.00  0.00     0.000 G0
ENDBRANCH   5   6
ENDBRANCH   4   5
ENDBRANCH   2   4
BRANCH   1  10
ATOM     10  C   UNL     1     192.091 178.065 198.681  1.00  0.00     0.111 C 
BRANCH  10  11
ATOM     11  C   UNL     1     192.278 177.195 197.465  1.00  0.00     0.163 C 
ATOM     12  O   UNL     1     192.674 176.011 197.638  1.00  0.00    -0.294 OA
BRANCH  11  13
ATOM     13  C   UNL     1     191.953 177.666 196.086  1.00  0.00    -0.002 C 
ATOM     14  C   UNL     1     192.906 178.265 195.310  1.00  0.00    -0.069 C 
ATOM     15  C   UNL     1     192.656 178.609 193.858  1.00  0.00     0.039 C 
ATOM     16  C   UNL     1     194.268 178.615 195.870  1.00  0.00     0.039 C 
BRANCH  13  17
ATOM     17  C   UNL     1     190.560 177.364 195.558  1.00  0.00     0.066 CG0
ATOM     18  G   UNL     1     189.583 178.490 195.834  1.00  0.00     0.000 G0
ENDBRANCH  13  17
ENDBRANCH  11  13
ENDBRANCH  10  11
ENDBRANCH   1  10
TORSDOF 0
ENDMDL
