MODEL 1
REMARK VINA RESULT:    -2.038      0.000      0.000
REMARK INTER + INTRA:          -3.124
REMARK INTER:                  -2.514
REMARK INTRA:                  -0.610
REMARK UNBOUND:                -0.610
REMARK SMILES C=C(CCC=C(C)C)[C@H]1CC=C(C)CC1
REMARK SMILES IDX 3 1 2 2 1 3 9 4 13 5 12 6 11 7 14 8 10 9 15 10 4 11 5 12
REMARK SMILES IDX 6 13 7 14 8 15
REMARK H PARENT
REMARK Flexibility Score: inf
ROOT
ATOM      1  C   UNL     1     -14.249  -2.009  19.052  1.00  0.00     0.035 C 
ENDROOT
BRANCH   1   2
ATOM      2  C   UNL     1     -15.095  -1.617  17.846  1.00  0.00    -0.074 C 
ATOM      3  C   UNL     1     -16.302  -1.082  18.111  1.00  0.00     0.008 C 
BRANCH   2   4
ATOM      4  C   UNL     1     -14.593  -1.754  16.399  1.00  0.00     0.018 C 
ATOM      5  C   UNL     1     -15.125  -6.034  15.402  1.00  0.00     0.039 C 
ATOM      6  C   UNL     1     -14.916  -4.564  15.645  1.00  0.00    -0.077 C 
ATOM      7  C   UNL     1     -13.689  -4.127  15.994  1.00  0.00    -0.027 C 
ATOM      8  C   UNL     1     -16.113  -3.640  15.617  1.00  0.00     0.031 C 
ATOM      9  C   UNL     1     -13.358  -2.673  16.237  1.00  0.00     0.035 C 
ATOM     10  C   UNL     1     -15.718  -2.171  15.437  1.00  0.00     0.013 C 
ENDBRANCH   2   4
ENDBRANCH   1   2
BRANCH   1  11
ATOM     11  C   UNL     1     -14.970  -2.803  20.152  1.00  0.00     0.032 C 
BRANCH  11  12
ATOM     12  C   UNL     1     -15.071  -1.986  21.417  1.00  0.00    -0.028 C 
ATOM     13  C   UNL     1     -14.042  -1.765  22.267  1.00  0.00    -0.080 C 
ATOM     14  C   UNL     1     -12.684  -2.389  22.059  1.00  0.00     0.039 C 
ATOM     15  C   UNL     1     -14.248  -0.905  23.486  1.00  0.00     0.039 C 
ENDBRANCH  11  12
ENDBRANCH   1  11
TORSDOF 4
ENDMDL
MODEL 2
REMARK VINA RESULT:     0.924      1.116      6.227
REMARK INTER + INTRA:           0.531
REMARK INTER:                   0.026
REMARK INTRA:                   0.505
REMARK UNBOUND:                -0.610
REMARK SMILES C=C(CCC=C(C)C)[C@H]1CC=C(C)CC1
REMARK SMILES IDX 3 1 2 2 1 3 9 4 13 5 12 6 11 7 14 8 10 9 15 10 4 11 5 12
REMARK SMILES IDX 6 13 7 14 8 15
REMARK H PARENT
REMARK Flexibility Score: inf
ROOT
ATOM      1  C   UNL     1     -14.051  -1.994  17.859  1.00  0.00     0.035 C 
ENDROOT
BRANCH   1   2
ATOM      2  C   UNL     1     -14.466  -2.239  19.305  1.00  0.00    -0.074 C 
ATOM      3  C   UNL     1     -15.790  -2.331  19.539  1.00  0.00     0.008 C 
BRANCH   2   4
ATOM      4  C   UNL     1     -13.447  -2.441  20.439  1.00  0.00     0.018 C 
ATOM      5  C   UNL     1     -15.170  -0.314  23.918  1.00  0.00     0.039 C 
ATOM      6  C   UNL     1     -14.511  -1.069  22.796  1.00  0.00    -0.077 C 
ATOM      7  C   UNL     1     -13.543  -0.463  22.079  1.00  0.00    -0.027 C 
ATOM      8  C   UNL     1     -15.041  -2.436  22.424  1.00  0.00     0.031 C 
ATOM      9  C   UNL     1     -12.796  -1.133  20.950  1.00  0.00     0.035 C 
ATOM     10  C   UNL     1     -14.038  -3.253  21.604  1.00  0.00     0.013 C 
ENDBRANCH   2   4
ENDBRANCH   1   2
BRANCH   1  11
ATOM     11  C   UNL     1     -15.191  -1.935  16.830  1.00  0.00     0.032 C 
BRANCH  11  12
ATOM     12  C   UNL     1     -15.474  -3.308  16.271  1.00  0.00    -0.028 C 
ATOM     13  C   UNL     1     -14.530  -4.139  15.774  1.00  0.00    -0.080 C 
ATOM     14  C   UNL     1     -13.081  -3.731  15.665  1.00  0.00     0.039 C 
ATOM     15  C   UNL     1     -14.921  -5.503  15.270  1.00  0.00     0.039 C 
ENDBRANCH  11  12
ENDBRANCH   1  11
TORSDOF 4
ENDMDL
