MODEL 1
REMARK VINA RESULT:    -3.495      0.000      0.000
REMARK INTER + INTRA:          -5.609
REMARK INTER:                  -4.925
REMARK INTRA:                  -0.684
REMARK UNBOUND:                -0.684
REMARK SMILES C=CCCCCCCC(=O)[O-]
REMARK SMILES IDX 6 1 7 2 8 3 9 4 10 5 11 6 5 7 4 8 3 9 2 10 1 11
REMARK H PARENT
REMARK Flexibility Score: inf
ROOT
ATOM      1  C   UNL     1     199.766 206.438 190.304  1.00  0.00     0.000 C 
ENDROOT
BRANCH   1   2
ATOM      2  C   UNL     1     199.186 205.404 191.281  1.00  0.00     0.006 C 
BRANCH   2   3
ATOM      3  C   UNL     1     199.955 205.363 192.607  1.00  0.00     0.053 C 
BRANCH   3   4
ATOM      4  C   UNL     1     199.859 206.661 193.347  1.00  0.00     0.041 C 
ATOM      5  O   UNL     1     198.755 207.260 193.436  1.00  0.00    -0.550 OA
ATOM      6  O   UNL     1     200.995 207.228 193.910  1.00  0.00    -0.550 OA
ENDBRANCH   3   4
ENDBRANCH   2   3
ENDBRANCH   1   2
BRANCH   1   7
ATOM      7  C   UNL     1     200.234 205.767 189.006  1.00  0.00     0.000 C 
BRANCH   7   8
ATOM      8  C   UNL     1     201.547 205.007 189.222  1.00  0.00     0.004 C 
BRANCH   8   9
ATOM      9  C   UNL     1     202.700 205.976 189.519  1.00  0.00     0.027 C 
BRANCH   9  10
ATOM     10  C   UNL     1     203.267 205.742 190.893  1.00  0.00    -0.035 C 
ATOM     11  C   UNL     1     203.604 206.754 191.697  1.00  0.00     0.004 C 
ENDBRANCH   9  10
ENDBRANCH   8   9
ENDBRANCH   7   8
ENDBRANCH   1   7
TORSDOF 7
ENDMDL
MODEL 2
REMARK VINA RESULT:    -3.471      1.614      3.631
REMARK INTER + INTRA:          -5.575
REMARK INTER:                  -4.796
REMARK INTRA:                  -0.779
REMARK UNBOUND:                -0.684
REMARK SMILES C=CCCCCCCC(=O)[O-]
REMARK SMILES IDX 6 1 7 2 8 3 9 4 10 5 11 6 5 7 4 8 3 9 2 10 1 11
REMARK H PARENT
REMARK Flexibility Score: inf
ROOT
ATOM      1  C   UNL     1     201.530 205.052 189.289  1.00  0.00     0.000 C 
ENDROOT
BRANCH   1   2
ATOM      2  C   UNL     1     202.657 206.033 189.647  1.00  0.00     0.006 C 
BRANCH   2   3
ATOM      3  C   UNL     1     203.201 205.801 191.063  1.00  0.00     0.053 C 
BRANCH   3   4
ATOM      4  C   UNL     1     203.455 207.091 191.779  1.00  0.00     0.041 C 
ATOM      5  O   UNL     1     204.410 207.185 192.595  1.00  0.00    -0.550 OA
ATOM      6  O   UNL     1     202.618 208.180 191.572  1.00  0.00    -0.550 OA
ENDBRANCH   3   4
ENDBRANCH   2   3
ENDBRANCH   1   2
BRANCH   1   7
ATOM      7  C   UNL     1     200.208 205.794 189.055  1.00  0.00     0.000 C 
BRANCH   7   8
ATOM      8  C   UNL     1     199.696 206.431 190.351  1.00  0.00     0.004 C 
BRANCH   8   9
ATOM      9  C   UNL     1     199.063 205.376 191.268  1.00  0.00     0.027 C 
BRANCH   9  10
ATOM     10  C   UNL     1     199.796 205.282 192.578  1.00  0.00    -0.035 C 
ATOM     11  C   UNL     1     200.100 206.368 193.295  1.00  0.00     0.004 C 
ENDBRANCH   9  10
ENDBRANCH   8   9
ENDBRANCH   7   8
ENDBRANCH   1   7
TORSDOF 7
ENDMDL
MODEL 3
REMARK VINA RESULT:    -3.434      1.726      2.926
REMARK INTER + INTRA:          -5.523
REMARK INTER:                  -4.834
REMARK INTRA:                  -0.689
REMARK UNBOUND:                -0.684
REMARK SMILES C=CCCCCCCC(=O)[O-]
REMARK SMILES IDX 6 1 7 2 8 3 9 4 10 5 11 6 5 7 4 8 3 9 2 10 1 11
REMARK H PARENT
REMARK Flexibility Score: inf
ROOT
ATOM      1  C   UNL     1     200.324 206.959 192.620  1.00  0.00     0.000 C 
ENDROOT
BRANCH   1   2
ATOM      2  C   UNL     1     199.774 205.526 192.693  1.00  0.00     0.006 C 
BRANCH   2   3
ATOM      3  C   UNL     1     198.693 205.265 191.636  1.00  0.00     0.053 C 
BRANCH   3   4
ATOM      4  C   UNL     1     197.681 206.367 191.591  1.00  0.00     0.041 C 
ATOM      5  O   UNL     1     197.571 207.086 190.563  1.00  0.00    -0.550 OA
ATOM      6  O   UNL     1     196.881 206.624 192.698  1.00  0.00    -0.550 OA
ENDBRANCH   3   4
ENDBRANCH   2   3
ENDBRANCH   1   2
BRANCH   1   7
ATOM      7  C   UNL     1     201.857 206.959 192.585  1.00  0.00     0.000 C 
BRANCH   7   8
ATOM      8  C   UNL     1     202.393 205.685 191.923  1.00  0.00     0.004 C 
BRANCH   8   9
ATOM      9  C   UNL     1     202.756 205.940 190.454  1.00  0.00     0.027 C 
BRANCH   9  10
ATOM     10  C   UNL     1     201.894 205.124 189.530  1.00  0.00    -0.035 C 
ATOM     11  C   UNL     1     200.818 205.642 188.930  1.00  0.00     0.004 C 
ENDBRANCH   9  10
ENDBRANCH   8   9
ENDBRANCH   7   8
ENDBRANCH   1   7
TORSDOF 7
ENDMDL
MODEL 4
REMARK VINA RESULT:    -3.429      1.587      2.241
REMARK INTER + INTRA:          -5.516
REMARK INTER:                  -5.011
REMARK INTRA:                  -0.505
REMARK UNBOUND:                -0.684
REMARK SMILES C=CCCCCCCC(=O)[O-]
REMARK SMILES IDX 6 1 7 2 8 3 9 4 10 5 11 6 5 7 4 8 3 9 2 10 1 11
REMARK H PARENT
REMARK Flexibility Score: inf
ROOT
ATOM      1  C   UNL     1     199.420 205.315 192.299  1.00  0.00     0.000 C 
ENDROOT
BRANCH   1   2
ATOM      2  C   UNL     1     198.261 205.457 191.301  1.00  0.00     0.006 C 
BRANCH   2   3
ATOM      3  C   UNL     1     197.138 206.353 191.839  1.00  0.00     0.053 C 
BRANCH   3   4
ATOM      4  C   UNL     1     197.667 207.651 192.368  1.00  0.00     0.041 C 
ATOM      5  O   UNL     1     197.482 207.967 193.572  1.00  0.00    -0.550 OA
ATOM      6  O   UNL     1     198.337 208.526 191.522  1.00  0.00    -0.550 OA
ENDBRANCH   3   4
ENDBRANCH   2   3
ENDBRANCH   1   2
BRANCH   1   7
ATOM      7  C   UNL     1     200.766 205.610 191.626  1.00  0.00     0.000 C 
BRANCH   7   8
ATOM      8  C   UNL     1     200.595 205.809 190.116  1.00  0.00     0.004 C 
BRANCH   8   9
ATOM      9  C   UNL     1     201.849 205.358 189.356  1.00  0.00     0.027 C 
BRANCH   9  10
ATOM     10  C   UNL     1     203.082 205.497 190.208  1.00  0.00    -0.035 C 
ATOM     11  C   UNL     1     204.233 205.957 189.710  1.00  0.00     0.004 C 
ENDBRANCH   9  10
ENDBRANCH   8   9
ENDBRANCH   7   8
ENDBRANCH   1   7
TORSDOF 7
ENDMDL
MODEL 5
REMARK VINA RESULT:    -3.416      2.928      4.566
REMARK INTER + INTRA:          -5.498
REMARK INTER:                  -4.896
REMARK INTRA:                  -0.602
REMARK UNBOUND:                -0.684
REMARK SMILES C=CCCCCCCC(=O)[O-]
REMARK SMILES IDX 6 1 7 2 8 3 9 4 10 5 11 6 5 7 4 8 3 9 2 10 1 11
REMARK H PARENT
REMARK Flexibility Score: inf
ROOT
ATOM      1  C   UNL     1     201.619 205.187 189.210  1.00  0.00     0.000 C 
ENDROOT
BRANCH   1   2
ATOM      2  C   UNL     1     202.554 206.377 189.475  1.00  0.00     0.006 C 
BRANCH   2   3
ATOM      3  C   UNL     1     203.606 206.063 190.547  1.00  0.00     0.053 C 
BRANCH   3   4
ATOM      4  C   UNL     1     204.998 206.284 190.042  1.00  0.00     0.041 C 
ATOM      5  O   UNL     1     205.484 205.519 189.168  1.00  0.00    -0.550 OA
ATOM      6  O   UNL     1     205.772 207.314 190.562  1.00  0.00    -0.550 OA
ENDBRANCH   3   4
ENDBRANCH   2   3
ENDBRANCH   1   2
BRANCH   1   7
ATOM      7  C   UNL     1     200.175 205.658 188.998  1.00  0.00     0.000 C 
BRANCH   7   8
ATOM      8  C   UNL     1     199.633 206.355 190.250  1.00  0.00     0.004 C 
BRANCH   8   9
ATOM      9  C   UNL     1     199.041 205.335 191.233  1.00  0.00     0.027 C 
BRANCH   9  10
ATOM     10  C   UNL     1     199.882 205.224 192.475  1.00  0.00    -0.035 C 
ATOM     11  C   UNL     1     200.213 206.297 193.199  1.00  0.00     0.004 C 
ENDBRANCH   9  10
ENDBRANCH   8   9
ENDBRANCH   7   8
ENDBRANCH   1   7
TORSDOF 7
ENDMDL
MODEL 6
REMARK VINA RESULT:    -3.394      2.986      5.101
REMARK INTER + INTRA:          -5.467
REMARK INTER:                  -5.100
REMARK INTRA:                  -0.366
REMARK UNBOUND:                -0.684
REMARK SMILES C=CCCCCCCC(=O)[O-]
REMARK SMILES IDX 6 1 7 2 8 3 9 4 10 5 11 6 5 7 4 8 3 9 2 10 1 11
REMARK H PARENT
REMARK Flexibility Score: inf
ROOT
ATOM      1  C   UNL     1     200.665 205.384 189.990  1.00  0.00     0.000 C 
ENDROOT
BRANCH   1   2
ATOM      2  C   UNL     1     202.006 205.375 189.240  1.00  0.00     0.006 C 
BRANCH   2   3
ATOM      3  C   UNL     1     203.206 205.392 190.196  1.00  0.00     0.053 C 
BRANCH   3   4
ATOM      4  C   UNL     1     204.389 206.082 189.591  1.00  0.00     0.041 C 
ATOM      5  O   UNL     1     205.401 205.417 189.243  1.00  0.00    -0.550 OA
ATOM      6  O   UNL     1     204.390 207.463 189.441  1.00  0.00    -0.550 OA
ENDBRANCH   3   4
ENDBRANCH   2   3
ENDBRANCH   1   2
BRANCH   1   7
ATOM      7  C   UNL     1     200.862 205.753 191.465  1.00  0.00     0.000 C 
BRANCH   7   8
ATOM      8  C   UNL     1     199.557 205.592 192.253  1.00  0.00     0.004 C 
BRANCH   8   9
ATOM      9  C   UNL     1     198.373 205.347 191.309  1.00  0.00     0.027 C 
BRANCH   9  10
ATOM     10  C   UNL     1     197.357 206.452 191.411  1.00  0.00    -0.035 C 
ATOM     11  C   UNL     1     196.875 206.858 192.589  1.00  0.00     0.004 C 
ENDBRANCH   9  10
ENDBRANCH   8   9
ENDBRANCH   7   8
ENDBRANCH   1   7
TORSDOF 7
ENDMDL
MODEL 7
REMARK VINA RESULT:    -3.388      2.493      4.604
REMARK INTER + INTRA:          -5.458
REMARK INTER:                  -4.802
REMARK INTRA:                  -0.657
REMARK UNBOUND:                -0.684
REMARK SMILES C=CCCCCCCC(=O)[O-]
REMARK SMILES IDX 6 1 7 2 8 3 9 4 10 5 11 6 5 7 4 8 3 9 2 10 1 11
REMARK H PARENT
REMARK Flexibility Score: inf
ROOT
ATOM      1  C   UNL     1     201.447 207.060 192.593  1.00  0.00     0.000 C 
ENDROOT
BRANCH   1   2
ATOM      2  C   UNL     1     202.403 205.924 192.199  1.00  0.00     0.006 C 
BRANCH   2   3
ATOM      3  C   UNL     1     203.033 206.147 190.818  1.00  0.00     0.053 C 
BRANCH   3   4
ATOM      4  C   UNL     1     202.020 206.039 189.720  1.00  0.00     0.041 C 
ATOM      5  O   UNL     1     201.541 204.918 189.407  1.00  0.00    -0.550 OA
ATOM      6  O   UNL     1     201.628 207.174 189.021  1.00  0.00    -0.550 OA
ENDBRANCH   3   4
ENDBRANCH   2   3
ENDBRANCH   1   2
BRANCH   1   7
ATOM      7  C   UNL     1     200.186 206.509 193.270  1.00  0.00     0.000 C 
BRANCH   7   8
ATOM      8  C   UNL     1     199.760 205.178 192.641  1.00  0.00     0.004 C 
BRANCH   8   9
ATOM      9  C   UNL     1     198.734 205.403 191.523  1.00  0.00     0.027 C 
BRANCH   9  10
ATOM     10  C   UNL     1     197.661 206.366 191.954  1.00  0.00    -0.035 C 
ATOM     11  C   UNL     1     197.228 207.343 191.151  1.00  0.00     0.004 C 
ENDBRANCH   9  10
ENDBRANCH   8   9
ENDBRANCH   7   8
ENDBRANCH   1   7
TORSDOF 7
ENDMDL
MODEL 8
REMARK VINA RESULT:    -3.329      1.505      2.435
REMARK INTER + INTRA:          -5.376
REMARK INTER:                  -4.501
REMARK INTRA:                  -0.874
REMARK UNBOUND:                -0.684
REMARK SMILES C=CCCCCCCC(=O)[O-]
REMARK SMILES IDX 6 1 7 2 8 3 9 4 10 5 11 6 5 7 4 8 3 9 2 10 1 11
REMARK H PARENT
REMARK Flexibility Score: inf
ROOT
ATOM      1  C   UNL     1     199.865 205.265 192.521  1.00  0.00     0.000 C 
ENDROOT
BRANCH   1   2
ATOM      2  C   UNL     1     199.877 206.588 193.301  1.00  0.00     0.006 C 
BRANCH   2   3
ATOM      3  C   UNL     1     201.291 207.164 193.447  1.00  0.00     0.053 C 
BRANCH   3   4
ATOM      4  C   UNL     1     201.505 208.348 192.555  1.00  0.00     0.041 C 
ATOM      5  O   UNL     1     200.530 209.068 192.214  1.00  0.00    -0.550 OA
ATOM      6  O   UNL     1     202.775 208.636 192.073  1.00  0.00    -0.550 OA
ENDBRANCH   3   4
ENDBRANCH   2   3
ENDBRANCH   1   2
BRANCH   1   7
ATOM      7  C   UNL     1     198.977 205.368 191.276  1.00  0.00     0.000 C 
BRANCH   7   8
ATOM      8  C   UNL     1     199.636 206.235 190.198  1.00  0.00     0.004 C 
BRANCH   8   9
ATOM      9  C   UNL     1     200.658 205.425 189.390  1.00  0.00     0.027 C 
BRANCH   9  10
ATOM     10  C   UNL     1     202.042 205.997 189.531  1.00  0.00    -0.035 C 
ATOM     11  C   UNL     1     202.919 205.508 190.414  1.00  0.00     0.004 C 
ENDBRANCH   9  10
ENDBRANCH   8   9
ENDBRANCH   7   8
ENDBRANCH   1   7
TORSDOF 7
ENDMDL
MODEL 9
REMARK VINA RESULT:    -3.299     11.529     13.719
REMARK INTER + INTRA:          -5.333
REMARK INTER:                  -4.635
REMARK INTRA:                  -0.697
REMARK UNBOUND:                -0.684
REMARK SMILES C=CCCCCCCC(=O)[O-]
REMARK SMILES IDX 6 1 7 2 8 3 9 4 10 5 11 6 5 7 4 8 3 9 2 10 1 11
REMARK H PARENT
REMARK Flexibility Score: inf
ROOT
ATOM      1  C   UNL     1     216.002 204.667 194.307  1.00  0.00     0.000 C 
ENDROOT
BRANCH   1   2
ATOM      2  C   UNL     1     214.806 204.740 195.268  1.00  0.00     0.006 C 
BRANCH   2   3
ATOM      3  C   UNL     1     214.227 203.354 195.581  1.00  0.00     0.053 C 
BRANCH   3   4
ATOM      4  C   UNL     1     213.107 203.430 196.573  1.00  0.00     0.041 C 
ATOM      5  O   UNL     1     212.974 202.535 197.449  1.00  0.00    -0.550 OA
ATOM      6  O   UNL     1     212.191 204.472 196.510  1.00  0.00    -0.550 OA
ENDBRANCH   3   4
ENDBRANCH   2   3
ENDBRANCH   1   2
BRANCH   1   7
ATOM      7  C   UNL     1     215.619 203.953 193.005  1.00  0.00     0.000 C 
BRANCH   7   8
ATOM      8  C   UNL     1     214.979 204.928 192.010  1.00  0.00     0.004 C 
BRANCH   8   9
ATOM      9  C   UNL     1     213.750 204.301 191.340  1.00  0.00     0.027 C 
BRANCH   9  10
ATOM     10  C   UNL     1     212.474 204.823 191.943  1.00  0.00    -0.035 C 
ATOM     11  C   UNL     1     211.758 204.101 192.810  1.00  0.00     0.004 C 
ENDBRANCH   9  10
ENDBRANCH   8   9
ENDBRANCH   7   8
ENDBRANCH   1   7
TORSDOF 7
ENDMDL
