MODEL 1
REMARK VINA RESULT:    -7.385      0.000      0.000
REMARK INTER + INTRA:         -11.739
REMARK INTER:                 -10.192
REMARK INTRA:                  -1.548
REMARK UNBOUND:                -1.548
REMARK SMILES CC[C@@H](CC[C@H](C)[C@@H]1CC[C@@H]2C3=CC[C@H]4C[C@H](O)CC[C@@]4(C)[C@@H]3CC[C@]21C)C(C)C
REMARK SMILES IDX 5 1 4 2 3 3 2 4 1 5 28 6 29 7 30 8 6 9 7 10 8 11 9 12 26 13
REMARK SMILES IDX 10 14 11 15 25 16 27 17 12 18 24 19 23 20 13 21 21 22 14 23
REMARK SMILES IDX 15 24 20 25 22 26 16 27 19 28 17 29 18 30
REMARK H PARENT 18 31
REMARK Flexibility Score: inf
ROOT
ATOM      1  C   UNL     1      -2.281  19.473  48.429  1.00  0.00     0.004 C 
ENDROOT
BRANCH   1   2
ATOM      2  C   UNL     1      -2.207  17.951  48.167  1.00  0.00     0.004 C 
BRANCH   2   3
ATOM      3  C   UNL     1      -1.162  17.538  47.084  1.00  0.00    -0.009 C 
BRANCH   3   4
ATOM      4  C   UNL     1      -0.208  18.708  46.703  1.00  0.00     0.000 C 
ATOM      5  C   UNL     1       1.165  18.649  47.376  1.00  0.00     0.004 C 
ENDBRANCH   3   4
BRANCH   3   6
ATOM      6  C   UNL     1      -1.821  16.898  45.810  1.00  0.00    -0.014 C 
ATOM      7  C   UNL     1      -3.110  17.632  45.391  1.00  0.00     0.007 C 
ATOM      8  C   UNL     1      -0.859  16.876  44.608  1.00  0.00     0.007 C 
ENDBRANCH   3   6
ENDBRANCH   2   3
ENDBRANCH   1   2
BRANCH   1   9
ATOM      9  C   UNL     1      -3.724  20.054  48.470  1.00  0.00    -0.011 C 
ATOM     10  C   UNL     1      -4.754  18.913  48.379  1.00  0.00     0.008 C 
BRANCH   9  11
ATOM     11  C   UNL     1      -3.967  21.175  47.398  1.00  0.00    -0.002 C 
ATOM     12  C   UNL     1      -2.736  21.383  46.474  1.00  0.00     0.005 C 
ATOM     13  C   UNL     1      -4.290  22.615  47.902  1.00  0.00    -0.023 C 
ATOM     14  C   UNL     1      -2.681  22.874  46.114  1.00  0.00     0.009 C 
ATOM     15  C   UNL     1      -4.001  23.423  46.634  1.00  0.00     0.021 C 
ATOM     16  C   UNL     1      -5.773  22.885  48.256  1.00  0.00     0.008 C 
ATOM     17  C   UNL     1      -3.350  23.015  49.082  1.00  0.00     0.012 C 
ATOM     18  C   UNL     1      -4.178  24.914  46.827  1.00  0.00    -0.067 C 
ATOM     19  C   UNL     1      -6.007  24.377  48.586  1.00  0.00     0.009 C 
ATOM     20  C   UNL     1      -5.441  25.394  47.534  1.00  0.00     0.021 C 
ATOM     21  C   UNL     1      -3.497  25.783  46.057  1.00  0.00    -0.027 C 
ATOM     22  C   UNL     1      -5.227  26.846  48.110  1.00  0.00    -0.023 C 
ATOM     23  C   UNL     1      -4.035  27.158  45.767  1.00  0.00     0.031 C 
ATOM     24  C   UNL     1      -4.803  27.829  46.943  1.00  0.00     0.002 C 
ATOM     25  C   UNL     1      -6.550  27.331  48.793  1.00  0.00     0.010 C 
ATOM     26  C   UNL     1      -4.089  26.861  49.176  1.00  0.00     0.012 C 
ATOM     27  C   UNL     1      -6.009  28.622  46.390  1.00  0.00     0.036 C 
ATOM     28  C   UNL     1      -6.646  28.860  48.869  1.00  0.00     0.032 C 
ATOM     29  C   UNL     1      -6.665  29.510  47.467  1.00  0.00     0.114 C 
BRANCH  29  30
ATOM     30  O   UNL     1      -6.007  30.750  47.512  1.00  0.00    -0.393 OA
ATOM     31  H   UNL     1      -6.697  31.444  47.343  1.00  0.00     0.210 HD
ENDBRANCH  29  30
ENDBRANCH   9  11
ENDBRANCH   1   9
TORSDOF 7
ENDMDL
MODEL 2
REMARK VINA RESULT:    -7.354      3.138      8.834
REMARK INTER + INTRA:         -11.696
REMARK INTER:                  -9.879
REMARK INTRA:                  -1.817
REMARK UNBOUND:                -1.548
REMARK SMILES CC[C@@H](CC[C@H](C)[C@@H]1CC[C@@H]2C3=CC[C@H]4C[C@H](O)CC[C@@]4(C)[C@@H]3CC[C@]21C)C(C)C
REMARK SMILES IDX 5 1 4 2 3 3 2 4 1 5 28 6 29 7 30 8 6 9 7 10 8 11 9 12 26 13
REMARK SMILES IDX 10 14 11 15 25 16 27 17 12 18 24 19 23 20 13 21 21 22 14 23
REMARK SMILES IDX 15 24 20 25 22 26 16 27 19 28 17 29 18 30
REMARK H PARENT 18 31
REMARK Flexibility Score: inf
ROOT
ATOM      1  C   UNL     1      -5.761  27.486  49.405  1.00  0.00     0.004 C 
ENDROOT
BRANCH   1   2
ATOM      2  C   UNL     1      -6.151  28.412  48.229  1.00  0.00     0.004 C 
BRANCH   2   3
ATOM      3  C   UNL     1      -6.879  27.684  47.056  1.00  0.00    -0.009 C 
BRANCH   3   4
ATOM      4  C   UNL     1      -5.968  27.516  45.805  1.00  0.00     0.000 C 
ATOM      5  C   UNL     1      -4.628  28.251  45.896  1.00  0.00     0.004 C 
ENDBRANCH   3   4
BRANCH   3   6
ATOM      6  C   UNL     1      -8.252  28.349  46.680  1.00  0.00    -0.014 C 
ATOM      7  C   UNL     1      -9.370  27.973  47.671  1.00  0.00     0.007 C 
ATOM      8  C   UNL     1      -8.155  29.884  46.613  1.00  0.00     0.007 C 
ENDBRANCH   3   6
ENDBRANCH   2   3
ENDBRANCH   1   2
BRANCH   1   9
ATOM      9  C   UNL     1      -5.793  25.966  49.070  1.00  0.00    -0.011 C 
ATOM     10  C   UNL     1      -6.894  25.270  49.892  1.00  0.00     0.008 C 
BRANCH   9  11
ATOM     11  C   UNL     1      -4.393  25.273  49.225  1.00  0.00    -0.002 C 
ATOM     12  C   UNL     1      -3.227  26.189  48.763  1.00  0.00     0.005 C 
ATOM     13  C   UNL     1      -4.141  23.945  48.448  1.00  0.00    -0.023 C 
ATOM     14  C   UNL     1      -2.148  25.284  48.153  1.00  0.00     0.009 C 
ATOM     15  C   UNL     1      -2.613  23.879  48.501  1.00  0.00     0.021 C 
ATOM     16  C   UNL     1      -4.654  22.656  49.136  1.00  0.00     0.008 C 
ATOM     17  C   UNL     1      -4.675  24.049  46.984  1.00  0.00     0.012 C 
ATOM     18  C   UNL     1      -2.044  22.687  47.760  1.00  0.00    -0.067 C 
ATOM     19  C   UNL     1      -4.211  21.394  48.363  1.00  0.00     0.009 C 
ATOM     20  C   UNL     1      -2.684  21.325  48.008  1.00  0.00     0.021 C 
ATOM     21  C   UNL     1      -0.797  22.734  47.256  1.00  0.00    -0.027 C 
ATOM     22  C   UNL     1      -2.355  20.342  46.819  1.00  0.00    -0.023 C 
ATOM     23  C   UNL     1       0.020  21.484  47.073  1.00  0.00     0.031 C 
ATOM     24  C   UNL     1      -0.786  20.225  46.639  1.00  0.00     0.002 C 
ATOM     25  C   UNL     1      -2.987  18.941  47.117  1.00  0.00     0.010 C 
ATOM     26  C   UNL     1      -2.945  20.873  45.477  1.00  0.00     0.012 C 
ATOM     27  C   UNL     1      -0.215  18.975  47.347  1.00  0.00     0.036 C 
ATOM     28  C   UNL     1      -2.283  17.806  46.363  1.00  0.00     0.032 C 
ATOM     29  C   UNL     1      -0.801  17.666  46.779  1.00  0.00     0.114 C 
BRANCH  29  30
ATOM     30  O   UNL     1      -0.037  17.257  45.673  1.00  0.00    -0.393 OA
ATOM     31  H   UNL     1       0.913  17.423  45.907  1.00  0.00     0.210 HD
ENDBRANCH  29  30
ENDBRANCH   9  11
ENDBRANCH   1   9
TORSDOF 7
ENDMDL
MODEL 3
REMARK VINA RESULT:    -7.319      3.073      9.633
REMARK INTER + INTRA:         -11.648
REMARK INTER:                 -10.379
REMARK INTRA:                  -1.269
REMARK UNBOUND:                -1.548
REMARK SMILES CC[C@@H](CC[C@H](C)[C@@H]1CC[C@@H]2C3=CC[C@H]4C[C@H](O)CC[C@@]4(C)[C@@H]3CC[C@]21C)C(C)C
REMARK SMILES IDX 5 1 4 2 3 3 2 4 1 5 28 6 29 7 30 8 6 9 7 10 8 11 9 12 26 13
REMARK SMILES IDX 10 14 11 15 25 16 27 17 12 18 24 19 23 20 13 21 21 22 14 23
REMARK SMILES IDX 15 24 20 25 22 26 16 27 19 28 17 29 18 30
REMARK H PARENT 18 31
REMARK Flexibility Score: inf
ROOT
ATOM      1  C   UNL     1      -6.317  28.652  48.213  1.00  0.00     0.004 C 
ENDROOT
BRANCH   1   2
ATOM      2  C   UNL     1      -6.701  29.971  47.504  1.00  0.00     0.004 C 
BRANCH   2   3
ATOM      3  C   UNL     1      -8.174  30.014  46.988  1.00  0.00    -0.009 C 
BRANCH   3   4
ATOM      4  C   UNL     1      -8.704  28.605  46.588  1.00  0.00     0.000 C 
ATOM      5  C   UNL     1      -9.875  28.106  47.439  1.00  0.00     0.004 C 
ENDBRANCH   3   4
BRANCH   3   6
ATOM      6  C   UNL     1      -8.388  31.055  45.832  1.00  0.00    -0.014 C 
ATOM      7  C   UNL     1      -9.857  31.113  45.367  1.00  0.00     0.007 C 
ATOM      8  C   UNL     1      -7.948  32.473  46.238  1.00  0.00     0.007 C 
ENDBRANCH   3   6
ENDBRANCH   2   3
ENDBRANCH   1   2
BRANCH   1   9
ATOM      9  C   UNL     1      -5.217  27.823  47.487  1.00  0.00    -0.011 C 
ATOM     10  C   UNL     1      -4.922  28.437  46.105  1.00  0.00     0.008 C 
BRANCH   9  11
ATOM     11  C   UNL     1      -5.552  26.292  47.409  1.00  0.00    -0.002 C 
ATOM     12  C   UNL     1      -6.467  25.828  48.575  1.00  0.00     0.005 C 
ATOM     13  C   UNL     1      -4.368  25.278  47.451  1.00  0.00    -0.023 C 
ATOM     14  C   UNL     1      -6.067  24.388  48.926  1.00  0.00     0.009 C 
ATOM     15  C   UNL     1      -5.117  23.991  47.807  1.00  0.00     0.021 C 
ATOM     16  C   UNL     1      -3.665  25.008  46.098  1.00  0.00     0.008 C 
ATOM     17  C   UNL     1      -3.333  25.678  48.550  1.00  0.00     0.012 C 
ATOM     18  C   UNL     1      -4.202  22.798  47.977  1.00  0.00    -0.067 C 
ATOM     19  C   UNL     1      -2.621  23.876  46.225  1.00  0.00     0.009 C 
ATOM     20  C   UNL     1      -3.135  22.562  46.912  1.00  0.00     0.021 C 
ATOM     21  C   UNL     1      -4.566  21.770  48.766  1.00  0.00    -0.027 C 
ATOM     22  C   UNL     1      -1.980  21.656  47.486  1.00  0.00    -0.023 C 
ATOM     23  C   UNL     1      -4.055  20.377  48.521  1.00  0.00     0.031 C 
ATOM     24  C   UNL     1      -2.584  20.291  48.018  1.00  0.00     0.002 C 
ATOM     25  C   UNL     1      -0.921  21.394  46.362  1.00  0.00     0.010 C 
ATOM     26  C   UNL     1      -1.266  22.354  48.683  1.00  0.00     0.012 C 
ATOM     27  C   UNL     1      -2.458  19.158  46.975  1.00  0.00     0.036 C 
ATOM     28  C   UNL     1      -0.102  20.122  46.610  1.00  0.00     0.032 C 
ATOM     29  C   UNL     1      -0.988  18.855  46.619  1.00  0.00     0.114 C 
BRANCH  29  30
ATOM     30  O   UNL     1      -0.470  17.924  47.535  1.00  0.00    -0.393 OA
ATOM     31  H   UNL     1       0.222  17.403  47.050  1.00  0.00     0.210 HD
ENDBRANCH  29  30
ENDBRANCH   9  11
ENDBRANCH   1   9
TORSDOF 7
ENDMDL
MODEL 4
REMARK VINA RESULT:    -7.098      4.644      8.638
REMARK INTER + INTRA:         -11.344
REMARK INTER:                  -9.241
REMARK INTRA:                  -2.103
REMARK UNBOUND:                -1.548
REMARK SMILES CC[C@@H](CC[C@H](C)[C@@H]1CC[C@@H]2C3=CC[C@H]4C[C@H](O)CC[C@@]4(C)[C@@H]3CC[C@]21C)C(C)C
REMARK SMILES IDX 5 1 4 2 3 3 2 4 1 5 28 6 29 7 30 8 6 9 7 10 8 11 9 12 26 13
REMARK SMILES IDX 10 14 11 15 25 16 27 17 12 18 24 19 23 20 13 21 21 22 14 23
REMARK SMILES IDX 15 24 20 25 22 26 16 27 19 28 17 29 18 30
REMARK H PARENT 18 31
REMARK Flexibility Score: inf
ROOT
ATOM      1  C   UNL     1      -6.612  24.808  49.221  1.00  0.00     0.004 C 
ENDROOT
BRANCH   1   2
ATOM      2  C   UNL     1      -6.759  26.258  48.705  1.00  0.00     0.004 C 
BRANCH   2   3
ATOM      3  C   UNL     1      -5.416  26.918  48.259  1.00  0.00    -0.009 C 
BRANCH   3   4
ATOM      4  C   UNL     1      -5.087  28.204  49.073  1.00  0.00     0.000 C 
ATOM      5  C   UNL     1      -4.835  27.961  50.563  1.00  0.00     0.004 C 
ENDBRANCH   3   4
BRANCH   3   6
ATOM      6  C   UNL     1      -5.348  27.185  46.713  1.00  0.00    -0.014 C 
ATOM      7  C   UNL     1      -4.669  26.029  45.953  1.00  0.00     0.007 C 
ATOM      8  C   UNL     1      -6.741  27.419  46.102  1.00  0.00     0.007 C 
ENDBRANCH   3   6
ENDBRANCH   2   3
ENDBRANCH   1   2
BRANCH   1   9
ATOM      9  C   UNL     1      -5.241  24.143  48.903  1.00  0.00    -0.011 C 
ATOM     10  C   UNL     1      -5.443  22.950  47.951  1.00  0.00     0.008 C 
BRANCH   9  11
ATOM     11  C   UNL     1      -4.432  23.758  50.192  1.00  0.00    -0.002 C 
ATOM     12  C   UNL     1      -4.928  24.521  51.451  1.00  0.00     0.005 C 
ATOM     13  C   UNL     1      -2.894  24.014  50.196  1.00  0.00    -0.023 C 
ATOM     14  C   UNL     1      -3.707  24.774  52.344  1.00  0.00     0.009 C 
ATOM     15  C   UNL     1      -2.606  23.947  51.698  1.00  0.00     0.021 C 
ATOM     16  C   UNL     1      -2.027  22.910  49.542  1.00  0.00     0.008 C 
ATOM     17  C   UNL     1      -2.562  25.416  49.596  1.00  0.00     0.012 C 
ATOM     18  C   UNL     1      -1.156  24.218  52.038  1.00  0.00    -0.067 C 
ATOM     19  C   UNL     1      -0.521  23.186  49.744  1.00  0.00     0.009 C 
ATOM     20  C   UNL     1      -0.088  23.500  51.220  1.00  0.00     0.021 C 
ATOM     21  C   UNL     1      -0.823  24.712  53.245  1.00  0.00    -0.027 C 
ATOM     22  C   UNL     1       1.288  24.263  51.326  1.00  0.00    -0.023 C 
ATOM     23  C   UNL     1       0.525  24.442  53.855  1.00  0.00     0.031 C 
ATOM     24  C   UNL     1       1.710  24.396  52.847  1.00  0.00     0.002 C 
ATOM     25  C   UNL     1       2.376  23.483  50.513  1.00  0.00     0.010 C 
ATOM     26  C   UNL     1       1.173  25.703  50.741  1.00  0.00     0.012 C 
ATOM     27  C   UNL     1       2.708  23.293  53.268  1.00  0.00     0.036 C 
ATOM     28  C   UNL     1       3.800  23.788  50.994  1.00  0.00     0.032 C 
ATOM     29  C   UNL     1       4.021  23.356  52.461  1.00  0.00     0.114 C 
BRANCH  29  30
ATOM     30  O   UNL     1       4.908  24.247  53.087  1.00  0.00    -0.393 OA
ATOM     31  H   UNL     1       4.639  25.161  52.806  1.00  0.00     0.210 HD
ENDBRANCH  29  30
ENDBRANCH   9  11
ENDBRANCH   1   9
TORSDOF 7
ENDMDL
MODEL 5
REMARK VINA RESULT:    -7.047      2.709      5.124
REMARK INTER + INTRA:         -11.272
REMARK INTER:                  -9.454
REMARK INTRA:                  -1.818
REMARK UNBOUND:                -1.548
REMARK SMILES CC[C@@H](CC[C@H](C)[C@@H]1CC[C@@H]2C3=CC[C@H]4C[C@H](O)CC[C@@]4(C)[C@@H]3CC[C@]21C)C(C)C
REMARK SMILES IDX 5 1 4 2 3 3 2 4 1 5 28 6 29 7 30 8 6 9 7 10 8 11 9 12 26 13
REMARK SMILES IDX 10 14 11 15 25 16 27 17 12 18 24 19 23 20 13 21 21 22 14 23
REMARK SMILES IDX 15 24 20 25 22 26 16 27 19 28 17 29 18 30
REMARK H PARENT 18 31
REMARK Flexibility Score: inf
ROOT
ATOM      1  C   UNL     1      -3.572  23.637  50.661  1.00  0.00     0.004 C 
ENDROOT
BRANCH   1   2
ATOM      2  C   UNL     1      -2.455  23.335  49.635  1.00  0.00     0.004 C 
BRANCH   2   3
ATOM      3  C   UNL     1      -2.924  22.493  48.408  1.00  0.00    -0.009 C 
BRANCH   3   4
ATOM      4  C   UNL     1      -2.937  23.322  47.089  1.00  0.00     0.000 C 
ATOM      5  C   UNL     1      -2.041  22.763  45.982  1.00  0.00     0.004 C 
ENDBRANCH   3   4
BRANCH   3   6
ATOM      6  C   UNL     1      -4.300  21.775  48.646  1.00  0.00    -0.014 C 
ATOM      7  C   UNL     1      -5.405  22.314  47.716  1.00  0.00     0.007 C 
ATOM      8  C   UNL     1      -4.202  20.251  48.455  1.00  0.00     0.007 C 
ENDBRANCH   3   6
ENDBRANCH   2   3
ENDBRANCH   1   2
BRANCH   1   9
ATOM      9  C   UNL     1      -3.628  25.116  51.140  1.00  0.00    -0.011 C 
ATOM     10  C   UNL     1      -3.287  25.197  52.640  1.00  0.00     0.008 C 
BRANCH   9  11
ATOM     11  C   UNL     1      -4.985  25.824  50.790  1.00  0.00    -0.002 C 
ATOM     12  C   UNL     1      -6.062  24.822  50.293  1.00  0.00     0.005 C 
ATOM     13  C   UNL     1      -4.975  26.924  49.685  1.00  0.00    -0.023 C 
ATOM     14  C   UNL     1      -6.919  25.551  49.249  1.00  0.00     0.009 C 
ATOM     15  C   UNL     1      -6.469  27.000  49.356  1.00  0.00     0.021 C 
ATOM     16  C   UNL     1      -4.564  28.342  50.153  1.00  0.00     0.008 C 
ATOM     17  C   UNL     1      -4.125  26.470  48.457  1.00  0.00     0.012 C 
ATOM     18  C   UNL     1      -6.783  27.976  48.243  1.00  0.00    -0.067 C 
ATOM     19  C   UNL     1      -4.744  29.379  49.021  1.00  0.00     0.009 C 
ATOM     20  C   UNL     1      -6.142  29.359  48.307  1.00  0.00     0.021 C 
ATOM     21  C   UNL     1      -7.880  27.806  47.481  1.00  0.00    -0.027 C 
ATOM     22  C   UNL     1      -6.131  30.024  46.878  1.00  0.00    -0.023 C 
ATOM     23  C   UNL     1      -8.561  28.974  46.821  1.00  0.00     0.031 C 
ATOM     24  C   UNL     1      -7.607  30.092  46.307  1.00  0.00     0.002 C 
ATOM     25  C   UNL     1      -5.507  31.457  46.980  1.00  0.00     0.010 C 
ATOM     26  C   UNL     1      -5.278  29.185  45.879  1.00  0.00     0.012 C 
ATOM     27  C   UNL     1      -8.254  31.475  46.545  1.00  0.00     0.036 C 
ATOM     28  C   UNL     1      -5.953  32.374  45.834  1.00  0.00     0.032 C 
ATOM     29  C   UNL     1      -7.481  32.609  45.840  1.00  0.00     0.114 C 
BRANCH  29  30
ATOM     30  O   UNL     1      -7.944  32.738  44.520  1.00  0.00    -0.393 OA
ATOM     31  H   UNL     1      -8.333  33.648  44.444  1.00  0.00     0.210 HD
ENDBRANCH  29  30
ENDBRANCH   9  11
ENDBRANCH   1   9
TORSDOF 7
ENDMDL
MODEL 6
REMARK VINA RESULT:    -7.019      3.075      8.979
REMARK INTER + INTRA:         -11.234
REMARK INTER:                  -9.033
REMARK INTRA:                  -2.201
REMARK UNBOUND:                -1.548
REMARK SMILES CC[C@@H](CC[C@H](C)[C@@H]1CC[C@@H]2C3=CC[C@H]4C[C@H](O)CC[C@@]4(C)[C@@H]3CC[C@]21C)C(C)C
REMARK SMILES IDX 5 1 4 2 3 3 2 4 1 5 28 6 29 7 30 8 6 9 7 10 8 11 9 12 26 13
REMARK SMILES IDX 10 14 11 15 25 16 27 17 12 18 24 19 23 20 13 21 21 22 14 23
REMARK SMILES IDX 15 24 20 25 22 26 16 27 19 28 17 29 18 30
REMARK H PARENT 18 31
REMARK Flexibility Score: inf
ROOT
ATOM      1  C   UNL     1      -6.266  28.543  48.137  1.00  0.00     0.004 C 
ENDROOT
BRANCH   1   2
ATOM      2  C   UNL     1      -5.624  29.325  49.305  1.00  0.00     0.004 C 
BRANCH   2   3
ATOM      3  C   UNL     1      -4.088  29.096  49.461  1.00  0.00    -0.009 C 
BRANCH   3   4
ATOM      4  C   UNL     1      -3.715  28.495  50.848  1.00  0.00     0.000 C 
ATOM      5  C   UNL     1      -4.719  27.471  51.384  1.00  0.00     0.004 C 
ENDBRANCH   3   4
BRANCH   3   6
ATOM      6  C   UNL     1      -3.242  30.382  49.148  1.00  0.00    -0.014 C 
ATOM      7  C   UNL     1      -2.242  30.153  47.997  1.00  0.00     0.007 C 
ATOM      8  C   UNL     1      -4.128  31.589  48.792  1.00  0.00     0.007 C 
ENDBRANCH   3   6
ENDBRANCH   2   3
ENDBRANCH   1   2
BRANCH   1   9
ATOM      9  C   UNL     1      -5.260  27.732  47.270  1.00  0.00    -0.011 C 
ATOM     10  C   UNL     1      -5.196  28.321  45.848  1.00  0.00     0.008 C 
BRANCH   9  11
ATOM     11  C   UNL     1      -5.550  26.189  47.272  1.00  0.00    -0.002 C 
ATOM     12  C   UNL     1      -6.412  25.753  48.488  1.00  0.00     0.005 C 
ATOM     13  C   UNL     1      -4.334  25.214  47.321  1.00  0.00    -0.023 C 
ATOM     14  C   UNL     1      -5.957  24.344  48.890  1.00  0.00     0.009 C 
ATOM     15  C   UNL     1      -5.032  23.923  47.759  1.00  0.00     0.021 C 
ATOM     16  C   UNL     1      -3.667  24.903  45.959  1.00  0.00     0.008 C 
ATOM     17  C   UNL     1      -3.278  25.694  48.366  1.00  0.00     0.012 C 
ATOM     18  C   UNL     1      -4.075  22.767  47.953  1.00  0.00    -0.067 C 
ATOM     19  C   UNL     1      -2.585  23.809  46.102  1.00  0.00     0.009 C 
ATOM     20  C   UNL     1      -3.036  22.513  46.865  1.00  0.00     0.021 C 
ATOM     21  C   UNL     1      -4.383  21.766  48.799  1.00  0.00    -0.027 C 
ATOM     22  C   UNL     1      -1.836  21.668  47.440  1.00  0.00    -0.023 C 
ATOM     23  C   UNL     1      -3.837  20.378  48.600  1.00  0.00     0.031 C 
ATOM     24  C   UNL     1      -2.380  20.313  48.054  1.00  0.00     0.002 C 
ATOM     25  C   UNL     1      -0.806  21.386  46.295  1.00  0.00     0.010 C 
ATOM     26  C   UNL     1      -1.106  22.441  48.580  1.00  0.00     0.012 C 
ATOM     27  C   UNL     1      -2.253  19.137  47.059  1.00  0.00     0.036 C 
ATOM     28  C   UNL     1       0.059  20.151  46.573  1.00  0.00     0.032 C 
ATOM     29  C   UNL     1      -0.786  18.861  46.669  1.00  0.00     0.114 C 
BRANCH  29  30
ATOM     30  O   UNL     1      -0.212  17.988  47.608  1.00  0.00    -0.393 OA
ATOM     31  H   UNL     1       0.244  18.557  48.282  1.00  0.00     0.210 HD
ENDBRANCH  29  30
ENDBRANCH   9  11
ENDBRANCH   1   9
TORSDOF 7
ENDMDL
MODEL 7
REMARK VINA RESULT:    -6.914      2.940      8.632
REMARK INTER + INTRA:         -11.089
REMARK INTER:                  -9.250
REMARK INTRA:                  -1.839
REMARK UNBOUND:                -1.548
REMARK SMILES CC[C@@H](CC[C@H](C)[C@@H]1CC[C@@H]2C3=CC[C@H]4C[C@H](O)CC[C@@]4(C)[C@@H]3CC[C@]21C)C(C)C
REMARK SMILES IDX 5 1 4 2 3 3 2 4 1 5 28 6 29 7 30 8 6 9 7 10 8 11 9 12 26 13
REMARK SMILES IDX 10 14 11 15 25 16 27 17 12 18 24 19 23 20 13 21 21 22 14 23
REMARK SMILES IDX 15 24 20 25 22 26 16 27 19 28 17 29 18 30
REMARK H PARENT 18 31
REMARK Flexibility Score: inf
ROOT
ATOM      1  C   UNL     1      -4.658  28.881  49.507  1.00  0.00     0.004 C 
ENDROOT
BRANCH   1   2
ATOM      2  C   UNL     1      -6.182  28.728  49.291  1.00  0.00     0.004 C 
BRANCH   2   3
ATOM      3  C   UNL     1      -6.638  28.899  47.808  1.00  0.00    -0.009 C 
BRANCH   3   4
ATOM      4  C   UNL     1      -7.909  28.061  47.477  1.00  0.00     0.000 C 
ATOM      5  C   UNL     1      -9.084  28.881  46.941  1.00  0.00     0.004 C 
ENDBRANCH   3   4
BRANCH   3   6
ATOM      6  C   UNL     1      -5.486  28.623  46.776  1.00  0.00    -0.014 C 
ATOM      7  C   UNL     1      -5.817  27.446  45.837  1.00  0.00     0.007 C 
ATOM      8  C   UNL     1      -5.167  29.859  45.916  1.00  0.00     0.007 C 
ENDBRANCH   3   6
ENDBRANCH   2   3
ENDBRANCH   1   2
BRANCH   1   9
ATOM      9  C   UNL     1      -4.012  27.764  50.376  1.00  0.00    -0.011 C 
ATOM     10  C   UNL     1      -3.304  28.387  51.593  1.00  0.00     0.008 C 
BRANCH   9  11
ATOM     11  C   UNL     1      -3.075  26.810  49.553  1.00  0.00    -0.002 C 
ATOM     12  C   UNL     1      -2.714  27.395  48.160  1.00  0.00     0.005 C 
ATOM     13  C   UNL     1      -3.593  25.378  49.222  1.00  0.00    -0.023 C 
ATOM     14  C   UNL     1      -2.588  26.215  47.187  1.00  0.00     0.009 C 
ATOM     15  C   UNL     1      -2.637  24.992  48.090  1.00  0.00     0.021 C 
ATOM     16  C   UNL     1      -3.394  24.317  50.333  1.00  0.00     0.008 C 
ATOM     17  C   UNL     1      -5.080  25.421  48.748  1.00  0.00     0.012 C 
ATOM     18  C   UNL     1      -2.932  23.628  47.502  1.00  0.00    -0.067 C 
ATOM     19  C   UNL     1      -3.793  22.908  49.841  1.00  0.00     0.009 C 
ATOM     20  C   UNL     1      -3.165  22.473  48.470  1.00  0.00     0.021 C 
ATOM     21  C   UNL     1      -2.587  23.348  46.231  1.00  0.00    -0.027 C 
ATOM     22  C   UNL     1      -3.954  21.311  47.755  1.00  0.00    -0.023 C 
ATOM     23  C   UNL     1      -2.288  21.940  45.795  1.00  0.00     0.031 C 
ATOM     24  C   UNL     1      -3.163  20.840  46.465  1.00  0.00     0.002 C 
ATOM     25  C   UNL     1      -4.143  20.121  48.756  1.00  0.00     0.010 C 
ATOM     26  C   UNL     1      -5.362  21.795  47.292  1.00  0.00     0.012 C 
ATOM     27  C   UNL     1      -2.299  19.589  46.743  1.00  0.00     0.036 C 
ATOM     28  C   UNL     1      -4.366  18.782  48.042  1.00  0.00     0.032 C 
ATOM     29  C   UNL     1      -3.151  18.378  47.176  1.00  0.00     0.114 C 
BRANCH  29  30
ATOM     30  O   UNL     1      -3.593  17.688  46.035  1.00  0.00    -0.393 OA
ATOM     31  H   UNL     1      -3.495  16.720  46.233  1.00  0.00     0.210 HD
ENDBRANCH  29  30
ENDBRANCH   9  11
ENDBRANCH   1   9
TORSDOF 7
ENDMDL
MODEL 8
REMARK VINA RESULT:    -6.869      1.375      2.701
REMARK INTER + INTRA:         -11.027
REMARK INTER:                  -9.772
REMARK INTRA:                  -1.255
REMARK UNBOUND:                -1.548
REMARK SMILES CC[C@@H](CC[C@H](C)[C@@H]1CC[C@@H]2C3=CC[C@H]4C[C@H](O)CC[C@@]4(C)[C@@H]3CC[C@]21C)C(C)C
REMARK SMILES IDX 5 1 4 2 3 3 2 4 1 5 28 6 29 7 30 8 6 9 7 10 8 11 9 12 26 13
REMARK SMILES IDX 10 14 11 15 25 16 27 17 12 18 24 19 23 20 13 21 21 22 14 23
REMARK SMILES IDX 15 24 20 25 22 26 16 27 19 28 17 29 18 30
REMARK H PARENT 18 31
REMARK Flexibility Score: inf
ROOT
ATOM      1  C   UNL     1      -3.113  20.473  48.926  1.00  0.00     0.004 C 
ENDROOT
BRANCH   1   2
ATOM      2  C   UNL     1      -3.163  19.178  48.083  1.00  0.00     0.004 C 
BRANCH   2   3
ATOM      3  C   UNL     1      -1.800  18.787  47.431  1.00  0.00    -0.009 C 
BRANCH   3   4
ATOM      4  C   UNL     1      -0.767  19.952  47.470  1.00  0.00     0.000 C 
ATOM      5  C   UNL     1      -0.918  20.969  46.336  1.00  0.00     0.004 C 
ENDBRANCH   3   4
BRANCH   3   6
ATOM      6  C   UNL     1      -1.958  18.211  45.978  1.00  0.00    -0.014 C 
ATOM      7  C   UNL     1      -0.843  17.206  45.627  1.00  0.00     0.007 C 
ATOM      8  C   UNL     1      -3.319  17.521  45.771  1.00  0.00     0.007 C 
ENDBRANCH   3   6
ENDBRANCH   2   3
ENDBRANCH   1   2
BRANCH   1   9
ATOM      9  C   UNL     1      -4.097  21.586  48.462  1.00  0.00    -0.011 C 
ATOM     10  C   UNL     1      -4.589  21.291  47.033  1.00  0.00     0.008 C 
BRANCH   9  11
ATOM     11  C   UNL     1      -3.504  23.031  48.610  1.00  0.00    -0.002 C 
ATOM     12  C   UNL     1      -2.806  23.245  49.981  1.00  0.00     0.005 C 
ATOM     13  C   UNL     1      -4.483  24.241  48.510  1.00  0.00    -0.023 C 
ATOM     14  C   UNL     1      -3.029  24.708  50.386  1.00  0.00     0.009 C 
ATOM     15  C   UNL     1      -3.628  25.343  49.140  1.00  0.00     0.021 C 
ATOM     16  C   UNL     1      -4.814  24.720  47.075  1.00  0.00     0.008 C 
ATOM     17  C   UNL     1      -5.787  23.969  49.325  1.00  0.00     0.012 C 
ATOM     18  C   UNL     1      -4.348  26.671  49.238  1.00  0.00    -0.067 C 
ATOM     19  C   UNL     1      -5.657  26.014  47.096  1.00  0.00     0.009 C 
ATOM     20  C   UNL     1      -5.097  27.165  48.005  1.00  0.00     0.021 C 
ATOM     21  C   UNL     1      -4.001  27.563  50.185  1.00  0.00    -0.027 C 
ATOM     22  C   UNL     1      -6.184  28.231  48.416  1.00  0.00    -0.023 C 
ATOM     23  C   UNL     1      -4.207  29.039  49.982  1.00  0.00     0.031 C 
ATOM     24  C   UNL     1      -5.496  29.425  49.197  1.00  0.00     0.002 C 
ATOM     25  C   UNL     1      -6.909  28.753  47.130  1.00  0.00     0.010 C 
ATOM     26  C   UNL     1      -7.251  27.602  49.363  1.00  0.00     0.012 C 
ATOM     27  C   UNL     1      -5.198  30.625  48.270  1.00  0.00     0.036 C 
ATOM     28  C   UNL     1      -7.541  30.136  47.331  1.00  0.00     0.032 C 
ATOM     29  C   UNL     1      -6.481  31.215  47.651  1.00  0.00     0.114 C 
BRANCH  29  30
ATOM     30  O   UNL     1      -7.027  32.166  48.529  1.00  0.00    -0.393 OA
ATOM     31  H   UNL     1      -7.765  31.714  49.015  1.00  0.00     0.210 HD
ENDBRANCH  29  30
ENDBRANCH   9  11
ENDBRANCH   1   9
TORSDOF 7
ENDMDL
MODEL 9
REMARK VINA RESULT:    -6.779      2.841      4.307
REMARK INTER + INTRA:         -10.903
REMARK INTER:                 -10.121
REMARK INTRA:                  -0.782
REMARK UNBOUND:                -1.548
REMARK SMILES CC[C@@H](CC[C@H](C)[C@@H]1CC[C@@H]2C3=CC[C@H]4C[C@H](O)CC[C@@]4(C)[C@@H]3CC[C@]21C)C(C)C
REMARK SMILES IDX 5 1 4 2 3 3 2 4 1 5 28 6 29 7 30 8 6 9 7 10 8 11 9 12 26 13
REMARK SMILES IDX 10 14 11 15 25 16 27 17 12 18 24 19 23 20 13 21 21 22 14 23
REMARK SMILES IDX 15 24 20 25 22 26 16 27 19 28 17 29 18 30
REMARK H PARENT 18 31
REMARK Flexibility Score: inf
ROOT
ATOM      1  C   UNL     1      -1.432  20.298  47.208  1.00  0.00     0.004 C 
ENDROOT
BRANCH   1   2
ATOM      2  C   UNL     1      -1.204  18.790  47.458  1.00  0.00     0.004 C 
BRANCH   2   3
ATOM      3  C   UNL     1      -2.462  17.902  47.206  1.00  0.00    -0.009 C 
BRANCH   3   4
ATOM      4  C   UNL     1      -2.950  17.183  48.499  1.00  0.00     0.000 C 
ATOM      5  C   UNL     1      -2.721  17.977  49.788  1.00  0.00     0.004 C 
ENDBRANCH   3   4
BRANCH   3   6
ATOM      6  C   UNL     1      -2.269  16.886  46.025  1.00  0.00    -0.014 C 
ATOM      7  C   UNL     1      -3.476  16.875  45.065  1.00  0.00     0.007 C 
ATOM      8  C   UNL     1      -0.998  17.179  45.207  1.00  0.00     0.007 C 
ENDBRANCH   3   6
ENDBRANCH   2   3
ENDBRANCH   1   2
BRANCH   1   9
ATOM      9  C   UNL     1      -2.900  20.683  46.865  1.00  0.00    -0.011 C 
ATOM     10  C   UNL     1      -2.932  21.571  45.608  1.00  0.00     0.008 C 
BRANCH   9  11
ATOM     11  C   UNL     1      -3.666  21.322  48.077  1.00  0.00    -0.002 C 
ATOM     12  C   UNL     1      -5.111  21.753  47.701  1.00  0.00     0.005 C 
ATOM     13  C   UNL     1      -3.066  22.603  48.733  1.00  0.00    -0.023 C 
ATOM     14  C   UNL     1      -5.440  23.011  48.515  1.00  0.00     0.009 C 
ATOM     15  C   UNL     1      -4.285  23.121  49.499  1.00  0.00     0.021 C 
ATOM     16  C   UNL     1      -1.962  22.361  49.791  1.00  0.00     0.008 C 
ATOM     17  C   UNL     1      -2.584  23.612  47.642  1.00  0.00     0.012 C 
ATOM     18  C   UNL     1      -4.025  24.426  50.219  1.00  0.00    -0.067 C 
ATOM     19  C   UNL     1      -1.555  23.679  50.488  1.00  0.00     0.009 C 
ATOM     20  C   UNL     1      -2.744  24.542  51.039  1.00  0.00     0.021 C 
ATOM     21  C   UNL     1      -5.039  25.271  50.481  1.00  0.00    -0.027 C 
ATOM     22  C   UNL     1      -2.373  26.058  51.264  1.00  0.00    -0.023 C 
ATOM     23  C   UNL     1      -4.988  26.216  51.651  1.00  0.00     0.031 C 
ATOM     24  C   UNL     1      -3.582  26.808  51.961  1.00  0.00     0.002 C 
ATOM     25  C   UNL     1      -1.080  26.150  52.143  1.00  0.00     0.010 C 
ATOM     26  C   UNL     1      -2.097  26.772  49.905  1.00  0.00     0.012 C 
ATOM     27  C   UNL     1      -3.390  26.913  53.491  1.00  0.00     0.036 C 
ATOM     28  C   UNL     1      -0.962  27.492  52.876  1.00  0.00     0.032 C 
ATOM     29  C   UNL     1      -2.127  27.716  53.866  1.00  0.00     0.114 C 
BRANCH  29  30
ATOM     30  O   UNL     1      -2.445  29.084  53.919  1.00  0.00    -0.393 OA
ATOM     31  H   UNL     1      -2.539  29.390  52.979  1.00  0.00     0.210 HD
ENDBRANCH  29  30
ENDBRANCH   9  11
ENDBRANCH   1   9
TORSDOF 7
ENDMDL
