MODEL 1
REMARK VINA RESULT:    -3.500      0.000      0.000
REMARK INTER + INTRA:          -5.256
REMARK INTER:                  -4.728
REMARK INTRA:                  -0.529
REMARK UNBOUND:                -0.529
REMARK SMILES CCCCCCCC(C)=O
REMARK SMILES IDX 5 1 4 2 3 3 2 4 1 5 6 6 7 7 8 8 10 9 9 10
REMARK H PARENT
REMARK Flexibility Score: inf
ROOT
ATOM      1  C   UNL     1     106.470 104.175 102.462  1.00  0.00     0.000 C 
ENDROOT
BRANCH   1   2
ATOM      2  C   UNL     1     106.088 104.266 103.954  1.00  0.00     0.000 C 
BRANCH   2   3
ATOM      3  C   UNL     1     104.656 104.757 104.231  1.00  0.00    -0.000 C 
BRANCH   3   4
ATOM      4  C   UNL     1     103.915 105.185 102.956  1.00  0.00    -0.003 C 
ATOM      5  C   UNL     1     102.764 104.234 102.644  1.00  0.00     0.004 C 
ENDBRANCH   3   4
ENDBRANCH   2   3
ENDBRANCH   1   2
BRANCH   1   6
ATOM      6  C   UNL     1     107.661 105.054 102.038  1.00  0.00     0.008 C 
BRANCH   6   7
ATOM      7  C   UNL     1     107.381 106.554 102.204  1.00  0.00     0.075 C 
BRANCH   7   8
ATOM      8  C   UNL     1     108.429 107.198 103.070  1.00  0.00     0.129 C 
ATOM      9  O   UNL     1     109.307 107.875 102.557  1.00  0.00    -0.300 OA
ATOM     10  C   UNL     1     108.415 106.997 104.555  1.00  0.00     0.087 C 
ENDBRANCH   7   8
ENDBRANCH   6   7
ENDBRANCH   1   6
TORSDOF 6
ENDMDL
MODEL 2
REMARK VINA RESULT:    -3.482      1.522      2.845
REMARK INTER + INTRA:          -5.233
REMARK INTER:                  -4.432
REMARK INTRA:                  -0.800
REMARK UNBOUND:                -0.529
REMARK SMILES CCCCCCCC(C)=O
REMARK SMILES IDX 5 1 4 2 3 3 2 4 1 5 6 6 7 7 8 8 10 9 9 10
REMARK H PARENT
REMARK Flexibility Score: inf
ROOT
ATOM      1  C   UNL     1     104.235 106.108 102.645  1.00  0.00     0.000 C 
ENDROOT
BRANCH   1   2
ATOM      2  C   UNL     1     104.755 104.686 102.940  1.00  0.00     0.000 C 
BRANCH   2   3
ATOM      3  C   UNL     1     105.837 104.174 101.972  1.00  0.00    -0.000 C 
BRANCH   3   4
ATOM      4  C   UNL     1     107.035 103.543 102.697  1.00  0.00    -0.003 C 
ATOM      5  C   UNL     1     106.954 103.779 104.202  1.00  0.00     0.004 C 
ENDBRANCH   3   4
ENDBRANCH   2   3
ENDBRANCH   1   2
BRANCH   1   6
ATOM      6  C   UNL     1     105.013 107.244 103.335  1.00  0.00     0.008 C 
BRANCH   6   7
ATOM      7  C   UNL     1     106.146 107.804 102.463  1.00  0.00     0.075 C 
BRANCH   7   8
ATOM      8  C   UNL     1     107.487 107.379 102.997  1.00  0.00     0.129 C 
ATOM      9  O   UNL     1     107.654 107.276 104.203  1.00  0.00    -0.300 OA
ATOM     10  C   UNL     1     108.623 107.102 102.061  1.00  0.00     0.087 C 
ENDBRANCH   7   8
ENDBRANCH   6   7
ENDBRANCH   1   6
TORSDOF 6
ENDMDL
MODEL 3
REMARK VINA RESULT:    -3.480      2.085      3.054
REMARK INTER + INTRA:          -5.229
REMARK INTER:                  -4.565
REMARK INTRA:                  -0.664
REMARK UNBOUND:                -0.529
REMARK SMILES CCCCCCCC(C)=O
REMARK SMILES IDX 5 1 4 2 3 3 2 4 1 5 6 6 7 7 8 8 10 9 9 10
REMARK H PARENT
REMARK Flexibility Score: inf
ROOT
ATOM      1  C   UNL     1     106.862 107.381 102.197  1.00  0.00     0.000 C 
ENDROOT
BRANCH   1   2
ATOM      2  C   UNL     1     105.491 107.714 102.821  1.00  0.00     0.000 C 
BRANCH   2   3
ATOM      3  C   UNL     1     104.330 106.814 102.360  1.00  0.00    -0.000 C 
BRANCH   3   4
ATOM      4  C   UNL     1     103.976 105.726 103.384  1.00  0.00    -0.003 C 
ATOM      5  C   UNL     1     103.460 104.468 102.693  1.00  0.00     0.004 C 
ENDBRANCH   3   4
ENDBRANCH   2   3
ENDBRANCH   1   2
BRANCH   1   6
ATOM      6  C   UNL     1     107.596 106.187 102.834  1.00  0.00     0.008 C 
BRANCH   6   7
ATOM      7  C   UNL     1     107.473 104.901 102.005  1.00  0.00     0.075 C 
BRANCH   7   8
ATOM      8  C   UNL     1     107.442 103.693 102.899  1.00  0.00     0.129 C 
ATOM      9  O   UNL     1     107.812 102.610 102.469  1.00  0.00    -0.300 OA
ATOM     10  C   UNL     1     106.939 103.802 104.307  1.00  0.00     0.087 C 
ENDBRANCH   7   8
ENDBRANCH   6   7
ENDBRANCH   1   6
TORSDOF 6
ENDMDL
MODEL 4
REMARK VINA RESULT:    -3.444      2.278      3.435
REMARK INTER + INTRA:          -5.181
REMARK INTER:                  -4.401
REMARK INTRA:                  -0.781
REMARK UNBOUND:                -0.529
REMARK SMILES CCCCCCCC(C)=O
REMARK SMILES IDX 5 1 4 2 3 3 2 4 1 5 6 6 7 7 8 8 10 9 9 10
REMARK H PARENT
REMARK Flexibility Score: inf
ROOT
ATOM      1  C   UNL     1     108.026 107.284 102.810  1.00  0.00     0.000 C 
ENDROOT
BRANCH   1   2
ATOM      2  C   UNL     1     108.194 107.110 104.333  1.00  0.00     0.000 C 
BRANCH   2   3
ATOM      3  C   UNL     1     106.908 107.304 105.157  1.00  0.00    -0.000 C 
BRANCH   3   4
ATOM      4  C   UNL     1     105.729 107.811 104.312  1.00  0.00    -0.003 C 
ATOM      5  C   UNL     1     104.603 106.782 104.268  1.00  0.00     0.004 C 
ENDBRANCH   3   4
ENDBRANCH   2   3
ENDBRANCH   1   2
BRANCH   1   6
ATOM      6  C   UNL     1     108.233 106.004 101.980  1.00  0.00     0.008 C 
BRANCH   6   7
ATOM      7  C   UNL     1     107.025 105.058 102.032  1.00  0.00     0.075 C 
BRANCH   7   8
ATOM      8  C   UNL     1     107.355 103.817 102.814  1.00  0.00     0.129 C 
ATOM      9  O   UNL     1     107.972 102.908 102.278  1.00  0.00    -0.300 OA
ATOM     10  C   UNL     1     106.915 103.677 104.239  1.00  0.00     0.087 C 
ENDBRANCH   7   8
ENDBRANCH   6   7
ENDBRANCH   1   6
TORSDOF 6
ENDMDL
MODEL 5
REMARK VINA RESULT:    -3.432      2.603      4.100
REMARK INTER + INTRA:          -5.165
REMARK INTER:                  -4.418
REMARK INTRA:                  -0.746
REMARK UNBOUND:                -0.529
REMARK SMILES CCCCCCCC(C)=O
REMARK SMILES IDX 5 1 4 2 3 3 2 4 1 5 6 6 7 7 8 8 10 9 9 10
REMARK H PARENT
REMARK Flexibility Score: inf
ROOT
ATOM      1  C   UNL     1     107.703 105.733 102.811  1.00  0.00     0.000 C 
ENDROOT
BRANCH   1   2
ATOM      2  C   UNL     1     106.937 107.072 102.818  1.00  0.00     0.000 C 
BRANCH   2   3
ATOM      3  C   UNL     1     106.487 107.559 104.207  1.00  0.00    -0.000 C 
BRANCH   3   4
ATOM      4  C   UNL     1     105.083 108.181 104.195  1.00  0.00    -0.003 C 
ATOM      5  C   UNL     1     104.548 108.303 102.771  1.00  0.00     0.004 C 
ENDBRANCH   3   4
ENDBRANCH   2   3
ENDBRANCH   1   2
BRANCH   1   6
ATOM      6  C   UNL     1     106.821 104.478 102.941  1.00  0.00     0.008 C 
BRANCH   6   7
ATOM      7  C   UNL     1     105.569 104.535 102.055  1.00  0.00     0.075 C 
BRANCH   7   8
ATOM      8  C   UNL     1     104.323 104.560 102.897  1.00  0.00     0.129 C 
ATOM      9  O   UNL     1     104.415 104.578 104.115  1.00  0.00    -0.300 OA
ATOM     10  C   UNL     1     102.971 104.543 102.252  1.00  0.00     0.087 C 
ENDBRANCH   7   8
ENDBRANCH   6   7
ENDBRANCH   1   6
TORSDOF 6
ENDMDL
MODEL 6
REMARK VINA RESULT:    -3.413      2.552      4.405
REMARK INTER + INTRA:          -5.138
REMARK INTER:                  -4.419
REMARK INTRA:                  -0.719
REMARK UNBOUND:                -0.529
REMARK SMILES CCCCCCCC(C)=O
REMARK SMILES IDX 5 1 4 2 3 3 2 4 1 5 6 6 7 7 8 8 10 9 9 10
REMARK H PARENT
REMARK Flexibility Score: inf
ROOT
ATOM      1  C   UNL     1     106.193 107.802 102.138  1.00  0.00     0.000 C 
ENDROOT
BRANCH   1   2
ATOM      2  C   UNL     1     107.588 107.311 102.575  1.00  0.00     0.000 C 
BRANCH   2   3
ATOM      3  C   UNL     1     107.596 105.994 103.371  1.00  0.00    -0.000 C 
BRANCH   3   4
ATOM      4  C   UNL     1     107.555 104.752 102.468  1.00  0.00    -0.003 C 
ATOM      5  C   UNL     1     107.208 103.501 103.269  1.00  0.00     0.004 C 
ENDBRANCH   3   4
ENDBRANCH   2   3
ENDBRANCH   1   2
BRANCH   1   6
ATOM      6  C   UNL     1     105.025 107.313 103.013  1.00  0.00     0.008 C 
BRANCH   6   7
ATOM      7  C   UNL     1     104.099 106.334 102.277  1.00  0.00     0.075 C 
BRANCH   7   8
ATOM      8  C   UNL     1     103.787 105.144 103.144  1.00  0.00     0.129 C 
ATOM      9  O   UNL     1     103.391 104.108 102.631  1.00  0.00    -0.300 OA
ATOM     10  C   UNL     1     103.937 105.229 104.632  1.00  0.00     0.087 C 
ENDBRANCH   7   8
ENDBRANCH   6   7
ENDBRANCH   1   6
TORSDOF 6
ENDMDL
MODEL 7
REMARK VINA RESULT:    -3.396      1.970      2.490
REMARK INTER + INTRA:          -5.116
REMARK INTER:                  -4.271
REMARK INTRA:                  -0.845
REMARK UNBOUND:                -0.529
REMARK SMILES CCCCCCCC(C)=O
REMARK SMILES IDX 5 1 4 2 3 3 2 4 1 5 6 6 7 7 8 8 10 9 9 10
REMARK H PARENT
REMARK Flexibility Score: inf
ROOT
ATOM      1  C   UNL     1     107.381 104.912 102.560  1.00  0.00     0.000 C 
ENDROOT
BRANCH   1   2
ATOM      2  C   UNL     1     106.135 104.091 102.953  1.00  0.00     0.000 C 
BRANCH   2   3
ATOM      3  C   UNL     1     104.862 104.414 102.150  1.00  0.00    -0.000 C 
BRANCH   3   4
ATOM      4  C   UNL     1     103.677 104.809 103.044  1.00  0.00    -0.003 C 
ATOM      5  C   UNL     1     104.098 104.894 104.508  1.00  0.00     0.004 C 
ENDBRANCH   3   4
ENDBRANCH   2   3
ENDBRANCH   1   2
BRANCH   1   6
ATOM      6  C   UNL     1     107.568 106.227 103.338  1.00  0.00     0.008 C 
BRANCH   6   7
ATOM      7  C   UNL     1     107.057 107.453 102.568  1.00  0.00     0.075 C 
BRANCH   7   8
ATOM      8  C   UNL     1     105.798 107.987 103.193  1.00  0.00     0.129 C 
ATOM      9  O   UNL     1     105.714 108.073 104.409  1.00  0.00    -0.300 OA
ATOM     10  C   UNL     1     104.638 108.394 102.336  1.00  0.00     0.087 C 
ENDBRANCH   7   8
ENDBRANCH   6   7
ENDBRANCH   1   6
TORSDOF 6
ENDMDL
MODEL 8
REMARK VINA RESULT:    -3.396      1.988      2.706
REMARK INTER + INTRA:          -5.116
REMARK INTER:                  -4.281
REMARK INTRA:                  -0.834
REMARK UNBOUND:                -0.529
REMARK SMILES CCCCCCCC(C)=O
REMARK SMILES IDX 5 1 4 2 3 3 2 4 1 5 6 6 7 7 8 8 10 9 9 10
REMARK H PARENT
REMARK Flexibility Score: inf
ROOT
ATOM      1  C   UNL     1     105.029 104.731 102.879  1.00  0.00     0.000 C 
ENDROOT
BRANCH   1   2
ATOM      2  C   UNL     1     104.122 105.975 102.782  1.00  0.00     0.000 C 
BRANCH   2   3
ATOM      3  C   UNL     1     104.656 107.103 101.883  1.00  0.00    -0.000 C 
BRANCH   3   4
ATOM      4  C   UNL     1     104.758 108.451 102.613  1.00  0.00    -0.003 C 
ATOM      5  C   UNL     1     104.878 108.251 104.121  1.00  0.00     0.004 C 
ENDBRANCH   3   4
ENDBRANCH   2   3
ENDBRANCH   1   2
BRANCH   1   6
ATOM      6  C   UNL     1     106.465 104.929 102.359  1.00  0.00     0.008 C 
BRANCH   6   7
ATOM      7  C   UNL     1     107.483 105.142 103.488  1.00  0.00     0.075 C 
BRANCH   7   8
ATOM      8  C   UNL     1     108.054 106.532 103.433  1.00  0.00     0.129 C 
ATOM      9  O   UNL     1     108.229 107.157 104.469  1.00  0.00    -0.300 OA
ATOM     10  C   UNL     1     108.390 107.164 102.117  1.00  0.00     0.087 C 
ENDBRANCH   7   8
ENDBRANCH   6   7
ENDBRANCH   1   6
TORSDOF 6
ENDMDL
MODEL 9
REMARK VINA RESULT:    -3.381      2.584      4.523
REMARK INTER + INTRA:          -5.096
REMARK INTER:                  -4.524
REMARK INTRA:                  -0.572
REMARK UNBOUND:                -0.529
REMARK SMILES CCCCCCCC(C)=O
REMARK SMILES IDX 5 1 4 2 3 3 2 4 1 5 6 6 7 7 8 8 10 9 9 10
REMARK H PARENT
REMARK Flexibility Score: inf
ROOT
ATOM      1  C   UNL     1     107.263 104.597 102.814  1.00  0.00     0.000 C 
ENDROOT
BRANCH   1   2
ATOM      2  C   UNL     1     107.854 105.778 102.018  1.00  0.00     0.000 C 
BRANCH   2   3
ATOM      3  C   UNL     1     108.031 107.080 102.819  1.00  0.00    -0.000 C 
BRANCH   3   4
ATOM      4  C   UNL     1     107.876 106.875 104.333  1.00  0.00    -0.003 C 
ATOM      5  C   UNL     1     106.576 107.490 104.841  1.00  0.00     0.004 C 
ENDBRANCH   3   4
ENDBRANCH   2   3
ENDBRANCH   1   2
BRANCH   1   6
ATOM      6  C   UNL     1     105.959 104.011 102.242  1.00  0.00     0.008 C 
BRANCH   6   7
ATOM      7  C   UNL     1     104.828 105.046 102.158  1.00  0.00     0.075 C 
BRANCH   7   8
ATOM      8  C   UNL     1     103.691 104.665 103.067  1.00  0.00     0.129 C 
ATOM      9  O   UNL     1     102.724 104.072 102.612  1.00  0.00    -0.300 OA
ATOM     10  C   UNL     1     103.727 105.028 104.520  1.00  0.00     0.087 C 
ENDBRANCH   7   8
ENDBRANCH   6   7
ENDBRANCH   1   6
TORSDOF 6
ENDMDL
