MODEL 1
REMARK VINA RESULT:    -5.760      0.000      0.000
REMARK INTER + INTRA:         -16.709
REMARK INTER:                 -13.169
REMARK INTRA:                  -3.540
REMARK UNBOUND:                -3.540
REMARK SMILES CCCCCCCCCCCCCCCCCCCCCCCC(=O)[O-]
REMARK SMILES IDX 13 1 14 2 15 3 16 4 17 5 18 6 19 7 20 8 21 9 22 10 23 11
REMARK SMILES IDX 24 12 25 13 26 14 12 15 11 16 10 17 9 18 8 19 7 20 6 21 5 22
REMARK SMILES IDX 4 23 3 24 2 25 1 26
REMARK H PARENT
REMARK Flexibility Score: inf
ROOT
ATOM      1  C   UNL     1     138.142 137.451 114.321  1.00  0.00     0.000 C 
ENDROOT
BRANCH   1   2
ATOM      2  C   UNL     1     136.900 136.675 113.850  1.00  0.00     0.000 C 
BRANCH   2   3
ATOM      3  C   UNL     1     135.588 137.320 114.323  1.00  0.00     0.000 C 
BRANCH   3   4
ATOM      4  C   UNL     1     134.368 136.854 113.512  1.00  0.00     0.000 C 
BRANCH   4   5
ATOM      5  C   UNL     1     133.474 135.869 114.287  1.00  0.00     0.000 C 
BRANCH   5   6
ATOM      6  C   UNL     1     133.585 134.399 113.842  1.00  0.00     0.000 C 
BRANCH   6   7
ATOM      7  C   UNL     1     134.352 133.525 114.852  1.00  0.00     0.000 C 
BRANCH   7   8
ATOM      8  C   UNL     1     135.812 133.287 114.435  1.00  0.00     0.000 C 
BRANCH   8   9
ATOM      9  C   UNL     1     136.795 133.431 115.607  1.00  0.00     0.000 C 
BRANCH   9  10
ATOM     10  C   UNL     1     136.081 133.961 116.859  1.00  0.00     0.006 C 
BRANCH  10  11
ATOM     11  C   UNL     1     136.645 135.310 117.323  1.00  0.00     0.053 C 
BRANCH  11  12
ATOM     12  C   UNL     1     135.683 136.037 118.213  1.00  0.00     0.041 C 
ATOM     13  O   UNL     1     134.602 136.485 117.746  1.00  0.00    -0.550 OA
ATOM     14  O   UNL     1     135.995 136.245 119.550  1.00  0.00    -0.550 OA
ENDBRANCH  11  12
ENDBRANCH  10  11
ENDBRANCH   9  10
ENDBRANCH   8   9
ENDBRANCH   7   8
ENDBRANCH   6   7
ENDBRANCH   5   6
ENDBRANCH   4   5
ENDBRANCH   3   4
ENDBRANCH   2   3
ENDBRANCH   1   2
BRANCH   1  15
ATOM     15  C   UNL     1     138.440 138.675 113.440  1.00  0.00     0.000 C 
BRANCH  15  16
ATOM     16  C   UNL     1     139.024 139.853 114.241  1.00  0.00     0.000 C 
BRANCH  16  17
ATOM     17  C   UNL     1     140.370 139.507 114.899  1.00  0.00     0.000 C 
BRANCH  17  18
ATOM     18  C   UNL     1     140.607 140.295 116.200  1.00  0.00    -0.000 C 
BRANCH  18  19
ATOM     19  C   UNL     1     141.884 141.158 116.143  1.00  0.00    -0.000 C 
BRANCH  19  20
ATOM     20  C   UNL     1     142.940 140.654 115.139  1.00  0.00    -0.000 C 
BRANCH  20  21
ATOM     21  C   UNL     1     143.396 141.720 114.120  1.00  0.00    -0.000 C 
BRANCH  21  22
ATOM     22  C   UNL     1     142.284 142.716 113.731  1.00  0.00    -0.000 C 
BRANCH  22  23
ATOM     23  C   UNL     1     141.422 142.271 112.534  1.00  0.00    -0.000 C 
BRANCH  23  24
ATOM     24  C   UNL     1     142.126 141.348 111.518  1.00  0.00    -0.000 C 
BRANCH  24  25
ATOM     25  C   UNL     1     141.461 139.966 111.360  1.00  0.00    -0.003 C 
ATOM     26  C   UNL     1     142.361 138.826 111.837  1.00  0.00     0.004 C 
ENDBRANCH  24  25
ENDBRANCH  23  24
ENDBRANCH  22  23
ENDBRANCH  21  22
ENDBRANCH  20  21
ENDBRANCH  19  20
ENDBRANCH  18  19
ENDBRANCH  17  18
ENDBRANCH  16  17
ENDBRANCH  15  16
ENDBRANCH   1  15
TORSDOF 22
ENDMDL
MODEL 2
REMARK VINA RESULT:    -5.750      2.385      8.825
REMARK INTER + INTRA:         -16.686
REMARK INTER:                 -13.730
REMARK INTRA:                  -2.957
REMARK UNBOUND:                -3.540
REMARK SMILES CCCCCCCCCCCCCCCCCCCCCCCC(=O)[O-]
REMARK SMILES IDX 13 1 14 2 15 3 16 4 17 5 18 6 19 7 20 8 21 9 22 10 23 11
REMARK SMILES IDX 24 12 25 13 26 14 12 15 11 16 10 17 9 18 8 19 7 20 6 21 5 22
REMARK SMILES IDX 4 23 3 24 2 25 1 26
REMARK H PARENT
REMARK Flexibility Score: inf
ROOT
ATOM      1  C   UNL     1     137.889 138.139 114.278  1.00  0.00     0.000 C 
ENDROOT
BRANCH   1   2
ATOM      2  C   UNL     1     139.302 138.744 114.331  1.00  0.00     0.000 C 
BRANCH   2   3
ATOM      3  C   UNL     1     139.392 140.095 113.605  1.00  0.00     0.000 C 
BRANCH   3   4
ATOM      4  C   UNL     1     140.328 140.055 112.385  1.00  0.00     0.000 C 
BRANCH   4   5
ATOM      5  C   UNL     1     140.742 141.457 111.902  1.00  0.00     0.000 C 
BRANCH   5   6
ATOM      6  C   UNL     1     141.329 142.374 112.991  1.00  0.00     0.000 C 
BRANCH   6   7
ATOM      7  C   UNL     1     142.842 142.172 113.192  1.00  0.00     0.000 C 
BRANCH   7   8
ATOM      8  C   UNL     1     143.208 141.887 114.658  1.00  0.00     0.000 C 
BRANCH   8   9
ATOM      9  C   UNL     1     142.856 140.456 115.091  1.00  0.00     0.000 C 
BRANCH   9  10
ATOM     10  C   UNL     1     141.952 140.466 116.332  1.00  0.00     0.006 C 
BRANCH  10  11
ATOM     11  C   UNL     1     141.534 141.886 116.738  1.00  0.00     0.053 C 
BRANCH  11  12
ATOM     12  C   UNL     1     140.045 142.053 116.717  1.00  0.00     0.041 C 
ATOM     13  O   UNL     1     139.311 141.277 117.384  1.00  0.00    -0.550 OA
ATOM     14  O   UNL     1     139.468 143.047 115.937  1.00  0.00    -0.550 OA
ENDBRANCH  11  12
ENDBRANCH  10  11
ENDBRANCH   9  10
ENDBRANCH   8   9
ENDBRANCH   7   8
ENDBRANCH   6   7
ENDBRANCH   5   6
ENDBRANCH   4   5
ENDBRANCH   3   4
ENDBRANCH   2   3
ENDBRANCH   1   2
BRANCH   1  15
ATOM     15  C   UNL     1     137.597 137.444 112.937  1.00  0.00     0.000 C 
BRANCH  15  16
ATOM     16  C   UNL     1     136.705 136.199 113.098  1.00  0.00     0.000 C 
BRANCH  16  17
ATOM     17  C   UNL     1     135.659 136.076 111.980  1.00  0.00     0.000 C 
BRANCH  17  18
ATOM     18  C   UNL     1     135.024 134.675 111.921  1.00  0.00    -0.000 C 
BRANCH  18  19
ATOM     19  C   UNL     1     133.838 134.522 112.896  1.00  0.00    -0.000 C 
BRANCH  19  20
ATOM     20  C   UNL     1     134.101 133.540 114.055  1.00  0.00    -0.000 C 
BRANCH  20  21
ATOM     21  C   UNL     1     133.975 134.175 115.457  1.00  0.00    -0.000 C 
BRANCH  21  22
ATOM     22  C   UNL     1     133.954 135.718 115.434  1.00  0.00    -0.000 C 
BRANCH  22  23
ATOM     23  C   UNL     1     134.777 136.382 116.554  1.00  0.00    -0.000 C 
BRANCH  23  24
ATOM     24  C   UNL     1     136.208 135.837 116.736  1.00  0.00    -0.000 C 
BRANCH  24  25
ATOM     25  C   UNL     1     136.449 135.144 118.092  1.00  0.00    -0.003 C 
ATOM     26  C   UNL     1     136.159 136.064 119.278  1.00  0.00     0.004 C 
ENDBRANCH  24  25
ENDBRANCH  23  24
ENDBRANCH  22  23
ENDBRANCH  21  22
ENDBRANCH  20  21
ENDBRANCH  19  20
ENDBRANCH  18  19
ENDBRANCH  17  18
ENDBRANCH  16  17
ENDBRANCH  15  16
ENDBRANCH   1  15
TORSDOF 22
ENDMDL
MODEL 3
REMARK VINA RESULT:    -5.671      2.404      8.724
REMARK INTER + INTRA:         -16.504
REMARK INTER:                 -13.184
REMARK INTRA:                  -3.320
REMARK UNBOUND:                -3.540
REMARK SMILES CCCCCCCCCCCCCCCCCCCCCCCC(=O)[O-]
REMARK SMILES IDX 13 1 14 2 15 3 16 4 17 5 18 6 19 7 20 8 21 9 22 10 23 11
REMARK SMILES IDX 24 12 25 13 26 14 12 15 11 16 10 17 9 18 8 19 7 20 6 21 5 22
REMARK SMILES IDX 4 23 3 24 2 25 1 26
REMARK H PARENT
REMARK Flexibility Score: inf
ROOT
ATOM      1  C   UNL     1     139.030 139.492 114.381  1.00  0.00     0.000 C 
ENDROOT
BRANCH   1   2
ATOM      2  C   UNL     1     139.622 139.544 112.961  1.00  0.00     0.000 C 
BRANCH   2   3
ATOM      3  C   UNL     1     141.154 139.660 112.966  1.00  0.00     0.000 C 
BRANCH   3   4
ATOM      4  C   UNL     1     141.744 139.711 114.386  1.00  0.00     0.000 C 
BRANCH   4   5
ATOM      5  C   UNL     1     142.975 140.629 114.490  1.00  0.00     0.000 C 
BRANCH   5   6
ATOM      6  C   UNL     1     142.798 142.029 113.873  1.00  0.00     0.000 C 
BRANCH   6   7
ATOM      7  C   UNL     1     142.013 142.990 114.784  1.00  0.00     0.000 C 
BRANCH   7   8
ATOM      8  C   UNL     1     140.534 143.108 114.381  1.00  0.00     0.000 C 
BRANCH   8   9
ATOM      9  C   UNL     1     139.583 143.041 115.585  1.00  0.00     0.000 C 
BRANCH   9  10
ATOM     10  C   UNL     1     140.322 142.557 116.842  1.00  0.00     0.006 C 
BRANCH  10  11
ATOM     11  C   UNL     1     139.757 141.235 117.377  1.00  0.00     0.053 C 
BRANCH  11  12
ATOM     12  C   UNL     1     140.669 140.612 118.390  1.00  0.00     0.041 C 
ATOM     13  O   UNL     1     141.728 140.038 118.021  1.00  0.00    -0.550 OA
ATOM     14  O   UNL     1     140.333 140.639 119.737  1.00  0.00    -0.550 OA
ENDBRANCH  11  12
ENDBRANCH  10  11
ENDBRANCH   9  10
ENDBRANCH   8   9
ENDBRANCH   7   8
ENDBRANCH   6   7
ENDBRANCH   5   6
ENDBRANCH   4   5
ENDBRANCH   3   4
ENDBRANCH   2   3
ENDBRANCH   1   2
BRANCH   1  15
ATOM     15  C   UNL     1     137.973 138.387 114.537  1.00  0.00     0.000 C 
BRANCH  15  16
ATOM     16  C   UNL     1     137.735 137.607 113.231  1.00  0.00     0.000 C 
BRANCH  16  17
ATOM     17  C   UNL     1     136.315 137.026 113.142  1.00  0.00     0.000 C 
BRANCH  17  18
ATOM     18  C   UNL     1     136.082 136.239 111.839  1.00  0.00    -0.000 C 
BRANCH  18  19
ATOM     19  C   UNL     1     135.797 134.745 112.094  1.00  0.00    -0.000 C 
BRANCH  19  20
ATOM     20  C   UNL     1     135.706 134.368 113.586  1.00  0.00    -0.000 C 
BRANCH  20  21
ATOM     21  C   UNL     1     134.418 133.605 113.964  1.00  0.00    -0.000 C 
BRANCH  21  22
ATOM     22  C   UNL     1     133.596 134.297 115.071  1.00  0.00    -0.000 C 
BRANCH  22  23
ATOM     23  C   UNL     1     133.689 135.835 115.067  1.00  0.00    -0.000 C 
BRANCH  23  24
ATOM     24  C   UNL     1     134.295 136.464 116.337  1.00  0.00    -0.000 C 
BRANCH  24  25
ATOM     25  C   UNL     1     135.224 135.517 117.125  1.00  0.00    -0.003 C 
ATOM     26  C   UNL     1     136.702 135.760 116.818  1.00  0.00     0.004 C 
ENDBRANCH  24  25
ENDBRANCH  23  24
ENDBRANCH  22  23
ENDBRANCH  21  22
ENDBRANCH  20  21
ENDBRANCH  19  20
ENDBRANCH  18  19
ENDBRANCH  17  18
ENDBRANCH  16  17
ENDBRANCH  15  16
ENDBRANCH   1  15
TORSDOF 22
ENDMDL
MODEL 4
REMARK VINA RESULT:    -5.670      2.229      8.855
REMARK INTER + INTRA:         -16.503
REMARK INTER:                 -13.023
REMARK INTRA:                  -3.481
REMARK UNBOUND:                -3.540
REMARK SMILES CCCCCCCCCCCCCCCCCCCCCCCC(=O)[O-]
REMARK SMILES IDX 13 1 14 2 15 3 16 4 17 5 18 6 19 7 20 8 21 9 22 10 23 11
REMARK SMILES IDX 24 12 25 13 26 14 12 15 11 16 10 17 9 18 8 19 7 20 6 21 5 22
REMARK SMILES IDX 4 23 3 24 2 25 1 26
REMARK H PARENT
REMARK Flexibility Score: inf
ROOT
ATOM      1  C   UNL     1     138.665 139.292 114.445  1.00  0.00     0.000 C 
ENDROOT
BRANCH   1   2
ATOM      2  C   UNL     1     139.630 139.307 113.247  1.00  0.00     0.000 C 
BRANCH   2   3
ATOM      3  C   UNL     1     141.101 139.191 113.674  1.00  0.00     0.000 C 
BRANCH   3   4
ATOM      4  C   UNL     1     142.074 139.729 112.611  1.00  0.00     0.000 C 
BRANCH   4   5
ATOM      5  C   UNL     1     143.453 140.093 113.191  1.00  0.00     0.000 C 
BRANCH   5   6
ATOM      6  C   UNL     1     143.479 141.365 114.059  1.00  0.00     0.000 C 
BRANCH   6   7
ATOM      7  C   UNL     1     142.549 142.471 113.528  1.00  0.00     0.000 C 
BRANCH   7   8
ATOM      8  C   UNL     1     141.781 143.185 114.653  1.00  0.00     0.000 C 
BRANCH   8   9
ATOM      9  C   UNL     1     140.292 142.812 114.684  1.00  0.00     0.000 C 
BRANCH   9  10
ATOM     10  C   UNL     1     139.888 142.283 116.068  1.00  0.00     0.006 C 
BRANCH  10  11
ATOM     11  C   UNL     1     141.099 142.067 116.985  1.00  0.00     0.053 C 
BRANCH  11  12
ATOM     12  C   UNL     1     141.180 140.653 117.473  1.00  0.00     0.041 C 
ATOM     13  O   UNL     1     140.473 140.276 118.445  1.00  0.00    -0.550 OA
ATOM     14  O   UNL     1     142.057 139.760 116.873  1.00  0.00    -0.550 OA
ENDBRANCH  11  12
ENDBRANCH  10  11
ENDBRANCH   9  10
ENDBRANCH   8   9
ENDBRANCH   7   8
ENDBRANCH   6   7
ENDBRANCH   5   6
ENDBRANCH   4   5
ENDBRANCH   3   4
ENDBRANCH   2   3
ENDBRANCH   1   2
BRANCH   1  15
ATOM     15  C   UNL     1     137.643 138.146 114.363  1.00  0.00     0.000 C 
BRANCH  15  16
ATOM     16  C   UNL     1     137.634 137.460 112.985  1.00  0.00     0.000 C 
BRANCH  16  17
ATOM     17  C   UNL     1     136.326 136.699 112.715  1.00  0.00     0.000 C 
BRANCH  17  18
ATOM     18  C   UNL     1     135.128 137.303 113.469  1.00  0.00    -0.000 C 
BRANCH  18  19
ATOM     19  C   UNL     1     133.958 136.309 113.615  1.00  0.00    -0.000 C 
BRANCH  19  20
ATOM     20  C   UNL     1     134.291 134.876 113.154  1.00  0.00    -0.000 C 
BRANCH  20  21
ATOM     21  C   UNL     1     134.091 133.802 114.246  1.00  0.00    -0.000 C 
BRANCH  21  22
ATOM     22  C   UNL     1     135.372 133.004 114.565  1.00  0.00    -0.000 C 
BRANCH  22  23
ATOM     23  C   UNL     1     136.524 133.851 115.140  1.00  0.00    -0.000 C 
BRANCH  23  24
ATOM     24  C   UNL     1     136.344 134.305 116.603  1.00  0.00    -0.000 C 
BRANCH  24  25
ATOM     25  C   UNL     1     136.192 135.831 116.772  1.00  0.00    -0.003 C 
ATOM     26  C   UNL     1     134.786 136.233 117.216  1.00  0.00     0.004 C 
ENDBRANCH  24  25
ENDBRANCH  23  24
ENDBRANCH  22  23
ENDBRANCH  21  22
ENDBRANCH  20  21
ENDBRANCH  19  20
ENDBRANCH  18  19
ENDBRANCH  17  18
ENDBRANCH  16  17
ENDBRANCH  15  16
ENDBRANCH   1  15
TORSDOF 22
ENDMDL
MODEL 5
REMARK VINA RESULT:    -5.620      1.514      3.036
REMARK INTER + INTRA:         -16.389
REMARK INTER:                 -13.245
REMARK INTRA:                  -3.144
REMARK UNBOUND:                -3.540
REMARK SMILES CCCCCCCCCCCCCCCCCCCCCCCC(=O)[O-]
REMARK SMILES IDX 13 1 14 2 15 3 16 4 17 5 18 6 19 7 20 8 21 9 22 10 23 11
REMARK SMILES IDX 24 12 25 13 26 14 12 15 11 16 10 17 9 18 8 19 7 20 6 21 5 22
REMARK SMILES IDX 4 23 3 24 2 25 1 26
REMARK H PARENT
REMARK Flexibility Score: inf
ROOT
ATOM      1  C   UNL     1     137.616 138.421 114.169  1.00  0.00     0.000 C 
ENDROOT
BRANCH   1   2
ATOM      2  C   UNL     1     136.450 137.657 113.517  1.00  0.00     0.000 C 
BRANCH   2   3
ATOM      3  C   UNL     1     136.865 136.265 113.015  1.00  0.00     0.000 C 
BRANCH   3   4
ATOM      4  C   UNL     1     136.105 135.837 111.748  1.00  0.00     0.000 C 
BRANCH   4   5
ATOM      5  C   UNL     1     135.403 134.476 111.902  1.00  0.00     0.000 C 
BRANCH   5   6
ATOM      6  C   UNL     1     134.129 134.494 112.767  1.00  0.00     0.000 C 
BRANCH   6   7
ATOM      7  C   UNL     1     134.211 133.540 113.973  1.00  0.00     0.000 C 
BRANCH   7   8
ATOM      8  C   UNL     1     133.826 134.225 115.294  1.00  0.00     0.000 C 
BRANCH   8   9
ATOM      9  C   UNL     1     133.674 135.747 115.151  1.00  0.00     0.000 C 
BRANCH   9  10
ATOM     10  C   UNL     1     134.338 136.478 116.327  1.00  0.00     0.006 C 
BRANCH  10  11
ATOM     11  C   UNL     1     135.760 135.970 116.600  1.00  0.00     0.053 C 
BRANCH  11  12
ATOM     12  C   UNL     1     135.940 135.569 118.033  1.00  0.00     0.041 C 
ATOM     13  O   UNL     1     134.953 135.552 118.815  1.00  0.00    -0.550 OA
ATOM     14  O   UNL     1     137.203 135.244 118.510  1.00  0.00    -0.550 OA
ENDBRANCH  11  12
ENDBRANCH  10  11
ENDBRANCH   9  10
ENDBRANCH   8   9
ENDBRANCH   7   8
ENDBRANCH   6   7
ENDBRANCH   5   6
ENDBRANCH   4   5
ENDBRANCH   3   4
ENDBRANCH   2   3
ENDBRANCH   1   2
BRANCH   1  15
ATOM     15  C   UNL     1     138.696 138.826 113.152  1.00  0.00     0.000 C 
BRANCH  15  16
ATOM     16  C   UNL     1     140.112 138.813 113.755  1.00  0.00     0.000 C 
BRANCH  16  17
ATOM     17  C   UNL     1     141.108 139.649 112.937  1.00  0.00     0.000 C 
BRANCH  17  18
ATOM     18  C   UNL     1     140.408 140.688 112.043  1.00  0.00    -0.000 C 
BRANCH  18  19
ATOM     19  C   UNL     1     141.091 142.070 112.095  1.00  0.00    -0.000 C 
BRANCH  19  20
ATOM     20  C   UNL     1     142.088 142.234 113.260  1.00  0.00    -0.000 C 
BRANCH  20  21
ATOM     21  C   UNL     1     141.687 143.320 114.281  1.00  0.00    -0.000 C 
BRANCH  21  22
ATOM     22  C   UNL     1     140.213 143.233 114.726  1.00  0.00    -0.000 C 
BRANCH  22  23
ATOM     23  C   UNL     1     139.891 142.027 115.631  1.00  0.00    -0.000 C 
BRANCH  23  24
ATOM     24  C   UNL     1     140.249 142.205 117.120  1.00  0.00    -0.000 C 
BRANCH  24  25
ATOM     25  C   UNL     1     141.216 141.134 117.665  1.00  0.00    -0.003 C 
ATOM     26  C   UNL     1     141.847 140.295 116.554  1.00  0.00     0.004 C 
ENDBRANCH  24  25
ENDBRANCH  23  24
ENDBRANCH  22  23
ENDBRANCH  21  22
ENDBRANCH  20  21
ENDBRANCH  19  20
ENDBRANCH  18  19
ENDBRANCH  17  18
ENDBRANCH  16  17
ENDBRANCH  15  16
ENDBRANCH   1  15
TORSDOF 22
ENDMDL
MODEL 6
REMARK VINA RESULT:    -5.547      1.007      2.605
REMARK INTER + INTRA:         -16.221
REMARK INTER:                 -12.744
REMARK INTRA:                  -3.477
REMARK UNBOUND:                -3.540
REMARK SMILES CCCCCCCCCCCCCCCCCCCCCCCC(=O)[O-]
REMARK SMILES IDX 13 1 14 2 15 3 16 4 17 5 18 6 19 7 20 8 21 9 22 10 23 11
REMARK SMILES IDX 24 12 25 13 26 14 12 15 11 16 10 17 9 18 8 19 7 20 6 21 5 22
REMARK SMILES IDX 4 23 3 24 2 25 1 26
REMARK H PARENT
REMARK Flexibility Score: inf
ROOT
ATOM      1  C   UNL     1     138.703 138.080 113.701  1.00  0.00     0.000 C 
ENDROOT
BRANCH   1   2
ATOM      2  C   UNL     1     137.283 137.923 114.269  1.00  0.00     0.000 C 
BRANCH   2   3
ATOM      3  C   UNL     1     136.410 136.984 113.422  1.00  0.00     0.000 C 
BRANCH   3   4
ATOM      4  C   UNL     1     134.918 137.064 113.787  1.00  0.00     0.000 C 
BRANCH   4   5
ATOM      5  C   UNL     1     134.140 135.790 113.412  1.00  0.00     0.000 C 
BRANCH   5   6
ATOM      6  C   UNL     1     133.280 135.195 114.542  1.00  0.00     0.000 C 
BRANCH   6   7
ATOM      7  C   UNL     1     133.887 133.917 115.147  1.00  0.00     0.000 C 
BRANCH   7   8
ATOM      8  C   UNL     1     135.088 133.396 114.340  1.00  0.00     0.000 C 
BRANCH   8   9
ATOM      9  C   UNL     1     136.429 133.633 115.050  1.00  0.00     0.000 C 
BRANCH   9  10
ATOM     10  C   UNL     1     136.212 133.963 116.535  1.00  0.00     0.006 C 
BRANCH  10  11
ATOM     11  C   UNL     1     136.669 135.384 116.888  1.00  0.00     0.053 C 
BRANCH  11  12
ATOM     12  C   UNL     1     135.735 136.041 117.858  1.00  0.00     0.041 C 
ATOM     13  O   UNL     1     134.649 136.538 117.456  1.00  0.00    -0.550 OA
ATOM     14  O   UNL     1     136.078 136.131 119.201  1.00  0.00    -0.550 OA
ENDBRANCH  11  12
ENDBRANCH  10  11
ENDBRANCH   9  10
ENDBRANCH   8   9
ENDBRANCH   7   8
ENDBRANCH   6   7
ENDBRANCH   5   6
ENDBRANCH   4   5
ENDBRANCH   3   4
ENDBRANCH   2   3
ENDBRANCH   1   2
BRANCH   1  15
ATOM     15  C   UNL     1     138.707 138.671 112.281  1.00  0.00     0.000 C 
BRANCH  15  16
ATOM     16  C   UNL     1     139.790 139.749 112.092  1.00  0.00     0.000 C 
BRANCH  16  17
ATOM     17  C   UNL     1     141.179 139.147 111.825  1.00  0.00     0.000 C 
BRANCH  17  18
ATOM     18  C   UNL     1     142.259 140.227 111.631  1.00  0.00    -0.000 C 
BRANCH  18  19
ATOM     19  C   UNL     1     141.790 141.623 112.088  1.00  0.00    -0.000 C 
BRANCH  19  20
ATOM     20  C   UNL     1     142.664 142.248 113.193  1.00  0.00    -0.000 C 
BRANCH  20  21
ATOM     21  C   UNL     1     143.465 141.219 114.018  1.00  0.00    -0.000 C 
BRANCH  21  22
ATOM     22  C   UNL     1     142.848 140.924 115.401  1.00  0.00    -0.000 C 
BRANCH  22  23
ATOM     23  C   UNL     1     141.696 139.901 115.379  1.00  0.00    -0.000 C 
BRANCH  23  24
ATOM     24  C   UNL     1     140.417 140.330 116.125  1.00  0.00    -0.000 C 
BRANCH  24  25
ATOM     25  C   UNL     1     139.531 141.315 115.336  1.00  0.00    -0.003 C 
ATOM     26  C   UNL     1     139.864 142.775 115.643  1.00  0.00     0.004 C 
ENDBRANCH  24  25
ENDBRANCH  23  24
ENDBRANCH  22  23
ENDBRANCH  21  22
ENDBRANCH  20  21
ENDBRANCH  19  20
ENDBRANCH  18  19
ENDBRANCH  17  18
ENDBRANCH  16  17
ENDBRANCH  15  16
ENDBRANCH   1  15
TORSDOF 22
ENDMDL
MODEL 7
REMARK VINA RESULT:    -5.508      2.625      8.970
REMARK INTER + INTRA:         -16.132
REMARK INTER:                 -13.433
REMARK INTRA:                  -2.699
REMARK UNBOUND:                -3.540
REMARK SMILES CCCCCCCCCCCCCCCCCCCCCCCC(=O)[O-]
REMARK SMILES IDX 13 1 14 2 15 3 16 4 17 5 18 6 19 7 20 8 21 9 22 10 23 11
REMARK SMILES IDX 24 12 25 13 26 14 12 15 11 16 10 17 9 18 8 19 7 20 6 21 5 22
REMARK SMILES IDX 4 23 3 24 2 25 1 26
REMARK H PARENT
REMARK Flexibility Score: inf
ROOT
ATOM      1  C   UNL     1     135.857 137.157 114.342  1.00  0.00     0.000 C 
ENDROOT
BRANCH   1   2
ATOM      2  C   UNL     1     137.365 136.877 114.221  1.00  0.00     0.000 C 
BRANCH   2   3
ATOM      3  C   UNL     1     138.084 137.902 113.331  1.00  0.00     0.000 C 
BRANCH   3   4
ATOM      4  C   UNL     1     139.209 138.647 114.070  1.00  0.00     0.000 C 
BRANCH   4   5
ATOM      5  C   UNL     1     140.226 139.297 113.113  1.00  0.00     0.000 C 
BRANCH   5   6
ATOM      6  C   UNL     1     141.693 139.223 113.574  1.00  0.00     0.000 C 
BRANCH   6   7
ATOM      7  C   UNL     1     142.674 139.819 112.548  1.00  0.00     0.000 C 
BRANCH   7   8
ATOM      8  C   UNL     1     142.859 141.336 112.722  1.00  0.00     0.000 C 
BRANCH   8   9
ATOM      9  C   UNL     1     143.347 141.716 114.128  1.00  0.00     0.000 C 
BRANCH   9  10
ATOM     10  C   UNL     1     142.474 142.827 114.730  1.00  0.00     0.006 C 
BRANCH  10  11
ATOM     11  C   UNL     1     141.098 142.916 114.055  1.00  0.00     0.053 C 
BRANCH  11  12
ATOM     12  C   UNL     1     139.989 142.948 115.061  1.00  0.00     0.041 C 
ATOM     13  O   UNL     1     139.530 141.874 115.534  1.00  0.00    -0.550 OA
ATOM     14  O   UNL     1     139.441 144.162 115.453  1.00  0.00    -0.550 OA
ENDBRANCH  11  12
ENDBRANCH  10  11
ENDBRANCH   9  10
ENDBRANCH   8   9
ENDBRANCH   7   8
ENDBRANCH   6   7
ENDBRANCH   5   6
ENDBRANCH   4   5
ENDBRANCH   3   4
ENDBRANCH   2   3
ENDBRANCH   1   2
BRANCH   1  15
ATOM     15  C   UNL     1     135.219 137.538 112.996  1.00  0.00     0.000 C 
BRANCH  15  16
ATOM     16  C   UNL     1     133.852 136.865 112.778  1.00  0.00     0.000 C 
BRANCH  16  17
ATOM     17  C   UNL     1     133.926 135.686 111.795  1.00  0.00     0.000 C 
BRANCH  17  18
ATOM     18  C   UNL     1     134.263 134.357 112.496  1.00  0.00    -0.000 C 
BRANCH  18  19
ATOM     19  C   UNL     1     133.550 134.208 113.855  1.00  0.00    -0.000 C 
BRANCH  19  20
ATOM     20  C   UNL     1     134.346 133.395 114.896  1.00  0.00    -0.000 C 
BRANCH  20  21
ATOM     21  C   UNL     1     135.833 133.197 114.534  1.00  0.00    -0.000 C 
BRANCH  21  22
ATOM     22  C   UNL     1     136.794 133.479 115.708  1.00  0.00    -0.000 C 
BRANCH  22  23
ATOM     23  C   UNL     1     136.158 134.249 116.881  1.00  0.00    -0.000 C 
BRANCH  23  24
ATOM     24  C   UNL     1     137.101 135.213 117.628  1.00  0.00    -0.000 C 
BRANCH  24  25
ATOM     25  C   UNL     1     136.419 136.005 118.763  1.00  0.00    -0.003 C 
ATOM     26  C   UNL     1     134.896 136.010 118.639  1.00  0.00     0.004 C 
ENDBRANCH  24  25
ENDBRANCH  23  24
ENDBRANCH  22  23
ENDBRANCH  21  22
ENDBRANCH  20  21
ENDBRANCH  19  20
ENDBRANCH  18  19
ENDBRANCH  17  18
ENDBRANCH  16  17
ENDBRANCH  15  16
ENDBRANCH   1  15
TORSDOF 22
ENDMDL
MODEL 8
REMARK VINA RESULT:    -5.490      1.642      3.191
REMARK INTER + INTRA:         -16.092
REMARK INTER:                 -13.105
REMARK INTRA:                  -2.987
REMARK UNBOUND:                -3.540
REMARK SMILES CCCCCCCCCCCCCCCCCCCCCCCC(=O)[O-]
REMARK SMILES IDX 13 1 14 2 15 3 16 4 17 5 18 6 19 7 20 8 21 9 22 10 23 11
REMARK SMILES IDX 24 12 25 13 26 14 12 15 11 16 10 17 9 18 8 19 7 20 6 21 5 22
REMARK SMILES IDX 4 23 3 24 2 25 1 26
REMARK H PARENT
REMARK Flexibility Score: inf
ROOT
ATOM      1  C   UNL     1     138.800 138.646 114.290  1.00  0.00     0.000 C 
ENDROOT
BRANCH   1   2
ATOM      2  C   UNL     1     138.002 137.333 114.226  1.00  0.00     0.000 C 
BRANCH   2   3
ATOM      3  C   UNL     1     136.665 137.491 113.486  1.00  0.00     0.000 C 
BRANCH   3   4
ATOM      4  C   UNL     1     136.415 136.374 112.458  1.00  0.00     0.000 C 
BRANCH   4   5
ATOM      5  C   UNL     1     135.101 136.560 111.678  1.00  0.00     0.000 C 
BRANCH   5   6
ATOM      6  C   UNL     1     134.304 135.267 111.428  1.00  0.00     0.000 C 
BRANCH   6   7
ATOM      7  C   UNL     1     133.712 134.670 112.718  1.00  0.00     0.000 C 
BRANCH   7   8
ATOM      8  C   UNL     1     132.956 135.712 113.557  1.00  0.00     0.000 C 
BRANCH   8   9
ATOM      9  C   UNL     1     133.461 135.788 115.006  1.00  0.00     0.000 C 
BRANCH   9  10
ATOM     10  C   UNL     1     133.931 134.410 115.495  1.00  0.00     0.006 C 
BRANCH  10  11
ATOM     11  C   UNL     1     134.811 134.506 116.748  1.00  0.00     0.053 C 
BRANCH  11  12
ATOM     12  C   UNL     1     136.231 134.842 116.404  1.00  0.00     0.041 C 
ATOM     13  O   UNL     1     136.852 135.719 117.060  1.00  0.00    -0.550 OA
ATOM     14  O   UNL     1     136.856 134.207 115.340  1.00  0.00    -0.550 OA
ENDBRANCH  11  12
ENDBRANCH  10  11
ENDBRANCH   9  10
ENDBRANCH   8   9
ENDBRANCH   7   8
ENDBRANCH   6   7
ENDBRANCH   5   6
ENDBRANCH   4   5
ENDBRANCH   3   4
ENDBRANCH   2   3
ENDBRANCH   1   2
BRANCH   1  15
ATOM     15  C   UNL     1     139.174 139.176 112.896  1.00  0.00     0.000 C 
BRANCH  15  16
ATOM     16  C   UNL     1     140.694 139.335 112.711  1.00  0.00     0.000 C 
BRANCH  16  17
ATOM     17  C   UNL     1     141.051 140.384 111.647  1.00  0.00     0.000 C 
BRANCH  17  18
ATOM     18  C   UNL     1     142.493 140.903 111.794  1.00  0.00    -0.000 C 
BRANCH  18  19
ATOM     19  C   UNL     1     143.342 140.031 112.742  1.00  0.00    -0.000 C 
BRANCH  19  20
ATOM     20  C   UNL     1     144.006 140.815 113.891  1.00  0.00    -0.000 C 
BRANCH  20  21
ATOM     21  C   UNL     1     143.019 141.288 114.980  1.00  0.00    -0.000 C 
BRANCH  21  22
ATOM     22  C   UNL     1     142.794 142.814 114.985  1.00  0.00    -0.000 C 
BRANCH  22  23
ATOM     23  C   UNL     1     141.444 143.261 114.390  1.00  0.00    -0.000 C 
BRANCH  23  24
ATOM     24  C   UNL     1     140.232 142.389 114.775  1.00  0.00    -0.000 C 
BRANCH  24  25
ATOM     25  C   UNL     1     139.816 142.509 116.255  1.00  0.00    -0.003 C 
ATOM     26  C   UNL     1     139.640 141.147 116.926  1.00  0.00     0.004 C 
ENDBRANCH  24  25
ENDBRANCH  23  24
ENDBRANCH  22  23
ENDBRANCH  21  22
ENDBRANCH  20  21
ENDBRANCH  19  20
ENDBRANCH  18  19
ENDBRANCH  17  18
ENDBRANCH  16  17
ENDBRANCH  15  16
ENDBRANCH   1  15
TORSDOF 22
ENDMDL
MODEL 9
REMARK VINA RESULT:    -5.159      1.152      2.883
REMARK INTER + INTRA:         -15.334
REMARK INTER:                 -12.948
REMARK INTRA:                  -2.386
REMARK UNBOUND:                -3.540
REMARK SMILES CCCCCCCCCCCCCCCCCCCCCCCC(=O)[O-]
REMARK SMILES IDX 13 1 14 2 15 3 16 4 17 5 18 6 19 7 20 8 21 9 22 10 23 11
REMARK SMILES IDX 24 12 25 13 26 14 12 15 11 16 10 17 9 18 8 19 7 20 6 21 5 22
REMARK SMILES IDX 4 23 3 24 2 25 1 26
REMARK H PARENT
REMARK Flexibility Score: inf
ROOT
ATOM      1  C   UNL     1     136.681 136.646 113.045  1.00  0.00     0.000 C 
ENDROOT
BRANCH   1   2
ATOM      2  C   UNL     1     135.430 137.237 113.719  1.00  0.00     0.000 C 
BRANCH   2   3
ATOM      3  C   UNL     1     134.207 137.240 112.790  1.00  0.00     0.000 C 
BRANCH   3   4
ATOM      4  C   UNL     1     133.189 136.141 113.141  1.00  0.00     0.000 C 
BRANCH   4   5
ATOM      5  C   UNL     1     133.290 135.677 114.605  1.00  0.00     0.000 C 
BRANCH   5   6
ATOM      6  C   UNL     1     133.441 134.156 114.798  1.00  0.00     0.000 C 
BRANCH   6   7
ATOM      7  C   UNL     1     134.559 133.551 113.928  1.00  0.00     0.000 C 
BRANCH   7   8
ATOM      8  C   UNL     1     135.728 133.008 114.766  1.00  0.00     0.000 C 
BRANCH   8   9
ATOM      9  C   UNL     1     136.559 134.123 115.419  1.00  0.00     0.000 C 
BRANCH   9  10
ATOM     10  C   UNL     1     136.357 134.138 116.941  1.00  0.00     0.006 C 
BRANCH  10  11
ATOM     11  C   UNL     1     136.820 135.456 117.577  1.00  0.00     0.053 C 
BRANCH  11  12
ATOM     12  C   UNL     1     135.779 136.026 118.491  1.00  0.00     0.041 C 
ATOM     13  O   UNL     1     135.968 136.040 119.737  1.00  0.00    -0.550 OA
ATOM     14  O   UNL     1     134.587 136.513 117.970  1.00  0.00    -0.550 OA
ENDBRANCH  11  12
ENDBRANCH  10  11
ENDBRANCH   9  10
ENDBRANCH   8   9
ENDBRANCH   7   8
ENDBRANCH   6   7
ENDBRANCH   5   6
ENDBRANCH   4   5
ENDBRANCH   3   4
ENDBRANCH   2   3
ENDBRANCH   1   2
BRANCH   1  15
ATOM     15  C   UNL     1     136.592 136.679 111.510  1.00  0.00     0.000 C 
BRANCH  15  16
ATOM     16  C   UNL     1     137.660 137.588 110.875  1.00  0.00     0.000 C 
BRANCH  16  17
ATOM     17  C   UNL     1     138.512 138.317 111.926  1.00  0.00     0.000 C 
BRANCH  17  18
ATOM     18  C   UNL     1     139.627 139.169 111.290  1.00  0.00    -0.000 C 
BRANCH  18  19
ATOM     19  C   UNL     1     140.446 139.949 112.339  1.00  0.00    -0.000 C 
BRANCH  19  20
ATOM     20  C   UNL     1     140.674 141.431 111.981  1.00  0.00    -0.000 C 
BRANCH  20  21
ATOM     21  C   UNL     1     141.691 142.148 112.895  1.00  0.00    -0.000 C 
BRANCH  21  22
ATOM     22  C   UNL     1     142.655 141.184 113.617  1.00  0.00    -0.000 C 
BRANCH  22  23
ATOM     23  C   UNL     1     142.910 141.530 115.097  1.00  0.00    -0.000 C 
BRANCH  23  24
ATOM     24  C   UNL     1     142.220 140.605 116.120  1.00  0.00    -0.000 C 
BRANCH  24  25
ATOM     25  C   UNL     1     140.924 139.950 115.600  1.00  0.00    -0.003 C 
ATOM     26  C   UNL     1     139.669 140.561 116.224  1.00  0.00     0.004 C 
ENDBRANCH  24  25
ENDBRANCH  23  24
ENDBRANCH  22  23
ENDBRANCH  21  22
ENDBRANCH  20  21
ENDBRANCH  19  20
ENDBRANCH  18  19
ENDBRANCH  17  18
ENDBRANCH  16  17
ENDBRANCH  15  16
ENDBRANCH   1  15
TORSDOF 22
ENDMDL
