MODEL 1
REMARK VINA RESULT:    -3.933      0.000      0.000
REMARK INTER + INTRA:          -5.536
REMARK INTER:                  -5.312
REMARK INTRA:                  -0.224
REMARK UNBOUND:                -0.224
REMARK SMILES CCCCCCCC=O
REMARK SMILES IDX 5 1 4 2 3 3 2 4 1 5 6 6 7 7 8 8 9 9
REMARK H PARENT
REMARK Flexibility Score: inf
ROOT
ATOM      1  C   UNL     1      25.242  58.241  -9.188  1.00  0.00     0.000 C 
ENDROOT
BRANCH   1   2
ATOM      2  C   UNL     1      26.210  59.327  -9.686  1.00  0.00     0.000 C 
BRANCH   2   3
ATOM      3  C   UNL     1      27.241  58.785 -10.691  1.00  0.00    -0.000 C 
BRANCH   3   4
ATOM      4  C   UNL     1      28.440  59.729 -10.870  1.00  0.00    -0.003 C 
ATOM      5  C   UNL     1      28.132  61.166 -10.449  1.00  0.00     0.004 C 
ENDBRANCH   3   4
ENDBRANCH   2   3
ENDBRANCH   1   2
BRANCH   1   6
ATOM      6  C   UNL     1      25.808  56.820  -9.354  1.00  0.00     0.008 C 
BRANCH   6   7
ATOM      7  C   UNL     1      25.310  55.869  -8.256  1.00  0.00     0.072 C 
BRANCH   7   8
ATOM      8  C   UNL     1      23.817  55.717  -8.275  1.00  0.00     0.224 C 
ATOM      9  O   UNL     1      23.220  55.342  -7.279  1.00  0.00    -0.303 OA
ENDBRANCH   7   8
ENDBRANCH   6   7
ENDBRANCH   1   6
TORSDOF 6
ENDMDL
MODEL 2
REMARK VINA RESULT:    -3.890      0.972      1.787
REMARK INTER + INTRA:          -5.479
REMARK INTER:                  -5.298
REMARK INTRA:                  -0.181
REMARK UNBOUND:                -0.224
REMARK SMILES CCCCCCCC=O
REMARK SMILES IDX 5 1 4 2 3 3 2 4 1 5 6 6 7 7 8 8 9 9
REMARK H PARENT
REMARK Flexibility Score: inf
ROOT
ATOM      1  C   UNL     1      25.787  56.586  -8.747  1.00  0.00     0.000 C 
ENDROOT
BRANCH   1   2
ATOM      2  C   UNL     1      25.008  57.839  -9.179  1.00  0.00     0.000 C 
BRANCH   2   3
ATOM      3  C   UNL     1      25.932  59.011  -9.553  1.00  0.00    -0.000 C 
BRANCH   3   4
ATOM      4  C   UNL     1      27.040  58.596 -10.533  1.00  0.00    -0.003 C 
ATOM      5  C   UNL     1      28.167  59.625 -10.625  1.00  0.00     0.004 C 
ENDBRANCH   3   4
ENDBRANCH   2   3
ENDBRANCH   1   2
BRANCH   1   6
ATOM      6  C   UNL     1      24.864  55.404  -8.401  1.00  0.00     0.008 C 
BRANCH   6   7
ATOM      7  C   UNL     1      23.898  55.742  -7.256  1.00  0.00     0.072 C 
BRANCH   7   8
ATOM      8  C   UNL     1      22.676  54.872  -7.275  1.00  0.00     0.224 C 
ATOM      9  O   UNL     1      22.185  54.471  -6.231  1.00  0.00    -0.303 OA
ENDBRANCH   7   8
ENDBRANCH   6   7
ENDBRANCH   1   6
TORSDOF 6
ENDMDL
MODEL 3
REMARK VINA RESULT:    -3.862      2.984      5.623
REMARK INTER + INTRA:          -5.440
REMARK INTER:                  -5.278
REMARK INTRA:                  -0.162
REMARK UNBOUND:                -0.224
REMARK SMILES CCCCCCCC=O
REMARK SMILES IDX 5 1 4 2 3 3 2 4 1 5 6 6 7 7 8 8 9 9
REMARK H PARENT
REMARK Flexibility Score: inf
ROOT
ATOM      1  C   UNL     1      25.438  58.626  -9.282  1.00  0.00     0.000 C 
ENDROOT
BRANCH   1   2
ATOM      2  C   UNL     1      25.856  57.148  -9.354  1.00  0.00     0.000 C 
BRANCH   2   3
ATOM      3  C   UNL     1      25.287  56.315  -8.192  1.00  0.00    -0.000 C 
BRANCH   3   4
ATOM      4  C   UNL     1      24.109  55.430  -8.626  1.00  0.00    -0.003 C 
ATOM      5  C   UNL     1      23.094  55.201  -7.506  1.00  0.00     0.004 C 
ENDBRANCH   3   4
ENDBRANCH   2   3
ENDBRANCH   1   2
BRANCH   1   6
ATOM      6  C   UNL     1      26.536  59.578  -9.788  1.00  0.00     0.008 C 
BRANCH   6   7
ATOM      7  C   UNL     1      27.477  58.893 -10.790  1.00  0.00     0.072 C 
BRANCH   7   8
ATOM      8  C   UNL     1      28.784  59.617 -10.922  1.00  0.00     0.224 C 
ATOM      9  O   UNL     1      29.630  59.231 -11.713  1.00  0.00    -0.303 OA
ENDBRANCH   7   8
ENDBRANCH   6   7
ENDBRANCH   1   6
TORSDOF 6
ENDMDL
MODEL 4
REMARK VINA RESULT:    -3.633      3.291      5.831
REMARK INTER + INTRA:          -5.132
REMARK INTER:                  -5.012
REMARK INTRA:                  -0.119
REMARK UNBOUND:                -0.224
REMARK SMILES CCCCCCCC=O
REMARK SMILES IDX 5 1 4 2 3 3 2 4 1 5 6 6 7 7 8 8 9 9
REMARK H PARENT
REMARK Flexibility Score: inf
ROOT
ATOM      1  C   UNL     1      27.178  58.753 -10.678  1.00  0.00     0.000 C 
ENDROOT
BRANCH   1   2
ATOM      2  C   UNL     1      26.080  58.562  -9.620  1.00  0.00     0.000 C 
BRANCH   2   3
ATOM      3  C   UNL     1      25.873  57.085  -9.241  1.00  0.00    -0.000 C 
BRANCH   3   4
ATOM      4  C   UNL     1      24.489  56.824  -8.628  1.00  0.00    -0.003 C 
ATOM      5  C   UNL     1      24.202  55.337  -8.421  1.00  0.00     0.004 C 
ENDBRANCH   3   4
ENDBRANCH   2   3
ENDBRANCH   1   2
BRANCH   1   6
ATOM      6  C   UNL     1      28.009  60.027 -10.447  1.00  0.00     0.008 C 
BRANCH   6   7
ATOM      7  C   UNL     1      29.518  59.757 -10.539  1.00  0.00     0.072 C 
BRANCH   7   8
ATOM      8  C   UNL     1      29.966  59.533 -11.954  1.00  0.00     0.224 C 
ATOM      9  O   UNL     1      30.603  58.536 -12.252  1.00  0.00    -0.303 OA
ENDBRANCH   7   8
ENDBRANCH   6   7
ENDBRANCH   1   6
TORSDOF 6
ENDMDL
MODEL 5
REMARK VINA RESULT:    -3.632     17.085     18.595
REMARK INTER + INTRA:          -5.129
REMARK INTER:                  -4.856
REMARK INTRA:                  -0.273
REMARK UNBOUND:                -0.224
REMARK SMILES CCCCCCCC=O
REMARK SMILES IDX 5 1 4 2 3 3 2 4 1 5 6 6 7 7 8 8 9 9
REMARK H PARENT
REMARK Flexibility Score: inf
ROOT
ATOM      1  C   UNL     1      18.593  45.682  -0.725  1.00  0.00     0.000 C 
ENDROOT
BRANCH   1   2
ATOM      2  C   UNL     1      17.346  44.955  -0.197  1.00  0.00     0.000 C 
BRANCH   2   3
ATOM      3  C   UNL     1      16.037  45.659  -0.593  1.00  0.00    -0.000 C 
BRANCH   3   4
ATOM      4  C   UNL     1      15.005  45.664   0.545  1.00  0.00    -0.003 C 
ATOM      5  C   UNL     1      15.506  44.959   1.805  1.00  0.00     0.004 C 
ENDBRANCH   3   4
ENDBRANCH   2   3
ENDBRANCH   1   2
BRANCH   1   6
ATOM      6  C   UNL     1      19.879  45.266   0.009  1.00  0.00     0.008 C 
BRANCH   6   7
ATOM      7  C   UNL     1      19.673  44.008   0.865  1.00  0.00     0.072 C 
BRANCH   7   8
ATOM      8  C   UNL     1      20.913  43.165   0.937  1.00  0.00     0.224 C 
ATOM      9  O   UNL     1      21.304  42.553  -0.044  1.00  0.00    -0.303 OA
ENDBRANCH   7   8
ENDBRANCH   6   7
ENDBRANCH   1   6
TORSDOF 6
ENDMDL
MODEL 6
REMARK VINA RESULT:    -3.542     18.019     19.341
REMARK INTER + INTRA:          -5.008
REMARK INTER:                  -4.587
REMARK INTRA:                  -0.422
REMARK UNBOUND:                -0.224
REMARK SMILES CCCCCCCC=O
REMARK SMILES IDX 5 1 4 2 3 3 2 4 1 5 6 6 7 7 8 8 9 9
REMARK H PARENT
REMARK Flexibility Score: inf
ROOT
ATOM      1  C   UNL     1      17.897  42.853   1.136  1.00  0.00     0.000 C 
ENDROOT
BRANCH   1   2
ATOM      2  C   UNL     1      16.436  43.218   0.827  1.00  0.00     0.000 C 
BRANCH   2   3
ATOM      3  C   UNL     1      16.019  44.565   1.443  1.00  0.00    -0.000 C 
BRANCH   3   4
ATOM      4  C   UNL     1      15.445  45.536   0.400  1.00  0.00    -0.003 C 
ATOM      5  C   UNL     1      16.374  45.738  -0.797  1.00  0.00     0.004 C 
ENDBRANCH   3   4
ENDBRANCH   2   3
ENDBRANCH   1   2
BRANCH   1   6
ATOM      6  C   UNL     1      18.681  44.022   1.759  1.00  0.00     0.008 C 
BRANCH   6   7
ATOM      7  C   UNL     1      19.974  44.325   0.987  1.00  0.00     0.072 C 
BRANCH   7   8
ATOM      8  C   UNL     1      21.007  43.253   1.174  1.00  0.00     0.224 C 
ATOM      9  O   UNL     1      21.336  42.540   0.239  1.00  0.00    -0.303 OA
ENDBRANCH   7   8
ENDBRANCH   6   7
ENDBRANCH   1   6
TORSDOF 6
ENDMDL
MODEL 7
REMARK VINA RESULT:    -3.498     15.878     17.083
REMARK INTER + INTRA:          -4.949
REMARK INTER:                  -4.707
REMARK INTRA:                  -0.242
REMARK UNBOUND:                -0.224
REMARK SMILES CCCCCCCC=O
REMARK SMILES IDX 5 1 4 2 3 3 2 4 1 5 6 6 7 7 8 8 9 9
REMARK H PARENT
REMARK Flexibility Score: inf
ROOT
ATOM      1  C   UNL     1      32.346  45.338   0.798  1.00  0.00     0.000 C 
ENDROOT
BRANCH   1   2
ATOM      2  C   UNL     1      32.919  45.542   2.210  1.00  0.00     0.000 C 
BRANCH   2   3
ATOM      3  C   UNL     1      33.139  47.026   2.551  1.00  0.00    -0.000 C 
BRANCH   3   4
ATOM      4  C   UNL     1      32.127  47.548   3.582  1.00  0.00    -0.003 C 
ATOM      5  C   UNL     1      32.473  48.945   4.099  1.00  0.00     0.004 C 
ENDBRANCH   3   4
ENDBRANCH   2   3
ENDBRANCH   1   2
BRANCH   1   6
ATOM      6  C   UNL     1      30.992  44.606   0.808  1.00  0.00     0.008 C 
BRANCH   6   7
ATOM      7  C   UNL     1      29.808  45.583   0.857  1.00  0.00     0.072 C 
BRANCH   7   8
ATOM      8  C   UNL     1      28.845  45.360  -0.272  1.00  0.00     0.224 C 
ATOM      9  O   UNL     1      28.292  46.305  -0.812  1.00  0.00    -0.303 OA
ENDBRANCH   7   8
ENDBRANCH   6   7
ENDBRANCH   1   6
TORSDOF 6
ENDMDL
MODEL 8
REMARK VINA RESULT:    -3.492     17.376     18.578
REMARK INTER + INTRA:          -4.941
REMARK INTER:                  -4.652
REMARK INTRA:                  -0.289
REMARK UNBOUND:                -0.224
REMARK SMILES CCCCCCCC=O
REMARK SMILES IDX 5 1 4 2 3 3 2 4 1 5 6 6 7 7 8 8 9 9
REMARK H PARENT
REMARK Flexibility Score: inf
ROOT
ATOM      1  C   UNL     1      18.530  45.582  -0.579  1.00  0.00     0.000 C 
ENDROOT
BRANCH   1   2
ATOM      2  C   UNL     1      19.921  45.276   0.000  1.00  0.00     0.000 C 
BRANCH   2   3
ATOM      3  C   UNL     1      19.857  44.399   1.263  1.00  0.00    -0.000 C 
BRANCH   3   4
ATOM      4  C   UNL     1      20.990  43.362   1.316  1.00  0.00    -0.003 C 
ATOM      5  C   UNL     1      21.131  42.570   0.017  1.00  0.00     0.004 C 
ENDBRANCH   3   4
ENDBRANCH   2   3
ENDBRANCH   1   2
BRANCH   1   6
ATOM      6  C   UNL     1      17.450  44.610  -0.072  1.00  0.00     0.008 C 
BRANCH   6   7
ATOM      7  C   UNL     1      16.051  45.244  -0.086  1.00  0.00     0.072 C 
BRANCH   7   8
ATOM      8  C   UNL     1      15.412  45.231   1.272  1.00  0.00     0.224 C 
ATOM      9  O   UNL     1      15.043  44.181   1.773  1.00  0.00    -0.303 OA
ENDBRANCH   7   8
ENDBRANCH   6   7
ENDBRANCH   1   6
TORSDOF 6
ENDMDL
MODEL 9
REMARK VINA RESULT:    -3.420     15.709     17.433
REMARK INTER + INTRA:          -4.844
REMARK INTER:                  -4.608
REMARK INTRA:                  -0.237
REMARK UNBOUND:                -0.224
REMARK SMILES CCCCCCCC=O
REMARK SMILES IDX 5 1 4 2 3 3 2 4 1 5 6 6 7 7 8 8 9 9
REMARK H PARENT
REMARK Flexibility Score: inf
ROOT
ATOM      1  C   UNL     1      33.017  46.426   1.218  1.00  0.00     0.000 C 
ENDROOT
BRANCH   1   2
ATOM      2  C   UNL     1      32.063  45.578   0.361  1.00  0.00     0.000 C 
BRANCH   2   3
ATOM      3  C   UNL     1      30.646  45.499   0.953  1.00  0.00    -0.000 C 
BRANCH   3   4
ATOM      4  C   UNL     1      29.629  44.903  -0.032  1.00  0.00    -0.003 C 
ATOM      5  C   UNL     1      28.511  45.880  -0.395  1.00  0.00     0.004 C 
ENDBRANCH   3   4
ENDBRANCH   2   3
ENDBRANCH   1   2
BRANCH   1   6
ATOM      6  C   UNL     1      33.086  45.947   2.679  1.00  0.00     0.008 C 
BRANCH   6   7
ATOM      7  C   UNL     1      33.206  47.119   3.665  1.00  0.00     0.072 C 
BRANCH   7   8
ATOM      8  C   UNL     1      31.942  47.923   3.741  1.00  0.00     0.224 C 
ATOM      9  O   UNL     1      31.984  49.144   3.758  1.00  0.00    -0.303 OA
ENDBRANCH   7   8
ENDBRANCH   6   7
ENDBRANCH   1   6
TORSDOF 6
ENDMDL
