MODEL 1
REMARK VINA RESULT:    -6.600      0.000      0.000
REMARK INTER + INTRA:          -8.273
REMARK INTER:                  -7.950
REMARK INTRA:                  -0.322
REMARK UNBOUND:                -0.322
REMARK SMILES O=c1c(O)c(-c2ccc(O)c(O)c2)oc2cc(O)cc(O)c12
REMARK SMILES IDX 5 1 3 2 2 3 1 4 22 5 20 6 19 7 17 8 16 9 15 10 14 11 6 12
REMARK SMILES IDX 7 13 8 14 9 15 13 16 11 17 10 18 12 20 4 22 21 24 18 26
REMARK H PARENT 10 19 12 21 4 23 21 25 18 27
REMARK Flexibility Score: inf
ROOT
ATOM      1  C   UNL     1      -0.896  25.005  28.491  1.00  0.00     0.180 A 
ATOM      2  C   UNL     1      -0.306  23.749  28.263  1.00  0.00     0.208 A 
ATOM      3  C   UNL     1       1.084  23.672  28.082  1.00  0.00     0.238 A 
ATOM      4  O   UNL     1       1.612  22.538  27.933  1.00  0.00    -0.285 OA
ATOM      5  C   UNL     1       1.866  24.851  28.116  1.00  0.00     0.111 A 
ATOM      6  C   UNL     1       3.277  24.894  27.906  1.00  0.00     0.134 A 
ATOM      7  C   UNL     1       3.965  26.099  28.091  1.00  0.00     0.093 A 
ATOM      8  C   UNL     1       3.288  27.274  28.415  1.00  0.00     0.123 A 
ATOM      9  C   UNL     1       1.900  27.256  28.564  1.00  0.00     0.094 A 
ATOM     10  C   UNL     1       1.190  26.061  28.421  1.00  0.00     0.146 A 
ATOM     11  O   UNL     1      -0.128  26.084  28.582  1.00  0.00    -0.452 OA
ENDROOT
BRANCH   1  12
ATOM     12  C   UNL     1      -2.356  25.169  28.664  1.00  0.00     0.025 A 
ATOM     13  C   UNL     1      -3.190  25.497  27.581  1.00  0.00     0.016 A 
ATOM     14  C   UNL     1      -4.564  25.671  27.775  1.00  0.00     0.051 A 
ATOM     15  C   UNL     1      -5.122  25.533  29.052  1.00  0.00     0.157 A 
ATOM     16  C   UNL     1      -2.917  25.053  29.947  1.00  0.00     0.062 A 
ATOM     17  C   UNL     1      -4.292  25.226  30.144  1.00  0.00     0.158 A 
BRANCH  15  18
ATOM     18  O   UNL     1      -6.492  25.706  29.242  1.00  0.00    -0.504 OA
ATOM     19  H   UNL     1      -6.877  26.592  29.551  1.00  0.00     0.293 HD
ENDBRANCH  15  18
BRANCH  17  20
ATOM     20  O   UNL     1      -4.815  25.089  31.430  1.00  0.00    -0.504 OA
ATOM     21  H   UNL     1      -5.784  25.296  31.642  1.00  0.00     0.293 HD
ENDBRANCH  17  20
ENDBRANCH   1  12
BRANCH   2  22
ATOM     22  O   UNL     1      -1.094  22.594  28.255  1.00  0.00    -0.502 OA
ATOM     23  H   UNL     1      -0.695  21.664  28.208  1.00  0.00     0.293 HD
ENDBRANCH   2  22
BRANCH   6  24
ATOM     24  O   UNL     1       4.038  23.798  27.491  1.00  0.00    -0.507 OA
ATOM     25  H   UNL     1       3.691  22.854  27.412  1.00  0.00     0.293 HD
ENDBRANCH   6  24
BRANCH   8  26
ATOM     26  O   UNL     1       4.004  28.458  28.576  1.00  0.00    -0.508 OA
ATOM     27  H   UNL     1       5.015  28.462  28.645  1.00  0.00     0.293 HD
ENDBRANCH   8  26
TORSDOF 6
ENDMDL
MODEL 2
REMARK VINA RESULT:    -6.516      2.713      7.024
REMARK INTER + INTRA:          -8.172
REMARK INTER:                  -7.890
REMARK INTRA:                  -0.282
REMARK UNBOUND:                -0.322
REMARK SMILES O=c1c(O)c(-c2ccc(O)c(O)c2)oc2cc(O)cc(O)c12
REMARK SMILES IDX 5 1 3 2 2 3 1 4 22 5 20 6 19 7 17 8 16 9 15 10 14 11 6 12
REMARK SMILES IDX 7 13 8 14 9 15 13 16 11 17 10 18 12 20 4 22 21 24 18 26
REMARK H PARENT 10 19 12 21 4 23 21 25 18 27
REMARK Flexibility Score: inf
ROOT
ATOM      1  C   UNL     1       2.382  26.572  28.578  1.00  0.00     0.180 A 
ATOM      2  C   UNL     1       2.375  26.557  27.171  1.00  0.00     0.208 A 
ATOM      3  C   UNL     1       1.442  25.745  26.505  1.00  0.00     0.238 A 
ATOM      4  O   UNL     1       1.404  25.778  25.247  1.00  0.00    -0.285 OA
ATOM      5  C   UNL     1       0.542  24.947  27.250  1.00  0.00     0.111 A 
ATOM      6  C   UNL     1      -0.417  24.059  26.679  1.00  0.00     0.134 A 
ATOM      7  C   UNL     1      -1.344  23.417  27.509  1.00  0.00     0.093 A 
ATOM      8  C   UNL     1      -1.307  23.581  28.892  1.00  0.00     0.123 A 
ATOM      9  C   UNL     1      -0.335  24.402  29.467  1.00  0.00     0.094 A 
ATOM     10  C   UNL     1       0.581  25.083  28.662  1.00  0.00     0.146 A 
ATOM     11  O   UNL     1       1.482  25.863  29.248  1.00  0.00    -0.452 OA
ENDROOT
BRANCH   1  12
ATOM     12  C   UNL     1       3.351  27.382  29.351  1.00  0.00     0.025 A 
ATOM     13  C   UNL     1       3.183  28.769  29.511  1.00  0.00     0.016 A 
ATOM     14  C   UNL     1       4.124  29.516  30.225  1.00  0.00     0.051 A 
ATOM     15  C   UNL     1       5.251  28.894  30.777  1.00  0.00     0.157 A 
ATOM     16  C   UNL     1       4.493  26.766  29.889  1.00  0.00     0.062 A 
ATOM     17  C   UNL     1       5.436  27.512  30.605  1.00  0.00     0.158 A 
BRANCH  15  18
ATOM     18  O   UNL     1       6.186  29.642  31.490  1.00  0.00    -0.504 OA
ATOM     19  H   UNL     1       7.114  29.283  31.686  1.00  0.00     0.293 HD
ENDBRANCH  15  18
BRANCH  17  20
ATOM     20  O   UNL     1       6.551  26.863  31.136  1.00  0.00    -0.504 OA
ATOM     21  H   UNL     1       6.465  26.086  31.782  1.00  0.00     0.293 HD
ENDBRANCH  17  20
ENDBRANCH   1  12
BRANCH   2  22
ATOM     22  O   UNL     1       3.258  27.370  26.455  1.00  0.00    -0.502 OA
ATOM     23  H   UNL     1       2.941  28.138  25.875  1.00  0.00     0.293 HD
ENDBRANCH   2  22
BRANCH   6  24
ATOM     24  O   UNL     1      -0.482  23.751  25.316  1.00  0.00    -0.507 OA
ATOM     25  H   UNL     1       0.100  24.168  24.605  1.00  0.00     0.293 HD
ENDBRANCH   6  24
BRANCH   8  26
ATOM     26  O   UNL     1      -2.235  22.914  29.689  1.00  0.00    -0.508 OA
ATOM     27  H   UNL     1      -2.848  22.203  29.308  1.00  0.00     0.293 HD
ENDBRANCH   8  26
TORSDOF 6
ENDMDL
MODEL 3
REMARK VINA RESULT:    -6.201      2.249      3.547
REMARK INTER + INTRA:          -7.792
REMARK INTER:                  -7.462
REMARK INTRA:                  -0.329
REMARK UNBOUND:                -0.322
REMARK SMILES O=c1c(O)c(-c2ccc(O)c(O)c2)oc2cc(O)cc(O)c12
REMARK SMILES IDX 5 1 3 2 2 3 1 4 22 5 20 6 19 7 17 8 16 9 15 10 14 11 6 12
REMARK SMILES IDX 7 13 8 14 9 15 13 16 11 17 10 18 12 20 4 22 21 24 18 26
REMARK H PARENT 10 19 12 21 4 23 21 25 18 27
REMARK Flexibility Score: inf
ROOT
ATOM      1  C   UNL     1      -1.574  24.785  29.418  1.00  0.00     0.180 A 
ATOM      2  C   UNL     1      -2.101  25.488  28.320  1.00  0.00     0.208 A 
ATOM      3  C   UNL     1      -1.254  25.805  27.245  1.00  0.00     0.238 A 
ATOM      4  O   UNL     1      -1.745  26.387  26.242  1.00  0.00    -0.285 OA
ATOM      5  C   UNL     1       0.110  25.432  27.289  1.00  0.00     0.111 A 
ATOM      6  C   UNL     1       1.066  25.737  26.274  1.00  0.00     0.134 A 
ATOM      7  C   UNL     1       2.358  25.205  26.361  1.00  0.00     0.093 A 
ATOM      8  C   UNL     1       2.748  24.433  27.454  1.00  0.00     0.123 A 
ATOM      9  C   UNL     1       1.838  24.178  28.482  1.00  0.00     0.094 A 
ATOM     10  C   UNL     1       0.531  24.665  28.406  1.00  0.00     0.146 A 
ATOM     11  O   UNL     1      -0.306  24.391  29.399  1.00  0.00    -0.452 OA
ENDROOT
BRANCH   1  12
ATOM     12  C   UNL     1      -2.397  24.436  30.598  1.00  0.00     0.025 A 
ATOM     13  C   UNL     1      -2.583  25.344  31.655  1.00  0.00     0.016 A 
ATOM     14  C   UNL     1      -3.345  24.983  32.770  1.00  0.00     0.051 A 
ATOM     15  C   UNL     1      -3.920  23.709  32.852  1.00  0.00     0.157 A 
ATOM     16  C   UNL     1      -2.959  23.152  30.694  1.00  0.00     0.062 A 
ATOM     17  C   UNL     1      -3.723  22.788  31.808  1.00  0.00     0.158 A 
BRANCH  15  18
ATOM     18  O   UNL     1      -4.680  23.353  33.964  1.00  0.00    -0.504 OA
ATOM     19  H   UNL     1      -5.019  22.406  34.095  1.00  0.00     0.293 HD
ENDBRANCH  15  18
BRANCH  17  20
ATOM     20  O   UNL     1      -4.277  21.510  31.862  1.00  0.00    -0.504 OA
ATOM     21  H   UNL     1      -4.833  21.196  32.649  1.00  0.00     0.293 HD
ENDBRANCH  17  20
ENDBRANCH   1  12
BRANCH   2  22
ATOM     22  O   UNL     1      -3.456  25.828  28.288  1.00  0.00    -0.502 OA
ATOM     23  H   UNL     1      -4.192  25.133  28.342  1.00  0.00     0.293 HD
ENDBRANCH   2  22
BRANCH   6  24
ATOM     24  O   UNL     1       0.808  26.574  25.185  1.00  0.00    -0.507 OA
ATOM     25  H   UNL     1       1.328  27.412  24.968  1.00  0.00     0.293 HD
ENDBRANCH   6  24
BRANCH   8  26
ATOM     26  O   UNL     1       4.047  23.933  27.515  1.00  0.00    -0.508 OA
ATOM     27  H   UNL     1       4.805  24.473  27.915  1.00  0.00     0.293 HD
ENDBRANCH   8  26
TORSDOF 6
ENDMDL
MODEL 4
REMARK VINA RESULT:    -6.039      2.759      6.187
REMARK INTER + INTRA:          -7.597
REMARK INTER:                  -7.271
REMARK INTRA:                  -0.326
REMARK UNBOUND:                -0.322
REMARK SMILES O=c1c(O)c(-c2ccc(O)c(O)c2)oc2cc(O)cc(O)c12
REMARK SMILES IDX 5 1 3 2 2 3 1 4 22 5 20 6 19 7 17 8 16 9 15 10 14 11 6 12
REMARK SMILES IDX 7 13 8 14 9 15 13 16 11 17 10 18 12 20 4 22 21 24 18 26
REMARK H PARENT 10 19 12 21 4 23 21 25 18 27
REMARK Flexibility Score: inf
ROOT
ATOM      1  C   UNL     1      -0.494  25.305  27.728  1.00  0.00     0.180 A 
ATOM      2  C   UNL     1      -0.997  24.067  27.291  1.00  0.00     0.208 A 
ATOM      3  C   UNL     1      -1.783  23.304  28.170  1.00  0.00     0.238 A 
ATOM      4  O   UNL     1      -2.276  22.222  27.755  1.00  0.00    -0.285 OA
ATOM      5  C   UNL     1      -2.042  23.779  29.478  1.00  0.00     0.111 A 
ATOM      6  C   UNL     1      -2.793  23.070  30.463  1.00  0.00     0.134 A 
ATOM      7  C   UNL     1      -3.096  23.693  31.680  1.00  0.00     0.093 A 
ATOM      8  C   UNL     1      -2.624  24.972  31.972  1.00  0.00     0.123 A 
ATOM      9  C   UNL     1      -1.839  25.651  31.039  1.00  0.00     0.094 A 
ATOM     10  C   UNL     1      -1.550  25.070  29.802  1.00  0.00     0.146 A 
ATOM     11  O   UNL     1      -0.809  25.753  28.938  1.00  0.00    -0.452 OA
ENDROOT
BRANCH   1  12
ATOM     12  C   UNL     1       0.363  26.154  26.869  1.00  0.00     0.025 A 
ATOM     13  C   UNL     1       1.765  26.069  26.921  1.00  0.00     0.016 A 
ATOM     14  C   UNL     1       2.553  26.898  26.118  1.00  0.00     0.051 A 
ATOM     15  C   UNL     1       1.954  27.831  25.262  1.00  0.00     0.157 A 
ATOM     16  C   UNL     1      -0.233  27.106  26.025  1.00  0.00     0.062 A 
ATOM     17  C   UNL     1       0.553  27.936  25.218  1.00  0.00     0.158 A 
BRANCH  15  18
ATOM     18  O   UNL     1       2.743  28.655  24.461  1.00  0.00    -0.504 OA
ATOM     19  H   UNL     1       3.735  28.769  24.633  1.00  0.00     0.293 HD
ENDBRANCH  15  18
BRANCH  17  20
ATOM     20  O   UNL     1      -0.074  28.860  24.383  1.00  0.00    -0.504 OA
ATOM     21  H   UNL     1       0.026  28.828  23.375  1.00  0.00     0.293 HD
ENDBRANCH  17  20
ENDBRANCH   1  12
BRANCH   2  22
ATOM     22  O   UNL     1      -0.747  23.627  25.989  1.00  0.00    -0.502 OA
ATOM     23  H   UNL     1       0.190  23.547  25.613  1.00  0.00     0.293 HD
ENDBRANCH   2  22
BRANCH   6  24
ATOM     24  O   UNL     1      -3.235  21.753  30.310  1.00  0.00    -0.507 OA
ATOM     25  H   UNL     1      -4.027  21.353  30.792  1.00  0.00     0.293 HD
ENDBRANCH   6  24
BRANCH   8  26
ATOM     26  O   UNL     1      -2.933  25.556  33.199  1.00  0.00    -0.508 OA
ATOM     27  H   UNL     1      -3.892  25.701  33.491  1.00  0.00     0.293 HD
ENDBRANCH   8  26
TORSDOF 6
ENDMDL
MODEL 5
REMARK VINA RESULT:    -5.812      3.120      4.108
REMARK INTER + INTRA:          -7.323
REMARK INTER:                  -6.995
REMARK INTRA:                  -0.328
REMARK UNBOUND:                -0.322
REMARK SMILES O=c1c(O)c(-c2ccc(O)c(O)c2)oc2cc(O)cc(O)c12
REMARK SMILES IDX 5 1 3 2 2 3 1 4 22 5 20 6 19 7 17 8 16 9 15 10 14 11 6 12
REMARK SMILES IDX 7 13 8 14 9 15 13 16 11 17 10 18 12 20 4 22 21 24 18 26
REMARK H PARENT 10 19 12 21 4 23 21 25 18 27
REMARK Flexibility Score: inf
ROOT
ATOM      1  C   UNL     1      -0.571  25.447  27.546  1.00  0.00     0.180 A 
ATOM      2  C   UNL     1       0.833  25.521  27.512  1.00  0.00     0.208 A 
ATOM      3  C   UNL     1       1.443  26.509  26.722  1.00  0.00     0.238 A 
ATOM      4  O   UNL     1       2.698  26.605  26.739  1.00  0.00    -0.285 OA
ATOM      5  C   UNL     1       0.645  27.399  25.965  1.00  0.00     0.111 A 
ATOM      6  C   UNL     1       1.157  28.412  25.101  1.00  0.00     0.134 A 
ATOM      7  C   UNL     1       0.276  29.319  24.501  1.00  0.00     0.093 A 
ATOM      8  C   UNL     1      -1.102  29.212  24.682  1.00  0.00     0.123 A 
ATOM      9  C   UNL     1      -1.619  28.188  25.479  1.00  0.00     0.094 A 
ATOM     10  C   UNL     1      -0.762  27.290  26.119  1.00  0.00     0.146 A 
ATOM     11  O   UNL     1      -1.293  26.337  26.876  1.00  0.00    -0.452 OA
ENDROOT
BRANCH   1  12
ATOM     12  C   UNL     1      -1.286  24.417  28.334  1.00  0.00     0.025 A 
ATOM     13  C   UNL     1      -1.666  23.190  27.762  1.00  0.00     0.016 A 
ATOM     14  C   UNL     1      -2.361  22.244  28.520  1.00  0.00     0.051 A 
ATOM     15  C   UNL     1      -2.699  22.513  29.852  1.00  0.00     0.157 A 
ATOM     16  C   UNL     1      -1.646  24.691  29.664  1.00  0.00     0.062 A 
ATOM     17  C   UNL     1      -2.341  23.745  30.425  1.00  0.00     0.158 A 
BRANCH  15  18
ATOM     18  O   UNL     1      -3.392  21.567  30.605  1.00  0.00    -0.504 OA
ATOM     19  H   UNL     1      -3.589  20.641  30.241  1.00  0.00     0.293 HD
ENDBRANCH  15  18
BRANCH  17  20
ATOM     20  O   UNL     1      -2.669  24.047  31.747  1.00  0.00    -0.504 OA
ATOM     21  H   UNL     1      -3.629  24.153  32.053  1.00  0.00     0.293 HD
ENDBRANCH  17  20
ENDBRANCH   1  12
BRANCH   2  22
ATOM     22  O   UNL     1       1.601  24.646  28.285  1.00  0.00    -0.502 OA
ATOM     23  H   UNL     1       2.286  24.019  27.877  1.00  0.00     0.293 HD
ENDBRANCH   2  22
BRANCH   6  24
ATOM     24  O   UNL     1       2.510  28.551  24.777  1.00  0.00    -0.507 OA
ATOM     25  H   UNL     1       2.963  28.104  23.993  1.00  0.00     0.293 HD
ENDBRANCH   6  24
BRANCH   8  26
ATOM     26  O   UNL     1      -1.951  30.123  24.058  1.00  0.00    -0.508 OA
ATOM     27  H   UNL     1      -2.218  30.019  23.086  1.00  0.00     0.293 HD
ENDBRANCH   8  26
TORSDOF 6
ENDMDL
MODEL 6
REMARK VINA RESULT:    -5.692      1.816      2.691
REMARK INTER + INTRA:          -7.179
REMARK INTER:                  -6.919
REMARK INTRA:                  -0.260
REMARK UNBOUND:                -0.322
REMARK SMILES O=c1c(O)c(-c2ccc(O)c(O)c2)oc2cc(O)cc(O)c12
REMARK SMILES IDX 5 1 3 2 2 3 1 4 22 5 20 6 19 7 17 8 16 9 15 10 14 11 6 12
REMARK SMILES IDX 7 13 8 14 9 15 13 16 11 17 10 18 12 20 4 22 21 24 18 26
REMARK H PARENT 10 19 12 21 4 23 21 25 18 27
REMARK Flexibility Score: inf
ROOT
ATOM      1  C   UNL     1       0.164  25.435  29.740  1.00  0.00     0.180 A 
ATOM      2  C   UNL     1       0.813  24.865  28.631  1.00  0.00     0.208 A 
ATOM      3  C   UNL     1       1.988  25.463  28.148  1.00  0.00     0.238 A 
ATOM      4  O   UNL     1       2.593  24.917  27.189  1.00  0.00    -0.285 OA
ATOM      5  C   UNL     1       2.490  26.632  28.768  1.00  0.00     0.111 A 
ATOM      6  C   UNL     1       3.650  27.343  28.338  1.00  0.00     0.134 A 
ATOM      7  C   UNL     1       4.129  28.411  29.106  1.00  0.00     0.093 A 
ATOM      8  C   UNL     1       3.457  28.834  30.251  1.00  0.00     0.123 A 
ATOM      9  C   UNL     1       2.287  28.183  30.649  1.00  0.00     0.094 A 
ATOM     10  C   UNL     1       1.805  27.092  29.923  1.00  0.00     0.146 A 
ATOM     11  O   UNL     1       0.696  26.493  30.341  1.00  0.00    -0.452 OA
ENDROOT
BRANCH   1  12
ATOM     12  C   UNL     1      -1.092  24.877  30.290  1.00  0.00     0.025 A 
ATOM     13  C   UNL     1      -1.099  24.114  31.471  1.00  0.00     0.016 A 
ATOM     14  C   UNL     1      -2.294  23.577  31.957  1.00  0.00     0.051 A 
ATOM     15  C   UNL     1      -3.496  23.782  31.267  1.00  0.00     0.157 A 
ATOM     16  C   UNL     1      -2.296  25.063  29.590  1.00  0.00     0.062 A 
ATOM     17  C   UNL     1      -3.495  24.528  30.076  1.00  0.00     0.158 A 
BRANCH  15  18
ATOM     18  O   UNL     1      -4.686  23.247  31.756  1.00  0.00    -0.504 OA
ATOM     19  H   UNL     1      -5.413  23.837  32.146  1.00  0.00     0.293 HD
ENDBRANCH  15  18
BRANCH  17  20
ATOM     20  O   UNL     1      -4.672  24.745  29.361  1.00  0.00    -0.504 OA
ATOM     21  H   UNL     1      -5.165  23.993  28.895  1.00  0.00     0.293 HD
ENDBRANCH  17  20
ENDBRANCH   1  12
BRANCH   2  22
ATOM     22  O   UNL     1       0.311  23.699  28.047  1.00  0.00    -0.502 OA
ATOM     23  H   UNL     1       0.581  22.774  28.361  1.00  0.00     0.293 HD
ENDBRANCH   2  22
BRANCH   6  24
ATOM     24  O   UNL     1       4.345  27.062  27.158  1.00  0.00    -0.507 OA
ATOM     25  H   UNL     1       4.248  27.579  26.297  1.00  0.00     0.293 HD
ENDBRANCH   6  24
BRANCH   8  26
ATOM     26  O   UNL     1       3.954  29.911  30.982  1.00  0.00    -0.508 OA
ATOM     27  H   UNL     1       4.752  29.810  31.599  1.00  0.00     0.293 HD
ENDBRANCH   8  26
TORSDOF 6
ENDMDL
MODEL 7
REMARK VINA RESULT:    -5.647      2.568      6.882
REMARK INTER + INTRA:          -7.124
REMARK INTER:                  -6.808
REMARK INTRA:                  -0.316
REMARK UNBOUND:                -0.322
REMARK SMILES O=c1c(O)c(-c2ccc(O)c(O)c2)oc2cc(O)cc(O)c12
REMARK SMILES IDX 5 1 3 2 2 3 1 4 22 5 20 6 19 7 17 8 16 9 15 10 14 11 6 12
REMARK SMILES IDX 7 13 8 14 9 15 13 16 11 17 10 18 12 20 4 22 21 24 18 26
REMARK H PARENT 10 19 12 21 4 23 21 25 18 27
REMARK Flexibility Score: inf
ROOT
ATOM      1  C   UNL     1      -2.014  25.028  29.189  1.00  0.00     0.180 A 
ATOM      2  C   UNL     1      -1.530  24.274  30.273  1.00  0.00     0.208 A 
ATOM      3  C   UNL     1      -2.393  23.990  31.343  1.00  0.00     0.238 A 
ATOM      4  O   UNL     1      -1.971  23.268  32.285  1.00  0.00    -0.285 OA
ATOM      5  C   UNL     1      -3.722  24.476  31.326  1.00  0.00     0.111 A 
ATOM      6  C   UNL     1      -4.670  24.282  32.374  1.00  0.00     0.134 A 
ATOM      7  C   UNL     1      -5.995  24.696  32.192  1.00  0.00     0.093 A 
ATOM      8  C   UNL     1      -6.392  25.352  31.029  1.00  0.00     0.123 A 
ATOM      9  C   UNL     1      -5.459  25.601  30.020  1.00  0.00     0.094 A 
ATOM     10  C   UNL     1      -4.138  25.168  30.158  1.00  0.00     0.146 A 
ATOM     11  O   UNL     1      -3.284  25.414  29.171  1.00  0.00    -0.452 OA
ENDROOT
BRANCH   1  12
ATOM     12  C   UNL     1      -1.157  25.390  28.037  1.00  0.00     0.025 A 
ATOM     13  C   UNL     1      -0.983  24.514  26.951  1.00  0.00     0.016 A 
ATOM     14  C   UNL     1      -0.150  24.868  25.885  1.00  0.00     0.051 A 
ATOM     15  C   UNL     1       0.530  26.092  25.895  1.00  0.00     0.157 A 
ATOM     16  C   UNL     1      -0.456  26.607  28.051  1.00  0.00     0.062 A 
ATOM     17  C   UNL     1       0.377  26.964  26.986  1.00  0.00     0.158 A 
BRANCH  15  18
ATOM     18  O   UNL     1       1.359  26.442  24.830  1.00  0.00    -0.504 OA
ATOM     19  H   UNL     1       1.323  27.364  24.411  1.00  0.00     0.293 HD
ENDBRANCH  15  18
BRANCH  17  20
ATOM     20  O   UNL     1       1.046  28.187  27.029  1.00  0.00    -0.504 OA
ATOM     21  H   UNL     1       1.883  28.324  27.584  1.00  0.00     0.293 HD
ENDBRANCH  17  20
ENDBRANCH   1  12
BRANCH   2  22
ATOM     22  O   UNL     1      -0.221  23.785  30.260  1.00  0.00    -0.502 OA
ATOM     23  H   UNL     1       0.286  23.611  29.399  1.00  0.00     0.293 HD
ENDBRANCH   2  22
BRANCH   6  24
ATOM     24  O   UNL     1      -4.358  23.719  33.615  1.00  0.00    -0.507 OA
ATOM     25  H   UNL     1      -4.994  23.168  34.173  1.00  0.00     0.293 HD
ENDBRANCH   6  24
BRANCH   8  26
ATOM     26  O   UNL     1      -7.716  25.764  30.888  1.00  0.00    -0.508 OA
ATOM     27  H   UNL     1      -7.959  26.743  30.786  1.00  0.00     0.293 HD
ENDBRANCH   8  26
TORSDOF 6
ENDMDL
MODEL 8
REMARK VINA RESULT:    -5.489      1.897      7.371
REMARK INTER + INTRA:          -6.934
REMARK INTER:                  -6.607
REMARK INTRA:                  -0.327
REMARK UNBOUND:                -0.322
REMARK SMILES O=c1c(O)c(-c2ccc(O)c(O)c2)oc2cc(O)cc(O)c12
REMARK SMILES IDX 5 1 3 2 2 3 1 4 22 5 20 6 19 7 17 8 16 9 15 10 14 11 6 12
REMARK SMILES IDX 7 13 8 14 9 15 13 16 11 17 10 18 12 20 4 22 21 24 18 26
REMARK H PARENT 10 19 12 21 4 23 21 25 18 27
REMARK Flexibility Score: inf
ROOT
ATOM      1  C   UNL     1      -1.853  24.823  30.300  1.00  0.00     0.180 A 
ATOM      2  C   UNL     1      -1.897  24.614  31.690  1.00  0.00     0.208 A 
ATOM      3  C   UNL     1      -3.132  24.711  32.354  1.00  0.00     0.238 A 
ATOM      4  O   UNL     1      -3.174  24.469  33.589  1.00  0.00    -0.285 OA
ATOM      5  C   UNL     1      -4.301  25.031  31.624  1.00  0.00     0.111 A 
ATOM      6  C   UNL     1      -5.597  25.194  32.199  1.00  0.00     0.134 A 
ATOM      7  C   UNL     1      -6.705  25.382  31.365  1.00  0.00     0.093 A 
ATOM      8  C   UNL     1      -6.557  25.477  29.982  1.00  0.00     0.123 A 
ATOM      9  C   UNL     1      -5.286  25.379  29.412  1.00  0.00     0.094 A 
ATOM     10  C   UNL     1      -4.166  25.155  30.216  1.00  0.00     0.146 A 
ATOM     11  O   UNL     1      -2.977  25.057  29.634  1.00  0.00    -0.452 OA
ENDROOT
BRANCH   1  12
ATOM     12  C   UNL     1      -0.587  24.763  29.536  1.00  0.00     0.025 A 
ATOM     13  C   UNL     1       0.180  25.917  29.296  1.00  0.00     0.016 A 
ATOM     14  C   UNL     1       1.359  25.839  28.550  1.00  0.00     0.051 A 
ATOM     15  C   UNL     1       1.784  24.613  28.023  1.00  0.00     0.157 A 
ATOM     16  C   UNL     1      -0.168  23.539  28.987  1.00  0.00     0.062 A 
ATOM     17  C   UNL     1       1.014  23.458  28.241  1.00  0.00     0.158 A 
BRANCH  15  18
ATOM     18  O   UNL     1       2.961  24.539  27.282  1.00  0.00    -0.504 OA
ATOM     19  H   UNL     1       3.759  25.130  27.491  1.00  0.00     0.293 HD
ENDBRANCH  15  18
BRANCH  17  20
ATOM     20  O   UNL     1       1.405  22.223  27.725  1.00  0.00    -0.504 OA
ATOM     21  H   UNL     1       0.929  21.793  26.940  1.00  0.00     0.293 HD
ENDBRANCH  17  20
ENDBRANCH   1  12
BRANCH   2  22
ATOM     22  O   UNL     1      -0.734  24.278  32.388  1.00  0.00    -0.502 OA
ATOM     23  H   UNL     1      -0.522  23.326  32.663  1.00  0.00     0.293 HD
ENDBRANCH   2  22
BRANCH   6  24
ATOM     24  O   UNL     1      -5.843  25.207  33.576  1.00  0.00    -0.507 OA
ATOM     25  H   UNL     1      -5.252  25.655  34.261  1.00  0.00     0.293 HD
ENDBRANCH   6  24
BRANCH   8  26
ATOM     26  O   UNL     1      -7.680  25.680  29.183  1.00  0.00    -0.508 OA
ATOM     27  H   UNL     1      -8.432  26.295  29.470  1.00  0.00     0.293 HD
ENDBRANCH   8  26
TORSDOF 6
ENDMDL
MODEL 9
REMARK VINA RESULT:    -4.826      1.703      7.171
REMARK INTER + INTRA:          -6.135
REMARK INTER:                  -5.826
REMARK INTRA:                  -0.309
REMARK UNBOUND:                -0.322
REMARK SMILES O=c1c(O)c(-c2ccc(O)c(O)c2)oc2cc(O)cc(O)c12
REMARK SMILES IDX 5 1 3 2 2 3 1 4 22 5 20 6 19 7 17 8 16 9 15 10 14 11 6 12
REMARK SMILES IDX 7 13 8 14 9 15 13 16 11 17 10 18 12 20 4 22 21 24 18 26
REMARK H PARENT 10 19 12 21 4 23 21 25 18 27
REMARK Flexibility Score: inf
ROOT
ATOM      1  C   UNL     1      -1.451  24.715  29.167  1.00  0.00     0.180 A 
ATOM      2  C   UNL     1      -2.430  25.292  28.339  1.00  0.00     0.208 A 
ATOM      3  C   UNL     1      -3.743  25.418  28.823  1.00  0.00     0.238 A 
ATOM      4  O   UNL     1      -4.602  25.983  28.097  1.00  0.00    -0.285 OA
ATOM      5  C   UNL     1      -4.063  24.952  30.120  1.00  0.00     0.111 A 
ATOM      6  C   UNL     1      -5.368  24.994  30.696  1.00  0.00     0.134 A 
ATOM      7  C   UNL     1      -5.543  24.625  32.036  1.00  0.00     0.093 A 
ATOM      8  C   UNL     1      -4.476  24.157  32.800  1.00  0.00     0.123 A 
ATOM      9  C   UNL     1      -3.206  24.056  32.228  1.00  0.00     0.094 A 
ATOM     10  C   UNL     1      -2.993  24.450  30.905  1.00  0.00     0.146 A 
ATOM     11  O   UNL     1      -1.768  24.349  30.403  1.00  0.00    -0.452 OA
ENDROOT
BRANCH   1  12
ATOM     12  C   UNL     1      -0.053  24.526  28.718  1.00  0.00     0.025 A 
ATOM     13  C   UNL     1       0.395  23.289  28.222  1.00  0.00     0.016 A 
ATOM     14  C   UNL     1       1.726  23.127  27.827  1.00  0.00     0.051 A 
ATOM     15  C   UNL     1       2.631  24.192  27.934  1.00  0.00     0.157 A 
ATOM     16  C   UNL     1       0.863  25.584  28.843  1.00  0.00     0.062 A 
ATOM     17  C   UNL     1       2.196  25.425  28.447  1.00  0.00     0.158 A 
BRANCH  15  18
ATOM     18  O   UNL     1       3.957  24.028  27.538  1.00  0.00    -0.504 OA
ATOM     19  H   UNL     1       4.201  23.495  26.710  1.00  0.00     0.293 HD
ENDBRANCH  15  18
BRANCH  17  20
ATOM     20  O   UNL     1       3.072  26.503  28.573  1.00  0.00    -0.504 OA
ATOM     21  H   UNL     1       2.743  27.454  28.688  1.00  0.00     0.293 HD
ENDBRANCH  17  20
ENDBRANCH   1  12
BRANCH   2  22
ATOM     22  O   UNL     1      -2.087  25.764  27.069  1.00  0.00    -0.502 OA
ATOM     23  H   UNL     1      -2.752  26.237  26.467  1.00  0.00     0.293 HD
ENDBRANCH   2  22
BRANCH   6  24
ATOM     24  O   UNL     1      -6.521  25.358  29.994  1.00  0.00    -0.507 OA
ATOM     25  H   UNL     1      -7.456  25.331  30.372  1.00  0.00     0.293 HD
ENDBRANCH   6  24
BRANCH   8  26
ATOM     26  O   UNL     1      -4.690  23.784  34.125  1.00  0.00    -0.508 OA
ATOM     27  H   UNL     1      -5.134  24.410  34.787  1.00  0.00     0.293 HD
ENDBRANCH   8  26
TORSDOF 6
ENDMDL
