MODEL 1
REMARK VINA RESULT:    -4.226      0.000      0.000
REMARK INTER + INTRA:          -5.657
REMARK INTER:                  -5.708
REMARK INTRA:                   0.051
REMARK UNBOUND:                 0.051
REMARK SMILES C=C(C)[C@H]1CC[C@H](C)C2=C(C1)[C@@H](C)CC2
REMARK SMILES IDX 10 1 9 2 15 3 14 4 12 5 13 6 7 7 8 8 6 9 11 11 4 12 5 13
REMARK SMILES IDX 2 15 1 16 3 17
REMARK H PARENT
REMARK Flexibility Score: 80.00
ROOT
ATOM      1  C   UNL     1      31.612   8.533  32.306  1.00  0.00    -0.067 C 
ATOM      2  C   UNL     1      31.723   9.716  31.699  1.00  0.00    -0.068 C 
ATOM      3  C   UNL     1      31.203   9.657  30.297  1.00  0.00     0.032 C 
ATOM      4  C   UNL     1      30.904   8.178  30.052  1.00  0.00     0.012 C 
ATOM      5  C   UNL     1      30.991   7.496  31.426  1.00  0.00     0.012 C 
ATOM      6  C   UNL     1      29.606   7.094  31.948  1.00  0.00     0.012 C 
ENDROOT
BRANCH   2   7
ATOM      7  C   UNL     1      32.247  10.970  32.384  1.00  0.00     0.012 C 
ATOM      8  C   UNL     1      32.375  12.150  31.407  1.00  0.00     0.012 C 
BRANCH   7   9
ATOM      9  C   UNL     1      31.337  11.360  33.571  1.00  0.00     0.008 CG0
ATOM     10  G   UNL     1      31.615  10.538  34.842  1.00  0.00     0.000 G0
ENDBRANCH   7   9
ENDBRANCH   2   7
BRANCH   1  11
ATOM     11  C   UNL     1      32.029   8.263  33.730  1.00  0.00     0.039 C 
BRANCH  11  12
ATOM     12  C   UNL     1      31.168   9.062  34.733  1.00  0.00     0.018 C 
BRANCH  12  13
ATOM     13  C   UNL     1      31.609  10.539  34.838  1.00  0.00     0.009 CG0
ATOM     14  G   UNL     1      31.327  11.365  33.572  1.00  0.00     0.000 G0
ENDBRANCH  12  13
BRANCH  12  15
ATOM     15  C   UNL     1      31.207   8.403  36.106  1.00  0.00    -0.077 C 
ATOM     16  C   UNL     1      31.205   9.141  37.231  1.00  0.00     0.008 C 
ATOM     17  C   UNL     1      31.256   6.902  36.227  1.00  0.00     0.039 C 
ENDBRANCH  12  15
ENDBRANCH  11  12
ENDBRANCH   1  11
TORSDOF 1
ENDMDL
MODEL 2
REMARK VINA RESULT:    -4.215      2.978      6.373
REMARK INTER + INTRA:          -5.643
REMARK INTER:                  -5.746
REMARK INTRA:                   0.103
REMARK UNBOUND:                 0.051
REMARK SMILES C=C(C)[C@H]1CC[C@H](C)C2=C(C1)[C@@H](C)CC2
REMARK SMILES IDX 10 1 9 2 15 3 14 4 12 5 13 6 7 7 8 8 6 9 11 11 4 12 5 13
REMARK SMILES IDX 2 15 1 16 3 17
REMARK H PARENT
REMARK Flexibility Score: 80.00
ROOT
ATOM      1  C   UNL     1      32.143  10.528  30.412  1.00  0.00    -0.067 C 
ATOM      2  C   UNL     1      31.569   9.391  30.809  1.00  0.00    -0.068 C 
ATOM      3  C   UNL     1      31.710   9.199  32.287  1.00  0.00     0.032 C 
ATOM      4  C   UNL     1      32.635  10.329  32.742  1.00  0.00     0.012 C 
ATOM      5  C   UNL     1      32.746  11.290  31.549  1.00  0.00     0.012 C 
ATOM      6  C   UNL     1      31.981  12.596  31.798  1.00  0.00     0.012 C 
ENDROOT
BRANCH   2   7
ATOM      7  C   UNL     1      30.812   8.457  29.877  1.00  0.00     0.012 C 
ATOM      8  C   UNL     1      30.373   7.165  30.585  1.00  0.00     0.012 C 
BRANCH   7   9
ATOM      9  C   UNL     1      29.583   9.174  29.272  1.00  0.00     0.008 CG0
ATOM     10  G   UNL     1      29.939  10.096  28.093  1.00  0.00     0.000 G0
ENDBRANCH   7   9
ENDBRANCH   2   7
BRANCH   1  11
ATOM     11  C   UNL     1      32.161  11.022  28.988  1.00  0.00     0.039 C 
BRANCH  11  12
ATOM     12  C   UNL     1      30.738  11.356  28.487  1.00  0.00     0.018 C 
BRANCH  12  13
ATOM     13  C   UNL     1      29.946  10.092  28.084  1.00  0.00     0.009 CG0
ATOM     14  G   UNL     1      29.571   9.187  29.271  1.00  0.00     0.000 G0
ENDBRANCH  12  13
BRANCH  12  15
ATOM     15  C   UNL     1      30.804  12.329  27.316  1.00  0.00    -0.077 C 
ATOM     16  C   UNL     1      29.912  13.328  27.192  1.00  0.00     0.008 C 
ATOM     17  C   UNL     1      31.875  12.182  26.267  1.00  0.00     0.039 C 
ENDBRANCH  12  15
ENDBRANCH  11  12
ENDBRANCH   1  11
TORSDOF 1
ENDMDL
MODEL 3
REMARK VINA RESULT:    -4.030      3.293      5.372
REMARK INTER + INTRA:          -5.392
REMARK INTER:                  -5.448
REMARK INTRA:                   0.056
REMARK UNBOUND:                 0.051
REMARK SMILES C=C(C)[C@H]1CC[C@H](C)C2=C(C1)[C@@H](C)CC2
REMARK SMILES IDX 10 1 9 2 15 3 14 4 12 5 13 6 7 7 8 8 6 9 11 11 4 12 5 13
REMARK SMILES IDX 2 15 1 16 3 17
REMARK H PARENT
REMARK Flexibility Score: 80.00
ROOT
ATOM      1  C   UNL     1      31.242  10.171  30.559  1.00  0.00    -0.067 C 
ATOM      2  C   UNL     1      31.864  10.901  29.632  1.00  0.00    -0.068 C 
ATOM      3  C   UNL     1      32.885  11.805  30.247  1.00  0.00     0.032 C 
ATOM      4  C   UNL     1      32.682  11.655  31.755  1.00  0.00     0.012 C 
ATOM      5  C   UNL     1      31.749  10.449  31.938  1.00  0.00     0.012 C 
ATOM      6  C   UNL     1      32.495   9.233  32.502  1.00  0.00     0.012 C 
ENDROOT
BRANCH   2   7
ATOM      7  C   UNL     1      31.605  10.767  28.137  1.00  0.00     0.012 C 
ATOM      8  C   UNL     1      32.373  11.819  27.322  1.00  0.00     0.012 C 
BRANCH   7   9
ATOM      9  C   UNL     1      31.971   9.346  27.649  1.00  0.00     0.008 CG0
ATOM     10  G   UNL     1      30.870   8.308  27.929  1.00  0.00     0.000 G0
ENDBRANCH   7   9
ENDBRANCH   2   7
BRANCH   1  11
ATOM     11  C   UNL     1      30.172   9.150  30.264  1.00  0.00     0.039 C 
BRANCH  11  12
ATOM     12  C   UNL     1      30.728   7.970  29.436  1.00  0.00     0.018 C 
BRANCH  12  13
ATOM     13  C   UNL     1      30.867   8.320  27.938  1.00  0.00     0.009 CG0
ATOM     14  G   UNL     1      31.978   9.340  27.636  1.00  0.00     0.000 G0
ENDBRANCH  12  13
BRANCH  12  15
ATOM     15  C   UNL     1      29.844   6.740  29.609  1.00  0.00    -0.077 C 
ATOM     16  C   UNL     1      29.355   6.401  30.814  1.00  0.00     0.008 C 
ATOM     17  C   UNL     1      29.508   5.875  28.422  1.00  0.00     0.039 C 
ENDBRANCH  12  15
ENDBRANCH  11  12
ENDBRANCH   1  11
TORSDOF 1
ENDMDL
MODEL 4
REMARK VINA RESULT:    -3.932      2.202      5.540
REMARK INTER + INTRA:          -5.260
REMARK INTER:                  -5.300
REMARK INTRA:                   0.040
REMARK UNBOUND:                 0.051
REMARK SMILES C=C(C)[C@H]1CC[C@H](C)C2=C(C1)[C@@H](C)CC2
REMARK SMILES IDX 10 1 9 2 15 3 14 4 12 5 13 6 7 7 8 8 6 9 11 11 4 12 5 13
REMARK SMILES IDX 2 15 1 16 3 17
REMARK H PARENT
REMARK Flexibility Score: 80.00
ROOT
ATOM      1  C   UNL     1      31.988  10.221  31.315  1.00  0.00    -0.067 C 
ATOM      2  C   UNL     1      31.957   9.372  32.344  1.00  0.00    -0.068 C 
ATOM      3  C   UNL     1      32.390  10.039  33.611  1.00  0.00     0.032 C 
ATOM      4  C   UNL     1      32.879  11.422  33.178  1.00  0.00     0.012 C 
ATOM      5  C   UNL     1      32.430  11.591  31.719  1.00  0.00     0.012 C 
ATOM      6  C   UNL     1      31.277  12.596  31.592  1.00  0.00     0.012 C 
ENDROOT
BRANCH   2   7
ATOM      7  C   UNL     1      31.471   7.933  32.237  1.00  0.00     0.012 C 
ATOM      8  C   UNL     1      31.670   7.158  33.550  1.00  0.00     0.012 C 
BRANCH   7   9
ATOM      9  C   UNL     1      29.984   7.893  31.817  1.00  0.00     0.008 CG0
ATOM     10  G   UNL     1      29.776   8.096  30.307  1.00  0.00     0.000 G0
ENDBRANCH   7   9
ENDBRANCH   2   7
BRANCH   1  11
ATOM     11  C   UNL     1      31.594   9.865  29.904  1.00  0.00     0.039 C 
BRANCH  11  12
ATOM     12  C   UNL     1      30.088   9.534  29.804  1.00  0.00     0.018 C 
BRANCH  12  13
ATOM     13  C   UNL     1      29.767   8.106  30.299  1.00  0.00     0.009 CG0
ATOM     14  G   UNL     1      29.987   7.905  31.808  1.00  0.00     0.000 G0
ENDBRANCH  12  13
BRANCH  12  15
ATOM     15  C   UNL     1      29.601   9.715  28.371  1.00  0.00    -0.077 C 
ATOM     16  C   UNL     1      28.827   8.788  27.779  1.00  0.00     0.008 C 
ATOM     17  C   UNL     1      29.987  10.942  27.587  1.00  0.00     0.039 C 
ENDBRANCH  12  15
ENDBRANCH  11  12
ENDBRANCH   1  11
TORSDOF 1
ENDMDL
MODEL 5
REMARK VINA RESULT:    -3.849      1.686      3.283
REMARK INTER + INTRA:          -5.148
REMARK INTER:                  -5.199
REMARK INTRA:                   0.051
REMARK UNBOUND:                 0.051
REMARK SMILES C=C(C)[C@H]1CC[C@H](C)C2=C(C1)[C@@H](C)CC2
REMARK SMILES IDX 10 1 9 2 15 3 14 4 12 5 13 6 7 7 8 8 6 9 11 11 4 12 5 13
REMARK SMILES IDX 2 15 1 16 3 17
REMARK H PARENT
REMARK Flexibility Score: 80.00
ROOT
ATOM      1  C   UNL     1      31.078  10.311  32.853  1.00  0.00    -0.067 C 
ATOM      2  C   UNL     1      31.028   9.817  31.615  1.00  0.00    -0.068 C 
ATOM      3  C   UNL     1      31.706  10.725  30.639  1.00  0.00     0.032 C 
ATOM      4  C   UNL     1      32.046  11.981  31.444  1.00  0.00     0.012 C 
ATOM      5  C   UNL     1      31.806  11.616  32.917  1.00  0.00     0.012 C 
ATOM      6  C   UNL     1      33.125  11.468  33.686  1.00  0.00     0.012 C 
ENDROOT
BRANCH   2   7
ATOM      7  C   UNL     1      30.416   8.466  31.270  1.00  0.00     0.012 C 
ATOM      8  C   UNL     1      30.387   8.216  29.753  1.00  0.00     0.012 C 
BRANCH   7   9
ATOM      9  C   UNL     1      31.183   7.326  31.980  1.00  0.00     0.008 CG0
ATOM     10  G   UNL     1      30.759   7.134  33.446  1.00  0.00     0.000 G0
ENDBRANCH   7   9
ENDBRANCH   2   7
BRANCH   1  11
ATOM     11  C   UNL     1      30.502   9.629  34.068  1.00  0.00     0.039 C 
BRANCH  11  12
ATOM     12  C   UNL     1      31.230   8.300  34.370  1.00  0.00     0.018 C 
BRANCH  12  13
ATOM     13  C   UNL     1      30.758   7.151  33.451  1.00  0.00     0.009 CG0
ATOM     14  G   UNL     1      31.190   7.308  31.983  1.00  0.00     0.000 G0
ENDBRANCH  12  13
BRANCH  12  15
ATOM     15  C   UNL     1      31.043   7.915  35.832  1.00  0.00    -0.077 C 
ATOM     16  C   UNL     1      31.200   8.820  36.814  1.00  0.00     0.008 C 
ATOM     17  C   UNL     1      30.683   6.500  36.204  1.00  0.00     0.039 C 
ENDBRANCH  12  15
ENDBRANCH  11  12
ENDBRANCH   1  11
TORSDOF 1
ENDMDL
MODEL 6
REMARK VINA RESULT:    -3.827      2.436      5.426
REMARK INTER + INTRA:          -5.118
REMARK INTER:                  -5.235
REMARK INTRA:                   0.118
REMARK UNBOUND:                 0.051
REMARK SMILES C=C(C)[C@H]1CC[C@H](C)C2=C(C1)[C@@H](C)CC2
REMARK SMILES IDX 10 1 9 2 15 3 14 4 12 5 13 6 7 7 8 8 6 9 11 11 4 12 5 13
REMARK SMILES IDX 2 15 1 16 3 17
REMARK H PARENT
REMARK Flexibility Score: 80.00
ROOT
ATOM      1  C   UNL     1      30.694   9.566  30.417  1.00  0.00    -0.067 C 
ATOM      2  C   UNL     1      31.424   9.663  31.528  1.00  0.00    -0.068 C 
ATOM      3  C   UNL     1      31.595   8.329  32.183  1.00  0.00     0.032 C 
ATOM      4  C   UNL     1      30.692   7.385  31.389  1.00  0.00     0.012 C 
ATOM      5  C   UNL     1      30.269   8.161  30.133  1.00  0.00     0.012 C 
ATOM      6  C   UNL     1      30.961   7.624  28.874  1.00  0.00     0.012 C 
ENDROOT
BRANCH   2   7
ATOM      7  C   UNL     1      32.054  10.961  32.015  1.00  0.00     0.012 C 
ATOM      8  C   UNL     1      32.736  10.795  33.382  1.00  0.00     0.012 C 
BRANCH   7   9
ATOM      9  C   UNL     1      33.070  11.493  30.977  1.00  0.00     0.008 CG0
ATOM     10  G   UNL     1      32.404  12.239  29.807  1.00  0.00     0.000 G0
ENDBRANCH   7   9
ENDBRANCH   2   7
BRANCH   1  11
ATOM     11  C   UNL     1      30.354  10.727  29.516  1.00  0.00     0.039 C 
BRANCH  11  12
ATOM     12  C   UNL     1      31.619  11.322  28.858  1.00  0.00     0.018 C 
BRANCH  12  13
ATOM     13  C   UNL     1      32.406  12.238  29.822  1.00  0.00     0.009 CG0
ATOM     14  G   UNL     1      33.072  11.489  30.989  1.00  0.00     0.000 G0
ENDBRANCH  12  13
BRANCH  12  15
ATOM     15  C   UNL     1      31.248  12.087  27.593  1.00  0.00    -0.077 C 
ATOM     16  C   UNL     1      32.053  12.078  26.516  1.00  0.00     0.008 C 
ATOM     17  C   UNL     1      29.966  12.877  27.532  1.00  0.00     0.039 C 
ENDBRANCH  12  15
ENDBRANCH  11  12
ENDBRANCH   1  11
TORSDOF 1
ENDMDL
MODEL 7
REMARK VINA RESULT:    -3.800      1.528      2.321
REMARK INTER + INTRA:          -5.082
REMARK INTER:                  -5.125
REMARK INTRA:                   0.043
REMARK UNBOUND:                 0.051
REMARK SMILES C=C(C)[C@H]1CC[C@H](C)C2=C(C1)[C@@H](C)CC2
REMARK SMILES IDX 10 1 9 2 15 3 14 4 12 5 13 6 7 7 8 8 6 9 11 11 4 12 5 13
REMARK SMILES IDX 2 15 1 16 3 17
REMARK H PARENT
REMARK Flexibility Score: 80.00
ROOT
ATOM      1  C   UNL     1      31.305   8.188  34.697  1.00  0.00    -0.067 C 
ATOM      2  C   UNL     1      31.601   9.250  33.947  1.00  0.00    -0.068 C 
ATOM      3  C   UNL     1      31.470   8.938  32.489  1.00  0.00     0.032 C 
ATOM      4  C   UNL     1      31.209   7.432  32.433  1.00  0.00     0.012 C 
ATOM      5  C   UNL     1      30.913   7.000  33.877  1.00  0.00     0.012 C 
ATOM      6  C   UNL     1      29.430   6.664  34.076  1.00  0.00     0.012 C 
ENDROOT
BRANCH   2   7
ATOM      7  C   UNL     1      31.957  10.615  34.519  1.00  0.00     0.012 C 
ATOM      8  C   UNL     1      32.370  11.610  33.422  1.00  0.00     0.012 C 
BRANCH   7   9
ATOM      9  C   UNL     1      30.774  11.185  35.335  1.00  0.00     0.008 CG0
ATOM     10  G   UNL     1      30.670  10.588  36.749  1.00  0.00     0.000 G0
ENDBRANCH   7   9
ENDBRANCH   2   7
BRANCH   1  11
ATOM     11  C   UNL     1      31.324   8.177  36.205  1.00  0.00     0.039 C 
BRANCH  11  12
ATOM     12  C   UNL     1      30.242   9.112  36.791  1.00  0.00     0.018 C 
BRANCH  12  13
ATOM     13  C   UNL     1      30.673  10.596  36.762  1.00  0.00     0.009 CG0
ATOM     14  G   UNL     1      30.785  11.184  35.345  1.00  0.00     0.000 G0
ENDBRANCH  12  13
BRANCH  12  15
ATOM     15  C   UNL     1      29.897   8.694  38.215  1.00  0.00    -0.077 C 
ATOM     16  C   UNL     1      30.126   9.517  39.255  1.00  0.00     0.008 C 
ATOM     17  C   UNL     1      29.295   7.340  38.484  1.00  0.00     0.039 C 
ENDBRANCH  12  15
ENDBRANCH  11  12
ENDBRANCH   1  11
TORSDOF 1
ENDMDL
MODEL 8
REMARK VINA RESULT:    -3.791      2.559      5.631
REMARK INTER + INTRA:          -5.069
REMARK INTER:                  -5.152
REMARK INTRA:                   0.083
REMARK UNBOUND:                 0.051
REMARK SMILES C=C(C)[C@H]1CC[C@H](C)C2=C(C1)[C@@H](C)CC2
REMARK SMILES IDX 10 1 9 2 15 3 14 4 12 5 13 6 7 7 8 8 6 9 11 11 4 12 5 13
REMARK SMILES IDX 2 15 1 16 3 17
REMARK H PARENT
REMARK Flexibility Score: 80.00
ROOT
ATOM      1  C   UNL     1      31.572   9.952  29.297  1.00  0.00    -0.067 C 
ATOM      2  C   UNL     1      31.798  10.001  30.611  1.00  0.00    -0.068 C 
ATOM      3  C   UNL     1      32.195  11.378  31.042  1.00  0.00     0.032 C 
ATOM      4  C   UNL     1      32.358  12.163  29.740  1.00  0.00     0.012 C 
ATOM      5  C   UNL     1      31.763  11.279  28.635  1.00  0.00     0.012 C 
ATOM      6  C   UNL     1      30.427  11.831  28.123  1.00  0.00     0.012 C 
ENDROOT
BRANCH   2   7
ATOM      7  C   UNL     1      31.603   8.816  31.546  1.00  0.00     0.012 C 
ATOM      8  C   UNL     1      32.060   9.131  32.980  1.00  0.00     0.012 C 
BRANCH   7   9
ATOM      9  C   UNL     1      30.124   8.365  31.549  1.00  0.00     0.008 CG0
ATOM     10  G   UNL     1      29.759   7.481  30.344  1.00  0.00     0.000 G0
ENDBRANCH   7   9
ENDBRANCH   2   7
BRANCH   1  11
ATOM     11  C   UNL     1      31.139   8.714  28.552  1.00  0.00     0.039 C 
BRANCH  11  12
ATOM     12  C   UNL     1      29.733   8.250  28.996  1.00  0.00     0.018 C 
BRANCH  12  13
ATOM     13  C   UNL     1      29.765   7.483  30.337  1.00  0.00     0.009 CG0
ATOM     14  G   UNL     1      30.119   8.362  31.549  1.00  0.00     0.000 G0
ENDBRANCH  12  13
BRANCH  12  15
ATOM     15  C   UNL     1      29.095   7.388  27.913  1.00  0.00    -0.077 C 
ATOM     16  C   UNL     1      29.814   6.942  26.868  1.00  0.00     0.008 C 
ATOM     17  C   UNL     1      27.635   7.024  27.995  1.00  0.00     0.039 C 
ENDBRANCH  12  15
ENDBRANCH  11  12
ENDBRANCH   1  11
TORSDOF 1
ENDMDL
MODEL 9
REMARK VINA RESULT:    -3.696      3.189      6.117
REMARK INTER + INTRA:          -4.941
REMARK INTER:                  -4.987
REMARK INTRA:                   0.045
REMARK UNBOUND:                 0.051
REMARK SMILES C=C(C)[C@H]1CC[C@H](C)C2=C(C1)[C@@H](C)CC2
REMARK SMILES IDX 10 1 9 2 15 3 14 4 12 5 13 6 7 7 8 8 6 9 11 11 4 12 5 13
REMARK SMILES IDX 2 15 1 16 3 17
REMARK H PARENT
REMARK Flexibility Score: 80.00
ROOT
ATOM      1  C   UNL     1      30.374   9.617  30.050  1.00  0.00    -0.067 C 
ATOM      2  C   UNL     1      31.380  10.322  30.569  1.00  0.00    -0.068 C 
ATOM      3  C   UNL     1      32.019   9.597  31.711  1.00  0.00     0.032 C 
ATOM      4  C   UNL     1      31.127   8.378  31.948  1.00  0.00     0.012 C 
ATOM      5  C   UNL     1      30.181   8.304  30.740  1.00  0.00     0.012 C 
ATOM      6  C   UNL     1      30.539   7.139  29.810  1.00  0.00     0.012 C 
ENDROOT
BRANCH   2   7
ATOM      7  C   UNL     1      31.849  11.659  30.012  1.00  0.00     0.012 C 
ATOM      8  C   UNL     1      32.943  12.296  30.884  1.00  0.00     0.012 C 
BRANCH   7   9
ATOM      9  C   UNL     1      32.356  11.494  28.561  1.00  0.00     0.008 CG0
ATOM     10  G   UNL     1      31.220  11.439  27.525  1.00  0.00     0.000 G0
ENDBRANCH   7   9
ENDBRANCH   2   7
BRANCH   1  11
ATOM     11  C   UNL     1      29.537  10.061  28.876  1.00  0.00     0.039 C 
BRANCH  11  12
ATOM     12  C   UNL     1      30.377  10.145  27.582  1.00  0.00     0.018 C 
BRANCH  12  13
ATOM     13  C   UNL     1      31.224  11.435  27.517  1.00  0.00     0.009 CG0
ATOM     14  G   UNL     1      32.355  11.492  28.558  1.00  0.00     0.000 G0
ENDBRANCH  12  13
BRANCH  12  15
ATOM     15  C   UNL     1      29.474  10.048  26.359  1.00  0.00    -0.077 C 
ATOM     16  C   UNL     1      29.480  11.004  25.413  1.00  0.00     0.008 C 
ATOM     17  C   UNL     1      28.547   8.872  26.191  1.00  0.00     0.039 C 
ENDBRANCH  12  15
ENDBRANCH  11  12
ENDBRANCH   1  11
TORSDOF 1
ENDMDL
