MODEL 1
REMARK VINA RESULT:    -5.434      0.000      0.000
REMARK INTER + INTRA:          -8.447
REMARK INTER:                  -7.340
REMARK INTRA:                  -1.107
REMARK UNBOUND:                -1.107
REMARK SMILES O=c1c(-c2ccc(O)cc2)coc2c([C@@H]3O[C@H](CO)[C@H](O)[C@@H](O)[C@@H]3O)c(O)ccc12
REMARK SMILES IDX 3 1 11 2 12 3 13 4 30 5 2 6 1 7 29 8 28 9 26 10 14 11 4 12
REMARK SMILES IDX 5 13 6 14 7 15 10 16 9 17 8 18 15 20 24 21 16 22 22 23 17 24
REMARK SMILES IDX 20 25 25 26 23 28 18 30 19 31 21 33 27 35
REMARK H PARENT 8 19 25 27 23 29 19 32 21 34 27 36
REMARK Flexibility Score: inf
ROOT
ATOM      1  C   UNL     1     -24.889 -65.469  55.875  1.00  0.00     0.065 A 
ATOM      2  C   UNL     1     -24.155 -64.310  55.583  1.00  0.00     0.208 A 
ATOM      3  O   UNL     1     -22.935 -64.134  56.074  1.00  0.00    -0.463 OA
ATOM      4  C   UNL     1     -22.331 -65.022  56.861  1.00  0.00     0.147 A 
ATOM      5  C   UNL     1     -23.000 -66.219  57.208  1.00  0.00     0.066 A 
ATOM      6  C   UNL     1     -24.291 -66.442  56.697  1.00  0.00     0.200 A 
ATOM      7  O   UNL     1     -24.903 -67.515  56.958  1.00  0.00    -0.288 OA
ATOM      8  C   UNL     1     -22.367 -67.148  58.047  1.00  0.00     0.020 A 
ATOM      9  C   UNL     1     -21.096 -66.885  58.552  1.00  0.00     0.047 A 
ATOM     10  C   UNL     1     -20.427 -65.701  58.222  1.00  0.00     0.125 A 
ATOM     11  C   UNL     1     -21.028 -64.764  57.346  1.00  0.00     0.069 A 
ENDROOT
BRANCH   1  12
ATOM     12  C   UNL     1     -26.254 -65.640  55.317  1.00  0.00    -0.011 A 
ATOM     13  C   UNL     1     -27.389 -65.383  56.107  1.00  0.00     0.013 A 
ATOM     14  C   UNL     1     -28.673 -65.537  55.575  1.00  0.00     0.047 A 
ATOM     15  C   UNL     1     -28.839 -65.944  54.248  1.00  0.00     0.115 A 
ATOM     16  C   UNL     1     -26.429 -66.042  53.981  1.00  0.00     0.013 A 
ATOM     17  C   UNL     1     -27.715 -66.196  53.451  1.00  0.00     0.047 A 
BRANCH  15  18
ATOM     18  O   UNL     1     -30.124 -66.094  53.730  1.00  0.00    -0.508 OA
ATOM     19  H   UNL     1     -30.500 -67.008  53.504  1.00  0.00     0.293 HD
ENDBRANCH  15  18
ENDBRANCH   1  12
BRANCH  11  20
ATOM     20  C   UNL     1     -20.333 -63.457  56.985  1.00  0.00     0.188 C 
ATOM     21  C   UNL     1     -20.766 -62.321  57.944  1.00  0.00     0.179 C 
ATOM     22  O   UNL     1     -18.923 -63.624  57.000  1.00  0.00    -0.362 OA
ATOM     23  C   UNL     1     -20.038 -61.013  57.573  1.00  0.00     0.177 C 
ATOM     24  C   UNL     1     -18.276 -62.468  56.495  1.00  0.00     0.176 C 
ATOM     25  C   UNL     1     -18.523 -61.256  57.423  1.00  0.00     0.177 C 
BRANCH  21  26
ATOM     26  O   UNL     1     -20.464 -62.654  59.277  1.00  0.00    -0.387 OA
ATOM     27  H   UNL     1     -19.531 -62.358  59.449  1.00  0.00     0.211 HD
ENDBRANCH  21  26
BRANCH  23  28
ATOM     28  O   UNL     1     -20.547 -60.502  56.366  1.00  0.00    -0.387 OA
ATOM     29  H   UNL     1     -20.687 -61.277  55.761  1.00  0.00     0.211 HD
ENDBRANCH  23  28
BRANCH  24  30
ATOM     30  C   UNL     1     -16.777 -62.758  56.353  1.00  0.00     0.191 C 
BRANCH  30  31
ATOM     31  O   UNL     1     -16.351 -63.560  57.420  1.00  0.00    -0.394 OA
ATOM     32  H   UNL     1     -16.545 -64.496  57.153  1.00  0.00     0.210 HD
ENDBRANCH  30  31
ENDBRANCH  24  30
BRANCH  25  33
ATOM     33  O   UNL     1     -17.945 -61.493  58.682  1.00  0.00    -0.388 OA
ATOM     34  H   UNL     1     -18.693 -61.589  59.328  1.00  0.00     0.211 HD
ENDBRANCH  25  33
ENDBRANCH  11  20
BRANCH  10  35
ATOM     35  O   UNL     1     -19.168 -65.455  58.772  1.00  0.00    -0.507 OA
ATOM     36  H   UNL     1     -18.337 -65.396  58.197  1.00  0.00     0.293 HD
ENDBRANCH  10  35
TORSDOF 9
ENDMDL
MODEL 2
REMARK VINA RESULT:    -5.329      3.082      8.103
REMARK INTER + INTRA:          -8.305
REMARK INTER:                  -7.781
REMARK INTRA:                  -0.524
REMARK UNBOUND:                -1.107
REMARK SMILES O=c1c(-c2ccc(O)cc2)coc2c([C@@H]3O[C@H](CO)[C@H](O)[C@@H](O)[C@@H]3O)c(O)ccc12
REMARK SMILES IDX 3 1 11 2 12 3 13 4 30 5 2 6 1 7 29 8 28 9 26 10 14 11 4 12
REMARK SMILES IDX 5 13 6 14 7 15 10 16 9 17 8 18 15 20 24 21 16 22 22 23 17 24
REMARK SMILES IDX 20 25 25 26 23 28 18 30 19 31 21 33 27 35
REMARK H PARENT 8 19 25 27 23 29 19 32 21 34 27 36
REMARK Flexibility Score: inf
ROOT
ATOM      1  C   UNL     1     -19.199 -62.732  57.010  1.00  0.00     0.065 A 
ATOM      2  C   UNL     1     -19.238 -64.130  57.107  1.00  0.00     0.208 A 
ATOM      3  O   UNL     1     -20.384 -64.768  57.305  1.00  0.00    -0.463 OA
ATOM      4  C   UNL     1     -21.554 -64.144  57.424  1.00  0.00     0.147 A 
ATOM      5  C   UNL     1     -21.606 -62.733  57.340  1.00  0.00     0.066 A 
ATOM      6  C   UNL     1     -20.411 -62.026  57.121  1.00  0.00     0.200 A 
ATOM      7  O   UNL     1     -20.426 -60.769  57.007  1.00  0.00    -0.288 OA
ATOM      8  C   UNL     1     -22.838 -62.076  57.478  1.00  0.00     0.020 A 
ATOM      9  C   UNL     1     -24.000 -62.807  57.715  1.00  0.00     0.047 A 
ATOM     10  C   UNL     1     -23.960 -64.203  57.807  1.00  0.00     0.125 A 
ATOM     11  C   UNL     1     -22.735 -64.893  57.634  1.00  0.00     0.069 A 
ENDROOT
BRANCH   1  12
ATOM     12  C   UNL     1     -17.902 -62.041  56.792  1.00  0.00    -0.011 A 
ATOM     13  C   UNL     1     -17.317 -61.277  57.818  1.00  0.00     0.013 A 
ATOM     14  C   UNL     1     -16.091 -60.636  57.612  1.00  0.00     0.047 A 
ATOM     15  C   UNL     1     -15.434 -60.753  56.383  1.00  0.00     0.115 A 
ATOM     16  C   UNL     1     -17.233 -62.160  55.563  1.00  0.00     0.013 A 
ATOM     17  C   UNL     1     -16.007 -61.517  55.359  1.00  0.00     0.047 A 
BRANCH  15  18
ATOM     18  O   UNL     1     -14.215 -60.108  56.191  1.00  0.00    -0.508 OA
ATOM     19  H   UNL     1     -14.130 -59.101  56.269  1.00  0.00     0.293 HD
ENDBRANCH  15  18
ENDBRANCH   1  12
BRANCH  11  20
ATOM     20  C   UNL     1     -22.657 -66.411  57.749  1.00  0.00     0.188 C 
ATOM     21  C   UNL     1     -22.650 -67.067  56.347  1.00  0.00     0.179 C 
ATOM     22  O   UNL     1     -21.511 -66.794  58.495  1.00  0.00    -0.362 OA
ATOM     23  C   UNL     1     -22.553 -68.600  56.485  1.00  0.00     0.177 C 
ATOM     24  C   UNL     1     -21.527 -68.187  58.757  1.00  0.00     0.176 C 
ATOM     25  C   UNL     1     -21.407 -68.990  57.441  1.00  0.00     0.177 C 
BRANCH  21  26
ATOM     26  O   UNL     1     -21.562 -66.603  55.586  1.00  0.00    -0.387 OA
ATOM     27  H   UNL     1     -21.934 -66.046  54.852  1.00  0.00     0.211 HD
ENDBRANCH  21  26
BRANCH  23  28
ATOM     28  O   UNL     1     -23.763 -69.120  56.977  1.00  0.00    -0.387 OA
ATOM     29  H   UNL     1     -24.481 -68.497  56.694  1.00  0.00     0.211 HD
ENDBRANCH  23  28
BRANCH  24  30
ATOM     30  C   UNL     1     -20.380 -68.526  59.716  1.00  0.00     0.191 C 
BRANCH  30  31
ATOM     31  O   UNL     1     -19.262 -67.739  59.408  1.00  0.00    -0.394 OA
ATOM     32  H   UNL     1     -19.605 -66.970  58.883  1.00  0.00     0.210 HD
ENDBRANCH  30  31
ENDBRANCH  24  30
BRANCH  25  33
ATOM     33  O   UNL     1     -20.165 -68.732  56.835  1.00  0.00    -0.388 OA
ATOM     34  H   UNL     1     -20.113 -67.751  56.691  1.00  0.00     0.211 HD
ENDBRANCH  25  33
ENDBRANCH  11  20
BRANCH  10  35
ATOM     35  O   UNL     1     -25.138 -64.901  58.078  1.00  0.00    -0.507 OA
ATOM     36  H   UNL     1     -25.848 -64.529  58.697  1.00  0.00     0.293 HD
ENDBRANCH  10  35
TORSDOF 9
ENDMDL
MODEL 3
REMARK VINA RESULT:    -5.302      3.556      9.123
REMARK INTER + INTRA:          -8.269
REMARK INTER:                  -8.258
REMARK INTRA:                  -0.012
REMARK UNBOUND:                -1.107
REMARK SMILES O=c1c(-c2ccc(O)cc2)coc2c([C@@H]3O[C@H](CO)[C@H](O)[C@@H](O)[C@@H]3O)c(O)ccc12
REMARK SMILES IDX 3 1 11 2 12 3 13 4 30 5 2 6 1 7 29 8 28 9 26 10 14 11 4 12
REMARK SMILES IDX 5 13 6 14 7 15 10 16 9 17 8 18 15 20 24 21 16 22 22 23 17 24
REMARK SMILES IDX 20 25 25 26 23 28 18 30 19 31 21 33 27 35
REMARK H PARENT 8 19 25 27 23 29 19 32 21 34 27 36
REMARK Flexibility Score: inf
ROOT
ATOM      1  C   UNL     1     -24.414 -66.240  57.575  1.00  0.00     0.065 A 
ATOM      2  C   UNL     1     -25.539 -66.930  57.098  1.00  0.00     0.208 A 
ATOM      3  O   UNL     1     -26.592 -66.273  56.629  1.00  0.00    -0.463 OA
ATOM      4  C   UNL     1     -26.660 -64.945  56.578  1.00  0.00     0.147 A 
ATOM      5  C   UNL     1     -25.570 -64.170  57.041  1.00  0.00     0.066 A 
ATOM      6  C   UNL     1     -24.433 -64.834  57.535  1.00  0.00     0.200 A 
ATOM      7  O   UNL     1     -23.429 -64.175  57.923  1.00  0.00    -0.288 OA
ATOM      8  C   UNL     1     -25.648 -62.770  56.997  1.00  0.00     0.020 A 
ATOM      9  C   UNL     1     -26.798 -62.146  56.520  1.00  0.00     0.047 A 
ATOM     10  C   UNL     1     -27.886 -62.902  56.067  1.00  0.00     0.125 A 
ATOM     11  C   UNL     1     -27.818 -64.316  56.065  1.00  0.00     0.069 A 
ENDROOT
BRANCH   1  12
ATOM     12  C   UNL     1     -23.249 -66.998  58.098  1.00  0.00    -0.011 A 
ATOM     13  C   UNL     1     -21.947 -66.477  57.986  1.00  0.00     0.013 A 
ATOM     14  C   UNL     1     -20.854 -67.189  58.488  1.00  0.00     0.047 A 
ATOM     15  C   UNL     1     -21.047 -68.425  59.112  1.00  0.00     0.115 A 
ATOM     16  C   UNL     1     -23.436 -68.237  58.733  1.00  0.00     0.013 A 
ATOM     17  C   UNL     1     -22.341 -68.948  59.235  1.00  0.00     0.047 A 
BRANCH  15  18
ATOM     18  O   UNL     1     -19.949 -69.125  59.608  1.00  0.00    -0.508 OA
ATOM     19  H   UNL     1     -19.068 -69.151  59.106  1.00  0.00     0.293 HD
ENDBRANCH  15  18
ENDBRANCH   1  12
BRANCH  11  20
ATOM     20  C   UNL     1     -28.994 -65.165  55.597  1.00  0.00     0.188 C 
ATOM     21  C   UNL     1     -28.863 -65.499  54.090  1.00  0.00     0.179 C 
ATOM     22  O   UNL     1     -29.091 -66.350  56.373  1.00  0.00    -0.362 OA
ATOM     23  C   UNL     1     -30.052 -66.373  53.641  1.00  0.00     0.177 C 
ATOM     24  C   UNL     1     -30.281 -67.056  56.063  1.00  0.00     0.176 C 
ATOM     25  C   UNL     1     -30.249 -67.563  54.603  1.00  0.00     0.177 C 
BRANCH  21  26
ATOM     26  O   UNL     1     -27.664 -66.188  53.836  1.00  0.00    -0.387 OA
ATOM     27  H   UNL     1     -27.576 -66.891  54.532  1.00  0.00     0.211 HD
ENDBRANCH  21  26
BRANCH  23  28
ATOM     28  O   UNL     1     -31.230 -65.607  53.606  1.00  0.00    -0.387 OA
ATOM     29  H   UNL     1     -31.035 -64.801  53.062  1.00  0.00     0.211 HD
ENDBRANCH  23  28
BRANCH  24  30
ATOM     30  C   UNL     1     -30.440 -68.221  57.047  1.00  0.00     0.191 C 
BRANCH  30  31
ATOM     31  O   UNL     1     -29.220 -68.898  57.174  1.00  0.00    -0.394 OA
ATOM     32  H   UNL     1     -28.641 -68.319  57.735  1.00  0.00     0.210 HD
ENDBRANCH  30  31
ENDBRANCH  24  30
BRANCH  25  33
ATOM     33  O   UNL     1     -29.205 -68.491  54.441  1.00  0.00    -0.388 OA
ATOM     34  H   UNL     1     -29.338 -69.196  55.127  1.00  0.00     0.211 HD
ENDBRANCH  25  33
ENDBRANCH  11  20
BRANCH  10  35
ATOM     35  O   UNL     1     -29.035 -62.244  55.627  1.00  0.00    -0.507 OA
ATOM     36  H   UNL     1     -29.916 -62.319  56.121  1.00  0.00     0.293 HD
ENDBRANCH  10  35
TORSDOF 9
ENDMDL
MODEL 4
REMARK VINA RESULT:    -5.299      3.076      5.466
REMARK INTER + INTRA:          -8.265
REMARK INTER:                  -7.195
REMARK INTRA:                  -1.070
REMARK UNBOUND:                -1.107
REMARK SMILES O=c1c(-c2ccc(O)cc2)coc2c([C@@H]3O[C@H](CO)[C@H](O)[C@@H](O)[C@@H]3O)c(O)ccc12
REMARK SMILES IDX 3 1 11 2 12 3 13 4 30 5 2 6 1 7 29 8 28 9 26 10 14 11 4 12
REMARK SMILES IDX 5 13 6 14 7 15 10 16 9 17 8 18 15 20 24 21 16 22 22 23 17 24
REMARK SMILES IDX 20 25 25 26 23 28 18 30 19 31 21 33 27 35
REMARK H PARENT 8 19 25 27 23 29 19 32 21 34 27 36
REMARK Flexibility Score: inf
ROOT
ATOM      1  C   UNL     1     -25.984 -62.705  57.100  1.00  0.00     0.065 A 
ATOM      2  C   UNL     1     -25.962 -64.104  57.203  1.00  0.00     0.208 A 
ATOM      3  O   UNL     1     -24.819 -64.757  57.371  1.00  0.00    -0.463 OA
ATOM      4  C   UNL     1     -23.638 -64.149  57.452  1.00  0.00     0.147 A 
ATOM      5  C   UNL     1     -23.567 -62.740  57.356  1.00  0.00     0.066 A 
ATOM      6  C   UNL     1     -24.761 -62.016  57.187  1.00  0.00     0.200 A 
ATOM      7  O   UNL     1     -24.738 -60.755  57.132  1.00  0.00    -0.288 OA
ATOM      8  C   UNL     1     -22.320 -62.103  57.429  1.00  0.00     0.020 A 
ATOM      9  C   UNL     1     -21.156 -62.853  57.576  1.00  0.00     0.047 A 
ATOM     10  C   UNL     1     -21.212 -64.249  57.665  1.00  0.00     0.125 A 
ATOM     11  C   UNL     1     -22.462 -64.914  57.632  1.00  0.00     0.069 A 
ENDROOT
BRANCH   1  12
ATOM     12  C   UNL     1     -27.275 -61.998  56.907  1.00  0.00    -0.011 A 
ATOM     13  C   UNL     1     -27.555 -61.335  55.699  1.00  0.00     0.013 A 
ATOM     14  C   UNL     1     -28.776 -60.677  55.519  1.00  0.00     0.047 A 
ATOM     15  C   UNL     1     -29.733 -60.678  56.539  1.00  0.00     0.115 A 
ATOM     16  C   UNL     1     -28.244 -62.001  57.925  1.00  0.00     0.013 A 
ATOM     17  C   UNL     1     -29.465 -61.342  57.743  1.00  0.00     0.047 A 
BRANCH  15  18
ATOM     18  O   UNL     1     -30.944 -60.019  56.346  1.00  0.00    -0.508 OA
ATOM     19  H   UNL     1     -31.794 -60.527  56.128  1.00  0.00     0.293 HD
ENDBRANCH  15  18
ENDBRANCH   1  12
BRANCH  11  20
ATOM     20  C   UNL     1     -22.553 -66.434  57.706  1.00  0.00     0.188 C 
ATOM     21  C   UNL     1     -22.499 -67.057  56.289  1.00  0.00     0.179 C 
ATOM     22  O   UNL     1     -21.519 -66.953  58.529  1.00  0.00    -0.362 OA
ATOM     23  C   UNL     1     -22.574 -68.594  56.388  1.00  0.00     0.177 C 
ATOM     24  C   UNL     1     -21.702 -68.343  58.746  1.00  0.00     0.176 C 
ATOM     25  C   UNL     1     -21.559 -69.125  57.420  1.00  0.00     0.177 C 
BRANCH  21  26
ATOM     26  O   UNL     1     -21.309 -66.695  55.632  1.00  0.00    -0.387 OA
ATOM     27  H   UNL     1     -20.639 -66.486  56.335  1.00  0.00     0.211 HD
ENDBRANCH  21  26
BRANCH  23  28
ATOM     28  O   UNL     1     -23.869 -68.992  56.766  1.00  0.00    -0.387 OA
ATOM     29  H   UNL     1     -23.858 -69.982  56.834  1.00  0.00     0.211 HD
ENDBRANCH  23  28
BRANCH  24  30
ATOM     30  C   UNL     1     -20.681 -68.824  59.784  1.00  0.00     0.191 C 
BRANCH  30  31
ATOM     31  O   UNL     1     -19.493 -68.093  59.646  1.00  0.00    -0.394 OA
ATOM     32  H   UNL     1     -18.991 -68.224  60.493  1.00  0.00     0.210 HD
ENDBRANCH  30  31
ENDBRANCH  24  30
BRANCH  25  33
ATOM     33  O   UNL     1     -20.251 -68.989  56.924  1.00  0.00    -0.388 OA
ATOM     34  H   UNL     1     -20.141 -68.038  56.660  1.00  0.00     0.211 HD
ENDBRANCH  25  33
ENDBRANCH  11  20
BRANCH  10  35
ATOM     35  O   UNL     1     -20.024 -64.972  57.778  1.00  0.00    -0.507 OA
ATOM     36  H   UNL     1     -19.975 -65.958  57.553  1.00  0.00     0.293 HD
ENDBRANCH  10  35
TORSDOF 9
ENDMDL
MODEL 5
REMARK VINA RESULT:    -5.206      8.155     10.930
REMARK INTER + INTRA:          -8.140
REMARK INTER:                  -6.990
REMARK INTRA:                  -1.151
REMARK UNBOUND:                -1.107
REMARK SMILES O=c1c(-c2ccc(O)cc2)coc2c([C@@H]3O[C@H](CO)[C@H](O)[C@@H](O)[C@@H]3O)c(O)ccc12
REMARK SMILES IDX 3 1 11 2 12 3 13 4 30 5 2 6 1 7 29 8 28 9 26 10 14 11 4 12
REMARK SMILES IDX 5 13 6 14 7 15 10 16 9 17 8 18 15 20 24 21 16 22 22 23 17 24
REMARK SMILES IDX 20 25 25 26 23 28 18 30 19 31 21 33 27 35
REMARK H PARENT 8 19 25 27 23 29 19 32 21 34 27 36
REMARK Flexibility Score: inf
ROOT
ATOM      1  C   UNL     1     -30.105 -61.784  56.302  1.00  0.00     0.065 A 
ATOM      2  C   UNL     1     -30.085 -62.381  57.571  1.00  0.00     0.208 A 
ATOM      3  O   UNL     1     -30.403 -61.686  58.655  1.00  0.00    -0.463 OA
ATOM      4  C   UNL     1     -30.755 -60.402  58.622  1.00  0.00     0.147 A 
ATOM      5  C   UNL     1     -30.799 -59.721  57.383  1.00  0.00     0.066 A 
ATOM      6  C   UNL     1     -30.478 -60.431  56.212  1.00  0.00     0.200 A 
ATOM      7  O   UNL     1     -30.541 -59.863  55.086  1.00  0.00    -0.288 OA
ATOM      8  C   UNL     1     -31.159 -58.366  57.351  1.00  0.00     0.020 A 
ATOM      9  C   UNL     1     -31.451 -57.689  58.532  1.00  0.00     0.047 A 
ATOM     10  C   UNL     1     -31.402 -58.350  59.765  1.00  0.00     0.125 A 
ATOM     11  C   UNL     1     -31.080 -59.728  59.822  1.00  0.00     0.069 A 
ENDROOT
BRANCH   1  12
ATOM     12  C   UNL     1     -29.741 -62.582  55.103  1.00  0.00    -0.011 A 
ATOM     13  C   UNL     1     -28.414 -62.615  54.640  1.00  0.00     0.013 A 
ATOM     14  C   UNL     1     -28.074 -63.375  53.517  1.00  0.00     0.047 A 
ATOM     15  C   UNL     1     -29.052 -64.114  52.846  1.00  0.00     0.115 A 
ATOM     16  C   UNL     1     -30.718 -63.333  54.428  1.00  0.00     0.013 A 
ATOM     17  C   UNL     1     -30.376 -64.093  53.304  1.00  0.00     0.047 A 
BRANCH  15  18
ATOM     18  O   UNL     1     -28.700 -64.866  51.728  1.00  0.00    -0.508 OA
ATOM     19  H   UNL     1     -28.976 -64.586  50.793  1.00  0.00     0.293 HD
ENDBRANCH  15  18
ENDBRANCH   1  12
BRANCH  11  20
ATOM     20  C   UNL     1     -31.000 -60.470  61.151  1.00  0.00     0.188 C 
ATOM     21  C   UNL     1     -29.568 -60.395  61.735  1.00  0.00     0.179 C 
ATOM     22  O   UNL     1     -31.951 -59.949  62.067  1.00  0.00    -0.362 OA
ATOM     23  C   UNL     1     -29.513 -61.135  63.087  1.00  0.00     0.177 C 
ATOM     24  C   UNL     1     -32.006 -60.746  63.239  1.00  0.00     0.176 C 
ATOM     25  C   UNL     1     -30.665 -60.679  64.006  1.00  0.00     0.177 C 
BRANCH  21  26
ATOM     26  O   UNL     1     -29.178 -59.057  61.927  1.00  0.00    -0.387 OA
ATOM     27  H   UNL     1     -28.532 -59.046  62.681  1.00  0.00     0.211 HD
ENDBRANCH  21  26
BRANCH  23  28
ATOM     28  O   UNL     1     -29.607 -62.523  62.883  1.00  0.00    -0.387 OA
ATOM     29  H   UNL     1     -30.340 -62.852  63.466  1.00  0.00     0.211 HD
ENDBRANCH  23  28
BRANCH  24  30
ATOM     30  C   UNL     1     -33.167 -60.264  64.116  1.00  0.00     0.191 C 
BRANCH  30  31
ATOM     31  O   UNL     1     -32.939 -60.640  65.446  1.00  0.00    -0.394 OA
ATOM     32  H   UNL     1     -33.622 -60.164  65.987  1.00  0.00     0.210 HD
ENDBRANCH  30  31
ENDBRANCH  24  30
BRANCH  25  33
ATOM     33  O   UNL     1     -30.434 -59.366  64.452  1.00  0.00    -0.388 OA
ATOM     34  H   UNL     1     -29.993 -59.437  65.339  1.00  0.00     0.211 HD
ENDBRANCH  25  33
ENDBRANCH  11  20
BRANCH  10  35
ATOM     35  O   UNL     1     -31.669 -57.633  60.932  1.00  0.00    -0.507 OA
ATOM     36  H   UNL     1     -31.254 -56.726  61.108  1.00  0.00     0.293 HD
ENDBRANCH  10  35
TORSDOF 9
ENDMDL
MODEL 6
REMARK VINA RESULT:    -5.192      2.068      8.714
REMARK INTER + INTRA:          -8.121
REMARK INTER:                  -7.069
REMARK INTRA:                  -1.051
REMARK UNBOUND:                -1.107
REMARK SMILES O=c1c(-c2ccc(O)cc2)coc2c([C@@H]3O[C@H](CO)[C@H](O)[C@@H](O)[C@@H]3O)c(O)ccc12
REMARK SMILES IDX 3 1 11 2 12 3 13 4 30 5 2 6 1 7 29 8 28 9 26 10 14 11 4 12
REMARK SMILES IDX 5 13 6 14 7 15 10 16 9 17 8 18 15 20 24 21 16 22 22 23 17 24
REMARK SMILES IDX 20 25 25 26 23 28 18 30 19 31 21 33 27 35
REMARK H PARENT 8 19 25 27 23 29 19 32 21 34 27 36
REMARK Flexibility Score: inf
ROOT
ATOM      1  C   UNL     1     -22.835 -63.380  57.211  1.00  0.00     0.065 A 
ATOM      2  C   UNL     1     -24.053 -62.884  56.725  1.00  0.00     0.208 A 
ATOM      3  O   UNL     1     -25.094 -63.688  56.547  1.00  0.00    -0.463 OA
ATOM      4  C   UNL     1     -25.060 -64.992  56.809  1.00  0.00     0.147 A 
ATOM      5  C   UNL     1     -23.869 -65.577  57.301  1.00  0.00     0.066 A 
ATOM      6  C   UNL     1     -22.750 -64.752  57.511  1.00  0.00     0.200 A 
ATOM      7  O   UNL     1     -21.683 -65.234  57.981  1.00  0.00    -0.288 OA
ATOM      8  C   UNL     1     -23.832 -66.954  57.564  1.00  0.00     0.020 A 
ATOM      9  C   UNL     1     -24.953 -67.745  57.325  1.00  0.00     0.047 A 
ATOM     10  C   UNL     1     -26.135 -67.179  56.831  1.00  0.00     0.125 A 
ATOM     11  C   UNL     1     -26.211 -65.786  56.592  1.00  0.00     0.069 A 
ENDROOT
BRANCH   1  12
ATOM     12  C   UNL     1     -21.683 -62.460  57.399  1.00  0.00    -0.011 A 
ATOM     13  C   UNL     1     -21.246 -62.113  58.689  1.00  0.00     0.013 A 
ATOM     14  C   UNL     1     -20.156 -61.255  58.861  1.00  0.00     0.047 A 
ATOM     15  C   UNL     1     -19.487 -60.737  57.748  1.00  0.00     0.115 A 
ATOM     16  C   UNL     1     -21.002 -61.942  56.284  1.00  0.00     0.013 A 
ATOM     17  C   UNL     1     -19.911 -61.083  56.459  1.00  0.00     0.047 A 
BRANCH  15  18
ATOM     18  O   UNL     1     -18.403 -59.882  57.933  1.00  0.00    -0.508 OA
ATOM     19  H   UNL     1     -17.474 -60.240  58.127  1.00  0.00     0.293 HD
ENDBRANCH  15  18
ENDBRANCH   1  12
BRANCH  11  20
ATOM     20  C   UNL     1     -27.476 -65.144  56.036  1.00  0.00     0.188 C 
ATOM     21  C   UNL     1     -27.431 -65.094  54.489  1.00  0.00     0.179 C 
ATOM     22  O   UNL     1     -28.627 -65.843  56.488  1.00  0.00    -0.362 OA
ATOM     23  C   UNL     1     -28.728 -64.459  53.946  1.00  0.00     0.177 C 
ATOM     24  C   UNL     1     -29.809 -65.150  56.123  1.00  0.00     0.176 C 
ATOM     25  C   UNL     1     -29.967 -65.118  54.585  1.00  0.00     0.177 C 
BRANCH  21  26
ATOM     26  O   UNL     1     -27.293 -66.387  53.953  1.00  0.00    -0.387 OA
ATOM     27  H   UNL     1     -26.798 -66.930  54.622  1.00  0.00     0.211 HD
ENDBRANCH  21  26
BRANCH  23  28
ATOM     28  O   UNL     1     -28.743 -63.080  54.221  1.00  0.00    -0.387 OA
ATOM     29  H   UNL     1     -28.525 -62.976  55.184  1.00  0.00     0.211 HD
ENDBRANCH  23  28
BRANCH  24  30
ATOM     30  C   UNL     1     -31.011 -65.833  56.786  1.00  0.00     0.191 C 
BRANCH  30  31
ATOM     31  O   UNL     1     -30.743 -67.198  56.952  1.00  0.00    -0.394 OA
ATOM     32  H   UNL     1     -31.497 -67.680  56.522  1.00  0.00     0.210 HD
ENDBRANCH  30  31
ENDBRANCH  24  30
BRANCH  25  33
ATOM     33  O   UNL     1     -30.126 -66.425  54.092  1.00  0.00    -0.388 OA
ATOM     34  H   UNL     1     -29.696 -67.034  54.748  1.00  0.00     0.211 HD
ENDBRANCH  25  33
ENDBRANCH  11  20
BRANCH  10  35
ATOM     35  O   UNL     1     -27.228 -68.007  56.571  1.00  0.00    -0.507 OA
ATOM     36  H   UNL     1     -27.113 -68.985  56.338  1.00  0.00     0.293 HD
ENDBRANCH  10  35
TORSDOF 9
ENDMDL
MODEL 7
REMARK VINA RESULT:    -5.179      1.250      2.388
REMARK INTER + INTRA:          -8.103
REMARK INTER:                  -7.877
REMARK INTRA:                  -0.226
REMARK UNBOUND:                -1.107
REMARK SMILES O=c1c(-c2ccc(O)cc2)coc2c([C@@H]3O[C@H](CO)[C@H](O)[C@@H](O)[C@@H]3O)c(O)ccc12
REMARK SMILES IDX 3 1 11 2 12 3 13 4 30 5 2 6 1 7 29 8 28 9 26 10 14 11 4 12
REMARK SMILES IDX 5 13 6 14 7 15 10 16 9 17 8 18 15 20 24 21 16 22 22 23 17 24
REMARK SMILES IDX 20 25 25 26 23 28 18 30 19 31 21 33 27 35
REMARK H PARENT 8 19 25 27 23 29 19 32 21 34 27 36
REMARK Flexibility Score: inf
ROOT
ATOM      1  C   UNL     1     -24.595 -66.204  56.360  1.00  0.00     0.065 A 
ATOM      2  C   UNL     1     -23.703 -65.124  56.287  1.00  0.00     0.208 A 
ATOM      3  O   UNL     1     -22.512 -65.183  56.870  1.00  0.00    -0.463 OA
ATOM      4  C   UNL     1     -22.086 -66.245  57.550  1.00  0.00     0.147 A 
ATOM      5  C   UNL     1     -22.923 -67.378  57.676  1.00  0.00     0.066 A 
ATOM      6  C   UNL     1     -24.188 -67.353  57.062  1.00  0.00     0.200 A 
ATOM      7  O   UNL     1     -24.947 -68.360  57.125  1.00  0.00    -0.288 OA
ATOM      8  C   UNL     1     -22.477 -68.491  58.404  1.00  0.00     0.020 A 
ATOM      9  C   UNL     1     -21.226 -68.474  59.016  1.00  0.00     0.047 A 
ATOM     10  C   UNL     1     -20.392 -67.355  58.906  1.00  0.00     0.125 A 
ATOM     11  C   UNL     1     -20.803 -66.234  58.145  1.00  0.00     0.069 A 
ENDROOT
BRANCH   1  12
ATOM     12  C   UNL     1     -25.923 -66.111  55.703  1.00  0.00    -0.011 A 
ATOM     13  C   UNL     1     -27.096 -66.002  56.471  1.00  0.00     0.013 A 
ATOM     14  C   UNL     1     -28.344 -65.906  55.848  1.00  0.00     0.047 A 
ATOM     15  C   UNL     1     -28.436 -65.913  54.453  1.00  0.00     0.115 A 
ATOM     16  C   UNL     1     -26.023 -66.111  54.301  1.00  0.00     0.013 A 
ATOM     17  C   UNL     1     -27.273 -66.015  53.680  1.00  0.00     0.047 A 
BRANCH  15  18
ATOM     18  O   UNL     1     -29.686 -65.818  53.845  1.00  0.00    -0.508 OA
ATOM     19  H   UNL     1     -30.517 -66.202  54.281  1.00  0.00     0.293 HD
ENDBRANCH  15  18
ENDBRANCH   1  12
BRANCH  11  20
ATOM     20  C   UNL     1     -19.925 -64.994  58.023  1.00  0.00     0.188 C 
ATOM     21  C   UNL     1     -19.205 -64.964  56.652  1.00  0.00     0.179 C 
ATOM     22  O   UNL     1     -20.696 -63.818  58.218  1.00  0.00    -0.362 OA
ATOM     23  C   UNL     1     -18.337 -63.694  56.542  1.00  0.00     0.177 C 
ATOM     24  C   UNL     1     -19.859 -62.675  58.283  1.00  0.00     0.176 C 
ATOM     25  C   UNL     1     -19.151 -62.442  56.928  1.00  0.00     0.177 C 
BRANCH  21  26
ATOM     26  O   UNL     1     -20.139 -64.976  55.600  1.00  0.00    -0.387 OA
ATOM     27  H   UNL     1     -19.736 -64.473  54.844  1.00  0.00     0.211 HD
ENDBRANCH  21  26
BRANCH  23  28
ATOM     28  O   UNL     1     -17.219 -63.797  57.387  1.00  0.00    -0.387 OA
ATOM     29  H   UNL     1     -17.420 -63.263  58.199  1.00  0.00     0.211 HD
ENDBRANCH  23  28
BRANCH  24  30
ATOM     30  C   UNL     1     -20.706 -61.460  58.678  1.00  0.00     0.191 C 
BRANCH  30  31
ATOM     31  O   UNL     1     -20.324 -61.015  59.950  1.00  0.00    -0.394 OA
ATOM     32  H   UNL     1     -19.742 -60.224  59.801  1.00  0.00     0.210 HD
ENDBRANCH  30  31
ENDBRANCH  24  30
BRANCH  25  33
ATOM     33  O   UNL     1     -20.102 -62.159  55.933  1.00  0.00    -0.388 OA
ATOM     34  H   UNL     1     -19.598 -61.969  55.099  1.00  0.00     0.211 HD
ENDBRANCH  25  33
ENDBRANCH  11  20
BRANCH  10  35
ATOM     35  O   UNL     1     -19.159 -67.359  59.560  1.00  0.00    -0.507 OA
ATOM     36  H   UNL     1     -18.386 -67.930  59.239  1.00  0.00     0.293 HD
ENDBRANCH  10  35
TORSDOF 9
ENDMDL
MODEL 8
REMARK VINA RESULT:    -5.041      6.966      9.194
REMARK INTER + INTRA:          -7.917
REMARK INTER:                  -6.744
REMARK INTRA:                  -1.173
REMARK UNBOUND:                -1.107
REMARK SMILES O=c1c(-c2ccc(O)cc2)coc2c([C@@H]3O[C@H](CO)[C@H](O)[C@@H](O)[C@@H]3O)c(O)ccc12
REMARK SMILES IDX 3 1 11 2 12 3 13 4 30 5 2 6 1 7 29 8 28 9 26 10 14 11 4 12
REMARK SMILES IDX 5 13 6 14 7 15 10 16 9 17 8 18 15 20 24 21 16 22 22 23 17 24
REMARK SMILES IDX 20 25 25 26 23 28 18 30 19 31 21 33 27 35
REMARK H PARENT 8 19 25 27 23 29 19 32 21 34 27 36
REMARK Flexibility Score: inf
ROOT
ATOM      1  C   UNL     1     -26.932 -56.523  54.492  1.00  0.00     0.065 A 
ATOM      2  C   UNL     1     -25.725 -57.230  54.591  1.00  0.00     0.208 A 
ATOM      3  O   UNL     1     -25.704 -58.485  55.020  1.00  0.00    -0.463 OA
ATOM      4  C   UNL     1     -26.799 -59.151  55.379  1.00  0.00     0.147 A 
ATOM      5  C   UNL     1     -28.060 -58.513  55.312  1.00  0.00     0.066 A 
ATOM      6  C   UNL     1     -28.119 -57.185  54.853  1.00  0.00     0.200 A 
ATOM      7  O   UNL     1     -29.231 -56.597  54.748  1.00  0.00    -0.288 OA
ATOM      8  C   UNL     1     -29.211 -59.212  55.703  1.00  0.00     0.020 A 
ATOM      9  C   UNL     1     -29.113 -60.520  56.172  1.00  0.00     0.047 A 
ATOM     10  C   UNL     1     -27.870 -61.159  56.251  1.00  0.00     0.125 A 
ATOM     11  C   UNL     1     -26.697 -60.489  55.827  1.00  0.00     0.069 A 
ENDROOT
BRANCH   1  12
ATOM     12  C   UNL     1     -26.929 -55.117  54.014  1.00  0.00    -0.011 A 
ATOM     13  C   UNL     1     -26.791 -54.052  54.922  1.00  0.00     0.013 A 
ATOM     14  C   UNL     1     -26.779 -52.730  54.466  1.00  0.00     0.047 A 
ATOM     15  C   UNL     1     -26.900 -52.456  53.101  1.00  0.00     0.115 A 
ATOM     16  C   UNL     1     -27.042 -54.834  52.642  1.00  0.00     0.013 A 
ATOM     17  C   UNL     1     -27.030 -53.511  52.189  1.00  0.00     0.047 A 
BRANCH  15  18
ATOM     18  O   UNL     1     -26.887 -51.134  52.660  1.00  0.00    -0.508 OA
ATOM     19  H   UNL     1     -26.651 -50.371  53.284  1.00  0.00     0.293 HD
ENDBRANCH  15  18
ENDBRANCH   1  12
BRANCH  11  20
ATOM     20  C   UNL     1     -25.328 -61.152  55.919  1.00  0.00     0.188 C 
ATOM     21  C   UNL     1     -24.649 -60.824  57.271  1.00  0.00     0.179 C 
ATOM     22  O   UNL     1     -25.442 -62.555  55.735  1.00  0.00    -0.362 OA
ATOM     23  C   UNL     1     -23.274 -61.519  57.352  1.00  0.00     0.177 C 
ATOM     24  C   UNL     1     -24.160 -63.155  55.642  1.00  0.00     0.176 C 
ATOM     25  C   UNL     1     -23.394 -63.010  56.977  1.00  0.00     0.177 C 
BRANCH  21  26
ATOM     26  O   UNL     1     -25.447 -61.257  58.346  1.00  0.00    -0.387 OA
ATOM     27  H   UNL     1     -24.975 -62.021  58.771  1.00  0.00     0.211 HD
ENDBRANCH  21  26
BRANCH  23  28
ATOM     28  O   UNL     1     -22.365 -60.894  56.480  1.00  0.00    -0.387 OA
ATOM     29  H   UNL     1     -22.600 -59.930  56.459  1.00  0.00     0.211 HD
ENDBRANCH  23  28
BRANCH  24  30
ATOM     30  C   UNL     1     -24.327 -64.630  55.259  1.00  0.00     0.191 C 
BRANCH  30  31
ATOM     31  O   UNL     1     -25.512 -65.129  55.817  1.00  0.00    -0.394 OA
ATOM     32  H   UNL     1     -25.852 -64.417  56.420  1.00  0.00     0.210 HD
ENDBRANCH  30  31
ENDBRANCH  24  30
BRANCH  25  33
ATOM     33  O   UNL     1     -24.066 -63.710  57.994  1.00  0.00    -0.388 OA
ATOM     34  H   UNL     1     -23.385 -63.954  58.674  1.00  0.00     0.211 HD
ENDBRANCH  25  33
ENDBRANCH  11  20
BRANCH  10  35
ATOM     35  O   UNL     1     -27.804 -62.458  56.757  1.00  0.00    -0.507 OA
ATOM     36  H   UNL     1     -28.384 -63.204  56.391  1.00  0.00     0.293 HD
ENDBRANCH  10  35
TORSDOF 9
ENDMDL
MODEL 9
REMARK VINA RESULT:    -4.984      3.380      5.253
REMARK INTER + INTRA:          -7.839
REMARK INTER:                  -6.672
REMARK INTRA:                  -1.167
REMARK UNBOUND:                -1.107
REMARK SMILES O=c1c(-c2ccc(O)cc2)coc2c([C@@H]3O[C@H](CO)[C@H](O)[C@@H](O)[C@@H]3O)c(O)ccc12
REMARK SMILES IDX 3 1 11 2 12 3 13 4 30 5 2 6 1 7 29 8 28 9 26 10 14 11 4 12
REMARK SMILES IDX 5 13 6 14 7 15 10 16 9 17 8 18 15 20 24 21 16 22 22 23 17 24
REMARK SMILES IDX 20 25 25 26 23 28 18 30 19 31 21 33 27 35
REMARK H PARENT 8 19 25 27 23 29 19 32 21 34 27 36
REMARK Flexibility Score: inf
ROOT
ATOM      1  C   UNL     1     -27.397 -65.230  54.454  1.00  0.00     0.065 A 
ATOM      2  C   UNL     1     -26.989 -65.700  55.711  1.00  0.00     0.208 A 
ATOM      3  O   UNL     1     -25.731 -66.061  55.929  1.00  0.00    -0.463 OA
ATOM      4  C   UNL     1     -24.785 -66.007  54.994  1.00  0.00     0.147 A 
ATOM      5  C   UNL     1     -25.109 -65.547  53.696  1.00  0.00     0.066 A 
ATOM      6  C   UNL     1     -26.432 -65.147  53.433  1.00  0.00     0.200 A 
ATOM      7  O   UNL     1     -26.748 -64.698  52.297  1.00  0.00    -0.288 OA
ATOM      8  C   UNL     1     -24.114 -65.502  52.709  1.00  0.00     0.020 A 
ATOM      9  C   UNL     1     -22.819 -65.926  52.998  1.00  0.00     0.047 A 
ATOM     10  C   UNL     1     -22.488 -66.390  54.276  1.00  0.00     0.125 A 
ATOM     11  C   UNL     1     -23.465 -66.410  55.301  1.00  0.00     0.069 A 
ENDROOT
BRANCH   1  12
ATOM     12  C   UNL     1     -28.812 -64.836  54.234  1.00  0.00    -0.011 A 
ATOM     13  C   UNL     1     -29.246 -63.532  54.531  1.00  0.00     0.013 A 
ATOM     14  C   UNL     1     -30.577 -63.162  54.314  1.00  0.00     0.047 A 
ATOM     15  C   UNL     1     -31.487 -64.087  53.794  1.00  0.00     0.115 A 
ATOM     16  C   UNL     1     -29.731 -65.758  53.706  1.00  0.00     0.013 A 
ATOM     17  C   UNL     1     -31.062 -65.386  53.490  1.00  0.00     0.047 A 
BRANCH  15  18
ATOM     18  O   UNL     1     -32.811 -63.706  53.584  1.00  0.00    -0.508 OA
ATOM     19  H   UNL     1     -33.501 -64.361  53.235  1.00  0.00     0.293 HD
ENDBRANCH  15  18
ENDBRANCH   1  12
BRANCH  11  20
ATOM     20  C   UNL     1     -23.139 -66.929  56.697  1.00  0.00     0.188 C 
ATOM     21  C   UNL     1     -23.353 -68.460  56.776  1.00  0.00     0.179 C 
ATOM     22  O   UNL     1     -21.811 -66.582  57.058  1.00  0.00    -0.362 OA
ATOM     23  C   UNL     1     -23.001 -68.967  58.190  1.00  0.00     0.177 C 
ATOM     24  C   UNL     1     -21.560 -66.904  58.416  1.00  0.00     0.176 C 
ATOM     25  C   UNL     1     -21.624 -68.433  58.634  1.00  0.00     0.177 C 
BRANCH  21  26
ATOM     26  O   UNL     1     -22.547 -69.125  55.835  1.00  0.00    -0.387 OA
ATOM     27  H   UNL     1     -21.754 -68.549  55.670  1.00  0.00     0.211 HD
ENDBRANCH  21  26
BRANCH  23  28
ATOM     28  O   UNL     1     -23.978 -68.549  59.111  1.00  0.00    -0.387 OA
ATOM     29  H   UNL     1     -23.687 -67.666  59.459  1.00  0.00     0.211 HD
ENDBRANCH  23  28
BRANCH  24  30
ATOM     30  C   UNL     1     -20.189 -66.347  58.815  1.00  0.00     0.191 C 
BRANCH  30  31
ATOM     31  O   UNL     1     -19.627 -67.153  59.814  1.00  0.00    -0.394 OA
ATOM     32  H   UNL     1     -20.235 -67.085  60.596  1.00  0.00     0.210 HD
ENDBRANCH  30  31
ENDBRANCH  24  30
BRANCH  25  33
ATOM     33  O   UNL     1     -20.604 -69.064  57.901  1.00  0.00    -0.388 OA
ATOM     34  H   UNL     1     -21.033 -69.478  57.107  1.00  0.00     0.211 HD
ENDBRANCH  25  33
ENDBRANCH  11  20
BRANCH  10  35
ATOM     35  O   UNL     1     -21.189 -66.838  54.522  1.00  0.00    -0.507 OA
ATOM     36  H   UNL     1     -20.412 -66.195  54.619  1.00  0.00     0.293 HD
ENDBRANCH  10  35
TORSDOF 9
ENDMDL
