MODEL 1
REMARK VINA RESULT:    -3.621      0.000      0.000
REMARK INTER + INTRA:          -5.781
REMARK INTER:                  -5.102
REMARK INTRA:                  -0.678
REMARK UNBOUND:                -0.678
REMARK SMILES CCCCCCCCC(=O)[O-]
REMARK SMILES IDX 6 1 7 2 8 3 9 4 10 5 11 6 5 7 4 8 3 9 2 10 1 11
REMARK H PARENT
REMARK Flexibility Score: inf
ROOT
ATOM      1  C   UNL     1     -25.277 -14.550  -0.085  1.00  0.00     0.000 C 
ENDROOT
BRANCH   1   2
ATOM      2  C   UNL     1     -25.973 -15.771   0.542  1.00  0.00     0.006 C 
BRANCH   2   3
ATOM      3  C   UNL     1     -25.309 -16.204   1.856  1.00  0.00     0.053 C 
BRANCH   3   4
ATOM      4  C   UNL     1     -26.268 -16.927   2.751  1.00  0.00     0.041 C 
ATOM      5  O   UNL     1     -26.813 -16.327   3.715  1.00  0.00    -0.550 OA
ATOM      6  O   UNL     1     -26.539 -18.273   2.536  1.00  0.00    -0.550 OA
ENDBRANCH   3   4
ENDBRANCH   2   3
ENDBRANCH   1   2
BRANCH   1   7
ATOM      7  C   UNL     1     -24.274 -14.940  -1.182  1.00  0.00     0.000 C 
BRANCH   7   8
ATOM      8  C   UNL     1     -22.839 -14.500  -0.857  1.00  0.00    -0.000 C 
BRANCH   8   9
ATOM      9  C   UNL     1     -22.113 -15.569  -0.027  1.00  0.00    -0.000 C 
BRANCH   9  10
ATOM     10  C   UNL     1     -21.740 -15.073   1.379  1.00  0.00    -0.003 C 
ATOM     11  C   UNL     1     -22.095 -13.604   1.601  1.00  0.00     0.004 C 
ENDBRANCH   9  10
ENDBRANCH   8   9
ENDBRANCH   7   8
ENDBRANCH   1   7
TORSDOF 7
ENDMDL
MODEL 2
REMARK VINA RESULT:    -3.493     16.608     17.982
REMARK INTER + INTRA:          -5.601
REMARK INTER:                  -5.013
REMARK INTRA:                  -0.588
REMARK UNBOUND:                -0.678
REMARK SMILES CCCCCCCCC(=O)[O-]
REMARK SMILES IDX 6 1 7 2 8 3 9 4 10 5 11 6 5 7 4 8 3 9 2 10 1 11
REMARK H PARENT
REMARK Flexibility Score: inf
ROOT
ATOM      1  C   UNL     1     -29.588  -5.430 -14.030  1.00  0.00     0.000 C 
ENDROOT
BRANCH   1   2
ATOM      2  C   UNL     1     -30.790  -6.374 -13.862  1.00  0.00     0.006 C 
BRANCH   2   3
ATOM      3  C   UNL     1     -30.606  -7.689 -14.631  1.00  0.00     0.053 C 
BRANCH   3   4
ATOM      4  C   UNL     1     -31.874  -8.125 -15.298  1.00  0.00     0.041 C 
ATOM      5  O   UNL     1     -32.678  -7.271 -15.755  1.00  0.00    -0.550 OA
ATOM      6  O   UNL     1     -32.181  -9.478 -15.390  1.00  0.00    -0.550 OA
ENDBRANCH   3   4
ENDBRANCH   2   3
ENDBRANCH   1   2
BRANCH   1   7
ATOM      7  C   UNL     1     -28.851  -5.169 -12.707  1.00  0.00     0.000 C 
BRANCH   7   8
ATOM      8  C   UNL     1     -29.623  -5.689 -11.485  1.00  0.00    -0.000 C 
BRANCH   8   9
ATOM      9  C   UNL     1     -28.680  -6.402 -10.505  1.00  0.00    -0.000 C 
BRANCH   9  10
ATOM     10  C   UNL     1     -29.092  -7.859 -10.242  1.00  0.00    -0.003 C 
ATOM     11  C   UNL     1     -29.075  -8.716 -11.508  1.00  0.00     0.004 C 
ENDBRANCH   9  10
ENDBRANCH   8   9
ENDBRANCH   7   8
ENDBRANCH   1   7
TORSDOF 7
ENDMDL
MODEL 3
REMARK VINA RESULT:    -3.438      8.619      9.869
REMARK INTER + INTRA:          -5.523
REMARK INTER:                  -4.786
REMARK INTRA:                  -0.737
REMARK UNBOUND:                -0.678
REMARK SMILES CCCCCCCCC(=O)[O-]
REMARK SMILES IDX 6 1 7 2 8 3 9 4 10 5 11 6 5 7 4 8 3 9 2 10 1 11
REMARK H PARENT
REMARK Flexibility Score: inf
ROOT
ATOM      1  C   UNL     1     -23.218  -8.683  -7.213  1.00  0.00     0.000 C 
ENDROOT
BRANCH   1   2
ATOM      2  C   UNL     1     -24.459  -9.141  -6.426  1.00  0.00     0.006 C 
BRANCH   2   3
ATOM      3  C   UNL     1     -24.476  -8.585  -4.997  1.00  0.00     0.053 C 
BRANCH   3   4
ATOM      4  C   UNL     1     -25.500  -7.504  -4.833  1.00  0.00     0.041 C 
ATOM      5  O   UNL     1     -25.972  -7.244  -3.695  1.00  0.00    -0.550 OA
ATOM      6  O   UNL     1     -25.953  -6.803  -5.943  1.00  0.00    -0.550 OA
ENDBRANCH   3   4
ENDBRANCH   2   3
ENDBRANCH   1   2
BRANCH   1   7
ATOM      7  C   UNL     1     -22.493  -9.849  -7.905  1.00  0.00     0.000 C 
BRANCH   7   8
ATOM      8  C   UNL     1     -21.225 -10.286  -7.158  1.00  0.00    -0.000 C 
BRANCH   8   9
ATOM      9  C   UNL     1     -21.473 -11.579  -6.367  1.00  0.00    -0.000 C 
BRANCH   9  10
ATOM     10  C   UNL     1     -21.848 -11.312  -4.901  1.00  0.00    -0.003 C 
ATOM     11  C   UNL     1     -21.106 -10.114  -4.309  1.00  0.00     0.004 C 
ENDBRANCH   9  10
ENDBRANCH   8   9
ENDBRANCH   7   8
ENDBRANCH   1   7
TORSDOF 7
ENDMDL
MODEL 4
REMARK VINA RESULT:    -3.432      8.890     10.146
REMARK INTER + INTRA:          -5.515
REMARK INTER:                  -4.878
REMARK INTRA:                  -0.637
REMARK UNBOUND:                -0.678
REMARK SMILES CCCCCCCCC(=O)[O-]
REMARK SMILES IDX 6 1 7 2 8 3 9 4 10 5 11 6 5 7 4 8 3 9 2 10 1 11
REMARK H PARENT
REMARK Flexibility Score: inf
ROOT
ATOM      1  C   UNL     1     -20.881 -11.570  -5.711  1.00  0.00     0.000 C 
ENDROOT
BRANCH   1   2
ATOM      2  C   UNL     1     -21.858 -11.008  -6.757  1.00  0.00     0.006 C 
BRANCH   2   3
ATOM      3  C   UNL     1     -22.283  -9.569  -6.438  1.00  0.00     0.053 C 
BRANCH   3   4
ATOM      4  C   UNL     1     -23.679  -9.509  -5.899  1.00  0.00     0.041 C 
ATOM      5  O   UNL     1     -24.630  -9.136  -6.636  1.00  0.00    -0.550 OA
ATOM      6  O   UNL     1     -23.926  -9.837  -4.571  1.00  0.00    -0.550 OA
ENDBRANCH   3   4
ENDBRANCH   2   3
ENDBRANCH   1   2
BRANCH   1   7
ATOM      7  C   UNL     1     -19.928 -10.499  -5.155  1.00  0.00     0.000 C 
BRANCH   7   8
ATOM      8  C   UNL     1     -18.496 -11.019  -4.966  1.00  0.00    -0.000 C 
BRANCH   8   9
ATOM      9  C   UNL     1     -17.547 -10.400  -6.003  1.00  0.00    -0.000 C 
BRANCH   9  10
ATOM     10  C   UNL     1     -18.229  -9.319  -6.857  1.00  0.00    -0.003 C 
ATOM     11  C   UNL     1     -18.184  -9.631  -8.352  1.00  0.00     0.004 C 
ENDBRANCH   9  10
ENDBRANCH   8   9
ENDBRANCH   7   8
ENDBRANCH   1   7
TORSDOF 7
ENDMDL
MODEL 5
REMARK VINA RESULT:    -3.425      8.649     10.069
REMARK INTER + INTRA:          -5.504
REMARK INTER:                  -4.874
REMARK INTRA:                  -0.631
REMARK UNBOUND:                -0.678
REMARK SMILES CCCCCCCCC(=O)[O-]
REMARK SMILES IDX 6 1 7 2 8 3 9 4 10 5 11 6 5 7 4 8 3 9 2 10 1 11
REMARK H PARENT
REMARK Flexibility Score: inf
ROOT
ATOM      1  C   UNL     1     -23.134  -9.209  -4.479  1.00  0.00     0.000 C 
ENDROOT
BRANCH   1   2
ATOM      2  C   UNL     1     -24.472  -9.158  -5.236  1.00  0.00     0.006 C 
BRANCH   2   3
ATOM      3  C   UNL     1     -24.747  -7.772  -5.833  1.00  0.00     0.053 C 
BRANCH   3   4
ATOM      4  C   UNL     1     -25.832  -7.053  -5.093  1.00  0.00     0.041 C 
ATOM      5  O   UNL     1     -26.048  -7.306  -3.878  1.00  0.00    -0.550 OA
ATOM      6  O   UNL     1     -26.625  -6.122  -5.753  1.00  0.00    -0.550 OA
ENDBRANCH   3   4
ENDBRANCH   2   3
ENDBRANCH   1   2
BRANCH   1   7
ATOM      7  C   UNL     1     -22.617 -10.644  -4.287  1.00  0.00     0.000 C 
BRANCH   7   8
ATOM      8  C   UNL     1     -21.302 -10.906  -5.036  1.00  0.00    -0.000 C 
BRANCH   8   9
ATOM      9  C   UNL     1     -21.574 -11.366  -6.476  1.00  0.00    -0.000 C 
BRANCH   9  10
ATOM     10  C   UNL     1     -21.164 -10.315  -7.519  1.00  0.00    -0.003 C 
ATOM     11  C   UNL     1     -22.360  -9.728  -8.268  1.00  0.00     0.004 C 
ENDBRANCH   9  10
ENDBRANCH   8   9
ENDBRANCH   7   8
ENDBRANCH   1   7
TORSDOF 7
ENDMDL
MODEL 6
REMARK VINA RESULT:    -3.418     16.047     17.591
REMARK INTER + INTRA:          -5.496
REMARK INTER:                  -4.652
REMARK INTRA:                  -0.844
REMARK UNBOUND:                -0.678
REMARK SMILES CCCCCCCCC(=O)[O-]
REMARK SMILES IDX 6 1 7 2 8 3 9 4 10 5 11 6 5 7 4 8 3 9 2 10 1 11
REMARK H PARENT
REMARK Flexibility Score: inf
ROOT
ATOM      1  C   UNL     1     -27.885  -4.612 -12.831  1.00  0.00     0.000 C 
ENDROOT
BRANCH   1   2
ATOM      2  C   UNL     1     -26.631  -5.119 -13.563  1.00  0.00     0.006 C 
BRANCH   2   3
ATOM      3  C   UNL     1     -26.212  -6.519 -13.094  1.00  0.00     0.053 C 
BRANCH   3   4
ATOM      4  C   UNL     1     -26.219  -7.508 -14.219  1.00  0.00     0.041 C 
ATOM      5  O   UNL     1     -25.140  -8.015 -14.625  1.00  0.00    -0.550 OA
ATOM      6  O   UNL     1     -27.415  -7.847 -14.839  1.00  0.00    -0.550 OA
ENDBRANCH   3   4
ENDBRANCH   2   3
ENDBRANCH   1   2
BRANCH   1   7
ATOM      7  C   UNL     1     -29.188  -5.109 -13.476  1.00  0.00     0.000 C 
BRANCH   7   8
ATOM      8  C   UNL     1     -30.005  -6.015 -12.543  1.00  0.00    -0.000 C 
BRANCH   8   9
ATOM      9  C   UNL     1     -29.443  -5.979 -11.115  1.00  0.00    -0.000 C 
BRANCH   9  10
ATOM     10  C   UNL     1     -29.123  -7.379 -10.570  1.00  0.00    -0.003 C 
ATOM     11  C   UNL     1     -29.109  -8.449 -11.660  1.00  0.00     0.004 C 
ENDBRANCH   9  10
ENDBRANCH   8   9
ENDBRANCH   7   8
ENDBRANCH   1   7
TORSDOF 7
ENDMDL
MODEL 7
REMARK VINA RESULT:    -3.402      2.282      4.126
REMARK INTER + INTRA:          -5.473
REMARK INTER:                  -4.811
REMARK INTRA:                  -0.662
REMARK UNBOUND:                -0.678
REMARK SMILES CCCCCCCCC(=O)[O-]
REMARK SMILES IDX 6 1 7 2 8 3 9 4 10 5 11 6 5 7 4 8 3 9 2 10 1 11
REMARK H PARENT
REMARK Flexibility Score: inf
ROOT
ATOM      1  C   UNL     1     -22.673 -14.843  -0.687  1.00  0.00     0.000 C 
ENDROOT
BRANCH   1   2
ATOM      2  C   UNL     1     -22.316 -15.734   0.515  1.00  0.00     0.006 C 
BRANCH   2   3
ATOM      3  C   UNL     1     -21.534 -14.968   1.590  1.00  0.00     0.053 C 
BRANCH   3   4
ATOM      4  C   UNL     1     -22.374 -13.915   2.245  1.00  0.00     0.041 C 
ATOM      5  O   UNL     1     -22.273 -12.711   1.890  1.00  0.00    -0.550 OA
ATOM      6  O   UNL     1     -23.249 -14.260   3.267  1.00  0.00    -0.550 OA
ENDBRANCH   3   4
ENDBRANCH   2   3
ENDBRANCH   1   2
BRANCH   1   7
ATOM      7  C   UNL     1     -24.152 -14.960  -1.090  1.00  0.00     0.000 C 
BRANCH   7   8
ATOM      8  C   UNL     1     -25.109 -14.573   0.047  1.00  0.00    -0.000 C 
BRANCH   8   9
ATOM      9  C   UNL     1     -25.972 -15.772   0.467  1.00  0.00    -0.000 C 
BRANCH   9  10
ATOM     10  C   UNL     1     -25.860 -16.084   1.968  1.00  0.00    -0.003 C 
ATOM     11  C   UNL     1     -24.969 -17.291   2.256  1.00  0.00     0.004 C 
ENDBRANCH   9  10
ENDBRANCH   8   9
ENDBRANCH   7   8
ENDBRANCH   1   7
TORSDOF 7
ENDMDL
MODEL 8
REMARK VINA RESULT:    -3.323     11.740     12.706
REMARK INTER + INTRA:          -5.362
REMARK INTER:                  -4.750
REMARK INTRA:                  -0.611
REMARK UNBOUND:                -0.678
REMARK SMILES CCCCCCCCC(=O)[O-]
REMARK SMILES IDX 6 1 7 2 8 3 9 4 10 5 11 6 5 7 4 8 3 9 2 10 1 11
REMARK H PARENT
REMARK Flexibility Score: inf
ROOT
ATOM      1  C   UNL     1     -26.004  -4.879  -6.098  1.00  0.00     0.000 C 
ENDROOT
BRANCH   1   2
ATOM      2  C   UNL     1     -26.794  -5.405  -4.888  1.00  0.00     0.006 C 
BRANCH   2   3
ATOM      3  C   UNL     1     -25.892  -5.658  -3.673  1.00  0.00     0.053 C 
BRANCH   3   4
ATOM      4  C   UNL     1     -25.556  -7.110  -3.522  1.00  0.00     0.041 C 
ATOM      5  O   UNL     1     -25.582  -7.875  -4.522  1.00  0.00    -0.550 OA
ATOM      6  O   UNL     1     -25.242  -7.624  -2.270  1.00  0.00    -0.550 OA
ENDBRANCH   3   4
ENDBRANCH   2   3
ENDBRANCH   1   2
BRANCH   1   7
ATOM      7  C   UNL     1     -25.428  -3.473  -5.863  1.00  0.00     0.000 C 
BRANCH   7   8
ATOM      8  C   UNL     1     -26.506  -2.445  -5.489  1.00  0.00    -0.000 C 
BRANCH   8   9
ATOM      9  C   UNL     1     -25.891  -1.260  -4.730  1.00  0.00    -0.000 C 
BRANCH   9  10
ATOM     10  C   UNL     1     -25.006  -1.706  -3.555  1.00  0.00    -0.003 C 
ATOM     11  C   UNL     1     -25.817  -2.131  -2.332  1.00  0.00     0.004 C 
ENDBRANCH   9  10
ENDBRANCH   8   9
ENDBRANCH   7   8
ENDBRANCH   1   7
TORSDOF 7
ENDMDL
MODEL 9
REMARK VINA RESULT:    -3.321      9.921     11.259
REMARK INTER + INTRA:          -5.358
REMARK INTER:                  -4.693
REMARK INTRA:                  -0.665
REMARK UNBOUND:                -0.678
REMARK SMILES CCCCCCCCC(=O)[O-]
REMARK SMILES IDX 6 1 7 2 8 3 9 4 10 5 11 6 5 7 4 8 3 9 2 10 1 11
REMARK H PARENT
REMARK Flexibility Score: inf
ROOT
ATOM      1  C   UNL     1     -24.355  -7.871  -4.275  1.00  0.00     0.000 C 
ENDROOT
BRANCH   1   2
ATOM      2  C   UNL     1     -24.513  -9.237  -4.965  1.00  0.00     0.006 C 
BRANCH   2   3
ATOM      3  C   UNL     1     -24.307  -9.147  -6.483  1.00  0.00     0.053 C 
BRANCH   3   4
ATOM      4  C   UNL     1     -23.118  -9.941  -6.930  1.00  0.00     0.041 C 
ATOM      5  O   UNL     1     -22.595 -10.789  -6.160  1.00  0.00    -0.550 OA
ATOM      6  O   UNL     1     -22.571  -9.724  -8.189  1.00  0.00    -0.550 OA
ENDBRANCH   3   4
ENDBRANCH   2   3
ENDBRANCH   1   2
BRANCH   1   7
ATOM      7  C   UNL     1     -25.698  -7.280  -3.817  1.00  0.00     0.000 C 
BRANCH   7   8
ATOM      8  C   UNL     1     -25.884  -5.820  -4.255  1.00  0.00    -0.000 C 
BRANCH   8   9
ATOM      9  C   UNL     1     -27.002  -5.701  -5.301  1.00  0.00    -0.000 C 
BRANCH   9  10
ATOM     10  C   UNL     1     -26.538  -6.106  -6.710  1.00  0.00    -0.003 C 
ATOM     11  C   UNL     1     -25.214  -5.455  -7.106  1.00  0.00     0.004 C 
ENDBRANCH   9  10
ENDBRANCH   8   9
ENDBRANCH   7   8
ENDBRANCH   1   7
TORSDOF 7
ENDMDL
