MODEL 1
REMARK VINA RESULT:    -3.817      0.000      0.000
REMARK INTER + INTRA:         -11.448
REMARK INTER:                  -8.727
REMARK INTRA:                  -2.721
REMARK UNBOUND:                -2.721
REMARK SMILES CCCCCCCCCCCCCCCCCCCCCCCC(=O)[O-]
REMARK SMILES IDX 13 1 14 2 15 3 16 4 17 5 18 6 19 7 20 8 21 9 22 10 23 11
REMARK SMILES IDX 24 12 25 13 26 14 12 15 11 16 10 17 9 18 8 19 7 20 6 21 5 22
REMARK SMILES IDX 4 23 3 24 2 25 1 26
REMARK H PARENT
REMARK Flexibility Score: inf
ROOT
ATOM      1  C   UNL     1      61.754  29.575  61.508  1.00  0.00     0.000 C 
ENDROOT
BRANCH   1   2
ATOM      2  C   UNL     1      63.240  29.917  61.269  1.00  0.00     0.000 C 
BRANCH   2   3
ATOM      3  C   UNL     1      63.869  29.264  60.025  1.00  0.00     0.000 C 
BRANCH   3   4
ATOM      4  C   UNL     1      65.387  29.494  59.937  1.00  0.00     0.000 C 
BRANCH   4   5
ATOM      5  C   UNL     1      66.200  28.485  60.772  1.00  0.00     0.000 C 
BRANCH   5   6
ATOM      6  C   UNL     1      67.666  28.298  60.340  1.00  0.00     0.000 C 
BRANCH   6   7
ATOM      7  C   UNL     1      68.633  28.174  61.530  1.00  0.00     0.000 C 
BRANCH   7   8
ATOM      8  C   UNL     1      69.773  29.204  61.467  1.00  0.00     0.000 C 
BRANCH   8   9
ATOM      9  C   UNL     1      71.003  28.673  60.710  1.00  0.00     0.000 C 
BRANCH   9  10
ATOM     10  C   UNL     1      71.755  29.786  59.961  1.00  0.00     0.006 C 
BRANCH  10  11
ATOM     11  C   UNL     1      71.825  31.090  60.767  1.00  0.00     0.053 C 
BRANCH  11  12
ATOM     12  C   UNL     1      71.304  32.234  59.956  1.00  0.00     0.041 C 
ATOM     13  O   UNL     1      70.798  32.028  58.821  1.00  0.00    -0.550 OA
ATOM     14  O   UNL     1      71.331  33.523  60.475  1.00  0.00    -0.550 OA
ENDBRANCH  11  12
ENDBRANCH  10  11
ENDBRANCH   9  10
ENDBRANCH   8   9
ENDBRANCH   7   8
ENDBRANCH   6   7
ENDBRANCH   5   6
ENDBRANCH   4   5
ENDBRANCH   3   4
ENDBRANCH   2   3
ENDBRANCH   1   2
BRANCH   1  15
ATOM     15  C   UNL     1      60.813  30.790  61.617  1.00  0.00     0.000 C 
BRANCH  15  16
ATOM     16  C   UNL     1      61.109  31.935  60.625  1.00  0.00     0.000 C 
BRANCH  16  17
ATOM     17  C   UNL     1      60.933  31.568  59.139  1.00  0.00     0.000 C 
BRANCH  17  18
ATOM     18  C   UNL     1      60.462  32.724  58.238  1.00  0.00    -0.000 C 
BRANCH  18  19
ATOM     19  C   UNL     1      61.600  33.667  57.794  1.00  0.00    -0.000 C 
BRANCH  19  20
ATOM     20  C   UNL     1      62.934  32.930  57.600  1.00  0.00    -0.000 C 
BRANCH  20  21
ATOM     21  C   UNL     1      64.083  33.685  58.279  1.00  0.00    -0.000 C 
BRANCH  21  22
ATOM     22  C   UNL     1      64.448  33.038  59.624  1.00  0.00    -0.000 C 
BRANCH  22  23
ATOM     23  C   UNL     1      64.119  33.952  60.818  1.00  0.00    -0.000 C 
BRANCH  23  24
ATOM     24  C   UNL     1      63.638  35.359  60.397  1.00  0.00    -0.000 C 
BRANCH  24  25
ATOM     25  C   UNL     1      62.453  35.877  61.229  1.00  0.00    -0.003 C 
ATOM     26  C   UNL     1      61.230  36.211  60.377  1.00  0.00     0.004 C 
ENDBRANCH  24  25
ENDBRANCH  23  24
ENDBRANCH  22  23
ENDBRANCH  21  22
ENDBRANCH  20  21
ENDBRANCH  19  20
ENDBRANCH  18  19
ENDBRANCH  17  18
ENDBRANCH  16  17
ENDBRANCH  15  16
ENDBRANCH   1  15
TORSDOF 22
ENDMDL
MODEL 2
REMARK VINA RESULT:    -3.802     13.515     16.061
REMARK INTER + INTRA:         -11.412
REMARK INTER:                  -9.822
REMARK INTRA:                  -1.590
REMARK UNBOUND:                -2.721
REMARK SMILES CCCCCCCCCCCCCCCCCCCCCCCC(=O)[O-]
REMARK SMILES IDX 13 1 14 2 15 3 16 4 17 5 18 6 19 7 20 8 21 9 22 10 23 11
REMARK SMILES IDX 24 12 25 13 26 14 12 15 11 16 10 17 9 18 8 19 7 20 6 21 5 22
REMARK SMILES IDX 4 23 3 24 2 25 1 26
REMARK H PARENT
REMARK Flexibility Score: inf
ROOT
ATOM      1  C   UNL     1      60.665  22.819  50.496  1.00  0.00     0.000 C 
ENDROOT
BRANCH   1   2
ATOM      2  C   UNL     1      60.961  21.643  49.543  1.00  0.00     0.000 C 
BRANCH   2   3
ATOM      3  C   UNL     1      60.197  20.342  49.852  1.00  0.00     0.000 C 
BRANCH   3   4
ATOM      4  C   UNL     1      61.061  19.307  50.592  1.00  0.00     0.000 C 
BRANCH   4   5
ATOM      5  C   UNL     1      60.604  17.856  50.349  1.00  0.00     0.000 C 
BRANCH   5   6
ATOM      6  C   UNL     1      59.346  17.695  49.475  1.00  0.00     0.000 C 
BRANCH   6   7
ATOM      7  C   UNL     1      58.124  17.194  50.265  1.00  0.00     0.000 C 
BRANCH   7   8
ATOM      8  C   UNL     1      57.141  18.327  50.602  1.00  0.00     0.000 C 
BRANCH   8   9
ATOM      9  C   UNL     1      57.348  18.880  52.024  1.00  0.00     0.000 C 
BRANCH   9  10
ATOM     10  C   UNL     1      56.063  18.822  52.867  1.00  0.00     0.006 C 
BRANCH  10  11
ATOM     11  C   UNL     1      54.857  19.429  52.139  1.00  0.00     0.053 C 
BRANCH  11  12
ATOM     12  C   UNL     1      53.927  20.073  53.117  1.00  0.00     0.041 C 
ATOM     13  O   UNL     1      53.119  19.371  53.781  1.00  0.00    -0.550 OA
ATOM     14  O   UNL     1      53.985  21.445  53.330  1.00  0.00    -0.550 OA
ENDBRANCH  11  12
ENDBRANCH  10  11
ENDBRANCH   9  10
ENDBRANCH   8   9
ENDBRANCH   7   8
ENDBRANCH   6   7
ENDBRANCH   5   6
ENDBRANCH   4   5
ENDBRANCH   3   4
ENDBRANCH   2   3
ENDBRANCH   1   2
BRANCH   1  15
ATOM     15  C   UNL     1      61.771  23.889  50.576  1.00  0.00     0.000 C 
BRANCH  15  16
ATOM     16  C   UNL     1      61.307  25.269  51.087  1.00  0.00     0.000 C 
BRANCH  16  17
ATOM     17  C   UNL     1      62.222  26.447  50.699  1.00  0.00     0.000 C 
BRANCH  17  18
ATOM     18  C   UNL     1      61.530  27.570  49.904  1.00  0.00    -0.000 C 
BRANCH  18  19
ATOM     19  C   UNL     1      60.019  27.340  49.693  1.00  0.00    -0.000 C 
BRANCH  19  20
ATOM     20  C   UNL     1      59.221  28.652  49.673  1.00  0.00    -0.000 C 
BRANCH  20  21
ATOM     21  C   UNL     1      59.083  29.233  51.086  1.00  0.00    -0.000 C 
BRANCH  21  22
ATOM     22  C   UNL     1      57.699  28.921  51.678  1.00  0.00    -0.000 C 
BRANCH  22  23
ATOM     23  C   UNL     1      56.700  28.457  50.604  1.00  0.00    -0.000 C 
BRANCH  23  24
ATOM     24  C   UNL     1      55.572  27.561  51.164  1.00  0.00    -0.000 C 
BRANCH  24  25
ATOM     25  C   UNL     1      55.664  26.097  50.702  1.00  0.00    -0.003 C 
ATOM     26  C   UNL     1      54.654  25.756  49.608  1.00  0.00     0.004 C 
ENDBRANCH  24  25
ENDBRANCH  23  24
ENDBRANCH  22  23
ENDBRANCH  21  22
ENDBRANCH  20  21
ENDBRANCH  19  20
ENDBRANCH  18  19
ENDBRANCH  17  18
ENDBRANCH  16  17
ENDBRANCH  15  16
ENDBRANCH   1  15
TORSDOF 22
ENDMDL
MODEL 3
REMARK VINA RESULT:    -3.787     12.892     15.366
REMARK INTER + INTRA:         -11.378
REMARK INTER:                  -9.146
REMARK INTRA:                  -2.232
REMARK UNBOUND:                -2.721
REMARK SMILES CCCCCCCCCCCCCCCCCCCCCCCC(=O)[O-]
REMARK SMILES IDX 13 1 14 2 15 3 16 4 17 5 18 6 19 7 20 8 21 9 22 10 23 11
REMARK SMILES IDX 24 12 25 13 26 14 12 15 11 16 10 17 9 18 8 19 7 20 6 21 5 22
REMARK SMILES IDX 4 23 3 24 2 25 1 26
REMARK H PARENT
REMARK Flexibility Score: inf
ROOT
ATOM      1  C   UNL     1      60.974  25.329  52.450  1.00  0.00     0.000 C 
ENDROOT
BRANCH   1   2
ATOM      2  C   UNL     1      61.979  24.282  51.926  1.00  0.00     0.000 C 
BRANCH   2   3
ATOM      3  C   UNL     1      61.362  22.938  51.500  1.00  0.00     0.000 C 
BRANCH   3   4
ATOM      4  C   UNL     1      61.235  22.799  49.974  1.00  0.00     0.000 C 
BRANCH   4   5
ATOM      5  C   UNL     1      61.088  21.337  49.511  1.00  0.00     0.000 C 
BRANCH   5   6
ATOM      6  C   UNL     1      60.386  20.395  50.507  1.00  0.00     0.000 C 
BRANCH   6   7
ATOM      7  C   UNL     1      61.031  18.999  50.572  1.00  0.00     0.000 C 
BRANCH   7   8
ATOM      8  C   UNL     1      60.091  17.898  50.053  1.00  0.00     0.000 C 
BRANCH   8   9
ATOM      9  C   UNL     1      58.653  18.406  49.838  1.00  0.00     0.000 C 
BRANCH   9  10
ATOM     10  C   UNL     1      57.665  17.815  50.857  1.00  0.00     0.006 C 
BRANCH  10  11
ATOM     11  C   UNL     1      56.395  18.663  51.000  1.00  0.00     0.053 C 
BRANCH  11  12
ATOM     12  C   UNL     1      56.236  19.131  52.412  1.00  0.00     0.041 C 
ATOM     13  O   UNL     1      55.387  18.590  53.168  1.00  0.00    -0.550 OA
ATOM     14  O   UNL     1      57.061  20.135  52.907  1.00  0.00    -0.550 OA
ENDBRANCH  11  12
ENDBRANCH  10  11
ENDBRANCH   9  10
ENDBRANCH   8   9
ENDBRANCH   7   8
ENDBRANCH   6   7
ENDBRANCH   5   6
ENDBRANCH   4   5
ENDBRANCH   3   4
ENDBRANCH   2   3
ENDBRANCH   1   2
BRANCH   1  15
ATOM     15  C   UNL     1      59.493  25.005  52.180  1.00  0.00     0.000 C 
BRANCH  15  16
ATOM     16  C   UNL     1      58.846  25.815  51.037  1.00  0.00     0.000 C 
BRANCH  16  17
ATOM     17  C   UNL     1      59.823  26.297  49.948  1.00  0.00     0.000 C 
BRANCH  17  18
ATOM     18  C   UNL     1      60.043  27.821  49.903  1.00  0.00    -0.000 C 
BRANCH  18  19
ATOM     19  C   UNL     1      58.733  28.634  49.834  1.00  0.00    -0.000 C 
BRANCH  19  20
ATOM     20  C   UNL     1      58.496  29.475  51.097  1.00  0.00    -0.000 C 
BRANCH  20  21
ATOM     21  C   UNL     1      57.250  28.995  51.852  1.00  0.00    -0.000 C 
BRANCH  21  22
ATOM     22  C   UNL     1      56.051  28.850  50.901  1.00  0.00    -0.000 C 
BRANCH  22  23
ATOM     23  C   UNL     1      55.245  27.567  51.173  1.00  0.00    -0.000 C 
BRANCH  23  24
ATOM     24  C   UNL     1      55.433  26.484  50.087  1.00  0.00    -0.000 C 
BRANCH  24  25
ATOM     25  C   UNL     1      54.295  25.452  50.046  1.00  0.00    -0.003 C 
ATOM     26  C   UNL     1      53.094  25.924  49.228  1.00  0.00     0.004 C 
ENDBRANCH  24  25
ENDBRANCH  23  24
ENDBRANCH  22  23
ENDBRANCH  21  22
ENDBRANCH  20  21
ENDBRANCH  19  20
ENDBRANCH  18  19
ENDBRANCH  17  18
ENDBRANCH  16  17
ENDBRANCH  15  16
ENDBRANCH   1  15
TORSDOF 22
ENDMDL
MODEL 4
REMARK VINA RESULT:    -3.710     12.644     15.053
REMARK INTER + INTRA:         -11.204
REMARK INTER:                  -8.753
REMARK INTRA:                  -2.451
REMARK UNBOUND:                -2.721
REMARK SMILES CCCCCCCCCCCCCCCCCCCCCCCC(=O)[O-]
REMARK SMILES IDX 13 1 14 2 15 3 16 4 17 5 18 6 19 7 20 8 21 9 22 10 23 11
REMARK SMILES IDX 24 12 25 13 26 14 12 15 11 16 10 17 9 18 8 19 7 20 6 21 5 22
REMARK SMILES IDX 4 23 3 24 2 25 1 26
REMARK H PARENT
REMARK Flexibility Score: inf
ROOT
ATOM      1  C   UNL     1      59.827  22.994  52.214  1.00  0.00     0.000 C 
ENDROOT
BRANCH   1   2
ATOM      2  C   UNL     1      59.182  21.798  52.945  1.00  0.00     0.000 C 
BRANCH   2   3
ATOM      3  C   UNL     1      57.891  22.122  53.718  1.00  0.00     0.000 C 
BRANCH   3   4
ATOM      4  C   UNL     1      57.036  20.875  53.997  1.00  0.00     0.000 C 
BRANCH   4   5
ATOM      5  C   UNL     1      57.874  19.591  54.150  1.00  0.00     0.000 C 
BRANCH   5   6
ATOM      6  C   UNL     1      57.448  18.412  53.256  1.00  0.00     0.000 C 
BRANCH   6   7
ATOM      7  C   UNL     1      56.309  18.773  52.286  1.00  0.00     0.000 C 
BRANCH   7   8
ATOM      8  C   UNL     1      56.707  18.566  50.815  1.00  0.00     0.000 C 
BRANCH   8   9
ATOM      9  C   UNL     1      57.795  17.490  50.647  1.00  0.00     0.000 C 
BRANCH   9  10
ATOM     10  C   UNL     1      58.970  17.976  49.782  1.00  0.00     0.006 C 
BRANCH  10  11
ATOM     11  C   UNL     1      59.315  19.448  50.037  1.00  0.00     0.053 C 
BRANCH  11  12
ATOM     12  C   UNL     1      60.780  19.603  50.298  1.00  0.00     0.041 C 
ATOM     13  O   UNL     1      61.374  20.664  49.970  1.00  0.00    -0.550 OA
ATOM     14  O   UNL     1      61.480  18.595  50.950  1.00  0.00    -0.550 OA
ENDBRANCH  11  12
ENDBRANCH  10  11
ENDBRANCH   9  10
ENDBRANCH   8   9
ENDBRANCH   7   8
ENDBRANCH   6   7
ENDBRANCH   5   6
ENDBRANCH   4   5
ENDBRANCH   3   4
ENDBRANCH   2   3
ENDBRANCH   1   2
BRANCH   1  15
ATOM     15  C   UNL     1      58.984  24.283  52.200  1.00  0.00     0.000 C 
BRANCH  15  16
ATOM     16  C   UNL     1      59.173  25.173  50.953  1.00  0.00     0.000 C 
BRANCH  16  17
ATOM     17  C   UNL     1      60.639  25.451  50.570  1.00  0.00     0.000 C 
BRANCH  17  18
ATOM     18  C   UNL     1      60.964  26.928  50.282  1.00  0.00    -0.000 C 
BRANCH  18  19
ATOM     19  C   UNL     1      59.812  27.694  49.597  1.00  0.00    -0.000 C 
BRANCH  19  20
ATOM     20  C   UNL     1      59.573  29.077  50.219  1.00  0.00    -0.000 C 
BRANCH  20  21
ATOM     21  C   UNL     1      58.479  29.015  51.293  1.00  0.00    -0.000 C 
BRANCH  21  22
ATOM     22  C   UNL     1      57.106  28.733  50.664  1.00  0.00    -0.000 C 
BRANCH  22  23
ATOM     23  C   UNL     1      56.361  27.593  51.381  1.00  0.00    -0.000 C 
BRANCH  23  24
ATOM     24  C   UNL     1      55.791  26.531  50.414  1.00  0.00    -0.000 C 
BRANCH  24  25
ATOM     25  C   UNL     1      54.330  26.787  50.012  1.00  0.00    -0.003 C 
ATOM     26  C   UNL     1      53.775  28.089  50.587  1.00  0.00     0.004 C 
ENDBRANCH  24  25
ENDBRANCH  23  24
ENDBRANCH  22  23
ENDBRANCH  21  22
ENDBRANCH  20  21
ENDBRANCH  19  20
ENDBRANCH  18  19
ENDBRANCH  17  18
ENDBRANCH  16  17
ENDBRANCH  15  16
ENDBRANCH   1  15
TORSDOF 22
ENDMDL
MODEL 5
REMARK VINA RESULT:    -3.681      2.654      5.949
REMARK INTER + INTRA:         -11.135
REMARK INTER:                  -6.877
REMARK INTRA:                  -4.259
REMARK UNBOUND:                -2.721
REMARK SMILES CCCCCCCCCCCCCCCCCCCCCCCC(=O)[O-]
REMARK SMILES IDX 13 1 14 2 15 3 16 4 17 5 18 6 19 7 20 8 21 9 22 10 23 11
REMARK SMILES IDX 24 12 25 13 26 14 12 15 11 16 10 17 9 18 8 19 7 20 6 21 5 22
REMARK SMILES IDX 4 23 3 24 2 25 1 26
REMARK H PARENT
REMARK Flexibility Score: inf
ROOT
ATOM      1  C   UNL     1      64.828  34.575  58.442  1.00  0.00     0.000 C 
ENDROOT
BRANCH   1   2
ATOM      2  C   UNL     1      64.706  33.172  59.073  1.00  0.00     0.000 C 
BRANCH   2   3
ATOM      3  C   UNL     1      63.280  32.593  59.112  1.00  0.00     0.000 C 
BRANCH   3   4
ATOM      4  C   UNL     1      62.738  32.445  60.543  1.00  0.00     0.000 C 
BRANCH   4   5
ATOM      5  C   UNL     1      61.209  32.260  60.593  1.00  0.00     0.000 C 
BRANCH   5   6
ATOM      6  C   UNL     1      60.713  31.088  61.459  1.00  0.00     0.000 C 
BRANCH   6   7
ATOM      7  C   UNL     1      60.840  29.724  60.757  1.00  0.00     0.000 C 
BRANCH   7   8
ATOM      8  C   UNL     1      62.043  28.915  61.267  1.00  0.00     0.000 C 
BRANCH   8   9
ATOM      9  C   UNL     1      63.151  28.778  60.206  1.00  0.00     0.000 C 
BRANCH   9  10
ATOM     10  C   UNL     1      64.557  28.741  60.830  1.00  0.00     0.006 C 
BRANCH  10  11
ATOM     11  C   UNL     1      65.570  29.580  60.041  1.00  0.00     0.053 C 
BRANCH  11  12
ATOM     12  C   UNL     1      66.935  28.977  60.137  1.00  0.00     0.041 C 
ATOM     13  O   UNL     1      67.140  27.988  60.889  1.00  0.00    -0.550 OA
ATOM     14  O   UNL     1      67.972  29.477  59.358  1.00  0.00    -0.550 OA
ENDBRANCH  11  12
ENDBRANCH  10  11
ENDBRANCH   9  10
ENDBRANCH   8   9
ENDBRANCH   7   8
ENDBRANCH   6   7
ENDBRANCH   5   6
ENDBRANCH   4   5
ENDBRANCH   3   4
ENDBRANCH   2   3
ENDBRANCH   1   2
BRANCH   1  15
ATOM     15  C   UNL     1      65.131  35.714  59.434  1.00  0.00     0.000 C 
BRANCH  15  16
ATOM     16  C   UNL     1      65.227  35.282  60.912  1.00  0.00     0.000 C 
BRANCH  16  17
ATOM     17  C   UNL     1      64.010  35.657  61.780  1.00  0.00     0.000 C 
BRANCH  17  18
ATOM     18  C   UNL     1      63.019  36.633  61.119  1.00  0.00    -0.000 C 
BRANCH  18  19
ATOM     19  C   UNL     1      61.702  35.966  60.668  1.00  0.00    -0.000 C 
BRANCH  19  20
ATOM     20  C   UNL     1      61.269  36.409  59.262  1.00  0.00    -0.000 C 
BRANCH  20  21
ATOM     21  C   UNL     1      60.975  35.196  58.370  1.00  0.00    -0.000 C 
BRANCH  21  22
ATOM     22  C   UNL     1      59.476  35.102  58.046  1.00  0.00    -0.000 C 
BRANCH  22  23
ATOM     23  C   UNL     1      59.081  33.709  57.525  1.00  0.00    -0.000 C 
BRANCH  23  24
ATOM     24  C   UNL     1      60.236  32.971  56.812  1.00  0.00    -0.000 C 
BRANCH  24  25
ATOM     25  C   UNL     1      60.348  31.487  57.196  1.00  0.00    -0.003 C 
ATOM     26  C   UNL     1      59.040  30.914  57.740  1.00  0.00     0.004 C 
ENDBRANCH  24  25
ENDBRANCH  23  24
ENDBRANCH  22  23
ENDBRANCH  21  22
ENDBRANCH  20  21
ENDBRANCH  19  20
ENDBRANCH  18  19
ENDBRANCH  17  18
ENDBRANCH  16  17
ENDBRANCH  15  16
ENDBRANCH   1  15
TORSDOF 22
ENDMDL
MODEL 6
REMARK VINA RESULT:    -3.665      9.772     12.743
REMARK INTER + INTRA:         -11.101
REMARK INTER:                  -6.509
REMARK INTRA:                  -4.592
REMARK UNBOUND:                -2.721
REMARK SMILES CCCCCCCCCCCCCCCCCCCCCCCC(=O)[O-]
REMARK SMILES IDX 13 1 14 2 15 3 16 4 17 5 18 6 19 7 20 8 21 9 22 10 23 11
REMARK SMILES IDX 24 12 25 13 26 14 12 15 11 16 10 17 9 18 8 19 7 20 6 21 5 22
REMARK SMILES IDX 4 23 3 24 2 25 1 26
REMARK H PARENT
REMARK Flexibility Score: inf
ROOT
ATOM      1  C   UNL     1      54.649  29.302  52.154  1.00  0.00     0.000 C 
ENDROOT
BRANCH   1   2
ATOM      2  C   UNL     1      55.842  29.923  52.910  1.00  0.00     0.000 C 
BRANCH   2   3
ATOM      3  C   UNL     1      57.149  29.112  52.849  1.00  0.00     0.000 C 
BRANCH   3   4
ATOM      4  C   UNL     1      58.393  30.001  52.690  1.00  0.00     0.000 C 
BRANCH   4   5
ATOM      5  C   UNL     1      59.297  29.572  51.519  1.00  0.00     0.000 C 
BRANCH   5   6
ATOM      6  C   UNL     1      58.609  28.733  50.426  1.00  0.00     0.000 C 
BRANCH   6   7
ATOM      7  C   UNL     1      59.608  28.009  49.505  1.00  0.00     0.000 C 
BRANCH   7   8
ATOM      8  C   UNL     1      60.089  26.675  50.098  1.00  0.00     0.000 C 
BRANCH   8   9
ATOM      9  C   UNL     1      61.594  26.685  50.422  1.00  0.00     0.000 C 
BRANCH   9  10
ATOM     10  C   UNL     1      62.129  25.283  50.759  1.00  0.00     0.006 C 
BRANCH  10  11
ATOM     11  C   UNL     1      61.111  24.178  50.451  1.00  0.00     0.053 C 
BRANCH  11  12
ATOM     12  C   UNL     1      61.072  23.179  51.564  1.00  0.00     0.041 C 
ATOM     13  O   UNL     1      62.012  23.124  52.400  1.00  0.00    -0.550 OA
ATOM     14  O   UNL     1      59.972  22.342  51.707  1.00  0.00    -0.550 OA
ENDBRANCH  11  12
ENDBRANCH  10  11
ENDBRANCH   9  10
ENDBRANCH   8   9
ENDBRANCH   7   8
ENDBRANCH   6   7
ENDBRANCH   5   6
ENDBRANCH   4   5
ENDBRANCH   3   4
ENDBRANCH   2   3
ENDBRANCH   1   2
BRANCH   1  15
ATOM     15  C   UNL     1      54.971  28.782  50.740  1.00  0.00     0.000 C 
BRANCH  15  16
ATOM     16  C   UNL     1      54.262  27.467  50.351  1.00  0.00     0.000 C 
BRANCH  16  17
ATOM     17  C   UNL     1      55.201  26.319  49.939  1.00  0.00     0.000 C 
BRANCH  17  18
ATOM     18  C   UNL     1      56.263  25.941  50.988  1.00  0.00    -0.000 C 
BRANCH  18  19
ATOM     19  C   UNL     1      55.677  25.665  52.390  1.00  0.00    -0.000 C 
BRANCH  19  20
ATOM     20  C   UNL     1      56.716  25.076  53.355  1.00  0.00    -0.000 C 
BRANCH  20  21
ATOM     21  C   UNL     1      58.127  25.152  52.758  1.00  0.00    -0.000 C 
BRANCH  21  22
ATOM     22  C   UNL     1      59.184  25.319  53.862  1.00  0.00    -0.000 C 
BRANCH  22  23
ATOM     23  C   UNL     1      59.605  26.787  54.046  1.00  0.00    -0.000 C 
BRANCH  23  24
ATOM     24  C   UNL     1      61.119  27.020  53.842  1.00  0.00    -0.000 C 
BRANCH  24  25
ATOM     25  C   UNL     1      61.596  28.406  54.306  1.00  0.00    -0.003 C 
ATOM     26  C   UNL     1      62.536  29.076  53.306  1.00  0.00     0.004 C 
ENDBRANCH  24  25
ENDBRANCH  23  24
ENDBRANCH  22  23
ENDBRANCH  21  22
ENDBRANCH  20  21
ENDBRANCH  19  20
ENDBRANCH  18  19
ENDBRANCH  17  18
ENDBRANCH  16  17
ENDBRANCH  15  16
ENDBRANCH   1  15
TORSDOF 22
ENDMDL
MODEL 7
REMARK VINA RESULT:    -3.660     11.958     14.155
REMARK INTER + INTRA:         -11.088
REMARK INTER:                  -7.992
REMARK INTRA:                  -3.096
REMARK UNBOUND:                -2.721
REMARK SMILES CCCCCCCCCCCCCCCCCCCCCCCC(=O)[O-]
REMARK SMILES IDX 13 1 14 2 15 3 16 4 17 5 18 6 19 7 20 8 21 9 22 10 23 11
REMARK SMILES IDX 24 12 25 13 26 14 12 15 11 16 10 17 9 18 8 19 7 20 6 21 5 22
REMARK SMILES IDX 4 23 3 24 2 25 1 26
REMARK H PARENT
REMARK Flexibility Score: inf
ROOT
ATOM      1  C   UNL     1      58.764  29.150  50.703  1.00  0.00     0.000 C 
ENDROOT
BRANCH   1   2
ATOM      2  C   UNL     1      59.558  28.468  49.570  1.00  0.00     0.000 C 
BRANCH   2   3
ATOM      3  C   UNL     1      60.610  27.443  50.033  1.00  0.00     0.000 C 
BRANCH   3   4
ATOM      4  C   UNL     1      60.785  27.421  51.560  1.00  0.00     0.000 C 
BRANCH   4   5
ATOM      5  C   UNL     1      60.266  26.124  52.209  1.00  0.00     0.000 C 
BRANCH   5   6
ATOM      6  C   UNL     1      59.822  25.025  51.227  1.00  0.00     0.000 C 
BRANCH   6   7
ATOM      7  C   UNL     1      60.496  23.668  51.498  1.00  0.00     0.000 C 
BRANCH   7   8
ATOM      8  C   UNL     1      61.525  23.301  50.416  1.00  0.00     0.000 C 
BRANCH   8   9
ATOM      9  C   UNL     1      61.919  21.813  50.460  1.00  0.00     0.000 C 
BRANCH   9  10
ATOM     10  C   UNL     1      61.010  20.940  49.579  1.00  0.00     0.006 C 
BRANCH  10  11
ATOM     11  C   UNL     1      60.031  20.095  50.404  1.00  0.00     0.053 C 
BRANCH  11  12
ATOM     12  C   UNL     1      60.384  18.645  50.309  1.00  0.00     0.041 C 
ATOM     13  O   UNL     1      59.688  17.867  49.605  1.00  0.00    -0.550 OA
ATOM     14  O   UNL     1      61.513  18.161  50.960  1.00  0.00    -0.550 OA
ENDBRANCH  11  12
ENDBRANCH  10  11
ENDBRANCH   9  10
ENDBRANCH   8   9
ENDBRANCH   7   8
ENDBRANCH   6   7
ENDBRANCH   5   6
ENDBRANCH   4   5
ENDBRANCH   3   4
ENDBRANCH   2   3
ENDBRANCH   1   2
BRANCH   1  15
ATOM     15  C   UNL     1      57.258  28.826  50.732  1.00  0.00     0.000 C 
BRANCH  15  16
ATOM     16  C   UNL     1      56.896  27.465  51.363  1.00  0.00     0.000 C 
BRANCH  16  17
ATOM     17  C   UNL     1      56.580  26.344  50.355  1.00  0.00     0.000 C 
BRANCH  17  18
ATOM     18  C   UNL     1      55.083  26.138  50.062  1.00  0.00    -0.000 C 
BRANCH  18  19
ATOM     19  C   UNL     1      54.206  26.079  51.332  1.00  0.00    -0.000 C 
BRANCH  19  20
ATOM     20  C   UNL     1      53.023  27.057  51.275  1.00  0.00    -0.000 C 
BRANCH  20  21
ATOM     21  C   UNL     1      53.213  28.085  50.152  1.00  0.00    -0.000 C 
BRANCH  21  22
ATOM     22  C   UNL     1      53.696  29.431  50.714  1.00  0.00    -0.000 C 
BRANCH  22  23
ATOM     23  C   UNL     1      53.474  29.541  52.232  1.00  0.00    -0.000 C 
BRANCH  23  24
ATOM     24  C   UNL     1      54.623  30.266  52.968  1.00  0.00    -0.000 C 
BRANCH  24  25
ATOM     25  C   UNL     1      55.306  29.403  54.043  1.00  0.00    -0.003 C 
ATOM     26  C   UNL     1      54.404  29.129  55.245  1.00  0.00     0.004 C 
ENDBRANCH  24  25
ENDBRANCH  23  24
ENDBRANCH  22  23
ENDBRANCH  21  22
ENDBRANCH  20  21
ENDBRANCH  19  20
ENDBRANCH  18  19
ENDBRANCH  17  18
ENDBRANCH  16  17
ENDBRANCH  15  16
ENDBRANCH   1  15
TORSDOF 22
ENDMDL
MODEL 8
REMARK VINA RESULT:    -3.636      9.768     12.483
REMARK INTER + INTRA:         -11.033
REMARK INTER:                  -7.106
REMARK INTRA:                  -3.928
REMARK UNBOUND:                -2.721
REMARK SMILES CCCCCCCCCCCCCCCCCCCCCCCC(=O)[O-]
REMARK SMILES IDX 13 1 14 2 15 3 16 4 17 5 18 6 19 7 20 8 21 9 22 10 23 11
REMARK SMILES IDX 24 12 25 13 26 14 12 15 11 16 10 17 9 18 8 19 7 20 6 21 5 22
REMARK SMILES IDX 4 23 3 24 2 25 1 26
REMARK H PARENT
REMARK Flexibility Score: inf
ROOT
ATOM      1  C   UNL     1      57.318  29.309  51.822  1.00  0.00     0.000 C 
ENDROOT
BRANCH   1   2
ATOM      2  C   UNL     1      57.841  29.146  50.380  1.00  0.00     0.000 C 
BRANCH   2   3
ATOM      3  C   UNL     1      59.372  29.049  50.246  1.00  0.00     0.000 C 
BRANCH   3   4
ATOM      4  C   UNL     1      59.834  27.696  49.679  1.00  0.00     0.000 C 
BRANCH   4   5
ATOM      5  C   UNL     1      61.100  27.153  50.369  1.00  0.00     0.000 C 
BRANCH   5   6
ATOM      6  C   UNL     1      62.436  27.592  49.741  1.00  0.00     0.000 C 
BRANCH   6   7
ATOM      7  C   UNL     1      63.227  28.568  50.630  1.00  0.00     0.000 C 
BRANCH   7   8
ATOM      8  C   UNL     1      62.587  28.743  52.018  1.00  0.00     0.000 C 
BRANCH   8   9
ATOM      9  C   UNL     1      62.283  30.217  52.342  1.00  0.00     0.000 C 
BRANCH   9  10
ATOM     10  C   UNL     1      62.147  31.079  51.076  1.00  0.00     0.006 C 
BRANCH  10  11
ATOM     11  C   UNL     1      62.969  32.371  51.156  1.00  0.00     0.053 C 
BRANCH  11  12
ATOM     12  C   UNL     1      63.715  32.596  49.879  1.00  0.00     0.041 C 
ATOM     13  O   UNL     1      64.313  31.640  49.317  1.00  0.00    -0.550 OA
ATOM     14  O   UNL     1      63.709  33.851  49.282  1.00  0.00    -0.550 OA
ENDBRANCH  11  12
ENDBRANCH  10  11
ENDBRANCH   9  10
ENDBRANCH   8   9
ENDBRANCH   7   8
ENDBRANCH   6   7
ENDBRANCH   5   6
ENDBRANCH   4   5
ENDBRANCH   3   4
ENDBRANCH   2   3
ENDBRANCH   1   2
BRANCH   1  15
ATOM     15  C   UNL     1      55.787  29.232  51.975  1.00  0.00     0.000 C 
BRANCH  15  16
ATOM     16  C   UNL     1      54.988  29.521  50.687  1.00  0.00     0.000 C 
BRANCH  16  17
ATOM     17  C   UNL     1      53.487  29.184  50.763  1.00  0.00     0.000 C 
BRANCH  17  18
ATOM     18  C   UNL     1      53.098  27.822  50.160  1.00  0.00    -0.000 C 
BRANCH  18  19
ATOM     19  C   UNL     1      52.974  26.693  51.206  1.00  0.00    -0.000 C 
BRANCH  19  20
ATOM     20  C   UNL     1      54.079  25.635  51.063  1.00  0.00    -0.000 C 
BRANCH  20  21
ATOM     21  C   UNL     1      54.961  25.924  49.842  1.00  0.00    -0.000 C 
BRANCH  21  22
ATOM     22  C   UNL     1      56.449  25.932  50.227  1.00  0.00    -0.000 C 
BRANCH  22  23
ATOM     23  C   UNL     1      56.658  25.756  51.741  1.00  0.00    -0.000 C 
BRANCH  23  24
ATOM     24  C   UNL     1      58.139  25.553  52.135  1.00  0.00    -0.000 C 
BRANCH  24  25
ATOM     25  C   UNL     1      58.456  25.985  53.576  1.00  0.00    -0.003 C 
ATOM     26  C   UNL     1      59.531  27.067  53.649  1.00  0.00     0.004 C 
ENDBRANCH  24  25
ENDBRANCH  23  24
ENDBRANCH  22  23
ENDBRANCH  21  22
ENDBRANCH  20  21
ENDBRANCH  19  20
ENDBRANCH  18  19
ENDBRANCH  17  18
ENDBRANCH  16  17
ENDBRANCH  15  16
ENDBRANCH   1  15
TORSDOF 22
ENDMDL
MODEL 9
REMARK VINA RESULT:    -3.602      9.656     13.380
REMARK INTER + INTRA:         -10.956
REMARK INTER:                  -6.563
REMARK INTRA:                  -4.392
REMARK UNBOUND:                -2.721
REMARK SMILES CCCCCCCCCCCCCCCCCCCCCCCC(=O)[O-]
REMARK SMILES IDX 13 1 14 2 15 3 16 4 17 5 18 6 19 7 20 8 21 9 22 10 23 11
REMARK SMILES IDX 24 12 25 13 26 14 12 15 11 16 10 17 9 18 8 19 7 20 6 21 5 22
REMARK SMILES IDX 4 23 3 24 2 25 1 26
REMARK H PARENT
REMARK Flexibility Score: inf
ROOT
ATOM      1  C   UNL     1      55.017  26.455  51.654  1.00  0.00     0.000 C 
ENDROOT
BRANCH   1   2
ATOM      2  C   UNL     1      54.585  27.112  50.326  1.00  0.00     0.000 C 
BRANCH   2   3
ATOM      3  C   UNL     1      53.622  28.304  50.469  1.00  0.00     0.000 C 
BRANCH   3   4
ATOM      4  C   UNL     1      54.354  29.630  50.735  1.00  0.00     0.000 C 
BRANCH   4   5
ATOM      5  C   UNL     1      53.787  30.401  51.942  1.00  0.00     0.000 C 
BRANCH   5   6
ATOM      6  C   UNL     1      53.810  29.643  53.282  1.00  0.00     0.000 C 
BRANCH   6   7
ATOM      7  C   UNL     1      54.841  30.208  54.276  1.00  0.00     0.000 C 
BRANCH   7   8
ATOM      8  C   UNL     1      55.364  31.591  53.852  1.00  0.00     0.000 C 
BRANCH   8   9
ATOM      9  C   UNL     1      56.859  31.776  54.169  1.00  0.00     0.000 C 
BRANCH   9  10
ATOM     10  C   UNL     1      57.131  31.851  55.680  1.00  0.00     0.006 C 
BRANCH  10  11
ATOM     11  C   UNL     1      56.314  32.952  56.369  1.00  0.00     0.053 C 
BRANCH  11  12
ATOM     12  C   UNL     1      55.586  32.399  57.552  1.00  0.00     0.041 C 
ATOM     13  O   UNL     1      55.702  31.183  57.857  1.00  0.00    -0.550 OA
ATOM     14  O   UNL     1      54.815  33.239  58.348  1.00  0.00    -0.550 OA
ENDBRANCH  11  12
ENDBRANCH  10  11
ENDBRANCH   9  10
ENDBRANCH   8   9
ENDBRANCH   7   8
ENDBRANCH   6   7
ENDBRANCH   5   6
ENDBRANCH   4   5
ENDBRANCH   3   4
ENDBRANCH   2   3
ENDBRANCH   1   2
BRANCH   1  15
ATOM     15  C   UNL     1      56.529  26.507  51.945  1.00  0.00     0.000 C 
BRANCH  15  16
ATOM     16  C   UNL     1      56.988  27.706  52.802  1.00  0.00     0.000 C 
BRANCH  16  17
ATOM     17  C   UNL     1      57.644  28.855  52.013  1.00  0.00     0.000 C 
BRANCH  17  18
ATOM     18  C   UNL     1      57.878  28.565  50.519  1.00  0.00    -0.000 C 
BRANCH  18  19
ATOM     19  C   UNL     1      59.200  29.147  49.974  1.00  0.00    -0.000 C 
BRANCH  19  20
ATOM     20  C   UNL     1      60.148  28.060  49.446  1.00  0.00    -0.000 C 
BRANCH  20  21
ATOM     21  C   UNL     1      59.672  26.664  49.867  1.00  0.00    -0.000 C 
BRANCH  21  22
ATOM     22  C   UNL     1      60.709  25.976  50.767  1.00  0.00    -0.000 C 
BRANCH  22  23
ATOM     23  C   UNL     1      60.126  25.591  52.138  1.00  0.00    -0.000 C 
BRANCH  23  24
ATOM     24  C   UNL     1      60.458  26.609  53.252  1.00  0.00    -0.000 C 
BRANCH  24  25
ATOM     25  C   UNL     1      61.526  27.638  52.846  1.00  0.00    -0.003 C 
ATOM     26  C   UNL     1      61.135  29.071  53.200  1.00  0.00     0.004 C 
ENDBRANCH  24  25
ENDBRANCH  23  24
ENDBRANCH  22  23
ENDBRANCH  21  22
ENDBRANCH  20  21
ENDBRANCH  19  20
ENDBRANCH  18  19
ENDBRANCH  17  18
ENDBRANCH  16  17
ENDBRANCH  15  16
ENDBRANCH   1  15
TORSDOF 22
ENDMDL
