MODEL 1
REMARK VINA RESULT:    -6.461      0.000      0.000
REMARK INTER + INTRA:          -7.818
REMARK INTER:                  -7.784
REMARK INTRA:                  -0.035
REMARK UNBOUND:                -0.035
REMARK SMILES O=c1c(O)c(-c2ccc(O)c(O)c2)oc2cc(O)cc(O)c12
REMARK SMILES IDX 5 1 3 2 2 3 1 4 22 5 20 6 19 7 17 8 16 9 15 10 14 11 6 12
REMARK SMILES IDX 7 13 8 14 9 15 13 16 11 17 10 18 12 20 4 22 21 24 18 26
REMARK H PARENT 10 19 12 21 4 23 21 25 18 27
REMARK Flexibility Score: inf
ROOT
ATOM      1  C   UNL     1      69.499  48.226   8.047  1.00  0.00     0.180 A 
ATOM      2  C   UNL     1      69.774  48.335   6.673  1.00  0.00     0.208 A 
ATOM      3  C   UNL     1      71.102  48.206   6.232  1.00  0.00     0.238 A 
ATOM      4  O   UNL     1      71.336  48.250   4.997  1.00  0.00    -0.285 OA
ATOM      5  C   UNL     1      72.138  47.987   7.172  1.00  0.00     0.111 A 
ATOM      6  C   UNL     1      73.522  47.881   6.842  1.00  0.00     0.134 A 
ATOM      7  C   UNL     1      74.445  47.533   7.836  1.00  0.00     0.093 A 
ATOM      8  C   UNL     1      74.044  47.352   9.159  1.00  0.00     0.123 A 
ATOM      9  C   UNL     1      72.701  47.510   9.504  1.00  0.00     0.094 A 
ATOM     10  C   UNL     1      71.752  47.822   8.527  1.00  0.00     0.146 A 
ATOM     11  O   UNL     1      70.483  47.954   8.896  1.00  0.00    -0.452 OA
ENDROOT
BRANCH   1  12
ATOM     12  C   UNL     1      68.130  48.375   8.590  1.00  0.00     0.025 A 
ATOM     13  C   UNL     1      67.876  49.351   9.566  1.00  0.00     0.016 A 
ATOM     14  C   UNL     1      66.587  49.523  10.077  1.00  0.00     0.051 A 
ATOM     15  C   UNL     1      65.529  48.733   9.608  1.00  0.00     0.157 A 
ATOM     16  C   UNL     1      67.061  47.598   8.106  1.00  0.00     0.062 A 
ATOM     17  C   UNL     1      65.768  47.770   8.613  1.00  0.00     0.158 A 
BRANCH  15  18
ATOM     18  O   UNL     1      64.244  48.906  10.120  1.00  0.00    -0.504 OA
ATOM     19  H   UNL     1      63.714  49.753   9.950  1.00  0.00     0.293 HD
ENDBRANCH  15  18
BRANCH  17  20
ATOM     20  O   UNL     1      64.734  46.978   8.114  1.00  0.00    -0.504 OA
ATOM     21  H   UNL     1      63.912  46.757   8.664  1.00  0.00     0.293 HD
ENDBRANCH  17  20
ENDBRANCH   1  12
BRANCH   2  22
ATOM     22  O   UNL     1      68.734  48.530   5.761  1.00  0.00    -0.502 OA
ATOM     23  H   UNL     1      68.847  48.375   4.766  1.00  0.00     0.293 HD
ENDBRANCH   2  22
BRANCH   6  24
ATOM     24  O   UNL     1      74.043  48.132   5.569  1.00  0.00    -0.507 OA
ATOM     25  H   UNL     1      73.568  47.924   4.703  1.00  0.00     0.293 HD
ENDBRANCH   6  24
BRANCH   8  26
ATOM     26  O   UNL     1      74.992  47.021  10.125  1.00  0.00    -0.508 OA
ATOM     27  H   UNL     1      74.874  47.286  11.096  1.00  0.00     0.293 HD
ENDBRANCH   8  26
TORSDOF 6
ENDMDL
MODEL 2
REMARK VINA RESULT:    -6.191      1.664      1.682
REMARK INTER + INTRA:          -7.492
REMARK INTER:                  -7.184
REMARK INTRA:                  -0.309
REMARK UNBOUND:                -0.035
REMARK SMILES O=c1c(O)c(-c2ccc(O)c(O)c2)oc2cc(O)cc(O)c12
REMARK SMILES IDX 5 1 3 2 2 3 1 4 22 5 20 6 19 7 17 8 16 9 15 10 14 11 6 12
REMARK SMILES IDX 7 13 8 14 9 15 13 16 11 17 10 18 12 20 4 22 21 24 18 26
REMARK H PARENT 10 19 12 21 4 23 21 25 18 27
REMARK Flexibility Score: inf
ROOT
ATOM      1  C   UNL     1      69.623  47.752   7.119  1.00  0.00     0.180 A 
ATOM      2  C   UNL     1      70.000  48.477   5.976  1.00  0.00     0.208 A 
ATOM      3  C   UNL     1      71.240  48.205   5.374  1.00  0.00     0.238 A 
ATOM      4  O   UNL     1      71.548  48.818   4.320  1.00  0.00    -0.285 OA
ATOM      5  C   UNL     1      72.094  47.224   5.934  1.00  0.00     0.111 A 
ATOM      6  C   UNL     1      73.388  46.894   5.431  1.00  0.00     0.134 A 
ATOM      7  C   UNL     1      74.091  45.816   5.984  1.00  0.00     0.093 A 
ATOM      8  C   UNL     1      73.575  45.099   7.063  1.00  0.00     0.123 A 
ATOM      9  C   UNL     1      72.336  45.450   7.600  1.00  0.00     0.094 A 
ATOM     10  C   UNL     1      71.596  46.497   7.046  1.00  0.00     0.146 A 
ATOM     11  O   UNL     1      70.417  46.792   7.581  1.00  0.00    -0.452 OA
ENDROOT
BRANCH   1  12
ATOM     12  C   UNL     1      68.344  47.999   7.822  1.00  0.00     0.025 A 
ATOM     13  C   UNL     1      68.315  48.884   8.912  1.00  0.00     0.016 A 
ATOM     14  C   UNL     1      67.115  49.149   9.577  1.00  0.00     0.051 A 
ATOM     15  C   UNL     1      65.923  48.546   9.153  1.00  0.00     0.157 A 
ATOM     16  C   UNL     1      67.143  47.412   7.386  1.00  0.00     0.062 A 
ATOM     17  C   UNL     1      65.938  47.677   8.049  1.00  0.00     0.158 A 
BRANCH  15  18
ATOM     18  O   UNL     1      64.728  48.810   9.819  1.00  0.00    -0.504 OA
ATOM     19  H   UNL     1      64.679  49.483  10.575  1.00  0.00     0.293 HD
ENDBRANCH  15  18
BRANCH  17  20
ATOM     20  O   UNL     1      64.768  47.071   7.593  1.00  0.00    -0.504 OA
ATOM     21  H   UNL     1      64.032  46.778   8.225  1.00  0.00     0.293 HD
ENDBRANCH  17  20
ENDBRANCH   1  12
BRANCH   2  22
ATOM     22  O   UNL     1      69.133  49.425   5.427  1.00  0.00    -0.502 OA
ATOM     23  H   UNL     1      69.389  50.400   5.321  1.00  0.00     0.293 HD
ENDBRANCH   2  22
BRANCH   6  24
ATOM     24  O   UNL     1      74.036  47.605   4.417  1.00  0.00    -0.507 OA
ATOM     25  H   UNL     1      73.702  47.686   3.468  1.00  0.00     0.293 HD
ENDBRANCH   6  24
BRANCH   8  26
ATOM     26  O   UNL     1      74.308  44.042   7.598  1.00  0.00    -0.508 OA
ATOM     27  H   UNL     1      75.293  44.137   7.818  1.00  0.00     0.293 HD
ENDBRANCH   8  26
TORSDOF 6
ENDMDL
MODEL 3
REMARK VINA RESULT:    -5.963      1.984      7.129
REMARK INTER + INTRA:          -7.218
REMARK INTER:                  -6.927
REMARK INTRA:                  -0.291
REMARK UNBOUND:                -0.035
REMARK SMILES O=c1c(O)c(-c2ccc(O)c(O)c2)oc2cc(O)cc(O)c12
REMARK SMILES IDX 5 1 3 2 2 3 1 4 22 5 20 6 19 7 17 8 16 9 15 10 14 11 6 12
REMARK SMILES IDX 7 13 8 14 9 15 13 16 11 17 10 18 12 20 4 22 21 24 18 26
REMARK H PARENT 10 19 12 21 4 23 21 25 18 27
REMARK Flexibility Score: inf
ROOT
ATOM      1  C   UNL     1      70.753  47.782   7.150  1.00  0.00     0.180 A 
ATOM      2  C   UNL     1      70.941  48.756   8.145  1.00  0.00     0.208 A 
ATOM      3  C   UNL     1      69.820  49.255   8.830  1.00  0.00     0.238 A 
ATOM      4  O   UNL     1      69.999  50.086   9.757  1.00  0.00    -0.285 OA
ATOM      5  C   UNL     1      68.526  48.785   8.499  1.00  0.00     0.111 A 
ATOM      6  C   UNL     1      67.317  49.250   9.100  1.00  0.00     0.134 A 
ATOM      7  C   UNL     1      66.105  48.622   8.788  1.00  0.00     0.093 A 
ATOM      8  C   UNL     1      66.049  47.592   7.850  1.00  0.00     0.123 A 
ATOM      9  C   UNL     1      67.216  47.169   7.213  1.00  0.00     0.094 A 
ATOM     10  C   UNL     1      68.445  47.752   7.530  1.00  0.00     0.146 A 
ATOM     11  O   UNL     1      69.533  47.314   6.908  1.00  0.00    -0.452 OA
ENDROOT
BRANCH   1  12
ATOM     12  C   UNL     1      71.882  47.227   6.369  1.00  0.00     0.025 A 
ATOM     13  C   UNL     1      72.165  47.750   5.097  1.00  0.00     0.016 A 
ATOM     14  C   UNL     1      73.238  47.256   4.351  1.00  0.00     0.051 A 
ATOM     15  C   UNL     1      74.054  46.243   4.872  1.00  0.00     0.157 A 
ATOM     16  C   UNL     1      72.715  46.225   6.897  1.00  0.00     0.062 A 
ATOM     17  C   UNL     1      73.793  45.729   6.153  1.00  0.00     0.158 A 
BRANCH  15  18
ATOM     18  O   UNL     1      75.123  45.751   4.125  1.00  0.00    -0.504 OA
ATOM     19  H   UNL     1      76.079  46.024   4.322  1.00  0.00     0.293 HD
ENDBRANCH  15  18
BRANCH  17  20
ATOM     20  O   UNL     1      74.595  44.731   6.707  1.00  0.00    -0.504 OA
ATOM     21  H   UNL     1      75.604  44.737   6.612  1.00  0.00     0.293 HD
ENDBRANCH  17  20
ENDBRANCH   1  12
BRANCH   2  22
ATOM     22  O   UNL     1      72.229  49.189   8.472  1.00  0.00    -0.502 OA
ATOM     23  H   UNL     1      72.881  49.527   7.774  1.00  0.00     0.293 HD
ENDBRANCH   2  22
BRANCH   6  24
ATOM     24  O   UNL     1      67.250  50.333   9.981  1.00  0.00    -0.507 OA
ATOM     25  H   UNL     1      66.671  50.367  10.807  1.00  0.00     0.293 HD
ENDBRANCH   6  24
BRANCH   8  26
ATOM     26  O   UNL     1      64.823  47.000   7.553  1.00  0.00    -0.508 OA
ATOM     27  H   UNL     1      64.725  46.336   6.793  1.00  0.00     0.293 HD
ENDBRANCH   8  26
TORSDOF 6
ENDMDL
MODEL 4
REMARK VINA RESULT:    -5.890      2.209      7.121
REMARK INTER + INTRA:          -7.129
REMARK INTER:                  -6.992
REMARK INTRA:                  -0.137
REMARK UNBOUND:                -0.035
REMARK SMILES O=c1c(O)c(-c2ccc(O)c(O)c2)oc2cc(O)cc(O)c12
REMARK SMILES IDX 5 1 3 2 2 3 1 4 22 5 20 6 19 7 17 8 16 9 15 10 14 11 6 12
REMARK SMILES IDX 7 13 8 14 9 15 13 16 11 17 10 18 12 20 4 22 21 24 18 26
REMARK H PARENT 10 19 12 21 4 23 21 25 18 27
REMARK Flexibility Score: inf
ROOT
ATOM      1  C   UNL     1      68.354  47.834   8.923  1.00  0.00     0.180 A 
ATOM      2  C   UNL     1      67.356  48.633   9.508  1.00  0.00     0.208 A 
ATOM      3  C   UNL     1      66.034  48.158   9.539  1.00  0.00     0.238 A 
ATOM      4  O   UNL     1      65.156  48.853  10.112  1.00  0.00    -0.285 OA
ATOM      5  C   UNL     1      65.725  46.900   8.969  1.00  0.00     0.111 A 
ATOM      6  C   UNL     1      64.414  46.338   8.909  1.00  0.00     0.134 A 
ATOM      7  C   UNL     1      64.244  45.029   8.441  1.00  0.00     0.093 A 
ATOM      8  C   UNL     1      65.327  44.287   7.971  1.00  0.00     0.123 A 
ATOM      9  C   UNL     1      66.604  44.847   7.971  1.00  0.00     0.094 A 
ATOM     10  C   UNL     1      66.811  46.138   8.466  1.00  0.00     0.146 A 
ATOM     11  O   UNL     1      68.044  46.630   8.457  1.00  0.00    -0.452 OA
ENDROOT
BRANCH   1  12
ATOM     12  C   UNL     1      69.763  48.277   8.831  1.00  0.00     0.025 A 
ATOM     13  C   UNL     1      70.079  49.429   8.094  1.00  0.00     0.016 A 
ATOM     14  C   UNL     1      71.400  49.878   8.011  1.00  0.00     0.051 A 
ATOM     15  C   UNL     1      72.423  49.190   8.677  1.00  0.00     0.157 A 
ATOM     16  C   UNL     1      70.790  47.602   9.516  1.00  0.00     0.062 A 
ATOM     17  C   UNL     1      72.114  48.049   9.438  1.00  0.00     0.158 A 
BRANCH  15  18
ATOM     18  O   UNL     1      73.740  49.638   8.592  1.00  0.00    -0.504 OA
ATOM     19  H   UNL     1      74.524  49.009   8.717  1.00  0.00     0.293 HD
ENDBRANCH  15  18
BRANCH  17  20
ATOM     20  O   UNL     1      73.106  47.351  10.125  1.00  0.00    -0.504 OA
ATOM     21  H   UNL     1      73.966  47.056   9.675  1.00  0.00     0.293 HD
ENDBRANCH  17  20
ENDBRANCH   1  12
BRANCH   2  22
ATOM     22  O   UNL     1      67.688  49.862  10.084  1.00  0.00    -0.502 OA
ATOM     23  H   UNL     1      67.521  50.745   9.615  1.00  0.00     0.293 HD
ENDBRANCH   2  22
BRANCH   6  24
ATOM     24  O   UNL     1      63.252  47.028   9.267  1.00  0.00    -0.507 OA
ATOM     25  H   UNL     1      62.457  46.612   9.728  1.00  0.00     0.293 HD
ENDBRANCH   6  24
BRANCH   8  26
ATOM     26  O   UNL     1      65.119  42.993   7.499  1.00  0.00    -0.508 OA
ATOM     27  H   UNL     1      64.817  42.245   8.114  1.00  0.00     0.293 HD
ENDBRANCH   8  26
TORSDOF 6
ENDMDL
MODEL 5
REMARK VINA RESULT:    -5.816      2.014      2.652
REMARK INTER + INTRA:          -7.040
REMARK INTER:                  -6.740
REMARK INTRA:                  -0.300
REMARK UNBOUND:                -0.035
REMARK SMILES O=c1c(O)c(-c2ccc(O)c(O)c2)oc2cc(O)cc(O)c12
REMARK SMILES IDX 5 1 3 2 2 3 1 4 22 5 20 6 19 7 17 8 16 9 15 10 14 11 6 12
REMARK SMILES IDX 7 13 8 14 9 15 13 16 11 17 10 18 12 20 4 22 21 24 18 26
REMARK H PARENT 10 19 12 21 4 23 21 25 18 27
REMARK Flexibility Score: inf
ROOT
ATOM      1  C   UNL     1      69.953  47.219   8.619  1.00  0.00     0.180 A 
ATOM      2  C   UNL     1      70.739  48.317   9.007  1.00  0.00     0.208 A 
ATOM      3  C   UNL     1      72.136  48.229   8.889  1.00  0.00     0.238 A 
ATOM      4  O   UNL     1      72.832  49.234   9.186  1.00  0.00    -0.285 OA
ATOM      5  C   UNL     1      72.729  47.039   8.402  1.00  0.00     0.111 A 
ATOM      6  C   UNL     1      74.135  46.826   8.279  1.00  0.00     0.134 A 
ATOM      7  C   UNL     1      74.605  45.660   7.662  1.00  0.00     0.093 A 
ATOM      8  C   UNL     1      73.724  44.672   7.223  1.00  0.00     0.123 A 
ATOM      9  C   UNL     1      72.349  44.844   7.392  1.00  0.00     0.094 A 
ATOM     10  C   UNL     1      71.849  46.013   7.971  1.00  0.00     0.146 A 
ATOM     11  O   UNL     1      70.534  46.142   8.104  1.00  0.00    -0.452 OA
ENDROOT
BRANCH   1  12
ATOM     12  C   UNL     1      68.477  47.227   8.737  1.00  0.00     0.025 A 
ATOM     13  C   UNL     1      67.882  46.972   9.982  1.00  0.00     0.016 A 
ATOM     14  C   UNL     1      66.491  46.995  10.121  1.00  0.00     0.051 A 
ATOM     15  C   UNL     1      65.676  47.290   9.021  1.00  0.00     0.157 A 
ATOM     16  C   UNL     1      67.656  47.543   7.639  1.00  0.00     0.062 A 
ATOM     17  C   UNL     1      66.263  47.570   7.775  1.00  0.00     0.158 A 
BRANCH  15  18
ATOM     18  O   UNL     1      64.289  47.311   9.162  1.00  0.00    -0.504 OA
ATOM     19  H   UNL     1      63.698  47.821   8.516  1.00  0.00     0.293 HD
ENDBRANCH  15  18
BRANCH  17  20
ATOM     20  O   UNL     1      65.480  47.882   6.664  1.00  0.00    -0.504 OA
ATOM     21  H   UNL     1      64.608  47.404   6.469  1.00  0.00     0.293 HD
ENDBRANCH  17  20
ENDBRANCH   1  12
BRANCH   2  22
ATOM     22  O   UNL     1      70.132  49.490   9.465  1.00  0.00    -0.502 OA
ATOM     23  H   UNL     1      69.163  49.713   9.269  1.00  0.00     0.293 HD
ENDBRANCH   2  22
BRANCH   6  24
ATOM     24  O   UNL     1      75.104  47.707   8.766  1.00  0.00    -0.507 OA
ATOM     25  H   UNL     1      75.186  47.995   9.730  1.00  0.00     0.293 HD
ENDBRANCH   6  24
BRANCH   8  26
ATOM     26  O   UNL     1      74.227  43.518   6.627  1.00  0.00    -0.508 OA
ATOM     27  H   UNL     1      75.224  43.337   6.581  1.00  0.00     0.293 HD
ENDBRANCH   8  26
TORSDOF 6
ENDMDL
MODEL 6
REMARK VINA RESULT:    -5.799      2.420      3.138
REMARK INTER + INTRA:          -7.020
REMARK INTER:                  -6.734
REMARK INTRA:                  -0.286
REMARK UNBOUND:                -0.035
REMARK SMILES O=c1c(O)c(-c2ccc(O)c(O)c2)oc2cc(O)cc(O)c12
REMARK SMILES IDX 5 1 3 2 2 3 1 4 22 5 20 6 19 7 17 8 16 9 15 10 14 11 6 12
REMARK SMILES IDX 7 13 8 14 9 15 13 16 11 17 10 18 12 20 4 22 21 24 18 26
REMARK H PARENT 10 19 12 21 4 23 21 25 18 27
REMARK Flexibility Score: inf
ROOT
ATOM      1  C   UNL     1      69.898  46.549   7.358  1.00  0.00     0.180 A 
ATOM      2  C   UNL     1      70.211  45.186   7.502  1.00  0.00     0.208 A 
ATOM      3  C   UNL     1      71.392  44.694   6.923  1.00  0.00     0.238 A 
ATOM      4  O   UNL     1      71.695  43.486   7.101  1.00  0.00    -0.285 OA
ATOM      5  C   UNL     1      72.235  45.567   6.193  1.00  0.00     0.111 A 
ATOM      6  C   UNL     1      73.434  45.168   5.530  1.00  0.00     0.134 A 
ATOM      7  C   UNL     1      74.258  46.139   4.948  1.00  0.00     0.093 A 
ATOM      8  C   UNL     1      73.894  47.485   4.948  1.00  0.00     0.123 A 
ATOM      9  C   UNL     1      72.694  47.879   5.542  1.00  0.00     0.094 A 
ATOM     10  C   UNL     1      71.869  46.937   6.162  1.00  0.00     0.146 A 
ATOM     11  O   UNL     1      70.741  47.355   6.724  1.00  0.00    -0.452 OA
ENDROOT
BRANCH   1  12
ATOM     12  C   UNL     1      68.659  47.135   7.920  1.00  0.00     0.025 A 
ATOM     13  C   UNL     1      68.738  47.963   9.051  1.00  0.00     0.016 A 
ATOM     14  C   UNL     1      67.585  48.544   9.585  1.00  0.00     0.051 A 
ATOM     15  C   UNL     1      66.338  48.320   8.987  1.00  0.00     0.157 A 
ATOM     16  C   UNL     1      67.409  46.930   7.309  1.00  0.00     0.062 A 
ATOM     17  C   UNL     1      66.252  47.512   7.840  1.00  0.00     0.158 A 
BRANCH  15  18
ATOM     18  O   UNL     1      65.189  48.899   9.523  1.00  0.00    -0.504 OA
ATOM     19  H   UNL     1      64.263  48.614   9.226  1.00  0.00     0.293 HD
ENDBRANCH  15  18
BRANCH  17  20
ATOM     20  O   UNL     1      65.029  47.281   7.212  1.00  0.00    -0.504 OA
ATOM     21  H   UNL     1      64.166  47.184   7.734  1.00  0.00     0.293 HD
ENDBRANCH  17  20
ENDBRANCH   1  12
BRANCH   2  22
ATOM     22  O   UNL     1      69.376  44.348   8.246  1.00  0.00    -0.502 OA
ATOM     23  H   UNL     1      69.707  43.489   8.672  1.00  0.00     0.293 HD
ENDBRANCH   2  22
BRANCH   6  24
ATOM     24  O   UNL     1      73.845  43.839   5.392  1.00  0.00    -0.507 OA
ATOM     25  H   UNL     1      74.364  43.477   4.606  1.00  0.00     0.293 HD
ENDBRANCH   6  24
BRANCH   8  26
ATOM     26  O   UNL     1      74.730  48.423   4.347  1.00  0.00    -0.508 OA
ATOM     27  H   UNL     1      74.472  49.402   4.285  1.00  0.00     0.293 HD
ENDBRANCH   8  26
TORSDOF 6
ENDMDL
MODEL 7
REMARK VINA RESULT:    -5.751      4.345      5.847
REMARK INTER + INTRA:          -6.962
REMARK INTER:                  -6.758
REMARK INTRA:                  -0.204
REMARK UNBOUND:                -0.035
REMARK SMILES O=c1c(O)c(-c2ccc(O)c(O)c2)oc2cc(O)cc(O)c12
REMARK SMILES IDX 5 1 3 2 2 3 1 4 22 5 20 6 19 7 17 8 16 9 15 10 14 11 6 12
REMARK SMILES IDX 7 13 8 14 9 15 13 16 11 17 10 18 12 20 4 22 21 24 18 26
REMARK H PARENT 10 19 12 21 4 23 21 25 18 27
REMARK Flexibility Score: inf
ROOT
ATOM      1  C   UNL     1      69.598  44.850   7.445  1.00  0.00     0.180 A 
ATOM      2  C   UNL     1      68.485  45.704   7.355  1.00  0.00     0.208 A 
ATOM      3  C   UNL     1      68.571  46.995   7.903  1.00  0.00     0.238 A 
ATOM      4  O   UNL     1      67.592  47.773   7.771  1.00  0.00    -0.285 OA
ATOM      5  C   UNL     1      69.762  47.408   8.547  1.00  0.00     0.111 A 
ATOM      6  C   UNL     1      69.946  48.679   9.171  1.00  0.00     0.134 A 
ATOM      7  C   UNL     1      71.209  49.030   9.663  1.00  0.00     0.093 A 
ATOM      8  C   UNL     1      72.276  48.134   9.612  1.00  0.00     0.123 A 
ATOM      9  C   UNL     1      72.092  46.867   9.057  1.00  0.00     0.094 A 
ATOM     10  C   UNL     1      70.853  46.501   8.525  1.00  0.00     0.146 A 
ATOM     11  O   UNL     1      70.723  45.290   7.997  1.00  0.00    -0.452 OA
ENDROOT
BRANCH   1  12
ATOM     12  C   UNL     1      69.574  43.468   6.915  1.00  0.00     0.025 A 
ATOM     13  C   UNL     1      68.757  42.506   7.529  1.00  0.00     0.016 A 
ATOM     14  C   UNL     1      68.703  41.201   7.032  1.00  0.00     0.051 A 
ATOM     15  C   UNL     1      69.453  40.842   5.904  1.00  0.00     0.157 A 
ATOM     16  C   UNL     1      70.309  43.110   5.770  1.00  0.00     0.062 A 
ATOM     17  C   UNL     1      70.256  41.804   5.268  1.00  0.00     0.158 A 
BRANCH  15  18
ATOM     18  O   UNL     1      69.399  39.539   5.412  1.00  0.00    -0.504 OA
ATOM     19  H   UNL     1      69.704  39.314   4.472  1.00  0.00     0.293 HD
ENDBRANCH  15  18
BRANCH  17  20
ATOM     20  O   UNL     1      71.003  41.483   4.135  1.00  0.00    -0.504 OA
ATOM     21  H   UNL     1      70.740  41.801   3.209  1.00  0.00     0.293 HD
ENDBRANCH  17  20
ENDBRANCH   1  12
BRANCH   2  22
ATOM     22  O   UNL     1      67.327  45.283   6.696  1.00  0.00    -0.502 OA
ATOM     23  H   UNL     1      66.529  45.891   6.556  1.00  0.00     0.293 HD
ENDBRANCH   2  22
BRANCH   6  24
ATOM     24  O   UNL     1      68.923  49.613   9.356  1.00  0.00    -0.507 OA
ATOM     25  H   UNL     1      68.199  49.812   8.683  1.00  0.00     0.293 HD
ENDBRANCH   6  24
BRANCH   8  26
ATOM     26  O   UNL     1      73.515  48.511  10.125  1.00  0.00    -0.508 OA
ATOM     27  H   UNL     1      74.002  49.333   9.785  1.00  0.00     0.293 HD
ENDBRANCH   8  26
TORSDOF 6
ENDMDL
MODEL 8
REMARK VINA RESULT:    -5.713      2.124      2.963
REMARK INTER + INTRA:          -6.917
REMARK INTER:                  -6.606
REMARK INTRA:                  -0.311
REMARK UNBOUND:                -0.035
REMARK SMILES O=c1c(O)c(-c2ccc(O)c(O)c2)oc2cc(O)cc(O)c12
REMARK SMILES IDX 5 1 3 2 2 3 1 4 22 5 20 6 19 7 17 8 16 9 15 10 14 11 6 12
REMARK SMILES IDX 7 13 8 14 9 15 13 16 11 17 10 18 12 20 4 22 21 24 18 26
REMARK H PARENT 10 19 12 21 4 23 21 25 18 27
REMARK Flexibility Score: inf
ROOT
ATOM      1  C   UNL     1      68.820  47.297   8.517  1.00  0.00     0.180 A 
ATOM      2  C   UNL     1      69.123  48.564   9.046  1.00  0.00     0.208 A 
ATOM      3  C   UNL     1      70.382  49.128   8.784  1.00  0.00     0.238 A 
ATOM      4  O   UNL     1      70.627  50.285   9.213  1.00  0.00    -0.285 OA
ATOM      5  C   UNL     1      71.328  48.412   8.011  1.00  0.00     0.111 A 
ATOM      6  C   UNL     1      72.647  48.870   7.717  1.00  0.00     0.134 A 
ATOM      7  C   UNL     1      73.451  48.139   6.834  1.00  0.00     0.093 A 
ATOM      8  C   UNL     1      73.009  46.934   6.287  1.00  0.00     0.123 A 
ATOM      9  C   UNL     1      71.743  46.448   6.615  1.00  0.00     0.094 A 
ATOM     10  C   UNL     1      70.904  47.173   7.464  1.00  0.00     0.146 A 
ATOM     11  O   UNL     1      69.704  46.680   7.741  1.00  0.00    -0.452 OA
ENDROOT
BRANCH   1  12
ATOM     12  C   UNL     1      67.524  46.628   8.771  1.00  0.00     0.025 A 
ATOM     13  C   UNL     1      67.408  45.734   9.847  1.00  0.00     0.016 A 
ATOM     14  C   UNL     1      66.189  45.106  10.118  1.00  0.00     0.051 A 
ATOM     15  C   UNL     1      65.064  45.376   9.327  1.00  0.00     0.157 A 
ATOM     16  C   UNL     1      66.388  46.912   7.992  1.00  0.00     0.062 A 
ATOM     17  C   UNL     1      65.164  46.287   8.262  1.00  0.00     0.158 A 
BRANCH  15  18
ATOM     18  O   UNL     1      63.850  44.748   9.598  1.00  0.00    -0.504 OA
ATOM     19  H   UNL     1      63.785  43.742   9.706  1.00  0.00     0.293 HD
ENDBRANCH  15  18
BRANCH  17  20
ATOM     20  O   UNL     1      64.060  46.588   7.465  1.00  0.00    -0.504 OA
ATOM     21  H   UNL     1      63.158  46.151   7.608  1.00  0.00     0.293 HD
ENDBRANCH  17  20
ENDBRANCH   1  12
BRANCH   2  22
ATOM     22  O   UNL     1      68.167  49.263   9.788  1.00  0.00    -0.502 OA
ATOM     23  H   UNL     1      67.171  49.109   9.675  1.00  0.00     0.293 HD
ENDBRANCH   2  22
BRANCH   6  24
ATOM     24  O   UNL     1      73.221  50.012   8.282  1.00  0.00    -0.507 OA
ATOM     25  H   UNL     1      73.292  50.190   9.273  1.00  0.00     0.293 HD
ENDBRANCH   6  24
BRANCH   8  26
ATOM     26  O   UNL     1      73.842  46.225   5.425  1.00  0.00    -0.508 OA
ATOM     27  H   UNL     1      73.706  45.236   5.250  1.00  0.00     0.293 HD
ENDBRANCH   8  26
TORSDOF 6
ENDMDL
MODEL 9
REMARK VINA RESULT:    -5.625      2.127      7.470
REMARK INTER + INTRA:          -6.811
REMARK INTER:                  -6.547
REMARK INTRA:                  -0.263
REMARK UNBOUND:                -0.035
REMARK SMILES O=c1c(O)c(-c2ccc(O)c(O)c2)oc2cc(O)cc(O)c12
REMARK SMILES IDX 5 1 3 2 2 3 1 4 22 5 20 6 19 7 17 8 16 9 15 10 14 11 6 12
REMARK SMILES IDX 7 13 8 14 9 15 13 16 11 17 10 18 12 20 4 22 21 24 18 26
REMARK H PARENT 10 19 12 21 4 23 21 25 18 27
REMARK Flexibility Score: inf
ROOT
ATOM      1  C   UNL     1      67.816  47.360   8.107  1.00  0.00     0.180 A 
ATOM      2  C   UNL     1      67.205  48.358   8.886  1.00  0.00     0.208 A 
ATOM      3  C   UNL     1      65.909  48.136   9.382  1.00  0.00     0.238 A 
ATOM      4  O   UNL     1      65.389  49.008  10.123  1.00  0.00    -0.285 OA
ATOM      5  C   UNL     1      65.237  46.927   9.079  1.00  0.00     0.111 A 
ATOM      6  C   UNL     1      63.908  46.613   9.496  1.00  0.00     0.134 A 
ATOM      7  C   UNL     1      63.391  45.335   9.251  1.00  0.00     0.093 A 
ATOM      8  C   UNL     1      64.129  44.383   8.548  1.00  0.00     0.123 A 
ATOM      9  C   UNL     1      65.407  44.699   8.085  1.00  0.00     0.094 A 
ATOM     10  C   UNL     1      65.963  45.954   8.346  1.00  0.00     0.146 A 
ATOM     11  O   UNL     1      67.186  46.210   7.896  1.00  0.00    -0.452 OA
ENDROOT
BRANCH   1  12
ATOM     12  C   UNL     1      69.169  47.531   7.529  1.00  0.00     0.025 A 
ATOM     13  C   UNL     1      69.345  48.379   6.424  1.00  0.00     0.016 A 
ATOM     14  C   UNL     1      70.616  48.572   5.875  1.00  0.00     0.051 A 
ATOM     15  C   UNL     1      71.731  47.933   6.433  1.00  0.00     0.157 A 
ATOM     16  C   UNL     1      70.294  46.909   8.100  1.00  0.00     0.062 A 
ATOM     17  C   UNL     1      71.568  47.102   7.554  1.00  0.00     0.158 A 
BRANCH  15  18
ATOM     18  O   UNL     1      72.997  48.127   5.882  1.00  0.00    -0.504 OA
ATOM     19  H   UNL     1      73.836  47.819   6.360  1.00  0.00     0.293 HD
ENDBRANCH  15  18
BRANCH  17  20
ATOM     20  O   UNL     1      72.660  46.464   8.142  1.00  0.00    -0.504 OA
ATOM     21  H   UNL     1      72.750  46.367   9.147  1.00  0.00     0.293 HD
ENDBRANCH  17  20
ENDBRANCH   1  12
BRANCH   2  22
ATOM     22  O   UNL     1      67.895  49.534   9.191  1.00  0.00    -0.502 OA
ATOM     23  H   UNL     1      68.539  49.600   9.970  1.00  0.00     0.293 HD
ENDBRANCH   2  22
BRANCH   6  24
ATOM     24  O   UNL     1      63.052  47.522  10.124  1.00  0.00    -0.507 OA
ATOM     25  H   UNL     1      63.353  48.273  10.726  1.00  0.00     0.293 HD
ENDBRANCH   6  24
BRANCH   8  26
ATOM     26  O   UNL     1      63.577  43.127   8.309  1.00  0.00    -0.508 OA
ATOM     27  H   UNL     1      63.897  42.303   8.806  1.00  0.00     0.293 HD
ENDBRANCH   8  26
TORSDOF 6
ENDMDL
