MODEL 1
REMARK VINA RESULT:    -4.433      0.000      0.000
REMARK INTER + INTRA:          -4.562
REMARK INTER:                  -4.562
REMARK INTRA:                   0.000
REMARK UNBOUND:                 0.000
REMARK SMILES Nc1ncnc2nc[nH]c12
REMARK SMILES IDX 8 1 7 2 6 3 5 4 4 5 3 6 2 7 10 8 9 9 1 11
REMARK H PARENT 9 10 1 12 1 13
REMARK Flexibility Score: inf
ROOT
ATOM      1  C   UNL     1     126.185 126.576 120.308  1.00  0.00     0.199 A 
ATOM      2  N   UNL     1     125.703 126.685 119.040  1.00  0.00    -0.217 NA
ATOM      3  C   UNL     1     124.529 127.310 119.232  1.00  0.00     0.182 A 
ATOM      4  N   UNL     1     123.636 127.663 118.277  1.00  0.00    -0.215 NA
ATOM      5  C   UNL     1     122.489 128.297 118.669  1.00  0.00     0.226 A 
ATOM      6  N   UNL     1     122.259 128.562 119.996  1.00  0.00    -0.217 NA
ATOM      7  C   UNL     1     123.159 128.205 120.960  1.00  0.00     0.152 A 
ATOM      8  C   UNL     1     124.322 127.561 120.544  1.00  0.00     0.127 A 
ATOM      9  N   UNL     1     125.363 127.104 121.251  1.00  0.00    -0.340 N 
ATOM     10  H   UNL     1     125.518 127.137 122.283  1.00  0.00     0.168 HD
ENDROOT
BRANCH   7  11
ATOM     11  N   UNL     1     122.898 128.491 122.335  1.00  0.00    -0.382 N 
ATOM     12  H   UNL     1     122.035 129.014 122.604  1.00  0.00     0.158 HD
ATOM     13  H   UNL     1     123.555 128.190 123.087  1.00  0.00     0.158 HD
ENDBRANCH   7  11
TORSDOF 1
ENDMDL
MODEL 2
REMARK VINA RESULT:    -4.322     19.526     21.251
REMARK INTER + INTRA:          -4.448
REMARK INTER:                  -4.448
REMARK INTRA:                   0.000
REMARK UNBOUND:                 0.000
REMARK SMILES Nc1ncnc2nc[nH]c12
REMARK SMILES IDX 8 1 7 2 6 3 5 4 4 5 3 6 2 7 10 8 9 9 1 11
REMARK H PARENT 9 10 1 12 1 13
REMARK Flexibility Score: inf
ROOT
ATOM      1  C   UNL     1     113.357 135.177 105.981  1.00  0.00     0.199 A 
ATOM      2  N   UNL     1     112.059 135.043 106.369  1.00  0.00    -0.217 NA
ATOM      3  C   UNL     1     111.524 136.215 105.986  1.00  0.00     0.182 A 
ATOM      4  N   UNL     1     110.235 136.603 106.140  1.00  0.00    -0.215 NA
ATOM      5  C   UNL     1     109.875 137.841 105.683  1.00  0.00     0.226 A 
ATOM      6  N   UNL     1     110.802 138.659 105.087  1.00  0.00    -0.217 NA
ATOM      7  C   UNL     1     112.101 138.269 104.931  1.00  0.00     0.152 A 
ATOM      8  C   UNL     1     112.451 137.006 105.401  1.00  0.00     0.127 A 
ATOM      9  N   UNL     1     113.628 136.367 105.386  1.00  0.00    -0.340 N 
ATOM     10  H   UNL     1     114.545 136.695 105.009  1.00  0.00     0.168 HD
ENDROOT
BRANCH   7  11
ATOM     11  N   UNL     1     113.048 139.137 104.307  1.00  0.00    -0.382 N 
ATOM     12  H   UNL     1     113.394 138.926 103.344  1.00  0.00     0.158 HD
ATOM     13  H   UNL     1     113.407 139.988 104.791  1.00  0.00     0.158 HD
ENDBRANCH   7  11
TORSDOF 1
ENDMDL
MODEL 3
REMARK VINA RESULT:    -4.129      1.457      3.435
REMARK INTER + INTRA:          -4.250
REMARK INTER:                  -4.250
REMARK INTRA:                   0.000
REMARK UNBOUND:                 0.000
REMARK SMILES Nc1ncnc2nc[nH]c12
REMARK SMILES IDX 8 1 7 2 6 3 5 4 4 5 3 6 2 7 10 8 9 9 1 11
REMARK H PARENT 9 10 1 12 1 13
REMARK Flexibility Score: inf
ROOT
ATOM      1  C   UNL     1     119.975 128.388 119.164  1.00  0.00     0.199 A 
ATOM      2  N   UNL     1     120.810 127.892 118.210  1.00  0.00    -0.217 NA
ATOM      3  C   UNL     1     121.971 127.782 118.876  1.00  0.00     0.182 A 
ATOM      4  N   UNL     1     123.148 127.330 118.379  1.00  0.00    -0.215 NA
ATOM      5  C   UNL     1     124.229 127.291 119.215  1.00  0.00     0.226 A 
ATOM      6  N   UNL     1     124.115 127.701 120.520  1.00  0.00    -0.217 NA
ATOM      7  C   UNL     1     122.929 128.157 121.022  1.00  0.00     0.152 A 
ATOM      8  C   UNL     1     121.838 128.191 120.158  1.00  0.00     0.127 A 
ATOM      9  N   UNL     1     120.575 128.582 120.366  1.00  0.00    -0.340 N 
ATOM     10  H   UNL     1     120.140 128.951 121.241  1.00  0.00     0.168 HD
ENDROOT
BRANCH   7  11
ATOM     11  N   UNL     1     122.834 128.579 122.383  1.00  0.00    -0.382 N 
ATOM     12  H   UNL     1     121.958 128.402 122.924  1.00  0.00     0.158 HD
ATOM     13  H   UNL     1     123.626 129.063 122.859  1.00  0.00     0.158 HD
ENDBRANCH   7  11
TORSDOF 1
ENDMDL
MODEL 4
REMARK VINA RESULT:    -4.126     19.532     21.082
REMARK INTER + INTRA:          -4.247
REMARK INTER:                  -4.247
REMARK INTRA:                   0.000
REMARK UNBOUND:                 0.000
REMARK SMILES Nc1ncnc2nc[nH]c12
REMARK SMILES IDX 8 1 7 2 6 3 5 4 4 5 3 6 2 7 10 8 9 9 1 11
REMARK H PARENT 9 10 1 12 1 13
REMARK Flexibility Score: inf
ROOT
ATOM      1  C   UNL     1     112.233 138.710 104.553  1.00  0.00     0.199 A 
ATOM      2  N   UNL     1     111.020 138.372 105.072  1.00  0.00    -0.217 NA
ATOM      3  C   UNL     1     111.239 137.125 105.521  1.00  0.00     0.182 A 
ATOM      4  N   UNL     1     110.341 136.319 106.136  1.00  0.00    -0.215 NA
ATOM      5  C   UNL     1     110.752 135.074 106.525  1.00  0.00     0.226 A 
ATOM      6  N   UNL     1     112.041 134.662 106.293  1.00  0.00    -0.217 NA
ATOM      7  C   UNL     1     112.947 135.474 105.673  1.00  0.00     0.152 A 
ATOM      8  C   UNL     1     112.513 136.739 105.284  1.00  0.00     0.127 A 
ATOM      9  N   UNL     1     113.167 137.732 104.667  1.00  0.00    -0.340 N 
ATOM     10  H   UNL     1     114.159 137.760 104.345  1.00  0.00     0.168 HD
ENDROOT
BRANCH   7  11
ATOM     11  N   UNL     1     114.283 135.025 105.442  1.00  0.00    -0.382 N 
ATOM     12  H   UNL     1     114.889 135.522 104.751  1.00  0.00     0.158 HD
ATOM     13  H   UNL     1     114.676 134.203 105.951  1.00  0.00     0.158 HD
ENDBRANCH   7  11
TORSDOF 1
ENDMDL
MODEL 5
REMARK VINA RESULT:    -4.064      2.450      3.313
REMARK INTER + INTRA:          -4.183
REMARK INTER:                  -4.183
REMARK INTRA:                   0.000
REMARK UNBOUND:                 0.000
REMARK SMILES Nc1ncnc2nc[nH]c12
REMARK SMILES IDX 8 1 7 2 6 3 5 4 4 5 3 6 2 7 10 8 9 9 1 11
REMARK H PARENT 9 10 1 12 1 13
REMARK Flexibility Score: inf
ROOT
ATOM      1  C   UNL     1     122.269 128.166 121.541  1.00  0.00     0.199 A 
ATOM      2  N   UNL     1     122.805 128.013 120.299  1.00  0.00    -0.217 NA
ATOM      3  C   UNL     1     123.653 129.052 120.223  1.00  0.00     0.182 A 
ATOM      4  N   UNL     1     124.452 129.368 119.176  1.00  0.00    -0.215 NA
ATOM      5  C   UNL     1     125.253 130.472 119.285  1.00  0.00     0.226 A 
ATOM      6  N   UNL     1     125.239 131.231 120.428  1.00  0.00    -0.217 NA
ATOM      7  C   UNL     1     124.434 130.913 121.485  1.00  0.00     0.152 A 
ATOM      8  C   UNL     1     123.625 129.787 121.358  1.00  0.00     0.127 A 
ATOM      9  N   UNL     1     122.751 129.243 122.214  1.00  0.00    -0.340 N 
ATOM     10  H   UNL     1     122.490 129.561 123.173  1.00  0.00     0.168 HD
ENDROOT
BRANCH   7  11
ATOM     11  N   UNL     1     124.437 131.718 122.665  1.00  0.00    -0.382 N 
ATOM     12  H   UNL     1     125.343 132.037 123.077  1.00  0.00     0.158 HD
ATOM     13  H   UNL     1     123.549 132.000 123.134  1.00  0.00     0.158 HD
ENDBRANCH   7  11
TORSDOF 1
ENDMDL
MODEL 6
REMARK VINA RESULT:    -4.037      2.981      3.757
REMARK INTER + INTRA:          -4.155
REMARK INTER:                  -4.155
REMARK INTRA:                   0.000
REMARK UNBOUND:                 0.000
REMARK SMILES Nc1ncnc2nc[nH]c12
REMARK SMILES IDX 8 1 7 2 6 3 5 4 4 5 3 6 2 7 10 8 9 9 1 11
REMARK H PARENT 9 10 1 12 1 13
REMARK Flexibility Score: inf
ROOT
ATOM      1  C   UNL     1     125.008 132.393 122.006  1.00  0.00     0.199 A 
ATOM      2  N   UNL     1     124.905 132.523 120.655  1.00  0.00    -0.217 NA
ATOM      3  C   UNL     1     124.234 131.412 120.310  1.00  0.00     0.182 A 
ATOM      4  N   UNL     1     123.865 131.046 119.059  1.00  0.00    -0.215 NA
ATOM      5  C   UNL     1     123.182 129.871 118.905  1.00  0.00     0.226 A 
ATOM      6  N   UNL     1     122.886 129.091 119.994  1.00  0.00    -0.217 NA
ATOM      7  C   UNL     1     123.257 129.458 121.256  1.00  0.00     0.152 A 
ATOM      8  C   UNL     1     123.951 130.657 121.396  1.00  0.00     0.127 A 
ATOM      9  N   UNL     1     124.434 131.261 122.489  1.00  0.00    -0.340 N 
ATOM     10  H   UNL     1     124.387 130.947 123.484  1.00  0.00     0.168 HD
ENDROOT
BRANCH   7  11
ATOM     11  N   UNL     1     122.937 128.630 122.375  1.00  0.00    -0.382 N 
ATOM     12  H   UNL     1     123.586 128.583 123.192  1.00  0.00     0.158 HD
ATOM     13  H   UNL     1     122.062 128.063 122.400  1.00  0.00     0.158 HD
ENDBRANCH   7  11
TORSDOF 1
ENDMDL
MODEL 7
REMARK VINA RESULT:    -3.898      1.122      3.027
REMARK INTER + INTRA:          -4.012
REMARK INTER:                  -4.012
REMARK INTRA:                   0.000
REMARK UNBOUND:                 0.000
REMARK SMILES Nc1ncnc2nc[nH]c12
REMARK SMILES IDX 8 1 7 2 6 3 5 4 4 5 3 6 2 7 10 8 9 9 1 11
REMARK H PARENT 9 10 1 12 1 13
REMARK Flexibility Score: inf
ROOT
ATOM      1  C   UNL     1     123.081 128.964 121.150  1.00  0.00     0.199 A 
ATOM      2  N   UNL     1     123.080 129.286 119.827  1.00  0.00    -0.217 NA
ATOM      3  C   UNL     1     123.992 128.437 119.325  1.00  0.00     0.182 A 
ATOM      4  N   UNL     1     124.380 128.339 118.031  1.00  0.00    -0.215 NA
ATOM      5  C   UNL     1     125.328 127.407 117.710  1.00  0.00     0.226 A 
ATOM      6  N   UNL     1     125.866 126.599 118.680  1.00  0.00    -0.217 NA
ATOM      7  C   UNL     1     125.477 126.697 119.985  1.00  0.00     0.152 A 
ATOM      8  C   UNL     1     124.510 127.650 120.296  1.00  0.00     0.127 A 
ATOM      9  N   UNL     1     123.945 127.967 121.468  1.00  0.00    -0.340 N 
ATOM     10  H   UNL     1     124.120 127.553 122.410  1.00  0.00     0.168 HD
ENDROOT
BRANCH   7  11
ATOM     11  N   UNL     1     126.050 125.845 120.977  1.00  0.00    -0.382 N 
ATOM     12  H   UNL     1     126.801 125.168 120.713  1.00  0.00     0.158 HD
ATOM     13  H   UNL     1     125.737 125.879 121.972  1.00  0.00     0.158 HD
ENDBRANCH   7  11
TORSDOF 1
ENDMDL
MODEL 8
REMARK VINA RESULT:    -3.859      1.602      1.677
REMARK INTER + INTRA:          -3.972
REMARK INTER:                  -3.972
REMARK INTRA:                   0.000
REMARK UNBOUND:                 0.000
REMARK SMILES Nc1ncnc2nc[nH]c12
REMARK SMILES IDX 8 1 7 2 6 3 5 4 4 5 3 6 2 7 10 8 9 9 1 11
REMARK H PARENT 9 10 1 12 1 13
REMARK Flexibility Score: inf
ROOT
ATOM      1  C   UNL     1     125.980 129.763 120.118  1.00  0.00     0.199 A 
ATOM      2  N   UNL     1     125.693 129.144 118.941  1.00  0.00    -0.217 NA
ATOM      3  C   UNL     1     124.543 128.510 119.224  1.00  0.00     0.182 A 
ATOM      4  N   UNL     1     123.820 127.733 118.382  1.00  0.00    -0.215 NA
ATOM      5  C   UNL     1     122.667 127.168 118.855  1.00  0.00     0.226 A 
ATOM      6  N   UNL     1     122.265 127.387 120.148  1.00  0.00    -0.217 NA
ATOM      7  C   UNL     1     122.993 128.169 120.999  1.00  0.00     0.152 A 
ATOM      8  C   UNL     1     124.163 128.738 120.502  1.00  0.00     0.127 A 
ATOM      9  N   UNL     1     125.063 129.534 121.093  1.00  0.00    -0.340 N 
ATOM     10  H   UNL     1     125.070 129.899 122.071  1.00  0.00     0.168 HD
ENDROOT
BRANCH   7  11
ATOM     11  N   UNL     1     122.554 128.383 122.341  1.00  0.00    -0.382 N 
ATOM     12  H   UNL     1     121.542 128.546 122.539  1.00  0.00     0.158 HD
ATOM     13  H   UNL     1     123.225 128.380 123.140  1.00  0.00     0.158 HD
ENDBRANCH   7  11
TORSDOF 1
ENDMDL
MODEL 9
REMARK VINA RESULT:    -3.559      2.322      2.861
REMARK INTER + INTRA:          -3.663
REMARK INTER:                  -3.663
REMARK INTRA:                   0.000
REMARK UNBOUND:                 0.000
REMARK SMILES Nc1ncnc2nc[nH]c12
REMARK SMILES IDX 8 1 7 2 6 3 5 4 4 5 3 6 2 7 10 8 9 9 1 11
REMARK H PARENT 9 10 1 12 1 13
REMARK Flexibility Score: inf
ROOT
ATOM      1  C   UNL     1     126.540 130.669 120.696  1.00  0.00     0.199 A 
ATOM      2  N   UNL     1     125.402 130.979 120.015  1.00  0.00    -0.217 NA
ATOM      3  C   UNL     1     124.804 129.782 119.899  1.00  0.00     0.182 A 
ATOM      4  N   UNL     1     123.620 129.527 119.293  1.00  0.00    -0.215 NA
ATOM      5  C   UNL     1     123.169 128.235 119.275  1.00  0.00     0.226 A 
ATOM      6  N   UNL     1     123.905 127.234 119.857  1.00  0.00    -0.217 NA
ATOM      7  C   UNL     1     125.099 127.490 120.469  1.00  0.00     0.152 A 
ATOM      8  C   UNL     1     125.543 128.809 120.479  1.00  0.00     0.127 A 
ATOM      9  N   UNL     1     126.654 129.350 120.994  1.00  0.00    -0.340 N 
ATOM     10  H   UNL     1     127.434 128.879 121.506  1.00  0.00     0.168 HD
ENDROOT
BRANCH   7  11
ATOM     11  N   UNL     1     125.846 126.431 121.069  1.00  0.00    -0.382 N 
ATOM     12  H   UNL     1     125.547 125.440 120.934  1.00  0.00     0.158 HD
ATOM     13  H   UNL     1     126.694 126.623 121.646  1.00  0.00     0.158 HD
ENDBRANCH   7  11
TORSDOF 1
ENDMDL
