MODEL 1
REMARK VINA RESULT:    -4.860      0.000      0.000
REMARK INTER + INTRA:          -8.279
REMARK INTER:                  -7.132
REMARK INTRA:                  -1.146
REMARK UNBOUND:                -1.146
REMARK SMILES CC(C)COC(=O)c1ccccc1C(=O)OCC(C)C
REMARK SMILES IDX 8 1 9 2 10 3 11 4 12 5 13 6 6 7 7 8 5 9 4 10 2 11 1 12 3 13
REMARK SMILES IDX 14 14 15 15 16 16 17 17 18 18 19 19 20 20
REMARK H PARENT
REMARK Flexibility Score: inf
ROOT
ATOM      1  C   UNL     1      -6.735  -4.093  -1.391  1.00  0.00     0.074 A 
ATOM      2  C   UNL     1      -6.552  -4.479  -2.731  1.00  0.00     0.016 A 
ATOM      3  C   UNL     1      -6.164  -5.779  -3.053  1.00  0.00     0.001 A 
ATOM      4  C   UNL     1      -5.954  -6.715  -2.043  1.00  0.00     0.001 A 
ATOM      5  C   UNL     1      -6.108  -6.348  -0.705  1.00  0.00     0.016 A 
ATOM      6  C   UNL     1      -6.477  -5.036  -0.357  1.00  0.00     0.074 A 
ENDROOT
BRANCH   1   7
ATOM      7  C   UNL     1      -7.253  -2.732  -1.126  1.00  0.00     0.339 C 
ATOM      8  O   UNL     1      -8.469  -2.462  -1.329  1.00  0.00    -0.246 OA
BRANCH   7   9
ATOM      9  O   UNL     1      -6.374  -1.732  -0.700  1.00  0.00    -0.462 OA
BRANCH   9  10
ATOM     10  C   UNL     1      -6.580  -0.983   0.493  1.00  0.00     0.236 C 
BRANCH  10  11
ATOM     11  C   UNL     1      -5.410  -0.012   0.713  1.00  0.00     0.021 C 
ATOM     12  C   UNL     1      -4.068  -0.756   0.712  1.00  0.00     0.011 C 
ATOM     13  C   UNL     1      -5.592   0.757   2.027  1.00  0.00     0.011 C 
ENDBRANCH  10  11
ENDBRANCH   9  10
ENDBRANCH   7   9
ENDBRANCH   1   7
BRANCH   6  14
ATOM     14  C   UNL     1      -6.505  -4.673   1.077  1.00  0.00     0.339 C 
ATOM     15  O   UNL     1      -7.522  -4.945   1.772  1.00  0.00    -0.246 OA
BRANCH  14  16
ATOM     16  O   UNL     1      -5.382  -4.077   1.669  1.00  0.00    -0.462 OA
BRANCH  16  17
ATOM     17  C   UNL     1      -5.393  -3.455   2.954  1.00  0.00     0.236 C 
BRANCH  17  18
ATOM     18  C   UNL     1      -3.962  -3.274   3.492  1.00  0.00     0.021 C 
ATOM     19  C   UNL     1      -3.851  -1.957   4.270  1.00  0.00     0.011 C 
ATOM     20  C   UNL     1      -3.535  -4.448   4.381  1.00  0.00     0.011 C 
ENDBRANCH  17  18
ENDBRANCH  16  17
ENDBRANCH  14  16
ENDBRANCH   6  14
TORSDOF 8
ENDMDL
MODEL 2
REMARK VINA RESULT:    -4.857      0.095      3.536
REMARK INTER + INTRA:          -8.275
REMARK INTER:                  -7.139
REMARK INTRA:                  -1.136
REMARK UNBOUND:                -1.146
REMARK SMILES CC(C)COC(=O)c1ccccc1C(=O)OCC(C)C
REMARK SMILES IDX 8 1 9 2 10 3 11 4 12 5 13 6 6 7 7 8 5 9 4 10 2 11 1 12 3 13
REMARK SMILES IDX 14 14 15 15 16 16 17 17 18 18 19 19 20 20
REMARK H PARENT
REMARK Flexibility Score: inf
ROOT
ATOM      1  C   UNL     1      -6.490  -5.014  -0.323  1.00  0.00     0.074 A 
ATOM      2  C   UNL     1      -6.134  -6.336  -0.648  1.00  0.00     0.016 A 
ATOM      3  C   UNL     1      -5.965  -6.724  -1.977  1.00  0.00     0.001 A 
ATOM      4  C   UNL     1      -6.149  -5.800  -3.003  1.00  0.00     0.001 A 
ATOM      5  C   UNL     1      -6.525  -4.489  -2.705  1.00  0.00     0.016 A 
ATOM      6  C   UNL     1      -6.721  -4.082  -1.373  1.00  0.00     0.074 A 
ENDROOT
BRANCH   1   7
ATOM      7  C   UNL     1      -6.544  -4.643   1.108  1.00  0.00     0.339 C 
ATOM      8  O   UNL     1      -7.638  -4.679   1.735  1.00  0.00    -0.246 OA
BRANCH   7   9
ATOM      9  O   UNL     1      -5.382  -4.201   1.748  1.00  0.00    -0.462 OA
BRANCH   9  10
ATOM     10  C   UNL     1      -5.408  -3.421   2.940  1.00  0.00     0.236 C 
BRANCH  10  11
ATOM     11  C   UNL     1      -3.979  -3.204   3.457  1.00  0.00     0.021 C 
ATOM     12  C   UNL     1      -3.545  -4.354   4.376  1.00  0.00     0.011 C 
ATOM     13  C   UNL     1      -3.875  -1.865   4.196  1.00  0.00     0.011 C 
ENDBRANCH  10  11
ENDBRANCH   9  10
ENDBRANCH   7   9
ENDBRANCH   1   7
BRANCH   6  14
ATOM     14  C   UNL     1      -7.237  -2.717  -1.126  1.00  0.00     0.339 C 
ATOM     15  O   UNL     1      -8.469  -2.481  -1.255  1.00  0.00    -0.246 OA
BRANCH  14  16
ATOM     16  O   UNL     1      -6.364  -1.707  -0.698  1.00  0.00    -0.462 OA
BRANCH  16  17
ATOM     17  C   UNL     1      -6.535  -0.964   0.509  1.00  0.00     0.236 C 
BRANCH  17  18
ATOM     18  C   UNL     1      -5.375   0.027   0.716  1.00  0.00     0.021 C 
ATOM     19  C   UNL     1      -5.563   0.796   2.029  1.00  0.00     0.011 C 
ATOM     20  C   UNL     1      -4.014  -0.679   0.710  1.00  0.00     0.011 C 
ENDBRANCH  17  18
ENDBRANCH  16  17
ENDBRANCH  14  16
ENDBRANCH   6  14
TORSDOF 8
ENDMDL
MODEL 3
REMARK VINA RESULT:    -4.810      1.618      4.640
REMARK INTER + INTRA:          -8.205
REMARK INTER:                  -6.626
REMARK INTRA:                  -1.579
REMARK UNBOUND:                -1.146
REMARK SMILES CC(C)COC(=O)c1ccccc1C(=O)OCC(C)C
REMARK SMILES IDX 8 1 9 2 10 3 11 4 12 5 13 6 6 7 7 8 5 9 4 10 2 11 1 12 3 13
REMARK SMILES IDX 14 14 15 15 16 16 17 17 18 18 19 19 20 20
REMARK H PARENT
REMARK Flexibility Score: inf
ROOT
ATOM      1  C   UNL     1      -5.498  -2.008   1.931  1.00  0.00     0.074 A 
ATOM      2  C   UNL     1      -5.678  -0.688   1.481  1.00  0.00     0.016 A 
ATOM      3  C   UNL     1      -4.582   0.135   1.223  1.00  0.00     0.001 A 
ATOM      4  C   UNL     1      -3.288  -0.346   1.410  1.00  0.00     0.001 A 
ATOM      5  C   UNL     1      -3.086  -1.646   1.878  1.00  0.00     0.016 A 
ATOM      6  C   UNL     1      -4.178  -2.485   2.164  1.00  0.00     0.074 A 
ENDROOT
BRANCH   1   7
ATOM      7  C   UNL     1      -6.699  -2.860   2.078  1.00  0.00     0.339 C 
ATOM      8  O   UNL     1      -7.149  -3.133   3.225  1.00  0.00    -0.246 OA
BRANCH   7   9
ATOM      9  O   UNL     1      -7.300  -3.404   0.940  1.00  0.00    -0.462 OA
BRANCH   9  10
ATOM     10  C   UNL     1      -6.557  -4.038  -0.096  1.00  0.00     0.236 C 
BRANCH  10  11
ATOM     11  C   UNL     1      -6.903  -3.406  -1.453  1.00  0.00     0.021 C 
ATOM     12  C   UNL     1      -8.379  -2.989  -1.506  1.00  0.00     0.011 C 
ATOM     13  C   UNL     1      -6.584  -4.381  -2.593  1.00  0.00     0.011 C 
ENDBRANCH  10  11
ENDBRANCH   9  10
ENDBRANCH   7   9
ENDBRANCH   1   7
BRANCH   6  14
ATOM     14  C   UNL     1      -3.905  -3.807   2.773  1.00  0.00     0.339 C 
ATOM     15  O   UNL     1      -3.978  -4.848   2.066  1.00  0.00    -0.246 OA
BRANCH  14  16
ATOM     16  O   UNL     1      -3.516  -3.889   4.117  1.00  0.00    -0.462 OA
BRANCH  16  17
ATOM     17  C   UNL     1      -4.338  -3.486   5.212  1.00  0.00     0.236 C 
BRANCH  17  18
ATOM     18  C   UNL     1      -3.782  -2.217   5.883  1.00  0.00     0.021 C 
ATOM     19  C   UNL     1      -2.279  -2.088   5.610  1.00  0.00     0.011 C 
ATOM     20  C   UNL     1      -4.513  -0.955   5.409  1.00  0.00     0.011 C 
ENDBRANCH  17  18
ENDBRANCH  16  17
ENDBRANCH  14  16
ENDBRANCH   6  14
TORSDOF 8
ENDMDL
MODEL 4
REMARK VINA RESULT:    -4.809      1.584      5.597
REMARK INTER + INTRA:          -8.205
REMARK INTER:                  -6.624
REMARK INTRA:                  -1.581
REMARK UNBOUND:                -1.146
REMARK SMILES CC(C)COC(=O)c1ccccc1C(=O)OCC(C)C
REMARK SMILES IDX 8 1 9 2 10 3 11 4 12 5 13 6 6 7 7 8 5 9 4 10 2 11 1 12 3 13
REMARK SMILES IDX 14 14 15 15 16 16 17 17 18 18 19 19 20 20
REMARK H PARENT
REMARK Flexibility Score: inf
ROOT
ATOM      1  C   UNL     1      -4.198  -2.487   2.126  1.00  0.00     0.074 A 
ATOM      2  C   UNL     1      -3.139  -1.615   1.817  1.00  0.00     0.016 A 
ATOM      3  C   UNL     1      -3.388  -0.342   1.307  1.00  0.00     0.001 A 
ATOM      4  C   UNL     1      -4.698   0.083   1.096  1.00  0.00     0.001 A 
ATOM      5  C   UNL     1      -5.764  -0.774   1.374  1.00  0.00     0.016 A 
ATOM      6  C   UNL     1      -5.534  -2.071   1.870  1.00  0.00     0.074 A 
ENDROOT
BRANCH   1   7
ATOM      7  C   UNL     1      -3.868  -3.780   2.767  1.00  0.00     0.339 C 
ATOM      8  O   UNL     1      -3.962  -4.856   2.115  1.00  0.00    -0.246 OA
BRANCH   7   9
ATOM      9  O   UNL     1      -3.501  -3.805   4.115  1.00  0.00    -0.462 OA
BRANCH   9  10
ATOM     10  C   UNL     1      -4.381  -3.405   5.161  1.00  0.00     0.236 C 
BRANCH  10  11
ATOM     11  C   UNL     1      -3.847  -2.134   5.839  1.00  0.00     0.021 C 
ATOM     12  C   UNL     1      -4.588  -0.888   5.336  1.00  0.00     0.011 C 
ATOM     13  C   UNL     1      -2.340  -1.992   5.597  1.00  0.00     0.011 C 
ENDBRANCH  10  11
ENDBRANCH   9  10
ENDBRANCH   7   9
ENDBRANCH   1   7
BRANCH   6  14
ATOM     14  C   UNL     1      -6.695  -2.976   2.029  1.00  0.00     0.339 C 
ATOM     15  O   UNL     1      -7.176  -3.181   3.177  1.00  0.00    -0.246 OA
BRANCH  14  16
ATOM     16  O   UNL     1      -7.286  -3.558   0.900  1.00  0.00    -0.462 OA
BRANCH  16  17
ATOM     17  C   UNL     1      -6.551  -4.169  -0.161  1.00  0.00     0.236 C 
BRANCH  17  18
ATOM     18  C   UNL     1      -6.882  -3.513  -1.513  1.00  0.00     0.021 C 
ATOM     19  C   UNL     1      -6.521  -4.459  -2.664  1.00  0.00     0.011 C 
ATOM     20  C   UNL     1      -8.360  -3.112  -1.605  1.00  0.00     0.011 C 
ENDBRANCH  17  18
ENDBRANCH  16  17
ENDBRANCH  14  16
ENDBRANCH   6  14
TORSDOF 8
ENDMDL
MODEL 5
REMARK VINA RESULT:    -4.805      1.810      4.610
REMARK INTER + INTRA:          -8.198
REMARK INTER:                  -6.638
REMARK INTRA:                  -1.560
REMARK UNBOUND:                -1.146
REMARK SMILES CC(C)COC(=O)c1ccccc1C(=O)OCC(C)C
REMARK SMILES IDX 8 1 9 2 10 3 11 4 12 5 13 6 6 7 7 8 5 9 4 10 2 11 1 12 3 13
REMARK SMILES IDX 14 14 15 15 16 16 17 17 18 18 19 19 20 20
REMARK H PARENT
REMARK Flexibility Score: inf
ROOT
ATOM      1  C   UNL     1      -5.526  -1.610   0.630  1.00  0.00     0.074 A 
ATOM      2  C   UNL     1      -4.701  -0.511   0.332  1.00  0.00     0.016 A 
ATOM      3  C   UNL     1      -3.455  -0.367   0.941  1.00  0.00     0.001 A 
ATOM      4  C   UNL     1      -3.012  -1.318   1.857  1.00  0.00     0.001 A 
ATOM      5  C   UNL     1      -3.823  -2.406   2.185  1.00  0.00     0.016 A 
ATOM      6  C   UNL     1      -5.093  -2.558   1.598  1.00  0.00     0.074 A 
ENDROOT
BRANCH   1   7
ATOM      7  C   UNL     1      -6.785  -1.759  -0.133  1.00  0.00     0.339 C 
ATOM      8  O   UNL     1      -7.851  -1.227   0.285  1.00  0.00    -0.246 OA
BRANCH   7   9
ATOM      9  O   UNL     1      -6.798  -2.538  -1.294  1.00  0.00    -0.462 OA
BRANCH   9  10
ATOM     10  C   UNL     1      -7.488  -3.781  -1.380  1.00  0.00     0.236 C 
BRANCH  10  11
ATOM     11  C   UNL     1      -6.498  -4.910  -1.703  1.00  0.00     0.021 C 
ATOM     12  C   UNL     1      -6.248  -5.009  -3.213  1.00  0.00     0.011 C 
ATOM     13  C   UNL     1      -7.016  -6.247  -1.160  1.00  0.00     0.011 C 
ENDBRANCH  10  11
ENDBRANCH   9  10
ENDBRANCH   7   9
ENDBRANCH   1   7
BRANCH   6  14
ATOM     14  C   UNL     1      -5.957  -3.661   2.076  1.00  0.00     0.339 C 
ATOM     15  O   UNL     1      -5.657  -4.855   1.802  1.00  0.00    -0.246 OA
BRANCH  14  16
ATOM     16  O   UNL     1      -7.074  -3.377   2.874  1.00  0.00    -0.462 OA
BRANCH  16  17
ATOM     17  C   UNL     1      -7.034  -2.552   4.038  1.00  0.00     0.236 C 
BRANCH  17  18
ATOM     18  C   UNL     1      -7.629  -1.162   3.750  1.00  0.00     0.021 C 
ATOM     19  C   UNL     1      -8.775  -0.864   4.724  1.00  0.00     0.011 C 
ATOM     20  C   UNL     1      -6.566  -0.059   3.835  1.00  0.00     0.011 C 
ENDBRANCH  17  18
ENDBRANCH  16  17
ENDBRANCH  14  16
ENDBRANCH   6  14
TORSDOF 8
ENDMDL
MODEL 6
REMARK VINA RESULT:    -4.758      1.521      4.453
REMARK INTER + INTRA:          -8.129
REMARK INTER:                  -6.878
REMARK INTRA:                  -1.252
REMARK UNBOUND:                -1.146
REMARK SMILES CC(C)COC(=O)c1ccccc1C(=O)OCC(C)C
REMARK SMILES IDX 8 1 9 2 10 3 11 4 12 5 13 6 6 7 7 8 5 9 4 10 2 11 1 12 3 13
REMARK SMILES IDX 14 14 15 15 16 16 17 17 18 18 19 19 20 20
REMARK H PARENT
REMARK Flexibility Score: inf
ROOT
ATOM      1  C   UNL     1      -5.395  -1.559   0.714  1.00  0.00     0.074 A 
ATOM      2  C   UNL     1      -4.649  -0.386   0.501  1.00  0.00     0.016 A 
ATOM      3  C   UNL     1      -3.419  -0.199   1.132  1.00  0.00     0.001 A 
ATOM      4  C   UNL     1      -2.914  -1.178   1.984  1.00  0.00     0.001 A 
ATOM      5  C   UNL     1      -3.648  -2.340   2.227  1.00  0.00     0.016 A 
ATOM      6  C   UNL     1      -4.901  -2.540   1.618  1.00  0.00     0.074 A 
ENDROOT
BRANCH   1   7
ATOM      7  C   UNL     1      -6.636  -1.742  -0.071  1.00  0.00     0.339 C 
ATOM      8  O   UNL     1      -7.723  -1.241   0.330  1.00  0.00    -0.246 OA
BRANCH   7   9
ATOM      9  O   UNL     1      -6.608  -2.519  -1.233  1.00  0.00    -0.462 OA
BRANCH   9  10
ATOM     10  C   UNL     1      -7.396  -3.694  -1.394  1.00  0.00     0.236 C 
BRANCH  10  11
ATOM     11  C   UNL     1      -6.494  -4.889  -1.735  1.00  0.00     0.021 C 
ATOM     12  C   UNL     1      -6.241  -4.976  -3.246  1.00  0.00     0.011 C 
ATOM     13  C   UNL     1      -7.118  -6.193  -1.224  1.00  0.00     0.011 C 
ENDBRANCH  10  11
ENDBRANCH   9  10
ENDBRANCH   7   9
ENDBRANCH   1   7
BRANCH   6  14
ATOM     14  C   UNL     1      -5.688  -3.732   2.008  1.00  0.00     0.339 C 
ATOM     15  O   UNL     1      -6.763  -3.588   2.651  1.00  0.00    -0.246 OA
BRANCH  14  16
ATOM     16  O   UNL     1      -5.262  -5.009   1.616  1.00  0.00    -0.462 OA
BRANCH  16  17
ATOM     17  C   UNL     1      -5.205  -6.134   2.493  1.00  0.00     0.236 C 
BRANCH  17  18
ATOM     18  C   UNL     1      -3.781  -6.335   3.042  1.00  0.00     0.021 C 
ATOM     19  C   UNL     1      -2.744  -5.970   1.973  1.00  0.00     0.011 C 
ATOM     20  C   UNL     1      -3.539  -5.512   4.313  1.00  0.00     0.011 C 
ENDBRANCH  17  18
ENDBRANCH  16  17
ENDBRANCH  14  16
ENDBRANCH   6  14
TORSDOF 8
ENDMDL
MODEL 7
REMARK VINA RESULT:    -4.749      1.831      5.350
REMARK INTER + INTRA:          -8.116
REMARK INTER:                  -6.695
REMARK INTRA:                  -1.421
REMARK UNBOUND:                -1.146
REMARK SMILES CC(C)COC(=O)c1ccccc1C(=O)OCC(C)C
REMARK SMILES IDX 8 1 9 2 10 3 11 4 12 5 13 6 6 7 7 8 5 9 4 10 2 11 1 12 3 13
REMARK SMILES IDX 14 14 15 15 16 16 17 17 18 18 19 19 20 20
REMARK H PARENT
REMARK Flexibility Score: inf
ROOT
ATOM      1  C   UNL     1      -4.870  -1.923   2.364  1.00  0.00     0.074 A 
ATOM      2  C   UNL     1      -3.536  -1.607   2.676  1.00  0.00     0.016 A 
ATOM      3  C   UNL     1      -2.760  -0.844   1.804  1.00  0.00     0.001 A 
ATOM      4  C   UNL     1      -3.302  -0.384   0.606  1.00  0.00     0.001 A 
ATOM      5  C   UNL     1      -4.617  -0.705   0.265  1.00  0.00     0.016 A 
ATOM      6  C   UNL     1      -5.411  -1.491   1.121  1.00  0.00     0.074 A 
ENDROOT
BRANCH   1   7
ATOM      7  C   UNL     1      -5.669  -2.640   3.382  1.00  0.00     0.339 C 
ATOM      8  O   UNL     1      -5.898  -3.875   3.258  1.00  0.00    -0.246 OA
BRANCH   7   9
ATOM      9  O   UNL     1      -6.213  -1.929   4.456  1.00  0.00    -0.462 OA
BRANCH   9  10
ATOM     10  C   UNL     1      -7.032  -0.778   4.282  1.00  0.00     0.236 C 
BRANCH  10  11
ATOM     11  C   UNL     1      -6.288   0.475   4.771  1.00  0.00     0.021 C 
ATOM     12  C   UNL     1      -5.818   1.333   3.589  1.00  0.00     0.011 C 
ATOM     13  C   UNL     1      -5.095   0.080   5.650  1.00  0.00     0.011 C 
ENDBRANCH  10  11
ENDBRANCH   9  10
ENDBRANCH   7   9
ENDBRANCH   1   7
BRANCH   6  14
ATOM     14  C   UNL     1      -6.753  -1.901   0.651  1.00  0.00     0.339 C 
ATOM     15  O   UNL     1      -7.738  -1.132   0.823  1.00  0.00    -0.246 OA
BRANCH  14  16
ATOM     16  O   UNL     1      -6.914  -3.116  -0.029  1.00  0.00    -0.462 OA
BRANCH  16  17
ATOM     17  C   UNL     1      -6.942  -3.236  -1.452  1.00  0.00     0.236 C 
BRANCH  17  18
ATOM     18  C   UNL     1      -6.986  -4.714  -1.881  1.00  0.00     0.021 C 
ATOM     19  C   UNL     1      -6.234  -4.904  -3.204  1.00  0.00     0.011 C 
ATOM     20  C   UNL     1      -6.401  -5.637  -0.805  1.00  0.00     0.011 C 
ENDBRANCH  17  18
ENDBRANCH  16  17
ENDBRANCH  14  16
ENDBRANCH   6  14
TORSDOF 8
ENDMDL
MODEL 8
REMARK VINA RESULT:    -4.747      1.411      4.174
REMARK INTER + INTRA:          -8.114
REMARK INTER:                  -6.786
REMARK INTRA:                  -1.328
REMARK UNBOUND:                -1.146
REMARK SMILES CC(C)COC(=O)c1ccccc1C(=O)OCC(C)C
REMARK SMILES IDX 8 1 9 2 10 3 11 4 12 5 13 6 6 7 7 8 5 9 4 10 2 11 1 12 3 13
REMARK SMILES IDX 14 14 15 15 16 16 17 17 18 18 19 19 20 20
REMARK H PARENT
REMARK Flexibility Score: inf
ROOT
ATOM      1  C   UNL     1      -6.174  -4.031   0.587  1.00  0.00     0.074 A 
ATOM      2  C   UNL     1      -6.187  -5.359   0.124  1.00  0.00     0.016 A 
ATOM      3  C   UNL     1      -6.509  -5.650  -1.202  1.00  0.00     0.001 A 
ATOM      4  C   UNL     1      -6.823  -4.621  -2.086  1.00  0.00     0.001 A 
ATOM      5  C   UNL     1      -6.839  -3.297  -1.642  1.00  0.00     0.016 A 
ATOM      6  C   UNL     1      -6.538  -2.984  -0.304  1.00  0.00     0.074 A 
ENDROOT
BRANCH   1   7
ATOM      7  C   UNL     1      -5.717  -3.785   1.973  1.00  0.00     0.339 C 
ATOM      8  O   UNL     1      -6.553  -3.530   2.884  1.00  0.00    -0.246 OA
BRANCH   7   9
ATOM      9  O   UNL     1      -4.348  -3.786   2.256  1.00  0.00    -0.462 OA
BRANCH   9  10
ATOM     10  C   UNL     1      -3.829  -4.086   3.547  1.00  0.00     0.236 C 
BRANCH  10  11
ATOM     11  C   UNL     1      -3.250  -5.509   3.563  1.00  0.00     0.021 C 
ATOM     12  C   UNL     1      -2.764  -5.922   2.168  1.00  0.00     0.011 C 
ATOM     13  C   UNL     1      -4.294  -6.506   4.080  1.00  0.00     0.011 C 
ENDBRANCH  10  11
ENDBRANCH   9  10
ENDBRANCH   7   9
ENDBRANCH   1   7
BRANCH   6  14
ATOM     14  C   UNL     1      -6.691  -1.579   0.138  1.00  0.00     0.339 C 
ATOM     15  O   UNL     1      -7.807  -1.175   0.563  1.00  0.00    -0.246 OA
BRANCH  14  16
ATOM     16  O   UNL     1      -5.582  -0.721   0.133  1.00  0.00    -0.462 OA
BRANCH  16  17
ATOM     17  C   UNL     1      -5.424   0.382   1.025  1.00  0.00     0.236 C 
BRANCH  17  18
ATOM     18  C   UNL     1      -4.212   0.174   1.951  1.00  0.00     0.021 C 
ATOM     19  C   UNL     1      -4.664  -0.423   3.290  1.00  0.00     0.011 C 
ATOM     20  C   UNL     1      -3.149  -0.725   1.306  1.00  0.00     0.011 C 
ENDBRANCH  17  18
ENDBRANCH  16  17
ENDBRANCH  14  16
ENDBRANCH   6  14
TORSDOF 8
ENDMDL
MODEL 9
REMARK VINA RESULT:    -4.739      1.441      2.044
REMARK INTER + INTRA:          -8.101
REMARK INTER:                  -6.737
REMARK INTRA:                  -1.364
REMARK UNBOUND:                -1.146
REMARK SMILES CC(C)COC(=O)c1ccccc1C(=O)OCC(C)C
REMARK SMILES IDX 8 1 9 2 10 3 11 4 12 5 13 6 6 7 7 8 5 9 4 10 2 11 1 12 3 13
REMARK SMILES IDX 14 14 15 15 16 16 17 17 18 18 19 19 20 20
REMARK H PARENT
REMARK Flexibility Score: inf
ROOT
ATOM      1  C   UNL     1      -6.521  -3.020  -0.306  1.00  0.00     0.074 A 
ATOM      2  C   UNL     1      -6.815  -3.352  -1.641  1.00  0.00     0.016 A 
ATOM      3  C   UNL     1      -6.793  -4.679  -2.069  1.00  0.00     0.001 A 
ATOM      4  C   UNL     1      -6.477  -5.697  -1.171  1.00  0.00     0.001 A 
ATOM      5  C   UNL     1      -6.160  -5.389   0.153  1.00  0.00     0.016 A 
ATOM      6  C   UNL     1      -6.156  -4.054   0.599  1.00  0.00     0.074 A 
ENDROOT
BRANCH   1   7
ATOM      7  C   UNL     1      -6.671  -1.607   0.106  1.00  0.00     0.339 C 
ATOM      8  O   UNL     1      -7.814  -1.136   0.363  1.00  0.00    -0.246 OA
BRANCH   7   9
ATOM      9  O   UNL     1      -5.544  -0.782   0.157  1.00  0.00    -0.462 OA
BRANCH   9  10
ATOM     10  C   UNL     1      -5.445   0.333   1.037  1.00  0.00     0.236 C 
BRANCH  10  11
ATOM     11  C   UNL     1      -4.216   0.177   1.945  1.00  0.00     0.021 C 
ATOM     12  C   UNL     1      -3.139  -0.684   1.272  1.00  0.00     0.011 C 
ATOM     13  C   UNL     1      -4.620  -0.433   3.293  1.00  0.00     0.011 C 
ENDBRANCH  10  11
ENDBRANCH   9  10
ENDBRANCH   7   9
ENDBRANCH   1   7
BRANCH   6  14
ATOM     14  C   UNL     1      -5.693  -3.779   1.978  1.00  0.00     0.339 C 
ATOM     15  O   UNL     1      -6.538  -3.572   2.892  1.00  0.00    -0.246 OA
BRANCH  14  16
ATOM     16  O   UNL     1      -4.323  -3.802   2.273  1.00  0.00    -0.462 OA
BRANCH  16  17
ATOM     17  C   UNL     1      -3.784  -4.209   3.531  1.00  0.00     0.236 C 
BRANCH  17  18
ATOM     18  C   UNL     1      -3.234  -5.645   3.458  1.00  0.00     0.021 C 
ATOM     19  C   UNL     1      -4.314  -6.649   3.876  1.00  0.00     0.011 C 
ATOM     20  C   UNL     1      -2.712  -5.984   2.056  1.00  0.00     0.011 C 
ENDBRANCH  17  18
ENDBRANCH  16  17
ENDBRANCH  14  16
ENDBRANCH   6  14
TORSDOF 8
ENDMDL
