MODEL 1
REMARK VINA RESULT:    -3.280      0.000      0.000
REMARK INTER + INTRA:         -13.515
REMARK INTER:                  -8.266
REMARK INTRA:                  -5.249
REMARK UNBOUND:                -5.249
REMARK SMILES CCCCCCCCCCCCCCCCCCCCCCCCCCCC(=O)[O-]
REMARK SMILES IDX 15 1 16 2 17 3 18 4 19 5 20 6 21 7 22 8 23 9 24 10 25 11
REMARK SMILES IDX 26 12 27 13 28 14 29 15 30 16 14 17 13 18 12 19 11 20 10 21
REMARK SMILES IDX 9 22 8 23 7 24 6 25 5 26 4 27 3 28 2 29 1 30
REMARK H PARENT
REMARK Flexibility Score: inf
ROOT
ATOM      1  C   UNL     1     154.753 135.993 166.340  1.00  0.00     0.000 C 
ENDROOT
BRANCH   1   2
ATOM      2  C   UNL     1     155.319 137.257 167.017  1.00  0.00     0.000 C 
BRANCH   2   3
ATOM      3  C   UNL     1     156.855 137.227 167.115  1.00  0.00     0.000 C 
BRANCH   3   4
ATOM      4  C   UNL     1     157.427 138.450 167.847  1.00  0.00     0.000 C 
BRANCH   4   5
ATOM      5  C   UNL     1     156.335 139.331 168.475  1.00  0.00     0.000 C 
BRANCH   5   6
ATOM      6  C   UNL     1     156.658 140.821 168.285  1.00  0.00     0.000 C 
BRANCH   6   7
ATOM      7  C   UNL     1     157.806 141.056 167.291  1.00  0.00     0.000 C 
BRANCH   7   8
ATOM      8  C   UNL     1     157.448 142.092 166.210  1.00  0.00     0.000 C 
BRANCH   8   9
ATOM      9  C   UNL     1     156.220 141.677 165.382  1.00  0.00     0.000 C 
BRANCH   9  10
ATOM     10  C   UNL     1     156.363 140.269 164.780  1.00  0.00     0.000 C 
BRANCH  10  11
ATOM     11  C   UNL     1     155.002 139.678 164.348  1.00  0.00     0.000 C 
BRANCH  11  12
ATOM     12  C   UNL     1     153.814 140.188 165.186  1.00  0.00     0.006 C 
BRANCH  12  13
ATOM     13  C   UNL     1     152.669 139.175 165.333  1.00  0.00     0.053 C 
BRANCH  13  14
ATOM     14  C   UNL     1     151.759 139.173 164.140  1.00  0.00     0.041 C 
ATOM     15  O   UNL     1     151.474 140.253 163.558  1.00  0.00    -0.550 OA
ATOM     16  O   UNL     1     151.228 137.978 163.668  1.00  0.00    -0.550 OA
ENDBRANCH  13  14
ENDBRANCH  12  13
ENDBRANCH  11  12
ENDBRANCH  10  11
ENDBRANCH   9  10
ENDBRANCH   8   9
ENDBRANCH   7   8
ENDBRANCH   6   7
ENDBRANCH   5   6
ENDBRANCH   4   5
ENDBRANCH   3   4
ENDBRANCH   2   3
ENDBRANCH   1   2
BRANCH   1  17
ATOM     17  C   UNL     1     153.564 135.367 167.088  1.00  0.00     0.000 C 
BRANCH  17  18
ATOM     18  C   UNL     1     153.246 133.936 166.623  1.00  0.00     0.000 C 
BRANCH  18  19
ATOM     19  C   UNL     1     154.028 133.537 165.361  1.00  0.00     0.000 C 
BRANCH  19  20
ATOM     20  C   UNL     1     154.879 132.275 165.558  1.00  0.00     0.000 C 
BRANCH  20  21
ATOM     21  C   UNL     1     155.488 132.249 166.965  1.00  0.00     0.000 C 
BRANCH  21  22
ATOM     22  C   UNL     1     157.017 132.350 166.912  1.00  0.00    -0.000 C 
BRANCH  22  23
ATOM     23  C   UNL     1     157.581 133.414 167.871  1.00  0.00    -0.000 C 
BRANCH  23  24
ATOM     24  C   UNL     1     157.901 132.873 169.280  1.00  0.00    -0.000 C 
BRANCH  24  25
ATOM     25  C   UNL     1     157.179 133.667 170.385  1.00  0.00    -0.000 C 
BRANCH  25  26
ATOM     26  C   UNL     1     156.472 134.923 169.853  1.00  0.00    -0.000 C 
BRANCH  26  27
ATOM     27  C   UNL     1     156.778 136.173 170.696  1.00  0.00    -0.000 C 
BRANCH  27  28
ATOM     28  C   UNL     1     155.506 136.863 171.215  1.00  0.00    -0.000 C 
BRANCH  28  29
ATOM     29  C   UNL     1     154.242 136.420 170.464  1.00  0.00    -0.003 C 
ATOM     30  C   UNL     1     153.352 137.616 170.132  1.00  0.00     0.004 C 
ENDBRANCH  28  29
ENDBRANCH  27  28
ENDBRANCH  26  27
ENDBRANCH  25  26
ENDBRANCH  24  25
ENDBRANCH  23  24
ENDBRANCH  22  23
ENDBRANCH  21  22
ENDBRANCH  20  21
ENDBRANCH  19  20
ENDBRANCH  18  19
ENDBRANCH  17  18
ENDBRANCH   1  17
TORSDOF 26
ENDMDL
MODEL 2
REMARK VINA RESULT:    -3.244      3.210      6.162
REMARK INTER + INTRA:         -13.423
REMARK INTER:                  -8.743
REMARK INTRA:                  -4.680
REMARK UNBOUND:                -5.249
REMARK SMILES CCCCCCCCCCCCCCCCCCCCCCCCCCCC(=O)[O-]
REMARK SMILES IDX 15 1 16 2 17 3 18 4 19 5 20 6 21 7 22 8 23 9 24 10 25 11
REMARK SMILES IDX 26 12 27 13 28 14 29 15 30 16 14 17 13 18 12 19 11 20 10 21
REMARK SMILES IDX 9 22 8 23 7 24 6 25 5 26 4 27 3 28 2 29 1 30
REMARK H PARENT
REMARK Flexibility Score: inf
ROOT
ATOM      1  C   UNL     1     152.114 131.983 164.794  1.00  0.00     0.000 C 
ENDROOT
BRANCH   1   2
ATOM      2  C   UNL     1     152.746 133.356 165.105  1.00  0.00     0.000 C 
BRANCH   2   3
ATOM      3  C   UNL     1     154.280 133.282 165.202  1.00  0.00     0.000 C 
BRANCH   3   4
ATOM      4  C   UNL     1     154.767 132.036 165.957  1.00  0.00     0.000 C 
BRANCH   4   5
ATOM      5  C   UNL     1     156.146 132.236 166.606  1.00  0.00     0.000 C 
BRANCH   5   6
ATOM      6  C   UNL     1     156.004 132.582 168.097  1.00  0.00     0.000 C 
BRANCH   6   7
ATOM      7  C   UNL     1     157.150 133.469 168.610  1.00  0.00     0.000 C 
BRANCH   7   8
ATOM      8  C   UNL     1     156.690 134.458 169.696  1.00  0.00     0.000 C 
BRANCH   8   9
ATOM      9  C   UNL     1     156.519 135.887 169.155  1.00  0.00     0.000 C 
BRANCH   9  10
ATOM     10  C   UNL     1     156.694 135.966 167.629  1.00  0.00     0.000 C 
BRANCH  10  11
ATOM     11  C   UNL     1     155.987 137.199 167.024  1.00  0.00     0.000 C 
BRANCH  11  12
ATOM     12  C   UNL     1     156.948 138.351 166.675  1.00  0.00     0.006 C 
BRANCH  12  13
ATOM     13  C   UNL     1     157.527 139.078 167.898  1.00  0.00     0.053 C 
BRANCH  13  14
ATOM     14  C   UNL     1     157.184 140.539 167.903  1.00  0.00     0.041 C 
ATOM     15  O   UNL     1     157.872 141.354 167.232  1.00  0.00    -0.550 OA
ATOM     16  O   UNL     1     156.104 141.000 168.645  1.00  0.00    -0.550 OA
ENDBRANCH  13  14
ENDBRANCH  12  13
ENDBRANCH  11  12
ENDBRANCH  10  11
ENDBRANCH   9  10
ENDBRANCH   8   9
ENDBRANCH   7   8
ENDBRANCH   6   7
ENDBRANCH   5   6
ENDBRANCH   4   5
ENDBRANCH   3   4
ENDBRANCH   2   3
ENDBRANCH   1   2
BRANCH   1  17
ATOM     17  C   UNL     1     151.523 131.878 163.378  1.00  0.00     0.000 C 
BRANCH  17  18
ATOM     18  C   UNL     1     150.331 132.824 163.153  1.00  0.00     0.000 C 
BRANCH  18  19
ATOM     19  C   UNL     1     149.026 132.285 163.761  1.00  0.00     0.000 C 
BRANCH  19  20
ATOM     20  C   UNL     1     148.219 133.365 164.497  1.00  0.00     0.000 C 
BRANCH  20  21
ATOM     21  C   UNL     1     149.009 133.906 165.695  1.00  0.00     0.000 C 
BRANCH  21  22
ATOM     22  C   UNL     1     149.020 132.903 166.854  1.00  0.00    -0.000 C 
BRANCH  22  23
ATOM     23  C   UNL     1     150.066 133.245 167.932  1.00  0.00    -0.000 C 
BRANCH  23  24
ATOM     24  C   UNL     1     151.117 132.136 168.149  1.00  0.00    -0.000 C 
BRANCH  24  25
ATOM     25  C   UNL     1     152.318 132.629 168.979  1.00  0.00    -0.000 C 
BRANCH  25  26
ATOM     26  C   UNL     1     152.251 134.132 169.292  1.00  0.00    -0.000 C 
BRANCH  26  27
ATOM     27  C   UNL     1     153.162 134.966 168.376  1.00  0.00    -0.000 C 
BRANCH  27  28
ATOM     28  C   UNL     1     152.608 136.377 168.116  1.00  0.00    -0.000 C 
BRANCH  28  29
ATOM     29  C   UNL     1     151.956 136.514 166.732  1.00  0.00    -0.003 C 
ATOM     30  C   UNL     1     150.529 137.046 166.847  1.00  0.00     0.004 C 
ENDBRANCH  28  29
ENDBRANCH  27  28
ENDBRANCH  26  27
ENDBRANCH  25  26
ENDBRANCH  24  25
ENDBRANCH  23  24
ENDBRANCH  22  23
ENDBRANCH  21  22
ENDBRANCH  20  21
ENDBRANCH  19  20
ENDBRANCH  18  19
ENDBRANCH  17  18
ENDBRANCH   1  17
TORSDOF 26
ENDMDL
MODEL 3
REMARK VINA RESULT:    -3.233      3.302      7.268
REMARK INTER + INTRA:         -13.395
REMARK INTER:                  -8.635
REMARK INTRA:                  -4.761
REMARK UNBOUND:                -5.249
REMARK SMILES CCCCCCCCCCCCCCCCCCCCCCCCCCCC(=O)[O-]
REMARK SMILES IDX 15 1 16 2 17 3 18 4 19 5 20 6 21 7 22 8 23 9 24 10 25 11
REMARK SMILES IDX 26 12 27 13 28 14 29 15 30 16 14 17 13 18 12 19 11 20 10 21
REMARK SMILES IDX 9 22 8 23 7 24 6 25 5 26 4 27 3 28 2 29 1 30
REMARK H PARENT
REMARK Flexibility Score: inf
ROOT
ATOM      1  C   UNL     1     151.026 132.545 166.261  1.00  0.00     0.000 C 
ENDROOT
BRANCH   1   2
ATOM      2  C   UNL     1     151.538 133.125 164.927  1.00  0.00     0.000 C 
BRANCH   2   3
ATOM      3  C   UNL     1     152.855 132.470 164.474  1.00  0.00     0.000 C 
BRANCH   3   4
ATOM      4  C   UNL     1     153.654 131.875 165.643  1.00  0.00     0.000 C 
BRANCH   4   5
ATOM      5  C   UNL     1     155.148 132.232 165.584  1.00  0.00     0.000 C 
BRANCH   5   6
ATOM      6  C   UNL     1     155.749 132.303 166.996  1.00  0.00     0.000 C 
BRANCH   6   7
ATOM      7  C   UNL     1     157.283 132.205 166.992  1.00  0.00     0.000 C 
BRANCH   7   8
ATOM      8  C   UNL     1     157.948 133.328 167.809  1.00  0.00     0.000 C 
BRANCH   8   9
ATOM      9  C   UNL     1     156.921 134.284 168.438  1.00  0.00     0.000 C 
BRANCH   9  10
ATOM     10  C   UNL     1     156.927 135.674 167.779  1.00  0.00     0.000 C 
BRANCH  10  11
ATOM     11  C   UNL     1     156.740 136.809 168.811  1.00  0.00     0.000 C 
BRANCH  11  12
ATOM     12  C   UNL     1     157.166 138.194 168.288  1.00  0.00     0.006 C 
BRANCH  12  13
ATOM     13  C   UNL     1     156.709 138.491 166.852  1.00  0.00     0.053 C 
BRANCH  13  14
ATOM     14  C   UNL     1     157.272 139.783 166.336  1.00  0.00     0.041 C 
ATOM     15  O   UNL     1     157.121 140.102 165.127  1.00  0.00    -0.550 OA
ATOM     16  O   UNL     1     157.960 140.636 167.190  1.00  0.00    -0.550 OA
ENDBRANCH  13  14
ENDBRANCH  12  13
ENDBRANCH  11  12
ENDBRANCH  10  11
ENDBRANCH   9  10
ENDBRANCH   8   9
ENDBRANCH   7   8
ENDBRANCH   6   7
ENDBRANCH   5   6
ENDBRANCH   4   5
ENDBRANCH   3   4
ENDBRANCH   2   3
ENDBRANCH   1   2
BRANCH   1  17
ATOM     17  C   UNL     1     150.166 133.526 167.075  1.00  0.00     0.000 C 
BRANCH  17  18
ATOM     18  C   UNL     1     150.670 133.716 168.515  1.00  0.00     0.000 C 
BRANCH  18  19
ATOM     19  C   UNL     1     152.093 133.173 168.720  1.00  0.00     0.000 C 
BRANCH  19  20
ATOM     20  C   UNL     1     153.131 134.282 168.941  1.00  0.00     0.000 C 
BRANCH  20  21
ATOM     21  C   UNL     1     153.347 135.085 167.653  1.00  0.00     0.000 C 
BRANCH  21  22
ATOM     22  C   UNL     1     153.072 136.577 167.872  1.00  0.00    -0.000 C 
BRANCH  22  23
ATOM     23  C   UNL     1     151.770 137.052 167.201  1.00  0.00    -0.000 C 
BRANCH  23  24
ATOM     24  C   UNL     1     151.652 136.642 165.717  1.00  0.00    -0.000 C 
BRANCH  24  25
ATOM     25  C   UNL     1     150.358 137.169 165.070  1.00  0.00    -0.000 C 
BRANCH  25  26
ATOM     26  C   UNL     1     149.678 136.132 164.163  1.00  0.00    -0.000 C 
BRANCH  26  27
ATOM     27  C   UNL     1     148.288 135.719 164.678  1.00  0.00    -0.000 C 
BRANCH  27  28
ATOM     28  C   UNL     1     147.467 134.961 163.622  1.00  0.00    -0.000 C 
BRANCH  28  29
ATOM     29  C   UNL     1     148.194 133.722 163.081  1.00  0.00    -0.003 C 
ATOM     30  C   UNL     1     147.763 132.462 163.827  1.00  0.00     0.004 C 
ENDBRANCH  28  29
ENDBRANCH  27  28
ENDBRANCH  26  27
ENDBRANCH  25  26
ENDBRANCH  24  25
ENDBRANCH  23  24
ENDBRANCH  22  23
ENDBRANCH  21  22
ENDBRANCH  20  21
ENDBRANCH  19  20
ENDBRANCH  18  19
ENDBRANCH  17  18
ENDBRANCH   1  17
TORSDOF 26
ENDMDL
MODEL 4
REMARK VINA RESULT:    -3.214      3.530      7.305
REMARK INTER + INTRA:         -13.347
REMARK INTER:                  -8.028
REMARK INTRA:                  -5.319
REMARK UNBOUND:                -5.249
REMARK SMILES CCCCCCCCCCCCCCCCCCCCCCCCCCCC(=O)[O-]
REMARK SMILES IDX 15 1 16 2 17 3 18 4 19 5 20 6 21 7 22 8 23 9 24 10 25 11
REMARK SMILES IDX 26 12 27 13 28 14 29 15 30 16 14 17 13 18 12 19 11 20 10 21
REMARK SMILES IDX 9 22 8 23 7 24 6 25 5 26 4 27 3 28 2 29 1 30
REMARK H PARENT
REMARK Flexibility Score: inf
ROOT
ATOM      1  C   UNL     1     148.621 136.189 168.065  1.00  0.00     0.000 C 
ENDROOT
BRANCH   1   2
ATOM      2  C   UNL     1     149.357 134.871 168.378  1.00  0.00     0.000 C 
BRANCH   2   3
ATOM      3  C   UNL     1     148.824 133.694 167.542  1.00  0.00     0.000 C 
BRANCH   3   4
ATOM      4  C   UNL     1     149.913 133.036 166.682  1.00  0.00     0.000 C 
BRANCH   4   5
ATOM      5  C   UNL     1     149.514 132.922 165.202  1.00  0.00     0.000 C 
BRANCH   5   6
ATOM      6  C   UNL     1     150.752 132.714 164.316  1.00  0.00     0.000 C 
BRANCH   6   7
ATOM      7  C   UNL     1     151.905 132.024 165.062  1.00  0.00     0.000 C 
BRANCH   7   8
ATOM      8  C   UNL     1     153.228 132.072 164.276  1.00  0.00     0.000 C 
BRANCH   8   9
ATOM      9  C   UNL     1     154.422 132.467 165.161  1.00  0.00     0.000 C 
BRANCH   9  10
ATOM     10  C   UNL     1     154.305 131.914 166.592  1.00  0.00     0.000 C 
BRANCH  10  11
ATOM     11  C   UNL     1     155.391 132.488 167.530  1.00  0.00     0.000 C 
BRANCH  11  12
ATOM     12  C   UNL     1     156.816 132.391 166.955  1.00  0.00     0.006 C 
BRANCH  12  13
ATOM     13  C   UNL     1     157.876 133.146 167.773  1.00  0.00     0.053 C 
BRANCH  13  14
ATOM     14  C   UNL     1     157.455 133.340 169.200  1.00  0.00     0.041 C 
ATOM     15  O   UNL     1     156.844 134.386 169.545  1.00  0.00    -0.550 OA
ATOM     16  O   UNL     1     157.737 132.364 170.149  1.00  0.00    -0.550 OA
ENDBRANCH  13  14
ENDBRANCH  12  13
ENDBRANCH  11  12
ENDBRANCH  10  11
ENDBRANCH   9  10
ENDBRANCH   8   9
ENDBRANCH   7   8
ENDBRANCH   6   7
ENDBRANCH   5   6
ENDBRANCH   4   5
ENDBRANCH   3   4
ENDBRANCH   2   3
ENDBRANCH   1   2
BRANCH   1  17
ATOM     17  C   UNL     1     149.211 136.961 166.873  1.00  0.00     0.000 C 
BRANCH  17  18
ATOM     18  C   UNL     1     150.749 136.941 166.846  1.00  0.00     0.000 C 
BRANCH  18  19
ATOM     19  C   UNL     1     151.310 136.332 165.551  1.00  0.00     0.000 C 
BRANCH  19  20
ATOM     20  C   UNL     1     152.627 135.574 165.768  1.00  0.00     0.000 C 
BRANCH  20  21
ATOM     21  C   UNL     1     152.860 135.312 167.261  1.00  0.00     0.000 C 
BRANCH  21  22
ATOM     22  C   UNL     1     154.239 135.812 167.707  1.00  0.00    -0.000 C 
BRANCH  22  23
ATOM     23  C   UNL     1     155.112 136.289 166.532  1.00  0.00    -0.000 C 
BRANCH  23  24
ATOM     24  C   UNL     1     156.597 136.486 166.904  1.00  0.00    -0.000 C 
BRANCH  24  25
ATOM     25  C   UNL     1     156.894 137.923 167.371  1.00  0.00    -0.000 C 
BRANCH  25  26
ATOM     26  C   UNL     1     157.240 138.006 168.866  1.00  0.00    -0.000 C 
BRANCH  26  27
ATOM     27  C   UNL     1     156.013 138.324 169.738  1.00  0.00    -0.000 C 
BRANCH  27  28
ATOM     28  C   UNL     1     155.177 139.488 169.182  1.00  0.00    -0.000 C 
BRANCH  28  29
ATOM     29  C   UNL     1     153.743 139.071 168.824  1.00  0.00    -0.003 C 
ATOM     30  C   UNL     1     153.388 139.489 167.399  1.00  0.00     0.004 C 
ENDBRANCH  28  29
ENDBRANCH  27  28
ENDBRANCH  26  27
ENDBRANCH  25  26
ENDBRANCH  24  25
ENDBRANCH  23  24
ENDBRANCH  22  23
ENDBRANCH  21  22
ENDBRANCH  20  21
ENDBRANCH  19  20
ENDBRANCH  18  19
ENDBRANCH  17  18
ENDBRANCH   1  17
TORSDOF 26
ENDMDL
MODEL 5
REMARK VINA RESULT:    -3.193      4.860      8.451
REMARK INTER + INTRA:         -13.295
REMARK INTER:                  -9.776
REMARK INTRA:                  -3.519
REMARK UNBOUND:                -5.249
REMARK SMILES CCCCCCCCCCCCCCCCCCCCCCCCCCCC(=O)[O-]
REMARK SMILES IDX 15 1 16 2 17 3 18 4 19 5 20 6 21 7 22 8 23 9 24 10 25 11
REMARK SMILES IDX 26 12 27 13 28 14 29 15 30 16 14 17 13 18 12 19 11 20 10 21
REMARK SMILES IDX 9 22 8 23 7 24 6 25 5 26 4 27 3 28 2 29 1 30
REMARK H PARENT
REMARK Flexibility Score: inf
ROOT
ATOM      1  C   UNL     1     151.893 133.481 165.456  1.00  0.00     0.000 C 
ENDROOT
BRANCH   1   2
ATOM      2  C   UNL     1     153.366 133.858 165.712  1.00  0.00     0.000 C 
BRANCH   2   3
ATOM      3  C   UNL     1     154.343 132.928 164.970  1.00  0.00     0.000 C 
BRANCH   3   4
ATOM      4  C   UNL     1     155.258 132.146 165.924  1.00  0.00     0.000 C 
BRANCH   4   5
ATOM      5  C   UNL     1     154.998 132.479 167.402  1.00  0.00     0.000 C 
BRANCH   5   6
ATOM      6  C   UNL     1     156.275 133.001 168.077  1.00  0.00     0.000 C 
BRANCH   6   7
ATOM      7  C   UNL     1     156.563 134.473 167.741  1.00  0.00     0.000 C 
BRANCH   7   8
ATOM      8  C   UNL     1     156.708 135.349 168.999  1.00  0.00     0.000 C 
BRANCH   8   9
ATOM      9  C   UNL     1     155.353 135.853 169.523  1.00  0.00     0.000 C 
BRANCH   9  10
ATOM     10  C   UNL     1     155.395 137.331 169.944  1.00  0.00     0.000 C 
BRANCH  10  11
ATOM     11  C   UNL     1     156.818 137.925 169.848  1.00  0.00     0.000 C 
BRANCH  11  12
ATOM     12  C   UNL     1     156.934 139.092 168.850  1.00  0.00     0.006 C 
BRANCH  12  13
ATOM     13  C   UNL     1     157.515 138.695 167.484  1.00  0.00     0.053 C 
BRANCH  13  14
ATOM     14  C   UNL     1     156.458 138.609 166.424  1.00  0.00     0.041 C 
ATOM     15  O   UNL     1     155.631 137.658 166.429  1.00  0.00    -0.550 OA
ATOM     16  O   UNL     1     156.383 139.578 165.431  1.00  0.00    -0.550 OA
ENDBRANCH  13  14
ENDBRANCH  12  13
ENDBRANCH  11  12
ENDBRANCH  10  11
ENDBRANCH   9  10
ENDBRANCH   8   9
ENDBRANCH   7   8
ENDBRANCH   6   7
ENDBRANCH   5   6
ENDBRANCH   4   5
ENDBRANCH   3   4
ENDBRANCH   2   3
ENDBRANCH   1   2
BRANCH   1  17
ATOM     17  C   UNL     1     151.702 132.050 164.925  1.00  0.00     0.000 C 
BRANCH  17  18
ATOM     18  C   UNL     1     150.722 131.974 163.742  1.00  0.00     0.000 C 
BRANCH  18  19
ATOM     19  C   UNL     1     150.153 133.348 163.356  1.00  0.00     0.000 C 
BRANCH  19  20
ATOM     20  C   UNL     1     148.808 133.253 162.621  1.00  0.00     0.000 C 
BRANCH  20  21
ATOM     21  C   UNL     1     147.916 132.183 163.263  1.00  0.00     0.000 C 
BRANCH  21  22
ATOM     22  C   UNL     1     146.536 132.133 162.596  1.00  0.00    -0.000 C 
BRANCH  22  23
ATOM     23  C   UNL     1     146.594 132.394 161.080  1.00  0.00    -0.000 C 
BRANCH  23  24
ATOM     24  C   UNL     1     145.640 133.511 160.606  1.00  0.00    -0.000 C 
BRANCH  24  25
ATOM     25  C   UNL     1     144.990 134.259 161.784  1.00  0.00    -0.000 C 
BRANCH  25  26
ATOM     26  C   UNL     1     145.389 135.741 161.846  1.00  0.00    -0.000 C 
BRANCH  26  27
ATOM     27  C   UNL     1     146.368 136.041 162.995  1.00  0.00    -0.000 C 
BRANCH  27  28
ATOM     28  C   UNL     1     145.945 135.383 164.319  1.00  0.00    -0.000 C 
BRANCH  28  29
ATOM     29  C   UNL     1     146.830 135.804 165.500  1.00  0.00    -0.003 C 
ATOM     30  C   UNL     1     147.800 134.689 165.886  1.00  0.00     0.004 C 
ENDBRANCH  28  29
ENDBRANCH  27  28
ENDBRANCH  26  27
ENDBRANCH  25  26
ENDBRANCH  24  25
ENDBRANCH  23  24
ENDBRANCH  22  23
ENDBRANCH  21  22
ENDBRANCH  20  21
ENDBRANCH  19  20
ENDBRANCH  18  19
ENDBRANCH  17  18
ENDBRANCH   1  17
TORSDOF 26
ENDMDL
MODEL 6
REMARK VINA RESULT:    -3.153      2.450      4.819
REMARK INTER + INTRA:         -13.194
REMARK INTER:                  -8.407
REMARK INTRA:                  -4.788
REMARK UNBOUND:                -5.249
REMARK SMILES CCCCCCCCCCCCCCCCCCCCCCCCCCCC(=O)[O-]
REMARK SMILES IDX 15 1 16 2 17 3 18 4 19 5 20 6 21 7 22 8 23 9 24 10 25 11
REMARK SMILES IDX 26 12 27 13 28 14 29 15 30 16 14 17 13 18 12 19 11 20 10 21
REMARK SMILES IDX 9 22 8 23 7 24 6 25 5 26 4 27 3 28 2 29 1 30
REMARK H PARENT
REMARK Flexibility Score: inf
ROOT
ATOM      1  C   UNL     1     152.701 135.939 166.455  1.00  0.00     0.000 C 
ENDROOT
BRANCH   1   2
ATOM      2  C   UNL     1     154.003 136.613 166.934  1.00  0.00     0.000 C 
BRANCH   2   3
ATOM      3  C   UNL     1     155.258 135.916 166.378  1.00  0.00     0.000 C 
BRANCH   3   4
ATOM      4  C   UNL     1     156.305 135.624 167.463  1.00  0.00     0.000 C 
BRANCH   4   5
ATOM      5  C   UNL     1     155.932 136.228 168.827  1.00  0.00     0.000 C 
BRANCH   5   6
ATOM      6  C   UNL     1     157.026 137.189 169.318  1.00  0.00     0.000 C 
BRANCH   6   7
ATOM      7  C   UNL     1     156.807 138.631 168.835  1.00  0.00     0.000 C 
BRANCH   7   8
ATOM      8  C   UNL     1     157.521 138.923 167.503  1.00  0.00     0.000 C 
BRANCH   8   9
ATOM      9  C   UNL     1     157.621 140.429 167.207  1.00  0.00     0.000 C 
BRANCH   9  10
ATOM     10  C   UNL     1     157.510 140.744 165.706  1.00  0.00     0.000 C 
BRANCH  10  11
ATOM     11  C   UNL     1     156.361 139.965 165.028  1.00  0.00     0.000 C 
BRANCH  11  12
ATOM     12  C   UNL     1     155.223 140.867 164.515  1.00  0.00     0.006 C 
BRANCH  12  13
ATOM     13  C   UNL     1     154.328 141.442 165.625  1.00  0.00     0.053 C 
BRANCH  13  14
ATOM     14  C   UNL     1     153.597 140.368 166.374  1.00  0.00     0.041 C 
ATOM     15  O   UNL     1     152.716 139.678 165.795  1.00  0.00    -0.550 OA
ATOM     16  O   UNL     1     153.887 140.128 167.711  1.00  0.00    -0.550 OA
ENDBRANCH  13  14
ENDBRANCH  12  13
ENDBRANCH  11  12
ENDBRANCH  10  11
ENDBRANCH   9  10
ENDBRANCH   8   9
ENDBRANCH   7   8
ENDBRANCH   6   7
ENDBRANCH   5   6
ENDBRANCH   4   5
ENDBRANCH   3   4
ENDBRANCH   2   3
ENDBRANCH   1   2
BRANCH   1  17
ATOM     17  C   UNL     1     151.902 135.262 167.582  1.00  0.00     0.000 C 
BRANCH  17  18
ATOM     18  C   UNL     1     152.224 133.766 167.731  1.00  0.00     0.000 C 
BRANCH  18  19
ATOM     19  C   UNL     1     153.355 133.502 168.738  1.00  0.00     0.000 C 
BRANCH  19  20
ATOM     20  C   UNL     1     154.501 132.668 168.146  1.00  0.00     0.000 C 
BRANCH  20  21
ATOM     21  C   UNL     1     154.055 131.982 166.850  1.00  0.00     0.000 C 
BRANCH  21  22
ATOM     22  C   UNL     1     154.991 132.328 165.685  1.00  0.00    -0.000 C 
BRANCH  22  23
ATOM     23  C   UNL     1     154.266 133.026 164.521  1.00  0.00    -0.000 C 
BRANCH  23  24
ATOM     24  C   UNL     1     153.013 132.271 164.027  1.00  0.00    -0.000 C 
BRANCH  24  25
ATOM     25  C   UNL     1     151.734 133.116 164.165  1.00  0.00    -0.000 C 
BRANCH  25  26
ATOM     26  C   UNL     1     150.568 132.578 163.320  1.00  0.00    -0.000 C 
BRANCH  26  27
ATOM     27  C   UNL     1     149.235 132.577 164.088  1.00  0.00    -0.000 C 
BRANCH  27  28
ATOM     28  C   UNL     1     149.333 133.294 165.444  1.00  0.00    -0.000 C 
BRANCH  28  29
ATOM     29  C   UNL     1     148.436 134.538 165.525  1.00  0.00    -0.003 C 
ATOM     30  C   UNL     1     149.185 135.787 165.067  1.00  0.00     0.004 C 
ENDBRANCH  28  29
ENDBRANCH  27  28
ENDBRANCH  26  27
ENDBRANCH  25  26
ENDBRANCH  24  25
ENDBRANCH  23  24
ENDBRANCH  22  23
ENDBRANCH  21  22
ENDBRANCH  20  21
ENDBRANCH  19  20
ENDBRANCH  18  19
ENDBRANCH  17  18
ENDBRANCH   1  17
TORSDOF 26
ENDMDL
MODEL 7
REMARK VINA RESULT:    -3.131      2.416      5.180
REMARK INTER + INTRA:         -13.139
REMARK INTER:                  -8.311
REMARK INTRA:                  -4.828
REMARK UNBOUND:                -5.249
REMARK SMILES CCCCCCCCCCCCCCCCCCCCCCCCCCCC(=O)[O-]
REMARK SMILES IDX 15 1 16 2 17 3 18 4 19 5 20 6 21 7 22 8 23 9 24 10 25 11
REMARK SMILES IDX 26 12 27 13 28 14 29 15 30 16 14 17 13 18 12 19 11 20 10 21
REMARK SMILES IDX 9 22 8 23 7 24 6 25 5 26 4 27 3 28 2 29 1 30
REMARK H PARENT
REMARK Flexibility Score: inf
ROOT
ATOM      1  C   UNL     1     151.960 133.866 169.365  1.00  0.00     0.000 C 
ENDROOT
BRANCH   1   2
ATOM      2  C   UNL     1     153.444 134.148 169.673  1.00  0.00     0.000 C 
BRANCH   2   3
ATOM      3  C   UNL     1     154.330 132.908 169.459  1.00  0.00     0.000 C 
BRANCH   3   4
ATOM      4  C   UNL     1     155.825 133.207 169.642  1.00  0.00     0.000 C 
BRANCH   4   5
ATOM      5  C   UNL     1     156.576 133.325 168.306  1.00  0.00     0.000 C 
BRANCH   5   6
ATOM      6  C   UNL     1     156.987 134.780 168.036  1.00  0.00     0.000 C 
BRANCH   6   7
ATOM      7  C   UNL     1     156.627 135.722 169.197  1.00  0.00     0.000 C 
BRANCH   7   8
ATOM      8  C   UNL     1     156.055 137.066 168.711  1.00  0.00     0.000 C 
BRANCH   8   9
ATOM      9  C   UNL     1     156.671 137.518 167.376  1.00  0.00     0.000 C 
BRANCH   9  10
ATOM     10  C   UNL     1     157.604 138.729 167.536  1.00  0.00     0.000 C 
BRANCH  10  11
ATOM     11  C   UNL     1     157.471 139.728 166.365  1.00  0.00     0.000 C 
BRANCH  11  12
ATOM     12  C   UNL     1     156.466 140.864 166.633  1.00  0.00     0.006 C 
BRANCH  12  13
ATOM     13  C   UNL     1     155.073 140.624 166.033  1.00  0.00     0.053 C 
BRANCH  13  14
ATOM     14  C   UNL     1     155.049 140.852 164.551  1.00  0.00     0.041 C 
ATOM     15  O   UNL     1     155.235 142.008 164.084  1.00  0.00    -0.550 OA
ATOM     16  O   UNL     1     154.823 139.790 163.685  1.00  0.00    -0.550 OA
ENDBRANCH  13  14
ENDBRANCH  12  13
ENDBRANCH  11  12
ENDBRANCH  10  11
ENDBRANCH   9  10
ENDBRANCH   8   9
ENDBRANCH   7   8
ENDBRANCH   6   7
ENDBRANCH   5   6
ENDBRANCH   4   5
ENDBRANCH   3   4
ENDBRANCH   2   3
ENDBRANCH   1   2
BRANCH   1  17
ATOM     17  C   UNL     1     151.663 132.392 169.042  1.00  0.00     0.000 C 
BRANCH  17  18
ATOM     18  C   UNL     1     150.866 132.211 167.739  1.00  0.00     0.000 C 
BRANCH  18  19
ATOM     19  C   UNL     1     149.873 133.356 167.489  1.00  0.00     0.000 C 
BRANCH  19  20
ATOM     20  C   UNL     1     149.958 133.922 166.064  1.00  0.00     0.000 C 
BRANCH  20  21
ATOM     21  C   UNL     1     149.297 132.966 165.063  1.00  0.00     0.000 C 
BRANCH  21  22
ATOM     22  C   UNL     1     150.336 132.327 164.134  1.00  0.00    -0.000 C 
BRANCH  22  23
ATOM     23  C   UNL     1     151.654 133.120 164.072  1.00  0.00    -0.000 C 
BRANCH  23  24
ATOM     24  C   UNL     1     152.899 132.237 163.837  1.00  0.00    -0.000 C 
BRANCH  24  25
ATOM     25  C   UNL     1     154.084 132.655 164.726  1.00  0.00    -0.000 C 
BRANCH  25  26
ATOM     26  C   UNL     1     153.651 133.467 165.957  1.00  0.00    -0.000 C 
BRANCH  26  27
ATOM     27  C   UNL     1     154.109 134.934 165.887  1.00  0.00    -0.000 C 
BRANCH  27  28
ATOM     28  C   UNL     1     153.046 135.912 166.413  1.00  0.00    -0.000 C 
BRANCH  28  29
ATOM     29  C   UNL     1     153.314 137.364 165.993  1.00  0.00    -0.003 C 
ATOM     30  C   UNL     1     152.091 137.974 165.312  1.00  0.00     0.004 C 
ENDBRANCH  28  29
ENDBRANCH  27  28
ENDBRANCH  26  27
ENDBRANCH  25  26
ENDBRANCH  24  25
ENDBRANCH  23  24
ENDBRANCH  22  23
ENDBRANCH  21  22
ENDBRANCH  20  21
ENDBRANCH  19  20
ENDBRANCH  18  19
ENDBRANCH  17  18
ENDBRANCH   1  17
TORSDOF 26
ENDMDL
MODEL 8
REMARK VINA RESULT:    -3.118      4.466      7.846
REMARK INTER + INTRA:         -13.106
REMARK INTER:                  -9.032
REMARK INTRA:                  -4.074
REMARK UNBOUND:                -5.249
REMARK SMILES CCCCCCCCCCCCCCCCCCCCCCCCCCCC(=O)[O-]
REMARK SMILES IDX 15 1 16 2 17 3 18 4 19 5 20 6 21 7 22 8 23 9 24 10 25 11
REMARK SMILES IDX 26 12 27 13 28 14 29 15 30 16 14 17 13 18 12 19 11 20 10 21
REMARK SMILES IDX 9 22 8 23 7 24 6 25 5 26 4 27 3 28 2 29 1 30
REMARK H PARENT
REMARK Flexibility Score: inf
ROOT
ATOM      1  C   UNL     1     153.896 131.879 165.761  1.00  0.00     0.000 C 
ENDROOT
BRANCH   1   2
ATOM      2  C   UNL     1     152.970 132.708 164.848  1.00  0.00     0.000 C 
BRANCH   2   3
ATOM      3  C   UNL     1     152.403 131.875 163.684  1.00  0.00     0.000 C 
BRANCH   3   4
ATOM      4  C   UNL     1     150.885 132.041 163.520  1.00  0.00     0.000 C 
BRANCH   4   5
ATOM      5  C   UNL     1     150.441 133.512 163.551  1.00  0.00     0.000 C 
BRANCH   5   6
ATOM      6  C   UNL     1     148.976 133.651 163.110  1.00  0.00     0.000 C 
BRANCH   6   7
ATOM      7  C   UNL     1     148.118 132.443 163.519  1.00  0.00     0.000 C 
BRANCH   7   8
ATOM      8  C   UNL     1     146.949 132.194 162.549  1.00  0.00     0.000 C 
BRANCH   8   9
ATOM      9  C   UNL     1     147.216 132.768 161.147  1.00  0.00     0.000 C 
BRANCH   9  10
ATOM     10  C   UNL     1     145.998 133.510 160.571  1.00  0.00     0.000 C 
BRANCH  10  11
ATOM     11  C   UNL     1     145.065 134.049 161.678  1.00  0.00     0.000 C 
BRANCH  11  12
ATOM     12  C   UNL     1     145.291 135.537 162.005  1.00  0.00     0.006 C 
BRANCH  12  13
ATOM     13  C   UNL     1     145.822 135.794 163.424  1.00  0.00     0.053 C 
BRANCH  13  14
ATOM     14  C   UNL     1     146.693 137.014 163.489  1.00  0.00     0.041 C 
ATOM     15  O   UNL     1     147.446 137.308 162.522  1.00  0.00    -0.550 OA
ATOM     16  O   UNL     1     146.672 137.827 164.615  1.00  0.00    -0.550 OA
ENDBRANCH  13  14
ENDBRANCH  12  13
ENDBRANCH  11  12
ENDBRANCH  10  11
ENDBRANCH   9  10
ENDBRANCH   8   9
ENDBRANCH   7   8
ENDBRANCH   6   7
ENDBRANCH   5   6
ENDBRANCH   4   5
ENDBRANCH   3   4
ENDBRANCH   2   3
ENDBRANCH   1   2
BRANCH   1  17
ATOM     17  C   UNL     1     155.355 132.367 165.772  1.00  0.00     0.000 C 
BRANCH  17  18
ATOM     18  C   UNL     1     156.018 132.248 167.155  1.00  0.00     0.000 C 
BRANCH  18  19
ATOM     19  C   UNL     1     155.132 132.794 168.285  1.00  0.00     0.000 C 
BRANCH  19  20
ATOM     20  C   UNL     1     155.940 133.279 169.497  1.00  0.00     0.000 C 
BRANCH  20  21
ATOM     21  C   UNL     1     155.532 134.706 169.883  1.00  0.00     0.000 C 
BRANCH  21  22
ATOM     22  C   UNL     1     156.651 135.708 169.576  1.00  0.00    -0.000 C 
BRANCH  22  23
ATOM     23  C   UNL     1     156.252 136.744 168.510  1.00  0.00    -0.000 C 
BRANCH  23  24
ATOM     24  C   UNL     1     156.245 136.183 167.072  1.00  0.00    -0.000 C 
BRANCH  24  25
ATOM     25  C   UNL     1     154.818 136.050 166.508  1.00  0.00    -0.000 C 
BRANCH  25  26
ATOM     26  C   UNL     1     153.827 137.033 167.149  1.00  0.00    -0.000 C 
BRANCH  26  27
ATOM     27  C   UNL     1     152.645 136.321 167.828  1.00  0.00    -0.000 C 
BRANCH  27  28
ATOM     28  C   UNL     1     152.392 134.917 167.255  1.00  0.00    -0.000 C 
BRANCH  28  29
ATOM     29  C   UNL     1     151.469 134.070 168.143  1.00  0.00    -0.003 C 
ATOM     30  C   UNL     1     150.299 133.506 167.340  1.00  0.00     0.004 C 
ENDBRANCH  28  29
ENDBRANCH  27  28
ENDBRANCH  26  27
ENDBRANCH  25  26
ENDBRANCH  24  25
ENDBRANCH  23  24
ENDBRANCH  22  23
ENDBRANCH  21  22
ENDBRANCH  20  21
ENDBRANCH  19  20
ENDBRANCH  18  19
ENDBRANCH  17  18
ENDBRANCH   1  17
TORSDOF 26
ENDMDL
MODEL 9
REMARK VINA RESULT:    -2.490      2.221      6.619
REMARK INTER + INTRA:         -11.523
REMARK INTER:                  -6.845
REMARK INTRA:                  -4.678
REMARK UNBOUND:                -5.249
REMARK SMILES CCCCCCCCCCCCCCCCCCCCCCCCCCCC(=O)[O-]
REMARK SMILES IDX 15 1 16 2 17 3 18 4 19 5 20 6 21 7 22 8 23 9 24 10 25 11
REMARK SMILES IDX 26 12 27 13 28 14 29 15 30 16 14 17 13 18 12 19 11 20 10 21
REMARK SMILES IDX 9 22 8 23 7 24 6 25 5 26 4 27 3 28 2 29 1 30
REMARK H PARENT
REMARK Flexibility Score: inf
ROOT
ATOM      1  C   UNL     1     156.626 135.375 168.029  1.00  0.00     0.000 C 
ENDROOT
BRANCH   1   2
ATOM      2  C   UNL     1     157.392 134.037 167.989  1.00  0.00     0.000 C 
BRANCH   2   3
ATOM      3  C   UNL     1     157.134 133.180 169.241  1.00  0.00     0.000 C 
BRANCH   3   4
ATOM      4  C   UNL     1     155.863 133.600 169.995  1.00  0.00     0.000 C 
BRANCH   4   5
ATOM      5  C   UNL     1     154.655 132.709 169.665  1.00  0.00     0.000 C 
BRANCH   5   6
ATOM      6  C   UNL     1     153.542 133.526 168.991  1.00  0.00     0.000 C 
BRANCH   6   7
ATOM      7  C   UNL     1     153.302 133.107 167.532  1.00  0.00     0.000 C 
BRANCH   7   8
ATOM      8  C   UNL     1     154.333 132.077 167.036  1.00  0.00     0.000 C 
BRANCH   8   9
ATOM      9  C   UNL     1     154.742 132.311 165.572  1.00  0.00     0.000 C 
BRANCH   9  10
ATOM     10  C   UNL     1     153.607 132.921 164.733  1.00  0.00     0.000 C 
BRANCH  10  11
ATOM     11  C   UNL     1     152.931 131.875 163.818  1.00  0.00     0.000 C 
BRANCH  11  12
ATOM     12  C   UNL     1     151.393 131.951 163.825  1.00  0.00     0.006 C 
BRANCH  12  13
ATOM     13  C   UNL     1     150.806 132.694 165.035  1.00  0.00     0.053 C 
BRANCH  13  14
ATOM     14  C   UNL     1     150.018 133.904 164.629  1.00  0.00     0.041 C 
ATOM     15  O   UNL     1     148.765 133.918 164.759  1.00  0.00    -0.550 OA
ATOM     16  O   UNL     1     150.667 135.017 164.109  1.00  0.00    -0.550 OA
ENDBRANCH  13  14
ENDBRANCH  12  13
ENDBRANCH  11  12
ENDBRANCH  10  11
ENDBRANCH   9  10
ENDBRANCH   8   9
ENDBRANCH   7   8
ENDBRANCH   6   7
ENDBRANCH   5   6
ENDBRANCH   4   5
ENDBRANCH   3   4
ENDBRANCH   2   3
ENDBRANCH   1   2
BRANCH   1  17
ATOM     17  C   UNL     1     155.873 135.697 166.727  1.00  0.00     0.000 C 
BRANCH  17  18
ATOM     18  C   UNL     1     154.621 136.561 166.956  1.00  0.00     0.000 C 
BRANCH  18  19
ATOM     19  C   UNL     1     154.916 137.825 167.778  1.00  0.00     0.000 C 
BRANCH  19  20
ATOM     20  C   UNL     1     155.759 138.854 167.010  1.00  0.00     0.000 C 
BRANCH  20  21
ATOM     21  C   UNL     1     157.008 139.237 167.815  1.00  0.00     0.000 C 
BRANCH  21  22
ATOM     22  C   UNL     1     157.656 140.513 167.265  1.00  0.00    -0.000 C 
BRANCH  22  23
ATOM     23  C   UNL     1     157.059 141.797 167.871  1.00  0.00    -0.000 C 
BRANCH  23  24
ATOM     24  C   UNL     1     156.460 141.598 169.279  1.00  0.00    -0.000 C 
BRANCH  24  25
ATOM     25  C   UNL     1     157.460 141.961 170.392  1.00  0.00    -0.000 C 
BRANCH  25  26
ATOM     26  C   UNL     1     157.186 141.216 171.708  1.00  0.00    -0.000 C 
BRANCH  26  27
ATOM     27  C   UNL     1     156.680 139.781 171.479  1.00  0.00    -0.000 C 
BRANCH  27  28
ATOM     28  C   UNL     1     157.807 138.737 171.553  1.00  0.00    -0.000 C 
BRANCH  28  29
ATOM     29  C   UNL     1     157.373 137.358 171.037  1.00  0.00    -0.003 C 
ATOM     30  C   UNL     1     155.879 137.132 171.257  1.00  0.00     0.004 C 
ENDBRANCH  28  29
ENDBRANCH  27  28
ENDBRANCH  26  27
ENDBRANCH  25  26
ENDBRANCH  24  25
ENDBRANCH  23  24
ENDBRANCH  22  23
ENDBRANCH  21  22
ENDBRANCH  20  21
ENDBRANCH  19  20
ENDBRANCH  18  19
ENDBRANCH  17  18
ENDBRANCH   1  17
TORSDOF 26
ENDMDL
