MODEL 1
REMARK VINA RESULT:    -8.415      0.000      0.000
REMARK INTER + INTRA:         -15.438
REMARK INTER:                 -13.334
REMARK INTRA:                  -2.104
REMARK UNBOUND:                -2.104
REMARK SMILES C[C@@H]1O[C@H](O[C@H]2CC[C@]3(C)[C@@H](CC[C@]4(C)[C@H]3C=C[C@@]35OC[C@]6(CCC(C)(C)C[C@@H]63)[C@H](O)C[C@]45C)[C@]2(C)CO)[C@@H](O)[C@H](O[C@@H]2O[C@H](CO)[C@@H](O)[C@H](O)[C@@H]2O)[C@@H]1O
REMARK SMILES IDX 1 1 2 2 54 3 41 4 39 5 4 6 3 7 55 8 42 10 43 11 52 12 44 13
REMARK SMILES IDX 50 14 45 15 48 16 53 17 51 19 46 21 47 22 49 24 5 26 6 27
REMARK SMILES IDX 7 28 35 29 8 30 11 31 36 32 9 33 12 34 10 35 16 36 13 37
REMARK SMILES IDX 14 38 17 39 15 40 33 41 18 42 19 43 32 44 34 45 29 46 20 47
REMARK SMILES IDX 30 48 22 49 28 50 21 51 23 52 25 53 24 54 26 55 27 56 37 57
REMARK SMILES IDX 38 58 31 60 40 62
REMARK H PARENT 55 9 53 18 51 20 47 23 49 25 38 59 31 61 40 63
REMARK Flexibility Score: inf
ROOT
ATOM      1  C   UNL     1      61.029   2.743   1.347  1.00  0.00     0.041 C 
ATOM      2  C   UNL     1      61.690   1.345   0.637  1.00  0.00     0.150 C 
ATOM      3  C   UNL     1      62.608   0.130  -0.270  1.00  0.00     0.175 C 
ATOM      4  C   UNL     1      62.401  -1.291   0.528  1.00  0.00     0.186 C 
ATOM      5  C   UNL     1      62.466  -1.237   2.100  1.00  0.00     0.202 C 
ATOM      6  C   UNL     1      62.011   0.054   2.507  1.00  0.00     0.282 C 
ATOM      7  O   UNL     1      61.067   0.523   1.600  1.00  0.00    -0.344 OA
ENDROOT
BRANCH   3   8
ATOM      8  O   UNL     1      63.980   0.237  -0.836  1.00  0.00    -0.388 OA
ATOM      9  H   UNL     1      64.251   0.886  -1.704  1.00  0.00     0.211 HD
ENDBRANCH   3   8
BRANCH   4  10
ATOM     10  O   UNL     1      62.968  -2.470   0.125  1.00  0.00    -0.341 OA
BRANCH  10  11
ATOM     11  C   UNL     1      62.538  -2.931  -1.124  1.00  0.00     0.282 C 
ATOM     12  C   UNL     1      63.581  -2.868  -2.267  1.00  0.00     0.202 C 
ATOM     13  O   UNL     1      62.166  -4.260  -0.855  1.00  0.00    -0.341 OA
ATOM     14  C   UNL     1      64.949  -3.113  -1.681  1.00  0.00     0.179 C 
ATOM     15  C   UNL     1      63.376  -5.038  -0.556  1.00  0.00     0.178 C 
ATOM     16  C   UNL     1      64.849  -4.501  -0.957  1.00  0.00     0.177 C 
BRANCH  12  17
ATOM     17  O   UNL     1      63.476  -1.782  -3.168  1.00  0.00    -0.385 OA
ATOM     18  H   UNL     1      63.578  -2.283  -4.043  1.00  0.00     0.211 HD
ENDBRANCH  12  17
BRANCH  14  19
ATOM     19  O   UNL     1      65.443  -2.155  -0.800  1.00  0.00    -0.387 OA
ATOM     20  H   UNL     1      65.789  -2.687  -0.038  1.00  0.00     0.211 HD
ENDBRANCH  14  19
BRANCH  15  21
ATOM     21  C   UNL     1      63.379  -5.346   0.977  1.00  0.00     0.191 C 
BRANCH  21  22
ATOM     22  O   UNL     1      62.136  -4.991   1.541  1.00  0.00    -0.394 OA
ATOM     23  H   UNL     1      61.961  -4.045   1.316  1.00  0.00     0.210 HD
ENDBRANCH  21  22
ENDBRANCH  15  21
BRANCH  16  24
ATOM     24  O   UNL     1      65.559  -5.440  -1.762  1.00  0.00    -0.387 OA
ATOM     25  H   UNL     1      65.898  -6.184  -1.201  1.00  0.00     0.211 HD
ENDBRANCH  16  24
ENDBRANCH  10  11
ENDBRANCH   4  10
BRANCH   6  26
ATOM     26  O   UNL     1      63.155   0.936   2.633  1.00  0.00    -0.346 OA
BRANCH  26  27
ATOM     27  C   UNL     1      63.367   1.159   3.977  1.00  0.00     0.130 C 
ATOM     28  C   UNL     1      64.817   0.704   4.491  1.00  0.00     0.033 C 
ATOM     29  C   UNL     1      62.911   2.555   4.585  1.00  0.00     0.020 C 
ATOM     30  C   UNL     1      65.927   1.726   4.879  1.00  0.00     0.010 C 
ATOM     31  C   UNL     1      64.143   3.422   4.639  1.00  0.00     0.006 C 
ATOM     32  C   UNL     1      61.792   3.555   4.015  1.00  0.00     0.017 C 
ATOM     33  C   UNL     1      65.395   3.055   5.440  1.00  0.00    -0.022 C 
ATOM     34  C   UNL     1      64.668   3.651   3.124  1.00  0.00     0.005 C 
ATOM     35  C   UNL     1      65.174   2.752   6.951  1.00  0.00     0.012 C 
ATOM     36  C   UNL     1      66.340   4.417   5.389  1.00  0.00     0.024 C 
ATOM     37  C   UNL     1      65.509   4.901   3.005  1.00  0.00     0.008 C 
ATOM     38  C   UNL     1      66.803   4.899   3.931  1.00  0.00    -0.017 C 
ATOM     39  C   UNL     1      65.645   5.593   6.111  1.00  0.00    -0.024 C 
ATOM     40  C   UNL     1      67.803   3.909   3.279  1.00  0.00     0.013 C 
ATOM     41  C   UNL     1      67.507   6.376   4.062  1.00  0.00     0.009 C 
ATOM     42  C   UNL     1      65.711   6.882   5.773  1.00  0.00     0.005 C 
ATOM     43  C   UNL     1      66.398   7.450   4.563  1.00  0.00     0.096 C 
ATOM     44  C   UNL     1      68.128   6.951   2.724  1.00  0.00     0.043 C 
ATOM     45  C   UNL     1      68.663   6.315   5.104  1.00  0.00     0.015 C 
ATOM     46  C   UNL     1      66.932   8.885   4.772  1.00  0.00     0.037 C 
ATOM     47  O   UNL     1      65.460   7.687   3.494  1.00  0.00    -0.369 OA
ATOM     48  C   UNL     1      68.433   8.470   2.771  1.00  0.00     0.124 C 
ATOM     49  C   UNL     1      67.271   9.322   3.339  1.00  0.00     0.026 C 
ATOM     50  C   UNL     1      67.839   9.397   5.870  1.00  0.00     0.014 C 
ATOM     51  C   UNL     1      65.931   8.801   2.725  1.00  0.00     0.171 C 
ATOM     52  C   UNL     1      67.411  10.816   3.240  1.00  0.00     0.013 C 
ATOM     53  C   UNL     1      67.848  10.950   5.838  1.00  0.00    -0.035 C 
ATOM     54  C   UNL     1      68.281  11.427   4.397  1.00  0.00     0.007 C 
ATOM     55  C   UNL     1      66.529  11.602   6.241  1.00  0.00     0.011 C 
ATOM     56  C   UNL     1      68.908  11.480   6.807  1.00  0.00     0.011 C 
BRANCH  29  57
ATOM     57  C   UNL     1      62.358   2.125   5.973  1.00  0.00     0.165 C 
BRANCH  57  58
ATOM     58  O   UNL     1      61.423   3.081   6.456  1.00  0.00    -0.396 OA
ATOM     59  H   UNL     1      60.619   3.120   5.858  1.00  0.00     0.210 HD
ENDBRANCH  57  58
ENDBRANCH  29  57
BRANCH  48  60
ATOM     60  O   UNL     1      68.786   8.877   1.388  1.00  0.00    -0.392 OA
ATOM     61  H   UNL     1      69.594   8.267   1.089  1.00  0.00     0.210 HD
ENDBRANCH  48  60
ENDBRANCH  26  27
ENDBRANCH   6  26
BRANCH   5  62
ATOM     62  O   UNL     1      61.566  -2.178   2.712  1.00  0.00    -0.385 OA
ATOM     63  H   UNL     1      61.953  -3.088   2.554  1.00  0.00     0.211 HD
ENDBRANCH   5  62
TORSDOF 14
ENDMDL
MODEL 2
REMARK VINA RESULT:    -8.095      0.727      1.744
REMARK INTER + INTRA:         -14.931
REMARK INTER:                 -12.863
REMARK INTRA:                  -2.068
REMARK UNBOUND:                -2.104
REMARK SMILES C[C@@H]1O[C@H](O[C@H]2CC[C@]3(C)[C@@H](CC[C@]4(C)[C@H]3C=C[C@@]35OC[C@]6(CCC(C)(C)C[C@@H]63)[C@H](O)C[C@]45C)[C@]2(C)CO)[C@@H](O)[C@H](O[C@@H]2O[C@H](CO)[C@@H](O)[C@H](O)[C@@H]2O)[C@@H]1O
REMARK SMILES IDX 1 1 2 2 54 3 41 4 39 5 4 6 3 7 55 8 42 10 43 11 52 12 44 13
REMARK SMILES IDX 50 14 45 15 48 16 53 17 51 19 46 21 47 22 49 24 5 26 6 27
REMARK SMILES IDX 7 28 35 29 8 30 11 31 36 32 9 33 12 34 10 35 16 36 13 37
REMARK SMILES IDX 14 38 17 39 15 40 33 41 18 42 19 43 32 44 34 45 29 46 20 47
REMARK SMILES IDX 30 48 22 49 28 50 21 51 23 52 25 53 24 54 26 55 27 56 37 57
REMARK SMILES IDX 38 58 31 60 40 62
REMARK H PARENT 55 9 53 18 51 20 47 23 49 25 38 59 31 61 40 63
REMARK Flexibility Score: inf
ROOT
ATOM      1  C   UNL     1      61.346   3.190   1.411  1.00  0.00     0.041 C 
ATOM      2  C   UNL     1      61.861   1.705   0.760  1.00  0.00     0.150 C 
ATOM      3  C   UNL     1      62.651   0.368  -0.094  1.00  0.00     0.175 C 
ATOM      4  C   UNL     1      62.302  -0.991   0.760  1.00  0.00     0.186 C 
ATOM      5  C   UNL     1      62.374  -0.881   2.329  1.00  0.00     0.202 C 
ATOM      6  C   UNL     1      62.052   0.465   2.682  1.00  0.00     0.282 C 
ATOM      7  O   UNL     1      61.160   0.990   1.754  1.00  0.00    -0.344 OA
ENDROOT
BRANCH   3   8
ATOM      8  O   UNL     1      64.026   0.313  -0.660  1.00  0.00    -0.388 OA
ATOM      9  H   UNL     1      64.958   0.432  -0.055  1.00  0.00     0.211 HD
ENDBRANCH   3   8
BRANCH   4  10
ATOM     10  O   UNL     1      62.746  -2.237   0.406  1.00  0.00    -0.341 OA
BRANCH  10  11
ATOM     11  C   UNL     1      64.092  -2.484   0.696  1.00  0.00     0.282 C 
ATOM     12  C   UNL     1      64.397  -3.821   1.416  1.00  0.00     0.202 C 
ATOM     13  O   UNL     1      64.696  -2.448  -0.574  1.00  0.00    -0.341 OA
ATOM     14  C   UNL     1      63.412  -4.858   0.938  1.00  0.00     0.179 C 
ATOM     15  C   UNL     1      64.250  -3.617  -1.343  1.00  0.00     0.178 C 
ATOM     16  C   UNL     1      63.576  -4.899  -0.621  1.00  0.00     0.177 C 
BRANCH  12  17
ATOM     17  O   UNL     1      64.605  -3.759   2.815  1.00  0.00    -0.385 OA
ATOM     18  H   UNL     1      64.022  -4.536   3.103  1.00  0.00     0.211 HD
ENDBRANCH  12  17
BRANCH  14  19
ATOM     19  O   UNL     1      62.074  -4.663   1.268  1.00  0.00    -0.387 OA
ATOM     20  H   UNL     1      61.582  -5.198   0.593  1.00  0.00     0.211 HD
ENDBRANCH  14  19
BRANCH  15  21
ATOM     21  C   UNL     1      63.262  -3.114  -2.445  1.00  0.00     0.191 C 
BRANCH  21  22
ATOM     22  O   UNL     1      63.427  -1.728  -2.643  1.00  0.00    -0.394 OA
ATOM     23  H   UNL     1      62.581  -1.283  -2.394  1.00  0.00     0.210 HD
ENDBRANCH  21  22
ENDBRANCH  15  21
BRANCH  16  24
ATOM     24  O   UNL     1      64.263  -6.109  -0.934  1.00  0.00    -0.387 OA
ATOM     25  H   UNL     1      64.759  -6.436  -0.140  1.00  0.00     0.211 HD
ENDBRANCH  16  24
ENDBRANCH  10  11
ENDBRANCH   4  10
BRANCH   6  26
ATOM     26  O   UNL     1      63.279   1.231   2.776  1.00  0.00    -0.346 OA
BRANCH  26  27
ATOM     27  C   UNL     1      63.555   1.420   4.113  1.00  0.00     0.130 C 
ATOM     28  C   UNL     1      65.031   0.964   4.544  1.00  0.00     0.033 C 
ATOM     29  C   UNL     1      63.118   2.795   4.781  1.00  0.00     0.020 C 
ATOM     30  C   UNL     1      66.151   1.985   4.905  1.00  0.00     0.010 C 
ATOM     31  C   UNL     1      64.345   3.671   4.798  1.00  0.00     0.006 C 
ATOM     32  C   UNL     1      61.966   3.800   4.293  1.00  0.00     0.017 C 
ATOM     33  C   UNL     1      65.637   3.294   5.528  1.00  0.00    -0.022 C 
ATOM     34  C   UNL     1      64.794   3.945   3.266  1.00  0.00     0.005 C 
ATOM     35  C   UNL     1      65.492   2.949   7.038  1.00  0.00     0.012 C 
ATOM     36  C   UNL     1      66.569   4.665   5.468  1.00  0.00     0.024 C 
ATOM     37  C   UNL     1      65.619   5.205   3.141  1.00  0.00     0.008 C 
ATOM     38  C   UNL     1      66.956   5.190   4.002  1.00  0.00    -0.017 C 
ATOM     39  C   UNL     1      65.900   5.816   6.254  1.00  0.00    -0.024 C 
ATOM     40  C   UNL     1      67.931   4.227   3.276  1.00  0.00     0.013 C 
ATOM     41  C   UNL     1      67.655   6.669   4.139  1.00  0.00     0.009 C 
ATOM     42  C   UNL     1      65.941   7.113   5.948  1.00  0.00     0.005 C 
ATOM     43  C   UNL     1      66.563   7.719   4.722  1.00  0.00     0.096 C 
ATOM     44  C   UNL     1      68.205   7.286   2.788  1.00  0.00     0.043 C 
ATOM     45  C   UNL     1      68.860   6.590   5.122  1.00  0.00     0.015 C 
ATOM     46  C   UNL     1      67.096   9.153   4.943  1.00  0.00     0.037 C 
ATOM     47  O   UNL     1      65.573   7.977   3.706  1.00  0.00    -0.369 OA
ATOM     48  C   UNL     1      68.501   8.804   2.862  1.00  0.00     0.124 C 
ATOM     49  C   UNL     1      67.362   9.631   3.509  1.00  0.00     0.026 C 
ATOM     50  C   UNL     1      68.052   9.644   6.010  1.00  0.00     0.014 C 
ATOM     51  C   UNL     1      65.997   9.115   2.946  1.00  0.00     0.171 C 
ATOM     52  C   UNL     1      67.486  11.128   3.443  1.00  0.00     0.013 C 
ATOM     53  C   UNL     1      68.047  11.197   6.019  1.00  0.00    -0.035 C 
ATOM     54  C   UNL     1      68.406  11.716   4.572  1.00  0.00     0.007 C 
ATOM     55  C   UNL     1      66.745  11.826   6.503  1.00  0.00     0.011 C 
ATOM     56  C   UNL     1      69.150  11.711   6.950  1.00  0.00     0.011 C 
BRANCH  29  57
ATOM     57  C   UNL     1      62.637   2.323   6.182  1.00  0.00     0.165 C 
BRANCH  57  58
ATOM     58  O   UNL     1      61.835   3.324   6.796  1.00  0.00    -0.396 OA
ATOM     59  H   UNL     1      61.053   3.555   6.213  1.00  0.00     0.210 HD
ENDBRANCH  57  58
ENDBRANCH  29  57
BRANCH  48  60
ATOM     60  O   UNL     1      68.784   9.252   1.475  1.00  0.00    -0.392 OA
ATOM     61  H   UNL     1      69.376   8.501   1.029  1.00  0.00     0.210 HD
ENDBRANCH  48  60
ENDBRANCH  26  27
ENDBRANCH   6  26
BRANCH   5  62
ATOM     62  O   UNL     1      61.383  -1.700   2.975  1.00  0.00    -0.385 OA
ATOM     63  H   UNL     1      60.547  -1.151   3.026  1.00  0.00     0.211 HD
ENDBRANCH   5  62
TORSDOF 14
ENDMDL
MODEL 3
REMARK VINA RESULT:    -7.898      2.024      3.271
REMARK INTER + INTRA:         -14.620
REMARK INTER:                 -11.792
REMARK INTRA:                  -2.828
REMARK UNBOUND:                -2.104
REMARK SMILES C[C@@H]1O[C@H](O[C@H]2CC[C@]3(C)[C@@H](CC[C@]4(C)[C@H]3C=C[C@@]35OC[C@]6(CCC(C)(C)C[C@@H]63)[C@H](O)C[C@]45C)[C@]2(C)CO)[C@@H](O)[C@H](O[C@@H]2O[C@H](CO)[C@@H](O)[C@H](O)[C@@H]2O)[C@@H]1O
REMARK SMILES IDX 1 1 2 2 54 3 41 4 39 5 4 6 3 7 55 8 42 10 43 11 52 12 44 13
REMARK SMILES IDX 50 14 45 15 48 16 53 17 51 19 46 21 47 22 49 24 5 26 6 27
REMARK SMILES IDX 7 28 35 29 8 30 11 31 36 32 9 33 12 34 10 35 16 36 13 37
REMARK SMILES IDX 14 38 17 39 15 40 33 41 18 42 19 43 32 44 34 45 29 46 20 47
REMARK SMILES IDX 30 48 22 49 28 50 21 51 23 52 25 53 24 54 26 55 27 56 37 57
REMARK SMILES IDX 38 58 31 60 40 62
REMARK H PARENT 55 9 53 18 51 20 47 23 49 25 38 59 31 61 40 63
REMARK Flexibility Score: inf
ROOT
ATOM      1  C   UNL     1      61.355  -1.632   3.283  1.00  0.00     0.041 C 
ATOM      2  C   UNL     1      62.197  -0.978   1.957  1.00  0.00     0.150 C 
ATOM      3  C   UNL     1      62.739  -0.163   0.480  1.00  0.00     0.175 C 
ATOM      4  C   UNL     1      64.354   0.080   0.658  1.00  0.00     0.186 C 
ATOM      5  C   UNL     1      64.847   0.561   2.073  1.00  0.00     0.202 C 
ATOM      6  C   UNL     1      63.943   0.037   3.046  1.00  0.00     0.282 C 
ATOM      7  O   UNL     1      63.435  -1.179   2.604  1.00  0.00    -0.344 OA
ENDROOT
BRANCH   3   8
ATOM      8  O   UNL     1      62.098   0.969  -0.242  1.00  0.00    -0.388 OA
ATOM      9  H   UNL     1      61.012   1.015  -0.498  1.00  0.00     0.211 HD
ENDBRANCH   3   8
BRANCH   4  10
ATOM     10  O   UNL     1      65.131   0.694  -0.288  1.00  0.00    -0.341 OA
BRANCH  10  11
ATOM     11  C   UNL     1      65.224   0.010  -1.505  1.00  0.00     0.282 C 
ATOM     12  C   UNL     1      64.501   0.664  -2.708  1.00  0.00     0.202 C 
ATOM     13  O   UNL     1      66.612  -0.049  -1.724  1.00  0.00    -0.341 OA
ATOM     14  C   UNL     1      64.572   2.162  -2.553  1.00  0.00     0.179 C 
ATOM     15  C   UNL     1      67.104   1.306  -2.008  1.00  0.00     0.178 C 
ATOM     16  C   UNL     1      66.099   2.497  -2.442  1.00  0.00     0.177 C 
BRANCH  12  17
ATOM     17  O   UNL     1      63.236   0.133  -3.058  1.00  0.00    -0.385 OA
ATOM     18  H   UNL     1      63.522  -0.790  -3.363  1.00  0.00     0.211 HD
ENDBRANCH  12  17
BRANCH  14  19
ATOM     19  O   UNL     1      63.885   2.722  -1.478  1.00  0.00    -0.387 OA
ATOM     20  H   UNL     1      63.468   3.537  -1.861  1.00  0.00     0.211 HD
ENDBRANCH  14  19
BRANCH  15  21
ATOM     21  C   UNL     1      67.913   1.790  -0.762  1.00  0.00     0.191 C 
BRANCH  21  22
ATOM     22  O   UNL     1      67.122   2.661   0.016  1.00  0.00    -0.394 OA
ATOM     23  H   UNL     1      66.374   2.136   0.393  1.00  0.00     0.210 HD
ENDBRANCH  21  22
ENDBRANCH  15  21
BRANCH  16  24
ATOM     24  O   UNL     1      66.483   3.094  -3.680  1.00  0.00    -0.387 OA
ATOM     25  H   UNL     1      67.169   2.538  -4.130  1.00  0.00     0.211 HD
ENDBRANCH  16  24
ENDBRANCH  10  11
ENDBRANCH   4  10
BRANCH   6  26
ATOM     26  O   UNL     1      62.907   1.019   3.300  1.00  0.00    -0.346 OA
BRANCH  26  27
ATOM     27  C   UNL     1      63.014   1.412   4.617  1.00  0.00     0.130 C 
ATOM     28  C   UNL     1      64.384   0.961   5.321  1.00  0.00     0.033 C 
ATOM     29  C   UNL     1      62.592   2.897   4.993  1.00  0.00     0.020 C 
ATOM     30  C   UNL     1      65.515   1.971   5.676  1.00  0.00     0.010 C 
ATOM     31  C   UNL     1      63.865   3.703   5.049  1.00  0.00     0.006 C 
ATOM     32  C   UNL     1      61.590   3.864   4.194  1.00  0.00     0.017 C 
ATOM     33  C   UNL     1      65.018   3.388   6.006  1.00  0.00    -0.022 C 
ATOM     34  C   UNL     1      64.533   3.700   3.574  1.00  0.00     0.005 C 
ATOM     35  C   UNL     1      64.647   3.303   7.516  1.00  0.00     0.012 C 
ATOM     36  C   UNL     1      66.044   4.683   5.868  1.00  0.00     0.024 C 
ATOM     37  C   UNL     1      65.456   4.880   3.374  1.00  0.00     0.008 C 
ATOM     38  C   UNL     1      66.661   4.941   4.410  1.00  0.00    -0.017 C 
ATOM     39  C   UNL     1      65.361   5.979   6.361  1.00  0.00    -0.024 C 
ATOM     40  C   UNL     1      67.653   3.825   3.990  1.00  0.00     0.013 C 
ATOM     41  C   UNL     1      67.439   6.386   4.414  1.00  0.00     0.009 C 
ATOM     42  C   UNL     1      65.534   7.205   5.866  1.00  0.00     0.005 C 
ATOM     43  C   UNL     1      66.357   7.570   4.663  1.00  0.00     0.096 C 
ATOM     44  C   UNL     1      68.208   6.745   3.077  1.00  0.00     0.043 C 
ATOM     45  C   UNL     1      68.494   6.410   5.560  1.00  0.00     0.015 C 
ATOM     46  C   UNL     1      66.957   8.993   4.733  1.00  0.00     0.037 C 
ATOM     47  O   UNL     1      65.533   7.706   3.488  1.00  0.00    -0.369 OA
ATOM     48  C   UNL     1      68.599   8.239   2.954  1.00  0.00     0.124 C 
ATOM     49  C   UNL     1      67.446   9.215   3.294  1.00  0.00     0.026 C 
ATOM     50  C   UNL     1      67.794   9.604   5.836  1.00  0.00     0.014 C 
ATOM     51  C   UNL     1      66.135   8.681   2.629  1.00  0.00     0.171 C 
ATOM     52  C   UNL     1      67.684  10.673   3.015  1.00  0.00     0.013 C 
ATOM     53  C   UNL     1      67.900  11.137   5.602  1.00  0.00    -0.035 C 
ATOM     54  C   UNL     1      68.485  11.393   4.159  1.00  0.00     0.007 C 
ATOM     55  C   UNL     1      66.593  11.900   5.791  1.00  0.00     0.011 C 
ATOM     56  C   UNL     1      68.901  11.741   6.590  1.00  0.00     0.011 C 
BRANCH  29  57
ATOM     57  C   UNL     1      61.895   2.686   6.366  1.00  0.00     0.165 C 
BRANCH  57  58
ATOM     58  O   UNL     1      60.957   3.726   6.614  1.00  0.00    -0.396 OA
ATOM     59  H   UNL     1      60.433   3.932   5.785  1.00  0.00     0.210 HD
ENDBRANCH  57  58
ENDBRANCH  29  57
BRANCH  48  60
ATOM     60  O   UNL     1      69.096   8.438   1.570  1.00  0.00    -0.392 OA
ATOM     61  H   UNL     1      69.843   9.182   1.619  1.00  0.00     0.210 HD
ENDBRANCH  48  60
ENDBRANCH  26  27
ENDBRANCH   6  26
BRANCH   5  62
ATOM     62  O   UNL     1      66.138   0.019   2.409  1.00  0.00    -0.385 OA
ATOM     63  H   UNL     1      66.088  -0.966   2.235  1.00  0.00     0.211 HD
ENDBRANCH   5  62
TORSDOF 14
ENDMDL
MODEL 4
REMARK VINA RESULT:    -7.822      2.783      5.749
REMARK INTER + INTRA:         -14.498
REMARK INTER:                 -11.762
REMARK INTRA:                  -2.736
REMARK UNBOUND:                -2.104
REMARK SMILES C[C@@H]1O[C@H](O[C@H]2CC[C@]3(C)[C@@H](CC[C@]4(C)[C@H]3C=C[C@@]35OC[C@]6(CCC(C)(C)C[C@@H]63)[C@H](O)C[C@]45C)[C@]2(C)CO)[C@@H](O)[C@H](O[C@@H]2O[C@H](CO)[C@@H](O)[C@H](O)[C@@H]2O)[C@@H]1O
REMARK SMILES IDX 1 1 2 2 54 3 41 4 39 5 4 6 3 7 55 8 42 10 43 11 52 12 44 13
REMARK SMILES IDX 50 14 45 15 48 16 53 17 51 19 46 21 47 22 49 24 5 26 6 27
REMARK SMILES IDX 7 28 35 29 8 30 11 31 36 32 9 33 12 34 10 35 16 36 13 37
REMARK SMILES IDX 14 38 17 39 15 40 33 41 18 42 19 43 32 44 34 45 29 46 20 47
REMARK SMILES IDX 30 48 22 49 28 50 21 51 23 52 25 53 24 54 26 55 27 56 37 57
REMARK SMILES IDX 38 58 31 60 40 62
REMARK H PARENT 55 9 53 18 51 20 47 23 49 25 38 59 31 61 40 63
REMARK Flexibility Score: inf
ROOT
ATOM      1  C   UNL     1      64.001  -2.768  -2.359  1.00  0.00     0.041 C 
ATOM      2  C   UNL     1      64.283  -2.537  -0.697  1.00  0.00     0.150 C 
ATOM      3  C   UNL     1      64.910  -2.443   0.958  1.00  0.00     0.175 C 
ATOM      4  C   UNL     1      64.023  -1.290   1.720  1.00  0.00     0.186 C 
ATOM      5  C   UNL     1      63.706   0.017   0.901  1.00  0.00     0.202 C 
ATOM      6  C   UNL     1      63.648  -0.342  -0.480  1.00  0.00     0.282 C 
ATOM      7  O   UNL     1      63.190  -1.649  -0.603  1.00  0.00    -0.344 OA
ENDROOT
BRANCH   3   8
ATOM      8  O   UNL     1      66.327  -2.423   1.412  1.00  0.00    -0.388 OA
ATOM      9  H   UNL     1      67.067  -1.637   1.124  1.00  0.00     0.211 HD
ENDBRANCH   3   8
BRANCH   4  10
ATOM     10  O   UNL     1      64.220  -0.930   3.026  1.00  0.00    -0.341 OA
BRANCH  10  11
ATOM     11  C   UNL     1      63.715  -1.834   3.966  1.00  0.00     0.282 C 
ATOM     12  C   UNL     1      64.762  -2.523   4.876  1.00  0.00     0.202 C 
ATOM     13  O   UNL     1      62.837  -1.038   4.724  1.00  0.00    -0.341 OA
ATOM     14  C   UNL     1      65.889  -1.552   5.129  1.00  0.00     0.179 C 
ATOM     15  C   UNL     1      63.626  -0.075   5.504  1.00  0.00     0.178 C 
ATOM     16  C   UNL     1      65.212  -0.282   5.751  1.00  0.00     0.177 C 
BRANCH  12  17
ATOM     17  O   UNL     1      65.143  -3.840   4.526  1.00  0.00    -0.385 OA
ATOM     18  H   UNL     1      64.708  -4.346   5.289  1.00  0.00     0.211 HD
ENDBRANCH  12  17
BRANCH  14  19
ATOM     19  O   UNL     1      66.668  -1.185   4.035  1.00  0.00    -0.387 OA
ATOM     20  H   UNL     1      66.007  -0.868   3.367  1.00  0.00     0.211 HD
ENDBRANCH  14  19
BRANCH  15  21
ATOM     21  C   UNL     1      63.420   1.337   4.867  1.00  0.00     0.191 C 
BRANCH  21  22
ATOM     22  O   UNL     1      62.313   1.315   3.994  1.00  0.00    -0.394 OA
ATOM     23  H   UNL     1      61.547   1.725   4.465  1.00  0.00     0.210 HD
ENDBRANCH  21  22
ENDBRANCH  15  21
BRANCH  16  24
ATOM     24  O   UNL     1      65.541  -0.275   7.139  1.00  0.00    -0.387 OA
ATOM     25  H   UNL     1      65.950  -1.140   7.398  1.00  0.00     0.211 HD
ENDBRANCH  16  24
ENDBRANCH  10  11
ENDBRANCH   4  10
BRANCH   6  26
ATOM     26  O   UNL     1      64.958  -0.148  -1.069  1.00  0.00    -0.346 OA
BRANCH  26  27
ATOM     27  C   UNL     1      64.885   0.945  -1.905  1.00  0.00     0.130 C 
ATOM     28  C   UNL     1      63.483   1.721  -1.840  1.00  0.00     0.033 C 
ATOM     29  C   UNL     1      66.130   1.932  -1.957  1.00  0.00     0.020 C 
ATOM     30  C   UNL     1      63.330   3.121  -1.173  1.00  0.00     0.010 C 
ATOM     31  C   UNL     1      65.800   3.088  -1.047  1.00  0.00     0.006 C 
ATOM     32  C   UNL     1      67.657   1.606  -1.584  1.00  0.00     0.017 C 
ATOM     33  C   UNL     1      64.588   4.001  -1.254  1.00  0.00    -0.022 C 
ATOM     34  C   UNL     1      65.640   2.516   0.460  1.00  0.00     0.005 C 
ATOM     35  C   UNL     1      64.474   4.676  -2.651  1.00  0.00     0.012 C 
ATOM     36  C   UNL     1      64.807   5.240  -0.173  1.00  0.00     0.024 C 
ATOM     37  C   UNL     1      65.864   3.595   1.495  1.00  0.00     0.008 C 
ATOM     38  C   UNL     1      64.861   4.823   1.375  1.00  0.00    -0.017 C 
ATOM     39  C   UNL     1      66.076   6.051  -0.520  1.00  0.00    -0.024 C 
ATOM     40  C   UNL     1      63.489   4.317   1.891  1.00  0.00     0.013 C 
ATOM     41  C   UNL     1      65.326   6.128   2.257  1.00  0.00     0.009 C 
ATOM     42  C   UNL     1      66.909   6.630   0.346  1.00  0.00     0.005 C 
ATOM     43  C   UNL     1      66.843   6.532   1.844  1.00  0.00     0.096 C 
ATOM     44  C   UNL     1      65.320   5.920   3.826  1.00  0.00     0.043 C 
ATOM     45  C   UNL     1      64.379   7.327   1.957  1.00  0.00     0.015 C 
ATOM     46  C   UNL     1      67.402   7.777   2.570  1.00  0.00     0.037 C 
ATOM     47  O   UNL     1      67.748   5.527   2.343  1.00  0.00    -0.369 OA
ATOM     48  C   UNL     1      66.112   6.998   4.609  1.00  0.00     0.124 C 
ATOM     49  C   UNL     1      67.515   7.290   4.021  1.00  0.00     0.026 C 
ATOM     50  C   UNL     1      67.021   9.229   2.370  1.00  0.00     0.014 C 
ATOM     51  C   UNL     1      68.186   5.928   3.647  1.00  0.00     0.171 C 
ATOM     52  C   UNL     1      68.419   8.178   4.830  1.00  0.00     0.013 C 
ATOM     53  C   UNL     1      68.059  10.130   3.094  1.00  0.00    -0.035 C 
ATOM     54  C   UNL     1      68.131   9.706   4.612  1.00  0.00     0.007 C 
ATOM     55  C   UNL     1      69.452  10.120   2.471  1.00  0.00     0.011 C 
ATOM     56  C   UNL     1      67.584  11.585   3.071  1.00  0.00     0.011 C 
BRANCH  29  57
ATOM     57  C   UNL     1      66.182   2.291  -3.469  1.00  0.00     0.165 C 
BRANCH  57  58
ATOM     58  O   UNL     1      67.292   3.135  -3.744  1.00  0.00    -0.396 OA
ATOM     59  H   UNL     1      67.389   3.279  -4.731  1.00  0.00     0.210 HD
ENDBRANCH  57  58
ENDBRANCH  29  57
BRANCH  48  60
ATOM     60  O   UNL     1      66.192   6.531   6.016  1.00  0.00    -0.392 OA
ATOM     61  H   UNL     1      67.008   7.034   6.456  1.00  0.00     0.210 HD
ENDBRANCH  48  60
ENDBRANCH  26  27
ENDBRANCH   6  26
BRANCH   5  62
ATOM     62  O   UNL     1      62.409   0.553   1.219  1.00  0.00    -0.385 OA
ATOM     63  H   UNL     1      62.560   1.301   1.868  1.00  0.00     0.211 HD
ENDBRANCH   5  62
TORSDOF 14
ENDMDL
MODEL 5
REMARK VINA RESULT:    -7.762      2.826      9.679
REMARK INTER + INTRA:         -14.404
REMARK INTER:                 -12.593
REMARK INTRA:                  -1.810
REMARK UNBOUND:                -2.104
REMARK SMILES C[C@@H]1O[C@H](O[C@H]2CC[C@]3(C)[C@@H](CC[C@]4(C)[C@H]3C=C[C@@]35OC[C@]6(CCC(C)(C)C[C@@H]63)[C@H](O)C[C@]45C)[C@]2(C)CO)[C@@H](O)[C@H](O[C@@H]2O[C@H](CO)[C@@H](O)[C@H](O)[C@@H]2O)[C@@H]1O
REMARK SMILES IDX 1 1 2 2 54 3 41 4 39 5 4 6 3 7 55 8 42 10 43 11 52 12 44 13
REMARK SMILES IDX 50 14 45 15 48 16 53 17 51 19 46 21 47 22 49 24 5 26 6 27
REMARK SMILES IDX 7 28 35 29 8 30 11 31 36 32 9 33 12 34 10 35 16 36 13 37
REMARK SMILES IDX 14 38 17 39 15 40 33 41 18 42 19 43 32 44 34 45 29 46 20 47
REMARK SMILES IDX 30 48 22 49 28 50 21 51 23 52 25 53 24 54 26 55 27 56 37 57
REMARK SMILES IDX 38 58 31 60 40 62
REMARK H PARENT 55 9 53 18 51 20 47 23 49 25 38 59 31 61 40 63
REMARK Flexibility Score: inf
ROOT
ATOM      1  C   UNL     1      65.875   7.330   5.303  1.00  0.00     0.041 C 
ATOM      2  C   UNL     1      66.323   6.567   3.849  1.00  0.00     0.150 C 
ATOM      3  C   UNL     1      67.093   5.675   2.526  1.00  0.00     0.175 C 
ATOM      4  C   UNL     1      65.887   5.253   1.494  1.00  0.00     0.186 C 
ATOM      5  C   UNL     1      64.548   4.739   2.142  1.00  0.00     0.202 C 
ATOM      6  C   UNL     1      64.411   5.375   3.413  1.00  0.00     0.282 C 
ATOM      7  O   UNL     1      64.997   6.635   3.370  1.00  0.00    -0.344 OA
ENDROOT
BRANCH   3   8
ATOM      8  O   UNL     1      68.133   4.613   2.607  1.00  0.00    -0.388 OA
ATOM      9  H   UNL     1      68.964   4.604   3.354  1.00  0.00     0.211 HD
ENDBRANCH   3   8
BRANCH   4  10
ATOM     10  O   UNL     1      66.097   4.542   0.343  1.00  0.00    -0.341 OA
BRANCH  10  11
ATOM     11  C   UNL     1      67.163   4.996  -0.441  1.00  0.00     0.282 C 
ATOM     12  C   UNL     1      67.963   3.906  -1.196  1.00  0.00     0.202 C 
ATOM     13  O   UNL     1      66.535   5.873  -1.344  1.00  0.00    -0.341 OA
ATOM     14  C   UNL     1      67.015   2.799  -1.585  1.00  0.00     0.179 C 
ATOM     15  C   UNL     1      65.693   5.090  -2.258  1.00  0.00     0.178 C 
ATOM     16  C   UNL     1      65.890   3.492  -2.430  1.00  0.00     0.177 C 
BRANCH  12  17
ATOM     17  O   UNL     1      69.189   3.500  -0.618  1.00  0.00    -0.385 OA
ATOM     18  H   UNL     1      69.806   4.185  -1.040  1.00  0.00     0.211 HD
ENDBRANCH  12  17
BRANCH  14  19
ATOM     19  O   UNL     1      66.444   2.060  -0.552  1.00  0.00    -0.387 OA
ATOM     20  H   UNL     1      67.224   1.670  -0.079  1.00  0.00     0.211 HD
ENDBRANCH  14  19
BRANCH  15  21
ATOM     21  C   UNL     1      64.201   5.350  -1.875  1.00  0.00     0.191 C 
BRANCH  21  22
ATOM     22  O   UNL     1      63.625   4.173  -1.354  1.00  0.00    -0.394 OA
ATOM     23  H   UNL     1      63.956   3.411  -1.890  1.00  0.00     0.210 HD
ENDBRANCH  21  22
ENDBRANCH  15  21
BRANCH  16  24
ATOM     24  O   UNL     1      66.109   3.125  -3.790  1.00  0.00    -0.387 OA
ATOM     25  H   UNL     1      65.243   3.044  -4.266  1.00  0.00     0.211 HD
ENDBRANCH  16  24
ENDBRANCH  10  11
ENDBRANCH   4  10
BRANCH   6  26
ATOM     26  O   UNL     1      64.990   4.520   4.429  1.00  0.00    -0.346 OA
BRANCH  26  27
ATOM     27  C   UNL     1      63.988   3.712   4.920  1.00  0.00     0.130 C 
ATOM     28  C   UNL     1      62.669   3.684   4.008  1.00  0.00     0.033 C 
ATOM     29  C   UNL     1      64.385   2.273   5.467  1.00  0.00     0.020 C 
ATOM     30  C   UNL     1      62.268   2.445   3.153  1.00  0.00     0.010 C 
ATOM     31  C   UNL     1      64.101   1.298   4.354  1.00  0.00     0.006 C 
ATOM     32  C   UNL     1      65.817   1.791   6.010  1.00  0.00     0.017 C 
ATOM     33  C   UNL     1      62.709   1.096   3.747  1.00  0.00    -0.022 C 
ATOM     34  C   UNL     1      65.054   1.669   3.099  1.00  0.00     0.005 C 
ATOM     35  C   UNL     1      61.572   0.748   4.751  1.00  0.00     0.012 C 
ATOM     36  C   UNL     1      62.866  -0.232   2.768  1.00  0.00     0.024 C 
ATOM     37  C   UNL     1      65.265   0.484   2.184  1.00  0.00     0.008 C 
ATOM     38  C   UNL     1      63.921  -0.102   1.566  1.00  0.00    -0.017 C 
ATOM     39  C   UNL     1      63.206  -1.490   3.601  1.00  0.00    -0.024 C 
ATOM     40  C   UNL     1      63.458   0.914   0.490  1.00  0.00     0.013 C 
ATOM     41  C   UNL     1      64.117  -1.577   0.873  1.00  0.00     0.009 C 
ATOM     42  C   UNL     1      63.989  -2.501   3.226  1.00  0.00     0.005 C 
ATOM     43  C   UNL     1      64.785  -2.586   1.954  1.00  0.00     0.096 C 
ATOM     44  C   UNL     1      65.044  -1.603  -0.410  1.00  0.00     0.043 C 
ATOM     45  C   UNL     1      62.731  -2.139   0.439  1.00  0.00     0.015 C 
ATOM     46  C   UNL     1      64.992  -4.032   1.449  1.00  0.00     0.037 C 
ATOM     47  O   UNL     1      66.158  -2.201   2.169  1.00  0.00    -0.369 OA
ATOM     48  C   UNL     1      65.523  -3.020  -0.814  1.00  0.00     0.124 C 
ATOM     49  C   UNL     1      66.070  -3.854   0.371  1.00  0.00     0.026 C 
ATOM     50  C   UNL     1      63.944  -5.094   1.191  1.00  0.00     0.014 C 
ATOM     51  C   UNL     1      66.977  -2.930   1.248  1.00  0.00     0.171 C 
ATOM     52  C   UNL     1      66.731  -5.163   0.035  1.00  0.00     0.013 C 
ATOM     53  C   UNL     1      64.648  -6.465   0.994  1.00  0.00    -0.035 C 
ATOM     54  C   UNL     1      65.703  -6.332  -0.172  1.00  0.00     0.007 C 
ATOM     55  C   UNL     1      65.308  -7.026   2.250  1.00  0.00     0.011 C 
ATOM     56  C   UNL     1      63.625  -7.509   0.538  1.00  0.00     0.011 C 
BRANCH  29  57
ATOM     57  C   UNL     1      63.451   2.139   6.703  1.00  0.00     0.165 C 
BRANCH  57  58
ATOM     58  O   UNL     1      64.216   2.000   7.893  1.00  0.00    -0.396 OA
ATOM     59  H   UNL     1      65.102   2.460   7.799  1.00  0.00     0.210 HD
ENDBRANCH  57  58
ENDBRANCH  29  57
BRANCH  48  60
ATOM     60  O   UNL     1      66.545  -2.839  -1.875  1.00  0.00    -0.392 OA
ATOM     61  H   UNL     1      66.503  -3.698  -2.487  1.00  0.00     0.210 HD
ENDBRANCH  48  60
ENDBRANCH  26  27
ENDBRANCH   6  26
BRANCH   5  62
ATOM     62  O   UNL     1      63.392   5.135   1.381  1.00  0.00    -0.385 OA
ATOM     63  H   UNL     1      63.061   4.312   0.915  1.00  0.00     0.211 HD
ENDBRANCH   5  62
TORSDOF 14
ENDMDL
MODEL 6
REMARK VINA RESULT:    -7.752      2.690      9.526
REMARK INTER + INTRA:         -14.388
REMARK INTER:                 -12.227
REMARK INTRA:                  -2.162
REMARK UNBOUND:                -2.104
REMARK SMILES C[C@@H]1O[C@H](O[C@H]2CC[C@]3(C)[C@@H](CC[C@]4(C)[C@H]3C=C[C@@]35OC[C@]6(CCC(C)(C)C[C@@H]63)[C@H](O)C[C@]45C)[C@]2(C)CO)[C@@H](O)[C@H](O[C@@H]2O[C@H](CO)[C@@H](O)[C@H](O)[C@@H]2O)[C@@H]1O
REMARK SMILES IDX 1 1 2 2 54 3 41 4 39 5 4 6 3 7 55 8 42 10 43 11 52 12 44 13
REMARK SMILES IDX 50 14 45 15 48 16 53 17 51 19 46 21 47 22 49 24 5 26 6 27
REMARK SMILES IDX 7 28 35 29 8 30 11 31 36 32 9 33 12 34 10 35 16 36 13 37
REMARK SMILES IDX 14 38 17 39 15 40 33 41 18 42 19 43 32 44 34 45 29 46 20 47
REMARK SMILES IDX 30 48 22 49 28 50 21 51 23 52 25 53 24 54 26 55 27 56 37 57
REMARK SMILES IDX 38 58 31 60 40 62
REMARK H PARENT 55 9 53 18 51 20 47 23 49 25 38 59 31 61 40 63
REMARK Flexibility Score: inf
ROOT
ATOM      1  C   UNL     1      66.884   7.988   5.349  1.00  0.00     0.041 C 
ATOM      2  C   UNL     1      66.709   7.389   3.766  1.00  0.00     0.150 C 
ATOM      3  C   UNL     1      66.897   6.786   2.110  1.00  0.00     0.175 C 
ATOM      4  C   UNL     1      65.532   5.939   1.773  1.00  0.00     0.186 C 
ATOM      5  C   UNL     1      64.976   5.006   2.912  1.00  0.00     0.202 C 
ATOM      6  C   UNL     1      65.340   5.590   4.164  1.00  0.00     0.282 C 
ATOM      7  O   UNL     1      65.387   6.974   4.037  1.00  0.00    -0.344 OA
ENDROOT
BRANCH   3   8
ATOM      8  O   UNL     1      68.092   6.159   1.483  1.00  0.00    -0.388 OA
ATOM      9  H   UNL     1      68.575   6.529   0.546  1.00  0.00     0.211 HD
ENDBRANCH   3   8
BRANCH   4  10
ATOM     10  O   UNL     1      65.311   5.314   0.574  1.00  0.00    -0.341 OA
BRANCH  10  11
ATOM     11  C   UNL     1      65.129   6.177  -0.512  1.00  0.00     0.282 C 
ATOM     12  C   UNL     1      66.283   6.221  -1.544  1.00  0.00     0.202 C 
ATOM     13  O   UNL     1      63.948   5.692  -1.101  1.00  0.00    -0.341 OA
ATOM     14  C   UNL     1      66.907   4.850  -1.625  1.00  0.00     0.179 C 
ATOM     15  C   UNL     1      64.220   4.377  -1.697  1.00  0.00     0.178 C 
ATOM     16  C   UNL     1      65.732   3.880  -1.994  1.00  0.00     0.177 C 
BRANCH  12  17
ATOM     17  O   UNL     1      67.184   7.308  -1.448  1.00  0.00    -0.385 OA
ATOM     18  H   UNL     1      67.368   7.283  -0.452  1.00  0.00     0.211 HD
ENDBRANCH  12  17
BRANCH  14  19
ATOM     19  O   UNL     1      67.566   4.384  -0.490  1.00  0.00    -0.387 OA
ATOM     20  H   UNL     1      67.347   3.417  -0.467  1.00  0.00     0.211 HD
ENDBRANCH  14  19
BRANCH  15  21
ATOM     21  C   UNL     1      63.526   3.296  -0.807  1.00  0.00     0.191 C 
BRANCH  21  22
ATOM     22  O   UNL     1      62.795   3.920   0.225  1.00  0.00    -0.394 OA
ATOM     23  H   UNL     1      62.135   3.268   0.565  1.00  0.00     0.210 HD
ENDBRANCH  21  22
ENDBRANCH  15  21
BRANCH  16  24
ATOM     24  O   UNL     1      65.913   3.510  -3.360  1.00  0.00    -0.387 OA
ATOM     25  H   UNL     1      66.333   4.254  -3.862  1.00  0.00     0.211 HD
ENDBRANCH  16  24
ENDBRANCH  10  11
ENDBRANCH   4  10
BRANCH   6  26
ATOM     26  O   UNL     1      66.602   5.023   4.596  1.00  0.00    -0.346 OA
BRANCH  26  27
ATOM     27  C   UNL     1      66.325   4.030   5.511  1.00  0.00     0.130 C 
ATOM     28  C   UNL     1      64.768   3.898   5.877  1.00  0.00     0.033 C 
ATOM     29  C   UNL     1      67.032   2.619   5.323  1.00  0.00     0.020 C 
ATOM     30  C   UNL     1      63.892   2.705   5.392  1.00  0.00     0.010 C 
ATOM     31  C   UNL     1      66.032   1.728   4.630  1.00  0.00     0.006 C 
ATOM     32  C   UNL     1      68.398   2.302   4.542  1.00  0.00     0.017 C 
ATOM     33  C   UNL     1      64.661   1.384   5.219  1.00  0.00    -0.022 C 
ATOM     34  C   UNL     1      65.716   2.359   3.173  1.00  0.00     0.005 C 
ATOM     35  C   UNL     1      64.668   0.774   6.651  1.00  0.00     0.012 C 
ATOM     36  C   UNL     1      64.064   0.198   4.227  1.00  0.00     0.024 C 
ATOM     37  C   UNL     1      65.199   1.316   2.210  1.00  0.00     0.008 C 
ATOM     38  C   UNL     1      63.860   0.602   2.688  1.00  0.00    -0.017 C 
ATOM     39  C   UNL     1      64.942  -1.072   4.302  1.00  0.00    -0.024 C 
ATOM     40  C   UNL     1      62.723   1.640   2.503  1.00  0.00     0.013 C 
ATOM     41  C   UNL     1      63.505  -0.751   1.829  1.00  0.00     0.009 C 
ATOM     42  C   UNL     1      65.205  -1.914   3.302  1.00  0.00     0.005 C 
ATOM     43  C   UNL     1      64.781  -1.754   1.868  1.00  0.00     0.096 C 
ATOM     44  C   UNL     1      63.159  -0.513   0.303  1.00  0.00     0.043 C 
ATOM     45  C   UNL     1      62.276  -1.467   2.463  1.00  0.00     0.015 C 
ATOM     46  C   UNL     1      64.575  -3.096   1.131  1.00  0.00     0.037 C 
ATOM     47  O   UNL     1      65.842  -1.193   1.070  1.00  0.00    -0.369 OA
ATOM     48  C   UNL     1      63.209  -1.796  -0.564  1.00  0.00     0.124 C 
ATOM     49  C   UNL     1      64.478  -2.654  -0.336  1.00  0.00     0.026 C 
ATOM     50  C   UNL     1      63.712  -4.270   1.544  1.00  0.00     0.014 C 
ATOM     51  C   UNL     1      65.713  -1.698  -0.265  1.00  0.00     0.171 C 
ATOM     52  C   UNL     1      64.695  -3.810  -1.273  1.00  0.00     0.013 C 
ATOM     53  C   UNL     1      64.064  -5.495   0.655  1.00  0.00    -0.035 C 
ATOM     54  C   UNL     1      63.887  -5.092  -0.860  1.00  0.00     0.007 C 
ATOM     55  C   UNL     1      65.455  -6.075   0.894  1.00  0.00     0.011 C 
ATOM     56  C   UNL     1      63.070  -6.628   0.923  1.00  0.00     0.011 C 
BRANCH  29  57
ATOM     57  C   UNL     1      67.341   2.226   6.795  1.00  0.00     0.165 C 
BRANCH  57  58
ATOM     58  O   UNL     1      68.143   1.052   6.840  1.00  0.00    -0.396 OA
ATOM     59  H   UNL     1      67.784   0.357   6.214  1.00  0.00     0.210 HD
ENDBRANCH  57  58
ENDBRANCH  29  57
BRANCH  48  60
ATOM     60  O   UNL     1      63.086  -1.361  -1.978  1.00  0.00    -0.392 OA
ATOM     61  H   UNL     1      62.123  -1.646  -2.301  1.00  0.00     0.210 HD
ENDBRANCH  48  60
ENDBRANCH  26  27
ENDBRANCH   6  26
BRANCH   5  62
ATOM     62  O   UNL     1      63.538   4.950   2.913  1.00  0.00    -0.385 OA
ATOM     63  H   UNL     1      63.220   5.756   2.410  1.00  0.00     0.211 HD
ENDBRANCH   5  62
TORSDOF 14
ENDMDL
MODEL 7
REMARK VINA RESULT:    -7.675      4.153      9.497
REMARK INTER + INTRA:         -14.265
REMARK INTER:                 -12.793
REMARK INTRA:                  -1.473
REMARK UNBOUND:                -2.104
REMARK SMILES C[C@@H]1O[C@H](O[C@H]2CC[C@]3(C)[C@@H](CC[C@]4(C)[C@H]3C=C[C@@]35OC[C@]6(CCC(C)(C)C[C@@H]63)[C@H](O)C[C@]45C)[C@]2(C)CO)[C@@H](O)[C@H](O[C@@H]2O[C@H](CO)[C@@H](O)[C@H](O)[C@@H]2O)[C@@H]1O
REMARK SMILES IDX 1 1 2 2 54 3 41 4 39 5 4 6 3 7 55 8 42 10 43 11 52 12 44 13
REMARK SMILES IDX 50 14 45 15 48 16 53 17 51 19 46 21 47 22 49 24 5 26 6 27
REMARK SMILES IDX 7 28 35 29 8 30 11 31 36 32 9 33 12 34 10 35 16 36 13 37
REMARK SMILES IDX 14 38 17 39 15 40 33 41 18 42 19 43 32 44 34 45 29 46 20 47
REMARK SMILES IDX 30 48 22 49 28 50 21 51 23 52 25 53 24 54 26 55 27 56 37 57
REMARK SMILES IDX 38 58 31 60 40 62
REMARK H PARENT 55 9 53 18 51 20 47 23 49 25 38 59 31 61 40 63
REMARK Flexibility Score: inf
ROOT
ATOM      1  C   UNL     1      64.003   7.078   0.648  1.00  0.00     0.041 C 
ATOM      2  C   UNL     1      65.115   6.125  -0.218  1.00  0.00     0.150 C 
ATOM      3  C   UNL     1      66.522   5.279  -0.884  1.00  0.00     0.175 C 
ATOM      4  C   UNL     1      65.935   3.960  -1.667  1.00  0.00     0.186 C 
ATOM      5  C   UNL     1      64.781   3.165  -0.951  1.00  0.00     0.202 C 
ATOM      6  C   UNL     1      64.042   4.098  -0.160  1.00  0.00     0.282 C 
ATOM      7  O   UNL     1      64.071   5.349  -0.765  1.00  0.00    -0.344 OA
ENDROOT
BRANCH   3   8
ATOM      8  O   UNL     1      67.823   4.982  -0.225  1.00  0.00    -0.388 OA
ATOM      9  H   UNL     1      68.555   4.224  -0.595  1.00  0.00     0.211 HD
ENDBRANCH   3   8
BRANCH   4  10
ATOM     10  O   UNL     1      66.732   3.052  -2.312  1.00  0.00    -0.341 OA
BRANCH  10  11
ATOM     11  C   UNL     1      68.045   3.479  -2.537  1.00  0.00     0.282 C 
ATOM     12  C   UNL     1      69.162   2.553  -1.994  1.00  0.00     0.202 C 
ATOM     13  O   UNL     1      68.107   3.571  -3.939  1.00  0.00    -0.341 OA
ATOM     14  C   UNL     1      68.689   1.124  -2.092  1.00  0.00     0.179 C 
ATOM     15  C   UNL     1      68.042   2.217  -4.507  1.00  0.00     0.178 C 
ATOM     16  C   UNL     1      68.333   0.907  -3.603  1.00  0.00     0.177 C 
BRANCH  12  17
ATOM     17  O   UNL     1      69.760   2.927  -0.768  1.00  0.00    -0.385 OA
ATOM     18  H   UNL     1      69.769   3.934  -0.888  1.00  0.00     0.211 HD
ENDBRANCH  12  17
BRANCH  14  19
ATOM     19  O   UNL     1      67.610   0.756  -1.293  1.00  0.00    -0.387 OA
ATOM     20  H   UNL     1      68.029   0.275  -0.533  1.00  0.00     0.211 HD
ENDBRANCH  14  19
BRANCH  15  21
ATOM     21  C   UNL     1      66.635   2.043  -5.165  1.00  0.00     0.191 C 
BRANCH  21  22
ATOM     22  O   UNL     1      66.774   1.505  -6.461  1.00  0.00    -0.394 OA
ATOM     23  H   UNL     1      66.212   0.694  -6.514  1.00  0.00     0.210 HD
ENDBRANCH  21  22
ENDBRANCH  15  21
BRANCH  16  24
ATOM     24  O   UNL     1      69.364   0.093  -4.160  1.00  0.00    -0.387 OA
ATOM     25  H   UNL     1      70.028   0.658  -4.631  1.00  0.00     0.211 HD
ENDBRANCH  16  24
ENDBRANCH  10  11
ENDBRANCH   4  10
BRANCH   6  26
ATOM     26  O   UNL     1      64.588   4.110   1.182  1.00  0.00    -0.346 OA
BRANCH  26  27
ATOM     27  C   UNL     1      63.709   3.434   2.000  1.00  0.00     0.130 C 
ATOM     28  C   UNL     1      62.608   2.579   1.206  1.00  0.00     0.033 C 
ATOM     29  C   UNL     1      64.299   2.658   3.256  1.00  0.00     0.020 C 
ATOM     30  C   UNL     1      62.635   1.022   1.152  1.00  0.00     0.010 C 
ATOM     31  C   UNL     1      64.428   1.213   2.844  1.00  0.00     0.006 C 
ATOM     32  C   UNL     1      65.682   2.938   4.021  1.00  0.00     0.017 C 
ATOM     33  C   UNL     1      63.240   0.356   2.399  1.00  0.00    -0.022 C 
ATOM     34  C   UNL     1      65.488   1.126   1.623  1.00  0.00     0.005 C 
ATOM     35  C   UNL     1      62.043   0.281   3.391  1.00  0.00     0.012 C 
ATOM     36  C   UNL     1      63.845  -1.185   2.308  1.00  0.00     0.024 C 
ATOM     37  C   UNL     1      66.102  -0.250   1.509  1.00  0.00     0.008 C 
ATOM     38  C   UNL     1      65.043  -1.412   1.266  1.00  0.00    -0.017 C 
ATOM     39  C   UNL     1      64.290  -1.682   3.702  1.00  0.00    -0.024 C 
ATOM     40  C   UNL     1      64.572  -1.270  -0.205  1.00  0.00     0.013 C 
ATOM     41  C   UNL     1      65.665  -2.913   1.495  1.00  0.00     0.009 C 
ATOM     42  C   UNL     1      65.324  -2.483   3.966  1.00  0.00     0.005 C 
ATOM     43  C   UNL     1      66.331  -2.991   2.973  1.00  0.00     0.096 C 
ATOM     44  C   UNL     1      66.788  -3.345   0.465  1.00  0.00     0.043 C 
ATOM     45  C   UNL     1      64.529  -3.973   1.391  1.00  0.00     0.015 C 
ATOM     46  C   UNL     1      66.924  -4.369   3.345  1.00  0.00     0.037 C 
ATOM     47  O   UNL     1      67.531  -2.192   2.989  1.00  0.00    -0.369 OA
ATOM     48  C   UNL     1      67.620  -4.572   0.915  1.00  0.00     0.124 C 
ATOM     49  C   UNL     1      68.113  -4.487   2.381  1.00  0.00     0.026 C 
ATOM     50  C   UNL     1      66.187  -5.650   3.672  1.00  0.00     0.014 C 
ATOM     51  C   UNL     1      68.635  -3.036   2.643  1.00  0.00     0.171 C 
ATOM     52  C   UNL     1      69.084  -5.542   2.834  1.00  0.00     0.013 C 
ATOM     53  C   UNL     1      67.188  -6.672   4.278  1.00  0.00    -0.035 C 
ATOM     54  C   UNL     1      68.380  -6.879   3.264  1.00  0.00     0.007 C 
ATOM     55  C   UNL     1      67.721  -6.299   5.657  1.00  0.00     0.011 C 
ATOM     56  C   UNL     1      66.506  -8.035   4.429  1.00  0.00     0.011 C 
BRANCH  29  57
ATOM     57  C   UNL     1      63.212   2.932   4.332  1.00  0.00     0.165 C 
BRANCH  57  58
ATOM     58  O   UNL     1      62.770   4.282   4.262  1.00  0.00    -0.396 OA
ATOM     59  H   UNL     1      63.399   4.884   4.759  1.00  0.00     0.210 HD
ENDBRANCH  57  58
ENDBRANCH  29  57
BRANCH  48  60
ATOM     60  O   UNL     1      68.751  -4.694  -0.038  1.00  0.00    -0.392 OA
ATOM     61  H   UNL     1      68.328  -4.800  -0.999  1.00  0.00     0.210 HD
ENDBRANCH  48  60
ENDBRANCH  26  27
ENDBRANCH   6  26
BRANCH   5  62
ATOM     62  O   UNL     1      63.837   2.617  -1.889  1.00  0.00    -0.385 OA
ATOM     63  H   UNL     1      62.941   2.991  -1.645  1.00  0.00     0.211 HD
ENDBRANCH   5  62
TORSDOF 14
ENDMDL
MODEL 8
REMARK VINA RESULT:    -7.587      2.834      5.683
REMARK INTER + INTRA:         -14.126
REMARK INTER:                 -11.306
REMARK INTRA:                  -2.820
REMARK UNBOUND:                -2.104
REMARK SMILES C[C@@H]1O[C@H](O[C@H]2CC[C@]3(C)[C@@H](CC[C@]4(C)[C@H]3C=C[C@@]35OC[C@]6(CCC(C)(C)C[C@@H]63)[C@H](O)C[C@]45C)[C@]2(C)CO)[C@@H](O)[C@H](O[C@@H]2O[C@H](CO)[C@@H](O)[C@H](O)[C@@H]2O)[C@@H]1O
REMARK SMILES IDX 1 1 2 2 54 3 41 4 39 5 4 6 3 7 55 8 42 10 43 11 52 12 44 13
REMARK SMILES IDX 50 14 45 15 48 16 53 17 51 19 46 21 47 22 49 24 5 26 6 27
REMARK SMILES IDX 7 28 35 29 8 30 11 31 36 32 9 33 12 34 10 35 16 36 13 37
REMARK SMILES IDX 14 38 17 39 15 40 33 41 18 42 19 43 32 44 34 45 29 46 20 47
REMARK SMILES IDX 30 48 22 49 28 50 21 51 23 52 25 53 24 54 26 55 27 56 37 57
REMARK SMILES IDX 38 58 31 60 40 62
REMARK H PARENT 55 9 53 18 51 20 47 23 49 25 38 59 31 61 40 63
REMARK Flexibility Score: inf
ROOT
ATOM      1  C   UNL     1      63.689  -2.429  -2.541  1.00  0.00     0.041 C 
ATOM      2  C   UNL     1      64.127  -2.446  -0.897  1.00  0.00     0.150 C 
ATOM      3  C   UNL     1      64.893  -2.630   0.691  1.00  0.00     0.175 C 
ATOM      4  C   UNL     1      64.196  -1.508   1.667  1.00  0.00     0.186 C 
ATOM      5  C   UNL     1      63.954  -0.081   1.049  1.00  0.00     0.202 C 
ATOM      6  C   UNL     1      63.747  -0.249  -0.355  1.00  0.00     0.282 C 
ATOM      7  O   UNL     1      63.145  -1.479  -0.594  1.00  0.00    -0.344 OA
ENDROOT
BRANCH   3   8
ATOM      8  O   UNL     1      66.336  -2.803   1.009  1.00  0.00    -0.388 OA
ATOM      9  H   UNL     1      67.159  -2.223   0.525  1.00  0.00     0.211 HD
ENDBRANCH   3   8
BRANCH   4  10
ATOM     10  O   UNL     1      64.535  -1.342   2.984  1.00  0.00    -0.341 OA
BRANCH  10  11
ATOM     11  C   UNL     1      65.382  -0.259   3.239  1.00  0.00     0.282 C 
ATOM     12  C   UNL     1      64.971   0.661   4.416  1.00  0.00     0.202 C 
ATOM     13  O   UNL     1      66.617  -0.881   3.496  1.00  0.00    -0.341 OA
ATOM     14  C   UNL     1      64.305  -0.183   5.474  1.00  0.00     0.179 C 
ATOM     15  C   UNL     1      66.526  -1.605   4.772  1.00  0.00     0.178 C 
ATOM     16  C   UNL     1      65.352  -1.291   5.841  1.00  0.00     0.177 C 
BRANCH  12  17
ATOM     17  O   UNL     1      64.316   1.870   4.081  1.00  0.00    -0.385 OA
ATOM     18  H   UNL     1      64.099   2.204   5.013  1.00  0.00     0.211 HD
ENDBRANCH  12  17
BRANCH  14  19
ATOM     19  O   UNL     1      63.088  -0.772   5.143  1.00  0.00    -0.387 OA
ATOM     20  H   UNL     1      62.425  -0.267   5.680  1.00  0.00     0.211 HD
ENDBRANCH  14  19
BRANCH  15  21
ATOM     21  C   UNL     1      66.486  -3.134   4.451  1.00  0.00     0.191 C 
BRANCH  21  22
ATOM     22  O   UNL     1      65.174  -3.625   4.609  1.00  0.00    -0.394 OA
ATOM     23  H   UNL     1      65.146  -4.151   5.445  1.00  0.00     0.210 HD
ENDBRANCH  21  22
ENDBRANCH  15  21
BRANCH  16  24
ATOM     24  O   UNL     1      65.875  -0.958   7.125  1.00  0.00    -0.387 OA
ATOM     25  H   UNL     1      65.219  -0.413   7.631  1.00  0.00     0.211 HD
ENDBRANCH  16  24
ENDBRANCH  10  11
ENDBRANCH   4  10
BRANCH   6  26
ATOM     26  O   UNL     1      65.018  -0.104  -1.036  1.00  0.00    -0.346 OA
BRANCH  26  27
ATOM     27  C   UNL     1      64.921   0.982  -1.880  1.00  0.00     0.130 C 
ATOM     28  C   UNL     1      63.509   1.740  -1.805  1.00  0.00     0.033 C 
ATOM     29  C   UNL     1      66.152   1.985  -1.954  1.00  0.00     0.020 C 
ATOM     30  C   UNL     1      63.345   3.143  -1.148  1.00  0.00     0.010 C 
ATOM     31  C   UNL     1      65.817   3.143  -1.050  1.00  0.00     0.006 C 
ATOM     32  C   UNL     1      67.688   1.682  -1.596  1.00  0.00     0.017 C 
ATOM     33  C   UNL     1      64.591   4.039  -1.250  1.00  0.00    -0.022 C 
ATOM     34  C   UNL     1      65.682   2.582   0.463  1.00  0.00     0.005 C 
ATOM     35  C   UNL     1      64.452   4.701  -2.652  1.00  0.00     0.012 C 
ATOM     36  C   UNL     1      64.806   5.289  -0.182  1.00  0.00     0.024 C 
ATOM     37  C   UNL     1      65.904   3.672   1.487  1.00  0.00     0.008 C 
ATOM     38  C   UNL     1      64.883   4.886   1.369  1.00  0.00    -0.017 C 
ATOM     39  C   UNL     1      66.060   6.115  -0.550  1.00  0.00    -0.024 C 
ATOM     40  C   UNL     1      63.524   4.366   1.905  1.00  0.00     0.013 C 
ATOM     41  C   UNL     1      65.341   6.204   2.234  1.00  0.00     0.009 C 
ATOM     42  C   UNL     1      66.895   6.711   0.301  1.00  0.00     0.005 C 
ATOM     43  C   UNL     1      66.847   6.625   1.801  1.00  0.00     0.096 C 
ATOM     44  C   UNL     1      65.356   6.009   3.806  1.00  0.00     0.043 C 
ATOM     45  C   UNL     1      64.375   7.388   1.936  1.00  0.00     0.015 C 
ATOM     46  C   UNL     1      67.398   7.883   2.510  1.00  0.00     0.037 C 
ATOM     47  O   UNL     1      67.771   5.636   2.298  1.00  0.00    -0.369 OA
ATOM     48  C   UNL     1      66.142   7.103   4.570  1.00  0.00     0.124 C 
ATOM     49  C   UNL     1      67.534   7.409   3.964  1.00  0.00     0.026 C 
ATOM     50  C   UNL     1      66.996   9.328   2.303  1.00  0.00     0.014 C 
ATOM     51  C   UNL     1      68.219   6.053   3.593  1.00  0.00     0.171 C 
ATOM     52  C   UNL     1      68.437   8.316   4.754  1.00  0.00     0.013 C 
ATOM     53  C   UNL     1      68.031  10.248   3.007  1.00  0.00    -0.035 C 
ATOM     54  C   UNL     1      68.125   9.838   4.528  1.00  0.00     0.007 C 
ATOM     55  C   UNL     1      69.416  10.252   2.369  1.00  0.00     0.011 C 
ATOM     56  C   UNL     1      67.536  11.697   2.978  1.00  0.00     0.011 C 
BRANCH  29  57
ATOM     57  C   UNL     1      66.181   2.331  -3.469  1.00  0.00     0.165 C 
BRANCH  57  58
ATOM     58  O   UNL     1      67.321   3.124  -3.778  1.00  0.00    -0.396 OA
ATOM     59  H   UNL     1      68.049   2.970  -3.106  1.00  0.00     0.210 HD
ENDBRANCH  57  58
ENDBRANCH  29  57
BRANCH  48  60
ATOM     60  O   UNL     1      66.245   6.649   5.980  1.00  0.00    -0.392 OA
ATOM     61  H   UNL     1      67.225   6.280   6.109  1.00  0.00     0.210 HD
ENDBRANCH  48  60
ENDBRANCH  26  27
ENDBRANCH   6  26
BRANCH   5  62
ATOM     62  O   UNL     1      62.751   0.529   1.550  1.00  0.00    -0.385 OA
ATOM     63  H   UNL     1      62.093   0.527   0.794  1.00  0.00     0.211 HD
ENDBRANCH   5  62
TORSDOF 14
ENDMDL
MODEL 9
REMARK VINA RESULT:    -5.711      3.621     11.678
REMARK INTER + INTRA:         -11.153
REMARK INTER:                  -8.997
REMARK INTRA:                  -2.156
REMARK UNBOUND:                -2.104
REMARK SMILES C[C@@H]1O[C@H](O[C@H]2CC[C@]3(C)[C@@H](CC[C@]4(C)[C@H]3C=C[C@@]35OC[C@]6(CCC(C)(C)C[C@@H]63)[C@H](O)C[C@]45C)[C@]2(C)CO)[C@@H](O)[C@H](O[C@@H]2O[C@H](CO)[C@@H](O)[C@H](O)[C@@H]2O)[C@@H]1O
REMARK SMILES IDX 1 1 2 2 54 3 41 4 39 5 4 6 3 7 55 8 42 10 43 11 52 12 44 13
REMARK SMILES IDX 50 14 45 15 48 16 53 17 51 19 46 21 47 22 49 24 5 26 6 27
REMARK SMILES IDX 7 28 35 29 8 30 11 31 36 32 9 33 12 34 10 35 16 36 13 37
REMARK SMILES IDX 14 38 17 39 15 40 33 41 18 42 19 43 32 44 34 45 29 46 20 47
REMARK SMILES IDX 30 48 22 49 28 50 21 51 23 52 25 53 24 54 26 55 27 56 37 57
REMARK SMILES IDX 38 58 31 60 40 62
REMARK H PARENT 55 9 53 18 51 20 47 23 49 25 38 59 31 61 40 63
REMARK Flexibility Score: inf
ROOT
ATOM      1  C   UNL     1      63.890   5.696  -2.546  1.00  0.00     0.041 C 
ATOM      2  C   UNL     1      64.383   6.094  -0.967  1.00  0.00     0.150 C 
ATOM      3  C   UNL     1      64.639   6.260   0.779  1.00  0.00     0.175 C 
ATOM      4  C   UNL     1      66.152   6.871   0.965  1.00  0.00     0.186 C 
ATOM      5  C   UNL     1      67.276   6.275   0.037  1.00  0.00     0.202 C 
ATOM      6  C   UNL     1      66.656   5.864  -1.182  1.00  0.00     0.282 C 
ATOM      7  O   UNL     1      65.568   6.687  -1.453  1.00  0.00    -0.344 OA
ENDROOT
BRANCH   3   8
ATOM      8  O   UNL     1      64.310   5.291   1.859  1.00  0.00    -0.388 OA
ATOM      9  H   UNL     1      63.441   4.590   1.830  1.00  0.00     0.211 HD
ENDBRANCH   3   8
BRANCH   4  10
ATOM     10  O   UNL     1      66.712   7.134   2.186  1.00  0.00    -0.341 OA
BRANCH  10  11
ATOM     11  C   UNL     1      65.833   7.674   3.130  1.00  0.00     0.282 C 
ATOM     12  C   UNL     1      65.892   7.051   4.547  1.00  0.00     0.202 C 
ATOM     13  O   UNL     1      66.204   9.031   3.163  1.00  0.00    -0.341 OA
ATOM     14  C   UNL     1      67.314   6.637   4.829  1.00  0.00     0.179 C 
ATOM     15  C   UNL     1      67.536   9.143   3.772  1.00  0.00     0.178 C 
ATOM     16  C   UNL     1      68.170   7.938   4.648  1.00  0.00     0.177 C 
BRANCH  12  17
ATOM     17  O   UNL     1      64.892   6.102   4.868  1.00  0.00    -0.385 OA
ATOM     18  H   UNL     1      64.081   6.710   4.871  1.00  0.00     0.211 HD
ENDBRANCH  12  17
BRANCH  14  19
ATOM     19  O   UNL     1      67.843   5.610   4.051  1.00  0.00    -0.387 OA
ATOM     20  H   UNL     1      68.716   5.969   3.745  1.00  0.00     0.211 HD
ENDBRANCH  14  19
BRANCH  15  21
ATOM     21  C   UNL     1      68.551   9.497   2.638  1.00  0.00     0.191 C 
BRANCH  21  22
ATOM     22  O   UNL     1      69.262   8.342   2.251  1.00  0.00    -0.394 OA
ATOM     23  H   UNL     1      69.939   8.612   1.583  1.00  0.00     0.210 HD
ENDBRANCH  21  22
ENDBRANCH  15  21
BRANCH  16  24
ATOM     24  O   UNL     1      68.549   8.370   5.953  1.00  0.00    -0.387 OA
ATOM     25  H   UNL     1      67.744   8.514   6.513  1.00  0.00     0.211 HD
ENDBRANCH  16  24
ENDBRANCH  10  11
ENDBRANCH   4  10
BRANCH   6  26
ATOM     26  O   UNL     1      66.290   4.466  -1.074  1.00  0.00    -0.346 OA
BRANCH  26  27
ATOM     27  C   UNL     1      67.178   3.739  -1.837  1.00  0.00     0.130 C 
ATOM     28  C   UNL     1      68.597   3.495  -1.129  1.00  0.00     0.033 C 
ATOM     29  C   UNL     1      66.637   2.446  -2.588  1.00  0.00     0.020 C 
ATOM     30  C   UNL     1      69.033   2.102  -0.585  1.00  0.00     0.010 C 
ATOM     31  C   UNL     1      67.004   1.265  -1.726  1.00  0.00     0.006 C 
ATOM     32  C   UNL     1      65.125   2.122  -3.017  1.00  0.00     0.017 C 
ATOM     33  C   UNL     1      68.447   0.908  -1.358  1.00  0.00    -0.022 C 
ATOM     34  C   UNL     1      66.236   1.414  -0.308  1.00  0.00     0.005 C 
ATOM     35  C   UNL     1      69.430   0.728  -2.551  1.00  0.00     0.012 C 
ATOM     36  C   UNL     1      68.341  -0.580  -0.635  1.00  0.00     0.024 C 
ATOM     37  C   UNL     1      66.076   0.081   0.386  1.00  0.00     0.008 C 
ATOM     38  C   UNL     1      67.452  -0.654   0.698  1.00  0.00    -0.017 C 
ATOM     39  C   UNL     1      67.832  -1.641  -1.638  1.00  0.00    -0.024 C 
ATOM     40  C   UNL     1      68.101   0.120   1.876  1.00  0.00     0.013 C 
ATOM     41  C   UNL     1      67.264  -2.229   1.121  1.00  0.00     0.009 C 
ATOM     42  C   UNL     1      67.047  -2.682  -1.360  1.00  0.00     0.005 C 
ATOM     43  C   UNL     1      66.412  -2.989  -0.033  1.00  0.00     0.096 C 
ATOM     44  C   UNL     1      66.503  -2.476   2.488  1.00  0.00     0.043 C 
ATOM     45  C   UNL     1      68.660  -2.906   1.253  1.00  0.00     0.015 C 
ATOM     46  C   UNL     1      66.191  -4.498   0.213  1.00  0.00     0.037 C 
ATOM     47  O   UNL     1      65.047  -2.528   0.013  1.00  0.00    -0.369 OA
ATOM     48  C   UNL     1      66.001  -3.930   2.676  1.00  0.00     0.124 C 
ATOM     49  C   UNL     1      65.267  -4.501   1.438  1.00  0.00     0.026 C 
ATOM     50  C   UNL     1      67.203  -5.621   0.125  1.00  0.00     0.014 C 
ATOM     51  C   UNL     1      64.310  -3.398   0.880  1.00  0.00     0.171 C 
ATOM     52  C   UNL     1      64.582  -5.829   1.606  1.00  0.00     0.013 C 
ATOM     53  C   UNL     1      66.455  -6.982   0.151  1.00  0.00    -0.035 C 
ATOM     54  C   UNL     1      65.562  -7.047   1.451  1.00  0.00     0.007 C 
ATOM     55  C   UNL     1      65.614  -7.269  -1.089  1.00  0.00     0.011 C 
ATOM     56  C   UNL     1      67.468  -8.125   0.263  1.00  0.00     0.011 C 
BRANCH  29  57
ATOM     57  C   UNL     1      67.402   2.527  -3.939  1.00  0.00     0.165 C 
BRANCH  57  58
ATOM     58  O   UNL     1      66.494   2.734  -5.014  1.00  0.00    -0.396 OA
ATOM     59  H   UNL     1      65.557   2.824  -4.670  1.00  0.00     0.210 HD
ENDBRANCH  57  58
ENDBRANCH  29  57
BRANCH  48  60
ATOM     60  O   UNL     1      65.131  -3.928   3.879  1.00  0.00    -0.392 OA
ATOM     61  H   UNL     1      64.135  -3.876   3.533  1.00  0.00     0.210 HD
ENDBRANCH  48  60
ENDBRANCH  26  27
ENDBRANCH   6  26
BRANCH   5  62
ATOM     62  O   UNL     1      68.251   7.265  -0.336  1.00  0.00    -0.385 OA
ATOM     63  H   UNL     1      67.999   8.109   0.143  1.00  0.00     0.211 HD
ENDBRANCH   5  62
TORSDOF 14
ENDMDL
