MODEL 1
REMARK VINA RESULT:    -3.936      0.000      0.000
REMARK INTER + INTRA:          -6.190
REMARK INTER:                  -5.547
REMARK INTRA:                  -0.643
REMARK UNBOUND:                -0.643
REMARK SMILES CCCCCCCCC(=O)[O-]
REMARK SMILES IDX 6 1 7 2 8 3 9 4 10 5 11 6 5 7 4 8 3 9 2 10 1 11
REMARK H PARENT
REMARK Flexibility Score: inf
ROOT
ATOM      1  C   UNL     1     -38.518  18.020 -30.716  1.00  0.00     0.000 C 
ENDROOT
BRANCH   1   2
ATOM      2  C   UNL     1     -37.543  17.145 -29.916  1.00  0.00     0.006 C 
BRANCH   2   3
ATOM      3  C   UNL     1     -36.251  17.892 -29.558  1.00  0.00     0.053 C 
BRANCH   3   4
ATOM      4  C   UNL     1     -36.285  18.417 -28.155  1.00  0.00     0.041 C 
ATOM      5  O   UNL     1     -35.308  19.065 -27.695  1.00  0.00    -0.550 OA
ATOM      6  O   UNL     1     -37.385  18.162 -27.344  1.00  0.00    -0.550 OA
ENDBRANCH   3   4
ENDBRANCH   2   3
ENDBRANCH   1   2
BRANCH   1   7
ATOM      7  C   UNL     1     -37.893  19.384 -31.042  1.00  0.00     0.000 C 
BRANCH   7   8
ATOM      8  C   UNL     1     -38.803  20.566 -30.663  1.00  0.00    -0.000 C 
BRANCH   8   9
ATOM      9  C   UNL     1     -39.047  20.744 -29.150  1.00  0.00    -0.000 C 
BRANCH   9  10
ATOM     10  C   UNL     1     -40.508  20.562 -28.702  1.00  0.00    -0.003 C 
ATOM     11  C   UNL     1     -40.763  19.208 -28.039  1.00  0.00     0.004 C 
ENDBRANCH   9  10
ENDBRANCH   8   9
ENDBRANCH   7   8
ENDBRANCH   1   7
TORSDOF 7
ENDMDL
MODEL 2
REMARK VINA RESULT:    -3.901      2.378      3.634
REMARK INTER + INTRA:          -6.140
REMARK INTER:                  -5.464
REMARK INTRA:                  -0.676
REMARK UNBOUND:                -0.643
REMARK SMILES CCCCCCCCC(=O)[O-]
REMARK SMILES IDX 6 1 7 2 8 3 9 4 10 5 11 6 5 7 4 8 3 9 2 10 1 11
REMARK H PARENT
REMARK Flexibility Score: inf
ROOT
ATOM      1  C   UNL     1     -39.966  20.249 -28.852  1.00  0.00     0.000 C 
ENDROOT
BRANCH   1   2
ATOM      2  C   UNL     1     -39.252  18.891 -28.842  1.00  0.00     0.006 C 
BRANCH   2   3
ATOM      3  C   UNL     1     -38.518  18.608 -30.160  1.00  0.00     0.053 C 
BRANCH   3   4
ATOM      4  C   UNL     1     -38.507  17.146 -30.486  1.00  0.00     0.041 C 
ATOM      5  O   UNL     1     -37.567  16.412 -30.083  1.00  0.00    -0.550 OA
ATOM      6  O   UNL     1     -39.521  16.601 -31.264  1.00  0.00    -0.550 OA
ENDBRANCH   3   4
ENDBRANCH   2   3
ENDBRANCH   1   2
BRANCH   1   7
ATOM      7  C   UNL     1     -39.085  21.329 -29.498  1.00  0.00     0.000 C 
BRANCH   7   8
ATOM      8  C   UNL     1     -38.561  22.361 -28.483  1.00  0.00    -0.000 C 
BRANCH   8   9
ATOM      9  C   UNL     1     -37.035  22.584 -28.507  1.00  0.00    -0.000 C 
BRANCH   9  10
ATOM     10  C   UNL     1     -36.222  21.442 -29.142  1.00  0.00    -0.003 C 
ATOM     11  C   UNL     1     -35.753  20.406 -28.120  1.00  0.00     0.004 C 
ENDBRANCH   9  10
ENDBRANCH   8   9
ENDBRANCH   7   8
ENDBRANCH   1   7
TORSDOF 7
ENDMDL
MODEL 3
REMARK VINA RESULT:    -3.896     13.478     15.311
REMARK INTER + INTRA:          -6.133
REMARK INTER:                  -5.306
REMARK INTRA:                  -0.827
REMARK UNBOUND:                -0.643
REMARK SMILES CCCCCCCCC(=O)[O-]
REMARK SMILES IDX 6 1 7 2 8 3 9 4 10 5 11 6 5 7 4 8 3 9 2 10 1 11
REMARK H PARENT
REMARK Flexibility Score: inf
ROOT
ATOM      1  C   UNL     1     -53.209  17.780 -27.398  1.00  0.00     0.000 C 
ENDROOT
BRANCH   1   2
ATOM      2  C   UNL     1     -54.098  17.922 -28.641  1.00  0.00     0.006 C 
BRANCH   2   3
ATOM      3  C   UNL     1     -53.438  18.771 -29.735  1.00  0.00     0.053 C 
BRANCH   3   4
ATOM      4  C   UNL     1     -52.450  17.976 -30.533  1.00  0.00     0.041 C 
ATOM      5  O   UNL     1     -52.842  17.233 -31.471  1.00  0.00    -0.550 OA
ATOM      6  O   UNL     1     -51.098  18.032 -30.219  1.00  0.00    -0.550 OA
ENDBRANCH   3   4
ENDBRANCH   2   3
ENDBRANCH   1   2
BRANCH   1   7
ATOM      7  C   UNL     1     -52.760  16.324 -27.206  1.00  0.00     0.000 C 
BRANCH   7   8
ATOM      8  C   UNL     1     -53.541  15.334 -28.088  1.00  0.00    -0.000 C 
BRANCH   8   9
ATOM      9  C   UNL     1     -52.669  14.413 -28.966  1.00  0.00    -0.000 C 
BRANCH   9  10
ATOM     10  C   UNL     1     -51.157  14.688 -28.895  1.00  0.00    -0.003 C 
ATOM     11  C   UNL     1     -50.464  14.554 -30.251  1.00  0.00     0.004 C 
ENDBRANCH   9  10
ENDBRANCH   8   9
ENDBRANCH   7   8
ENDBRANCH   1   7
TORSDOF 7
ENDMDL
MODEL 4
REMARK VINA RESULT:    -3.888      2.021      3.932
REMARK INTER + INTRA:          -6.122
REMARK INTER:                  -5.330
REMARK INTRA:                  -0.792
REMARK UNBOUND:                -0.643
REMARK SMILES CCCCCCCCC(=O)[O-]
REMARK SMILES IDX 6 1 7 2 8 3 9 4 10 5 11 6 5 7 4 8 3 9 2 10 1 11
REMARK H PARENT
REMARK Flexibility Score: inf
ROOT
ATOM      1  C   UNL     1     -39.584  18.303 -29.627  1.00  0.00     0.000 C 
ENDROOT
BRANCH   1   2
ATOM      2  C   UNL     1     -39.390  19.599 -28.828  1.00  0.00     0.006 C 
BRANCH   2   3
ATOM      3  C   UNL     1     -38.832  20.738 -29.692  1.00  0.00     0.053 C 
BRANCH   3   4
ATOM      4  C   UNL     1     -38.248  21.834 -28.854  1.00  0.00     0.041 C 
ATOM      5  O   UNL     1     -37.001  21.926 -28.707  1.00  0.00    -0.550 OA
ATOM      6  O   UNL     1     -39.086  22.736 -28.208  1.00  0.00    -0.550 OA
ENDBRANCH   3   4
ENDBRANCH   2   3
ENDBRANCH   1   2
BRANCH   1   7
ATOM      7  C   UNL     1     -38.380  18.035 -30.542  1.00  0.00     0.000 C 
BRANCH   7   8
ATOM      8  C   UNL     1     -37.416  16.981 -29.971  1.00  0.00    -0.000 C 
BRANCH   8   9
ATOM      9  C   UNL     1     -35.931  17.399 -29.947  1.00  0.00    -0.000 C 
BRANCH   9  10
ATOM     10  C   UNL     1     -35.644  18.738 -29.245  1.00  0.00    -0.003 C 
ATOM     11  C   UNL     1     -35.978  18.710 -27.753  1.00  0.00     0.004 C 
ENDBRANCH   9  10
ENDBRANCH   8   9
ENDBRANCH   7   8
ENDBRANCH   1   7
TORSDOF 7
ENDMDL
MODEL 5
REMARK VINA RESULT:    -3.872      2.093      3.871
REMARK INTER + INTRA:          -6.100
REMARK INTER:                  -5.246
REMARK INTRA:                  -0.855
REMARK UNBOUND:                -0.643
REMARK SMILES CCCCCCCCC(=O)[O-]
REMARK SMILES IDX 6 1 7 2 8 3 9 4 10 5 11 6 5 7 4 8 3 9 2 10 1 11
REMARK H PARENT
REMARK Flexibility Score: inf
ROOT
ATOM      1  C   UNL     1     -38.331  18.217 -30.585  1.00  0.00     0.000 C 
ENDROOT
BRANCH   1   2
ATOM      2  C   UNL     1     -39.501  18.373 -29.604  1.00  0.00     0.006 C 
BRANCH   2   3
ATOM      3  C   UNL     1     -39.182  19.356 -28.469  1.00  0.00     0.053 C 
BRANCH   3   4
ATOM      4  C   UNL     1     -39.188  20.776 -28.947  1.00  0.00     0.041 C 
ATOM      5  O   UNL     1     -38.184  21.512 -28.762  1.00  0.00    -0.550 OA
ATOM      6  O   UNL     1     -40.318  21.294 -29.569  1.00  0.00    -0.550 OA
ENDBRANCH   3   4
ENDBRANCH   2   3
ENDBRANCH   1   2
BRANCH   1   7
ATOM      7  C   UNL     1     -37.440  17.028 -30.195  1.00  0.00     0.000 C 
BRANCH   7   8
ATOM      8  C   UNL     1     -36.011  17.450 -29.812  1.00  0.00    -0.000 C 
BRANCH   8   9
ATOM      9  C   UNL     1     -35.708  18.954 -29.970  1.00  0.00    -0.000 C 
BRANCH   9  10
ATOM     10  C   UNL     1     -35.249  19.663 -28.684  1.00  0.00    -0.003 C 
ATOM     11  C   UNL     1     -35.730  18.961 -27.413  1.00  0.00     0.004 C 
ENDBRANCH   9  10
ENDBRANCH   8   9
ENDBRANCH   7   8
ENDBRANCH   1   7
TORSDOF 7
ENDMDL
MODEL 6
REMARK VINA RESULT:    -3.826      2.325      3.752
REMARK INTER + INTRA:          -6.035
REMARK INTER:                  -5.258
REMARK INTRA:                  -0.777
REMARK UNBOUND:                -0.643
REMARK SMILES CCCCCCCCC(=O)[O-]
REMARK SMILES IDX 6 1 7 2 8 3 9 4 10 5 11 6 5 7 4 8 3 9 2 10 1 11
REMARK H PARENT
REMARK Flexibility Score: inf
ROOT
ATOM      1  C   UNL     1     -37.521  17.308 -30.116  1.00  0.00     0.000 C 
ENDROOT
BRANCH   1   2
ATOM      2  C   UNL     1     -38.872  18.015 -29.936  1.00  0.00     0.006 C 
BRANCH   2   3
ATOM      3  C   UNL     1     -38.957  18.780 -28.609  1.00  0.00     0.053 C 
BRANCH   3   4
ATOM      4  C   UNL     1     -40.205  19.604 -28.522  1.00  0.00     0.041 C 
ATOM      5  O   UNL     1     -40.244  20.753 -29.036  1.00  0.00    -0.550 OA
ATOM      6  O   UNL     1     -41.315  19.115 -27.845  1.00  0.00    -0.550 OA
ENDBRANCH   3   4
ENDBRANCH   2   3
ENDBRANCH   1   2
BRANCH   1   7
ATOM      7  C   UNL     1     -36.426  17.995 -29.287  1.00  0.00     0.000 C 
BRANCH   7   8
ATOM      8  C   UNL     1     -35.492  18.874 -30.138  1.00  0.00    -0.000 C 
BRANCH   8   9
ATOM      9  C   UNL     1     -35.452  20.364 -29.738  1.00  0.00    -0.000 C 
BRANCH   9  10
ATOM     10  C   UNL     1     -36.732  21.157 -30.058  1.00  0.00    -0.003 C 
ATOM     11  C   UNL     1     -37.197  20.978 -31.504  1.00  0.00     0.004 C 
ENDBRANCH   9  10
ENDBRANCH   8   9
ENDBRANCH   7   8
ENDBRANCH   1   7
TORSDOF 7
ENDMDL
MODEL 7
REMARK VINA RESULT:    -3.823     13.067     14.468
REMARK INTER + INTRA:          -6.031
REMARK INTER:                  -5.386
REMARK INTRA:                  -0.645
REMARK UNBOUND:                -0.643
REMARK SMILES CCCCCCCCC(=O)[O-]
REMARK SMILES IDX 6 1 7 2 8 3 9 4 10 5 11 6 5 7 4 8 3 9 2 10 1 11
REMARK H PARENT
REMARK Flexibility Score: inf
ROOT
ATOM      1  C   UNL     1     -53.407  15.200 -28.111  1.00  0.00     0.000 C 
ENDROOT
BRANCH   1   2
ATOM      2  C   UNL     1     -52.554  14.573 -29.221  1.00  0.00     0.006 C 
BRANCH   2   3
ATOM      3  C   UNL     1     -51.070  14.486 -28.838  1.00  0.00     0.053 C 
BRANCH   3   4
ATOM      4  C   UNL     1     -50.182  14.541 -30.043  1.00  0.00     0.041 C 
ATOM      5  O   UNL     1     -49.212  13.746 -30.155  1.00  0.00    -0.550 OA
ATOM      6  O   UNL     1     -50.406  15.496 -31.028  1.00  0.00    -0.550 OA
ENDBRANCH   3   4
ENDBRANCH   2   3
ENDBRANCH   1   2
BRANCH   1   7
ATOM      7  C   UNL     1     -52.632  16.306 -27.380  1.00  0.00     0.000 C 
BRANCH   7   8
ATOM      8  C   UNL     1     -53.373  17.655 -27.375  1.00  0.00    -0.000 C 
BRANCH   8   9
ATOM      9  C   UNL     1     -53.416  18.382 -28.736  1.00  0.00    -0.000 C 
BRANCH   9  10
ATOM     10  C   UNL     1     -52.153  18.219 -29.599  1.00  0.00    -0.003 C 
ATOM     11  C   UNL     1     -52.437  18.335 -31.097  1.00  0.00     0.004 C 
ENDBRANCH   9  10
ENDBRANCH   8   9
ENDBRANCH   7   8
ENDBRANCH   1   7
TORSDOF 7
ENDMDL
MODEL 8
REMARK VINA RESULT:    -3.800      2.091      4.134
REMARK INTER + INTRA:          -5.998
REMARK INTER:                  -5.185
REMARK INTRA:                  -0.813
REMARK UNBOUND:                -0.643
REMARK SMILES CCCCCCCCC(=O)[O-]
REMARK SMILES IDX 6 1 7 2 8 3 9 4 10 5 11 6 5 7 4 8 3 9 2 10 1 11
REMARK H PARENT
REMARK Flexibility Score: inf
ROOT
ATOM      1  C   UNL     1     -36.054  20.235 -30.424  1.00  0.00     0.000 C 
ENDROOT
BRANCH   1   2
ATOM      2  C   UNL     1     -37.474  20.794 -30.257  1.00  0.00     0.006 C 
BRANCH   2   3
ATOM      3  C   UNL     1     -38.057  20.498 -28.869  1.00  0.00     0.053 C 
BRANCH   3   4
ATOM      4  C   UNL     1     -39.550  20.374 -28.909  1.00  0.00     0.041 C 
ATOM      5  O   UNL     1     -40.123  19.406 -28.344  1.00  0.00    -0.550 OA
ATOM      6  O   UNL     1     -40.306  21.313 -29.601  1.00  0.00    -0.550 OA
ENDBRANCH   3   4
ENDBRANCH   2   3
ENDBRANCH   1   2
BRANCH   1   7
ATOM      7  C   UNL     1     -35.789  19.100 -29.423  1.00  0.00     0.000 C 
BRANCH   7   8
ATOM      8  C   UNL     1     -35.238  17.828 -30.092  1.00  0.00    -0.000 C 
BRANCH   8   9
ATOM      9  C   UNL     1     -36.289  16.739 -30.392  1.00  0.00    -0.000 C 
BRANCH   9  10
ATOM     10  C   UNL     1     -37.670  16.978 -29.759  1.00  0.00    -0.003 C 
ATOM     11  C   UNL     1     -38.778  17.156 -30.798  1.00  0.00     0.004 C 
ENDBRANCH   9  10
ENDBRANCH   8   9
ENDBRANCH   7   8
ENDBRANCH   1   7
TORSDOF 7
ENDMDL
MODEL 9
REMARK VINA RESULT:    -3.791      1.296      2.432
REMARK INTER + INTRA:          -5.985
REMARK INTER:                  -5.174
REMARK INTRA:                  -0.811
REMARK UNBOUND:                -0.643
REMARK SMILES CCCCCCCCC(=O)[O-]
REMARK SMILES IDX 6 1 7 2 8 3 9 4 10 5 11 6 5 7 4 8 3 9 2 10 1 11
REMARK H PARENT
REMARK Flexibility Score: inf
ROOT
ATOM      1  C   UNL     1     -38.798  18.065 -30.058  1.00  0.00     0.000 C 
ENDROOT
BRANCH   1   2
ATOM      2  C   UNL     1     -37.620  17.228 -29.540  1.00  0.00     0.006 C 
BRANCH   2   3
ATOM      3  C   UNL     1     -36.265  17.782 -29.998  1.00  0.00     0.053 C 
BRANCH   3   4
ATOM      4  C   UNL     1     -35.437  18.251 -28.840  1.00  0.00     0.041 C 
ATOM      5  O   UNL     1     -35.992  18.638 -27.778  1.00  0.00    -0.550 OA
ATOM      6  O   UNL     1     -34.052  18.290 -28.947  1.00  0.00    -0.550 OA
ENDBRANCH   3   4
ENDBRANCH   2   3
ENDBRANCH   1   2
BRANCH   1   7
ATOM      7  C   UNL     1     -39.320  19.013 -28.968  1.00  0.00     0.000 C 
BRANCH   7   8
ATOM      8  C   UNL     1     -39.490  20.460 -29.462  1.00  0.00    -0.000 C 
BRANCH   8   9
ATOM      9  C   UNL     1     -38.471  21.469 -28.893  1.00  0.00    -0.000 C 
BRANCH   9  10
ATOM     10  C   UNL     1     -37.094  21.459 -29.580  1.00  0.00    -0.003 C 
ATOM     11  C   UNL     1     -37.182  21.199 -31.084  1.00  0.00     0.004 C 
ENDBRANCH   9  10
ENDBRANCH   8   9
ENDBRANCH   7   8
ENDBRANCH   1   7
TORSDOF 7
ENDMDL
