MODEL 1
REMARK VINA RESULT:    -5.686      0.000      0.000
REMARK INTER + INTRA:          -6.522
REMARK INTER:                  -6.351
REMARK INTRA:                  -0.171
REMARK UNBOUND:                -0.171
REMARK SMILES O=C([O-])c1ccccc1C(=O)[O-]
REMARK SMILES IDX 4 1 9 2 5 3 8 4 6 5 7 6 2 7 1 8 3 9 10 10 11 11 12 12
REMARK H PARENT
REMARK Flexibility Score: inf
ROOT
ATOM      1  C   UNL     1      36.655  42.660  48.369  1.00  0.00     0.006 A 
ATOM      2  C   UNL     1      36.229  43.081  49.661  1.00  0.00     0.006 A 
ATOM      3  C   UNL     1      37.861  41.948  48.246  1.00  0.00     0.010 A 
ATOM      4  C   UNL     1      36.991  42.717  50.785  1.00  0.00     0.010 A 
ATOM      5  C   UNL     1      38.614  41.616  49.374  1.00  0.00     0.001 A 
ATOM      6  C   UNL     1      38.174  41.990  50.642  1.00  0.00     0.001 A 
ENDROOT
BRANCH   1   7
ATOM      7  C   UNL     1      35.852  42.877  47.143  1.00  0.00     0.072 C 
ATOM      8  O   UNL     1      36.249  43.663  46.243  1.00  0.00    -0.545 OA
ATOM      9  O   UNL     1      34.612  42.263  47.005  1.00  0.00    -0.545 OA
ENDBRANCH   1   7
BRANCH   2  10
ATOM     10  C   UNL     1      35.048  43.950  49.878  1.00  0.00     0.072 C 
ATOM     11  O   UNL     1      33.930  43.454  50.179  1.00  0.00    -0.545 OA
ATOM     12  O   UNL     1      35.148  45.323  49.683  1.00  0.00    -0.545 OA
ENDBRANCH   2  10
TORSDOF 2
ENDMDL
MODEL 2
REMARK VINA RESULT:    -5.667      0.100      3.131
REMARK INTER + INTRA:          -6.501
REMARK INTER:                  -6.325
REMARK INTRA:                  -0.176
REMARK UNBOUND:                -0.171
REMARK SMILES O=C([O-])c1ccccc1C(=O)[O-]
REMARK SMILES IDX 4 1 9 2 5 3 8 4 6 5 7 6 2 7 1 8 3 9 10 10 11 11 12 12
REMARK H PARENT
REMARK Flexibility Score: inf
ROOT
ATOM      1  C   UNL     1      36.201  43.106  49.678  1.00  0.00     0.006 A 
ATOM      2  C   UNL     1      36.599  42.721  48.366  1.00  0.00     0.006 A 
ATOM      3  C   UNL     1      36.996  42.721  50.773  1.00  0.00     0.010 A 
ATOM      4  C   UNL     1      37.808  42.023  48.195  1.00  0.00     0.010 A 
ATOM      5  C   UNL     1      38.181  42.009  50.581  1.00  0.00     0.001 A 
ATOM      6  C   UNL     1      38.592  41.671  49.294  1.00  0.00     0.001 A 
ENDROOT
BRANCH   1   7
ATOM      7  C   UNL     1      35.019  43.957  49.947  1.00  0.00     0.072 C 
ATOM      8  O   UNL     1      33.917  43.445  50.277  1.00  0.00    -0.545 OA
ATOM      9  O   UNL     1      35.098  45.334  49.770  1.00  0.00    -0.545 OA
ENDBRANCH   1   7
BRANCH   2  10
ATOM     10  C   UNL     1      35.762  42.961  47.167  1.00  0.00     0.072 C 
ATOM     11  O   UNL     1      36.122  43.784  46.284  1.00  0.00    -0.545 OA
ATOM     12  O   UNL     1      34.532  42.326  47.037  1.00  0.00    -0.545 OA
ENDBRANCH   2  10
TORSDOF 2
ENDMDL
MODEL 3
REMARK VINA RESULT:    -5.605      3.204      5.346
REMARK INTER + INTRA:          -6.431
REMARK INTER:                  -6.219
REMARK INTRA:                  -0.212
REMARK UNBOUND:                -0.171
REMARK SMILES O=C([O-])c1ccccc1C(=O)[O-]
REMARK SMILES IDX 4 1 9 2 5 3 8 4 6 5 7 6 2 7 1 8 3 9 10 10 11 11 12 12
REMARK H PARENT
REMARK Flexibility Score: inf
ROOT
ATOM      1  C   UNL     1      34.301  44.194  45.912  1.00  0.00     0.006 A 
ATOM      2  C   UNL     1      32.955  43.738  46.008  1.00  0.00     0.006 A 
ATOM      3  C   UNL     1      34.725  44.827  44.729  1.00  0.00     0.010 A 
ATOM      4  C   UNL     1      32.069  43.992  44.946  1.00  0.00     0.010 A 
ATOM      5  C   UNL     1      33.833  45.048  43.678  1.00  0.00     0.001 A 
ATOM      6  C   UNL     1      32.506  44.642  43.791  1.00  0.00     0.001 A 
ENDROOT
BRANCH   1   7
ATOM      7  C   UNL     1      35.269  44.095  47.028  1.00  0.00     0.072 C 
ATOM      8  O   UNL     1      36.191  43.237  47.009  1.00  0.00    -0.545 OA
ATOM      9  O   UNL     1      35.128  44.909  48.147  1.00  0.00    -0.545 OA
ENDBRANCH   1   7
BRANCH   2  10
ATOM     10  C   UNL     1      32.453  42.943  47.154  1.00  0.00     0.072 C 
ATOM     11  O   UNL     1      31.829  43.496  48.098  1.00  0.00    -0.545 OA
ATOM     12  O   UNL     1      32.727  41.582  47.230  1.00  0.00    -0.545 OA
ENDBRANCH   2  10
TORSDOF 2
ENDMDL
MODEL 4
REMARK VINA RESULT:    -5.579      3.289      5.480
REMARK INTER + INTRA:          -6.403
REMARK INTER:                  -6.183
REMARK INTRA:                  -0.220
REMARK UNBOUND:                -0.171
REMARK SMILES O=C([O-])c1ccccc1C(=O)[O-]
REMARK SMILES IDX 4 1 9 2 5 3 8 4 6 5 7 6 2 7 1 8 3 9 10 10 11 11 12 12
REMARK H PARENT
REMARK Flexibility Score: inf
ROOT
ATOM      1  C   UNL     1      32.856  43.736  45.918  1.00  0.00     0.006 A 
ATOM      2  C   UNL     1      34.210  44.175  45.937  1.00  0.00     0.006 A 
ATOM      3  C   UNL     1      32.055  44.037  44.802  1.00  0.00     0.010 A 
ATOM      4  C   UNL     1      34.729  44.840  44.811  1.00  0.00     0.010 A 
ATOM      5  C   UNL     1      32.585  44.719  43.705  1.00  0.00     0.001 A 
ATOM      6  C   UNL     1      33.922  45.109  43.705  1.00  0.00     0.001 A 
ENDROOT
BRANCH   1   7
ATOM      7  C   UNL     1      32.259  42.912  46.995  1.00  0.00     0.072 C 
ATOM      8  O   UNL     1      31.651  43.450  47.957  1.00  0.00    -0.545 OA
ATOM      9  O   UNL     1      32.426  41.531  46.988  1.00  0.00    -0.545 OA
ENDBRANCH   1   7
BRANCH   2  10
ATOM     10  C   UNL     1      35.092  44.025  47.119  1.00  0.00     0.072 C 
ATOM     11  O   UNL     1      35.069  44.872  48.050  1.00  0.00    -0.545 OA
ATOM     12  O   UNL     1      36.006  42.979  47.177  1.00  0.00    -0.545 OA
ENDBRANCH   2  10
TORSDOF 2
ENDMDL
MODEL 5
REMARK VINA RESULT:    -5.436      2.330      4.076
REMARK INTER + INTRA:          -6.243
REMARK INTER:                  -6.067
REMARK INTRA:                  -0.176
REMARK UNBOUND:                -0.171
REMARK SMILES O=C([O-])c1ccccc1C(=O)[O-]
REMARK SMILES IDX 4 1 9 2 5 3 8 4 6 5 7 6 2 7 1 8 3 9 10 10 11 11 12 12
REMARK H PARENT
REMARK Flexibility Score: inf
ROOT
ATOM      1  C   UNL     1      35.939  43.126  49.677  1.00  0.00     0.006 A 
ATOM      2  C   UNL     1      37.218  42.552  49.428  1.00  0.00     0.006 A 
ATOM      3  C   UNL     1      35.087  43.396  48.590  1.00  0.00     0.010 A 
ATOM      4  C   UNL     1      37.569  42.210  48.109  1.00  0.00     0.010 A 
ATOM      5  C   UNL     1      35.466  43.068  47.287  1.00  0.00     0.001 A 
ATOM      6  C   UNL     1      36.699  42.466  47.049  1.00  0.00     0.001 A 
ENDROOT
BRANCH   1   7
ATOM      7  C   UNL     1      35.426  43.394  51.041  1.00  0.00     0.072 C 
ATOM      8  O   UNL     1      34.552  42.650  51.559  1.00  0.00    -0.545 OA
ATOM      9  O   UNL     1      35.858  44.516  51.739  1.00  0.00    -0.545 OA
ENDBRANCH   1   7
BRANCH   2  10
ATOM     10  C   UNL     1      38.235  42.356  50.487  1.00  0.00     0.072 C 
ATOM     11  O   UNL     1      38.920  43.325  50.910  1.00  0.00    -0.545 OA
ATOM     12  O   UNL     1      38.493  41.081  50.978  1.00  0.00    -0.545 OA
ENDBRANCH   2  10
TORSDOF 2
ENDMDL
MODEL 6
REMARK VINA RESULT:    -5.341      3.517      5.506
REMARK INTER + INTRA:          -6.137
REMARK INTER:                  -5.931
REMARK INTRA:                  -0.206
REMARK UNBOUND:                -0.171
REMARK SMILES O=C([O-])c1ccccc1C(=O)[O-]
REMARK SMILES IDX 4 1 9 2 5 3 8 4 6 5 7 6 2 7 1 8 3 9 10 10 11 11 12 12
REMARK H PARENT
REMARK Flexibility Score: inf
ROOT
ATOM      1  C   UNL     1      33.751  44.090  46.379  1.00  0.00     0.006 A 
ATOM      2  C   UNL     1      32.403  43.964  45.937  1.00  0.00     0.006 A 
ATOM      3  C   UNL     1      34.735  44.503  45.462  1.00  0.00     0.010 A 
ATOM      4  C   UNL     1      32.081  44.318  44.615  1.00  0.00     0.010 A 
ATOM      5  C   UNL     1      34.395  44.828  44.147  1.00  0.00     0.001 A 
ATOM      6  C   UNL     1      33.070  44.747  43.728  1.00  0.00     0.001 A 
ENDROOT
BRANCH   1   7
ATOM      7  C   UNL     1      34.164  43.872  47.785  1.00  0.00     0.072 C 
ATOM      8  O   UNL     1      34.423  42.715  48.209  1.00  0.00    -0.545 OA
ATOM      9  O   UNL     1      34.203  44.942  48.673  1.00  0.00    -0.545 OA
ENDBRANCH   1   7
BRANCH   2  10
ATOM     10  C   UNL     1      31.324  43.409  46.787  1.00  0.00     0.072 C 
ATOM     11  O   UNL     1      31.009  42.192  46.717  1.00  0.00    -0.545 OA
ATOM     12  O   UNL     1      30.597  44.248  47.625  1.00  0.00    -0.545 OA
ENDBRANCH   2  10
TORSDOF 2
ENDMDL
MODEL 7
REMARK VINA RESULT:    -5.330      1.111      1.548
REMARK INTER + INTRA:          -6.125
REMARK INTER:                  -5.904
REMARK INTRA:                  -0.221
REMARK UNBOUND:                -0.171
REMARK SMILES O=C([O-])c1ccccc1C(=O)[O-]
REMARK SMILES IDX 4 1 9 2 5 3 8 4 6 5 7 6 2 7 1 8 3 9 10 10 11 11 12 12
REMARK H PARENT
REMARK Flexibility Score: inf
ROOT
ATOM      1  C   UNL     1      35.722  42.923  48.345  1.00  0.00     0.006 A 
ATOM      2  C   UNL     1      35.789  43.017  49.764  1.00  0.00     0.006 A 
ATOM      3  C   UNL     1      36.863  42.512  47.632  1.00  0.00     0.010 A 
ATOM      4  C   UNL     1      36.973  42.634  50.419  1.00  0.00     0.010 A 
ATOM      5  C   UNL     1      38.036  42.158  48.303  1.00  0.00     0.001 A 
ATOM      6  C   UNL     1      38.087  42.209  49.694  1.00  0.00     0.001 A 
ENDROOT
BRANCH   1   7
ATOM      7  C   UNL     1      34.480  43.172  47.577  1.00  0.00     0.072 C 
ATOM      8  O   UNL     1      34.262  44.295  47.051  1.00  0.00    -0.545 OA
ATOM      9  O   UNL     1      33.507  42.183  47.486  1.00  0.00    -0.545 OA
ENDBRANCH   1   7
BRANCH   2  10
ATOM     10  C   UNL     1      34.688  43.567  50.589  1.00  0.00     0.072 C 
ATOM     11  O   UNL     1      34.565  44.810  50.753  1.00  0.00    -0.545 OA
ATOM     12  O   UNL     1      33.818  42.708  51.251  1.00  0.00    -0.545 OA
ENDBRANCH   2  10
TORSDOF 2
ENDMDL
MODEL 8
REMARK VINA RESULT:    -5.309      4.221      5.465
REMARK INTER + INTRA:          -6.101
REMARK INTER:                  -5.956
REMARK INTRA:                  -0.145
REMARK UNBOUND:                -0.171
REMARK SMILES O=C([O-])c1ccccc1C(=O)[O-]
REMARK SMILES IDX 4 1 9 2 5 3 8 4 6 5 7 6 2 7 1 8 3 9 10 10 11 11 12 12
REMARK H PARENT
REMARK Flexibility Score: inf
ROOT
ATOM      1  C   UNL     1      33.308  44.516  44.628  1.00  0.00     0.006 A 
ATOM      2  C   UNL     1      32.859  44.086  45.909  1.00  0.00     0.006 A 
ATOM      3  C   UNL     1      34.678  44.775  44.436  1.00  0.00     0.010 A 
ATOM      4  C   UNL     1      33.803  43.870  46.928  1.00  0.00     0.010 A 
ATOM      5  C   UNL     1      35.595  44.575  45.470  1.00  0.00     0.001 A 
ATOM      6  C   UNL     1      35.160  44.112  46.709  1.00  0.00     0.001 A 
ENDROOT
BRANCH   1   7
ATOM      7  C   UNL     1      32.410  44.640  43.457  1.00  0.00     0.072 C 
ATOM      8  O   UNL     1      32.100  43.630  42.772  1.00  0.00    -0.545 OA
ATOM      9  O   UNL     1      31.953  45.892  43.060  1.00  0.00    -0.545 OA
ENDBRANCH   1   7
BRANCH   2  10
ATOM     10  C   UNL     1      31.426  43.919  46.247  1.00  0.00     0.072 C 
ATOM     11  O   UNL     1      30.859  44.699  47.056  1.00  0.00    -0.545 OA
ATOM     12  O   UNL     1      30.707  42.849  45.723  1.00  0.00    -0.545 OA
ENDBRANCH   2  10
TORSDOF 2
ENDMDL
MODEL 9
REMARK VINA RESULT:    -5.049      3.274      4.755
REMARK INTER + INTRA:          -5.810
REMARK INTER:                  -5.650
REMARK INTRA:                  -0.161
REMARK UNBOUND:                -0.171
REMARK SMILES O=C([O-])c1ccccc1C(=O)[O-]
REMARK SMILES IDX 4 1 9 2 5 3 8 4 6 5 7 6 2 7 1 8 3 9 10 10 11 11 12 12
REMARK H PARENT
REMARK Flexibility Score: inf
ROOT
ATOM      1  C   UNL     1      32.828  44.026  46.117  1.00  0.00     0.006 A 
ATOM      2  C   UNL     1      33.914  43.820  47.015  1.00  0.00     0.006 A 
ATOM      3  C   UNL     1      33.095  44.504  44.821  1.00  0.00     0.010 A 
ATOM      4  C   UNL     1      35.228  44.037  46.561  1.00  0.00     0.010 A 
ATOM      5  C   UNL     1      34.406  44.734  44.399  1.00  0.00     0.001 A 
ATOM      6  C   UNL     1      35.470  44.490  45.263  1.00  0.00     0.001 A 
ENDROOT
BRANCH   1   7
ATOM      7  C   UNL     1      31.425  43.696  46.457  1.00  0.00     0.072 C 
ATOM      8  O   UNL     1      30.751  44.445  47.212  1.00  0.00    -0.545 OA
ATOM      9  O   UNL     1      30.857  42.512  45.999  1.00  0.00    -0.545 OA
ENDBRANCH   1   7
BRANCH   2  10
ATOM     10  C   UNL     1      33.726  43.450  48.437  1.00  0.00     0.072 C 
ATOM     11  O   UNL     1      33.596  42.245  48.778  1.00  0.00    -0.545 OA
ATOM     12  O   UNL     1      33.622  44.441  49.406  1.00  0.00    -0.545 OA
ENDBRANCH   2  10
TORSDOF 2
ENDMDL
