MODEL 1
REMARK VINA RESULT:    -4.214      0.000      0.000
REMARK INTER + INTRA:          -4.907
REMARK INTER:                  -4.830
REMARK INTRA:                  -0.076
REMARK UNBOUND:                -0.076
REMARK SMILES COc1cc(C(=O)[O-])ccc1O
REMARK SMILES IDX 5 1 9 2 4 3 10 4 3 5 11 6 6 7 7 8 8 9 2 10 1 11 12 12
REMARK H PARENT 12 13
REMARK Flexibility Score: inf
ROOT
ATOM      1  C   UNL     1     -35.252 147.919   0.057  1.00  0.00     0.001 A 
ATOM      2  C   UNL     1     -36.262 146.947   0.141  1.00  0.00     0.014 A 
ATOM      3  C   UNL     1     -35.269 148.831  -1.015  1.00  0.00     0.060 A 
ATOM      4  C   UNL     1     -37.268 146.885  -0.824  1.00  0.00     0.051 A 
ATOM      5  C   UNL     1     -36.282 148.772  -1.992  1.00  0.00     0.161 A 
ATOM      6  C   UNL     1     -37.281 147.794  -1.890  1.00  0.00     0.157 A 
ENDROOT
BRANCH   1   7
ATOM      7  C   UNL     1     -34.188 147.980   1.084  1.00  0.00     0.072 C 
ATOM      8  O   UNL     1     -33.254 147.137   1.091  1.00  0.00    -0.545 OA
ATOM      9  O   UNL     1     -34.206 148.974   2.057  1.00  0.00    -0.545 OA
ENDBRANCH   1   7
BRANCH   5  10
ATOM     10  O   UNL     1     -36.331 149.664  -3.075  1.00  0.00    -0.493 OA
ATOM     11  C   UNL     1     -35.720 150.950  -3.089  1.00  0.00     0.278 C 
ENDBRANCH   5  10
BRANCH   6  12
ATOM     12  O   UNL     1     -38.286 147.731  -2.854  1.00  0.00    -0.504 OA
ATOM     13  H   UNL     1     -39.262 147.867  -2.613  1.00  0.00     0.293 HD
ENDBRANCH   6  12
TORSDOF 3
ENDMDL
MODEL 2
REMARK VINA RESULT:    -4.141      6.310      7.077
REMARK INTER + INTRA:          -4.823
REMARK INTER:                  -4.739
REMARK INTRA:                  -0.084
REMARK UNBOUND:                -0.076
REMARK SMILES COc1cc(C(=O)[O-])ccc1O
REMARK SMILES IDX 5 1 9 2 4 3 10 4 3 5 11 6 6 7 7 8 8 9 2 10 1 11 12 12
REMARK H PARENT 12 13
REMARK Flexibility Score: inf
ROOT
ATOM      1  C   UNL     1     -38.940 149.508   5.683  1.00  0.00     0.001 A 
ATOM      2  C   UNL     1     -38.517 150.832   5.883  1.00  0.00     0.014 A 
ATOM      3  C   UNL     1     -39.410 149.125   4.413  1.00  0.00     0.060 A 
ATOM      4  C   UNL     1     -38.564 151.755   4.837  1.00  0.00     0.051 A 
ATOM      5  C   UNL     1     -39.459 150.054   3.354  1.00  0.00     0.161 A 
ATOM      6  C   UNL     1     -39.033 151.371   3.575  1.00  0.00     0.157 A 
ENDROOT
BRANCH   1   7
ATOM      7  C   UNL     1     -38.888 148.533   6.795  1.00  0.00     0.072 C 
ATOM      8  O   UNL     1     -39.896 147.836   7.085  1.00  0.00    -0.545 OA
ATOM      9  O   UNL     1     -37.723 148.371   7.536  1.00  0.00    -0.545 OA
ENDBRANCH   1   7
BRANCH   5  10
ATOM     10  O   UNL     1     -39.922 149.708   2.075  1.00  0.00    -0.493 OA
ATOM     11  C   UNL     1     -39.629 148.480   1.416  1.00  0.00     0.278 C 
ENDBRANCH   5  10
BRANCH   6  12
ATOM     12  O   UNL     1     -39.078 152.294   2.531  1.00  0.00    -0.504 OA
ATOM     13  H   UNL     1     -39.726 152.189   1.758  1.00  0.00     0.293 HD
ENDBRANCH   6  12
TORSDOF 3
ENDMDL
MODEL 3
REMARK VINA RESULT:    -4.088      1.562      4.646
REMARK INTER + INTRA:          -4.762
REMARK INTER:                  -4.681
REMARK INTRA:                  -0.080
REMARK UNBOUND:                -0.076
REMARK SMILES COc1cc(C(=O)[O-])ccc1O
REMARK SMILES IDX 5 1 9 2 4 3 10 4 3 5 11 6 6 7 7 8 8 9 2 10 1 11 12 12
REMARK H PARENT 12 13
REMARK Flexibility Score: inf
ROOT
ATOM      1  C   UNL     1     -35.839 148.305  -1.079  1.00  0.00     0.001 A 
ATOM      2  C   UNL     1     -34.641 147.572  -1.104  1.00  0.00     0.014 A 
ATOM      3  C   UNL     1     -36.387 148.676   0.163  1.00  0.00     0.060 A 
ATOM      4  C   UNL     1     -34.003 147.217   0.085  1.00  0.00     0.051 A 
ATOM      5  C   UNL     1     -35.746 148.320   1.367  1.00  0.00     0.161 A 
ATOM      6  C   UNL     1     -34.551 147.588   1.319  1.00  0.00     0.157 A 
ENDROOT
BRANCH   1   7
ATOM      7  C   UNL     1     -36.511 148.679  -2.343  1.00  0.00     0.072 C 
ATOM      8  O   UNL     1     -37.504 148.027  -2.759  1.00  0.00    -0.545 OA
ATOM      9  O   UNL     1     -36.054 149.760  -3.090  1.00  0.00    -0.545 OA
ENDBRANCH   1   7
BRANCH   5  10
ATOM     10  O   UNL     1     -36.262 148.672   2.623  1.00  0.00    -0.493 OA
ATOM     11  C   UNL     1     -37.647 148.672   2.955  1.00  0.00     0.278 C 
ENDBRANCH   5  10
BRANCH   6  12
ATOM     12  O   UNL     1     -33.913 147.233   2.506  1.00  0.00    -0.504 OA
ATOM     13  H   UNL     1     -33.914 146.277   2.844  1.00  0.00     0.293 HD
ENDBRANCH   6  12
TORSDOF 3
ENDMDL
MODEL 4
REMARK VINA RESULT:    -4.081      1.476      2.517
REMARK INTER + INTRA:          -4.754
REMARK INTER:                  -4.676
REMARK INTRA:                  -0.078
REMARK UNBOUND:                -0.076
REMARK SMILES COc1cc(C(=O)[O-])ccc1O
REMARK SMILES IDX 5 1 9 2 4 3 10 4 3 5 11 6 6 7 7 8 8 9 2 10 1 11 12 12
REMARK H PARENT 12 13
REMARK Flexibility Score: inf
ROOT
ATOM      1  C   UNL     1     -35.105 147.738  -0.040  1.00  0.00     0.001 A 
ATOM      2  C   UNL     1     -34.848 147.597  -1.414  1.00  0.00     0.014 A 
ATOM      3  C   UNL     1     -36.438 147.838   0.399  1.00  0.00     0.060 A 
ATOM      4  C   UNL     1     -35.900 147.556  -2.330  1.00  0.00     0.051 A 
ATOM      5  C   UNL     1     -37.503 147.797  -0.522  1.00  0.00     0.161 A 
ATOM      6  C   UNL     1     -37.225 147.655  -1.889  1.00  0.00     0.157 A 
ENDROOT
BRANCH   1   7
ATOM      7  C   UNL     1     -33.986 147.781   0.927  1.00  0.00     0.072 C 
ATOM      8  O   UNL     1     -33.035 146.959   0.846  1.00  0.00    -0.545 OA
ATOM      9  O   UNL     1     -33.968 148.732   1.941  1.00  0.00    -0.545 OA
ENDBRANCH   1   7
BRANCH   5  10
ATOM     10  O   UNL     1     -38.845 147.893  -0.122  1.00  0.00    -0.493 OA
ATOM     11  C   UNL     1     -39.272 148.144   1.214  1.00  0.00     0.278 C 
ENDBRANCH   5  10
BRANCH   6  12
ATOM     12  O   UNL     1     -38.275 147.614  -2.805  1.00  0.00    -0.504 OA
ATOM     13  H   UNL     1     -38.243 147.015  -3.623  1.00  0.00     0.293 HD
ENDBRANCH   6  12
TORSDOF 3
ENDMDL
MODEL 5
REMARK VINA RESULT:    -4.059      2.090      4.257
REMARK INTER + INTRA:          -4.729
REMARK INTER:                  -4.644
REMARK INTRA:                  -0.085
REMARK UNBOUND:                -0.076
REMARK SMILES COc1cc(C(=O)[O-])ccc1O
REMARK SMILES IDX 5 1 9 2 4 3 10 4 3 5 11 6 6 7 7 8 8 9 2 10 1 11 12 12
REMARK H PARENT 12 13
REMARK Flexibility Score: inf
ROOT
ATOM      1  C   UNL     1     -37.287 147.403  -0.978  1.00  0.00     0.001 A 
ATOM      2  C   UNL     1     -36.849 147.008  -2.253  1.00  0.00     0.014 A 
ATOM      3  C   UNL     1     -36.332 147.668   0.021  1.00  0.00     0.060 A 
ATOM      4  C   UNL     1     -35.487 146.879  -2.525  1.00  0.00     0.051 A 
ATOM      5  C   UNL     1     -34.955 147.539  -0.249  1.00  0.00     0.161 A 
ATOM      6  C   UNL     1     -34.539 147.143  -1.528  1.00  0.00     0.157 A 
ENDROOT
BRANCH   1   7
ATOM      7  C   UNL     1     -38.734 147.538  -0.695  1.00  0.00     0.072 C 
ATOM      8  O   UNL     1     -39.589 147.237  -1.568  1.00  0.00    -0.545 OA
ATOM      9  O   UNL     1     -39.168 147.999   0.543  1.00  0.00    -0.545 OA
ENDBRANCH   1   7
BRANCH   5  10
ATOM     10  O   UNL     1     -33.974 147.794   0.722  1.00  0.00    -0.493 OA
ATOM     11  C   UNL     1     -34.133 148.699   1.810  1.00  0.00     0.278 C 
ENDBRANCH   5  10
BRANCH   6  12
ATOM     12  O   UNL     1     -33.178 147.015  -1.801  1.00  0.00    -0.504 OA
ATOM     13  H   UNL     1     -32.682 146.147  -1.628  1.00  0.00     0.293 HD
ENDBRANCH   6  12
TORSDOF 3
ENDMDL
MODEL 6
REMARK VINA RESULT:    -4.016      2.236      3.104
REMARK INTER + INTRA:          -4.679
REMARK INTER:                  -4.577
REMARK INTRA:                  -0.102
REMARK UNBOUND:                -0.076
REMARK SMILES COc1cc(C(=O)[O-])ccc1O
REMARK SMILES IDX 5 1 9 2 4 3 10 4 3 5 11 6 6 7 7 8 8 9 2 10 1 11 12 12
REMARK H PARENT 12 13
REMARK Flexibility Score: inf
ROOT
ATOM      1  C   UNL     1     -36.366 148.308   1.367  1.00  0.00     0.001 A 
ATOM      2  C   UNL     1     -35.103 147.798   1.709  1.00  0.00     0.014 A 
ATOM      3  C   UNL     1     -36.698 148.457   0.007  1.00  0.00     0.060 A 
ATOM      4  C   UNL     1     -34.189 147.445   0.714  1.00  0.00     0.051 A 
ATOM      5  C   UNL     1     -35.779 148.102  -1.000  1.00  0.00     0.161 A 
ATOM      6  C   UNL     1     -34.523 147.595  -0.637  1.00  0.00     0.157 A 
ENDROOT
BRANCH   1   7
ATOM      7  C   UNL     1     -37.331 148.680   2.425  1.00  0.00     0.072 C 
ATOM      8  O   UNL     1     -37.204 148.235   3.596  1.00  0.00    -0.545 OA
ATOM      9  O   UNL     1     -38.395 149.530   2.140  1.00  0.00    -0.545 OA
ENDBRANCH   1   7
BRANCH   5  10
ATOM     10  O   UNL     1     -36.074 148.237  -2.366  1.00  0.00    -0.493 OA
ATOM     11  C   UNL     1     -36.192 149.483  -3.046  1.00  0.00     0.278 C 
ENDBRANCH   5  10
BRANCH   6  12
ATOM     12  O   UNL     1     -33.609 147.243  -1.630  1.00  0.00    -0.504 OA
ATOM     13  H   UNL     1     -32.945 146.488  -1.495  1.00  0.00     0.293 HD
ENDBRANCH   6  12
TORSDOF 3
ENDMDL
MODEL 7
REMARK VINA RESULT:    -3.707      5.246      6.128
REMARK INTER + INTRA:          -4.325
REMARK INTER:                  -4.257
REMARK INTRA:                  -0.068
REMARK UNBOUND:                -0.076
REMARK SMILES COc1cc(C(=O)[O-])ccc1O
REMARK SMILES IDX 5 1 9 2 4 3 10 4 3 5 11 6 6 7 7 8 8 9 2 10 1 11 12 12
REMARK H PARENT 12 13
REMARK Flexibility Score: inf
ROOT
ATOM      1  C   UNL     1     -39.124 149.975   4.516  1.00  0.00     0.001 A 
ATOM      2  C   UNL     1     -40.121 150.179   3.549  1.00  0.00     0.014 A 
ATOM      3  C   UNL     1     -38.021 149.161   4.200  1.00  0.00     0.060 A 
ATOM      4  C   UNL     1     -40.020 149.583   2.291  1.00  0.00     0.051 A 
ATOM      5  C   UNL     1     -37.915 148.557   2.931  1.00  0.00     0.161 A 
ATOM      6  C   UNL     1     -38.921 148.773   1.980  1.00  0.00     0.157 A 
ENDROOT
BRANCH   1   7
ATOM      7  C   UNL     1     -39.236 150.610   5.848  1.00  0.00     0.072 C 
ATOM      8  O   UNL     1     -38.531 151.610   6.144  1.00  0.00    -0.545 OA
ATOM      9  O   UNL     1     -40.125 150.110   6.794  1.00  0.00    -0.545 OA
ENDBRANCH   1   7
BRANCH   5  10
ATOM     10  O   UNL     1     -36.830 147.738   2.579  1.00  0.00    -0.493 OA
ATOM     11  C   UNL     1     -35.628 148.208   1.975  1.00  0.00     0.278 C 
ENDBRANCH   5  10
BRANCH   6  12
ATOM     12  O   UNL     1     -38.821 148.178   0.723  1.00  0.00    -0.504 OA
ATOM     13  H   UNL     1     -38.251 148.582  -0.012  1.00  0.00     0.293 HD
ENDBRANCH   6  12
TORSDOF 3
ENDMDL
MODEL 8
REMARK VINA RESULT:    -3.605      2.400      4.370
REMARK INTER + INTRA:          -4.208
REMARK INTER:                  -4.146
REMARK INTRA:                  -0.062
REMARK UNBOUND:                -0.076
REMARK SMILES COc1cc(C(=O)[O-])ccc1O
REMARK SMILES IDX 5 1 9 2 4 3 10 4 3 5 11 6 6 7 7 8 8 9 2 10 1 11 12 12
REMARK H PARENT 12 13
REMARK Flexibility Score: inf
ROOT
ATOM      1  C   UNL     1     -36.042 148.179  -0.839  1.00  0.00     0.001 A 
ATOM      2  C   UNL     1     -35.015 148.489   0.068  1.00  0.00     0.014 A 
ATOM      3  C   UNL     1     -37.345 147.968  -0.350  1.00  0.00     0.060 A 
ATOM      4  C   UNL     1     -35.282 148.586   1.434  1.00  0.00     0.051 A 
ATOM      5  C   UNL     1     -37.619 148.066   1.029  1.00  0.00     0.161 A 
ATOM      6  C   UNL     1     -36.579 148.376   1.917  1.00  0.00     0.157 A 
ENDROOT
BRANCH   1   7
ATOM      7  C   UNL     1     -35.753 148.076  -2.287  1.00  0.00     0.072 C 
ATOM      8  O   UNL     1     -35.184 147.057  -2.757  1.00  0.00    -0.545 OA
ATOM      9  O   UNL     1     -36.108 149.108  -3.149  1.00  0.00    -0.545 OA
ENDBRANCH   1   7
BRANCH   5  10
ATOM     10  O   UNL     1     -38.905 147.863   1.553  1.00  0.00    -0.493 OA
ATOM     11  C   UNL     1     -39.867 148.894   1.752  1.00  0.00     0.278 C 
ENDBRANCH   5  10
BRANCH   6  12
ATOM     12  O   UNL     1     -36.845 148.474   3.282  1.00  0.00    -0.504 OA
ATOM     13  H   UNL     1     -36.209 148.094   3.975  1.00  0.00     0.293 HD
ENDBRANCH   6  12
TORSDOF 3
ENDMDL
MODEL 9
REMARK VINA RESULT:    -3.594      2.428      4.140
REMARK INTER + INTRA:          -4.195
REMARK INTER:                  -4.101
REMARK INTRA:                  -0.094
REMARK UNBOUND:                -0.076
REMARK SMILES COc1cc(C(=O)[O-])ccc1O
REMARK SMILES IDX 5 1 9 2 4 3 10 4 3 5 11 6 6 7 7 8 8 9 2 10 1 11 12 12
REMARK H PARENT 12 13
REMARK Flexibility Score: inf
ROOT
ATOM      1  C   UNL     1     -37.049 148.010  -1.524  1.00  0.00     0.001 A 
ATOM      2  C   UNL     1     -38.254 147.388  -1.889  1.00  0.00     0.014 A 
ATOM      3  C   UNL     1     -36.882 148.452  -0.198  1.00  0.00     0.060 A 
ATOM      4  C   UNL     1     -39.271 147.210  -0.950  1.00  0.00     0.051 A 
ATOM      5  C   UNL     1     -37.906 148.275   0.753  1.00  0.00     0.161 A 
ATOM      6  C   UNL     1     -39.101 147.651   0.368  1.00  0.00     0.157 A 
ENDROOT
BRANCH   1   7
ATOM      7  C   UNL     1     -35.973 148.196  -2.523  1.00  0.00     0.072 C 
ATOM      8  O   UNL     1     -35.062 147.337  -2.652  1.00  0.00    -0.545 OA
ATOM      9  O   UNL     1     -35.955 149.324  -3.336  1.00  0.00    -0.545 OA
ENDBRANCH   1   7
BRANCH   5  10
ATOM     10  O   UNL     1     -37.776 148.702   2.083  1.00  0.00    -0.493 OA
ATOM     11  C   UNL     1     -37.092 147.976   3.100  1.00  0.00     0.278 C 
ENDBRANCH   5  10
BRANCH   6  12
ATOM     12  O   UNL     1     -40.118 147.473   1.305  1.00  0.00    -0.504 OA
ATOM     13  H   UNL     1     -39.915 147.302   2.283  1.00  0.00     0.293 HD
ENDBRANCH   6  12
TORSDOF 3
ENDMDL
