MODEL 1
REMARK VINA RESULT:    -5.681      0.000      0.000
REMARK INTER + INTRA:          -6.293
REMARK INTER:                  -6.844
REMARK INTRA:                   0.550
REMARK UNBOUND:                 0.550
REMARK SMILES O=c1c(O)c(-c2ccc(O)c(O)c2)oc2cc(O)cc(O)c12
REMARK SMILES IDX 5 1 3 2 2 3 1 4 22 5 20 6 19 7 17 8 16 9 15 10 14 11 6 12
REMARK SMILES IDX 7 13 8 14 9 15 13 16 11 17 10 18 12 20 4 22 21 24 18 26
REMARK H PARENT 10 19 12 21 4 23 21 25 18 27
REMARK Flexibility Score: inf
ROOT
ATOM      1  C   UNL     1      -1.546 -51.323  97.235  1.00  0.00     0.180 A 
ATOM      2  C   UNL     1      -1.492 -51.855  95.935  1.00  0.00     0.208 A 
ATOM      3  C   UNL     1      -1.059 -51.035  94.881  1.00  0.00     0.238 A 
ATOM      4  O   UNL     1      -1.065 -51.502  93.712  1.00  0.00    -0.285 OA
ATOM      5  C   UNL     1      -0.671 -49.700  95.141  1.00  0.00     0.111 A 
ATOM      6  C   UNL     1      -0.179 -48.792  94.155  1.00  0.00     0.134 A 
ATOM      7  C   UNL     1       0.051 -47.455  94.501  1.00  0.00     0.093 A 
ATOM      8  C   UNL     1      -0.129 -47.008  95.809  1.00  0.00     0.123 A 
ATOM      9  C   UNL     1      -0.553 -47.900  96.794  1.00  0.00     0.094 A 
ATOM     10  C   UNL     1      -0.827 -49.233  96.472  1.00  0.00     0.146 A 
ATOM     11  O   UNL     1      -1.238 -50.047  97.436  1.00  0.00    -0.452 OA
ENDROOT
BRANCH   1  12
ATOM     12  C   UNL     1      -1.968 -52.133  98.401  1.00  0.00     0.025 A 
ATOM     13  C   UNL     1      -2.377 -53.460  98.206  1.00  0.00     0.016 A 
ATOM     14  C   UNL     1      -2.797 -54.234  99.289  1.00  0.00     0.051 A 
ATOM     15  C   UNL     1      -2.832 -53.699 100.580  1.00  0.00     0.157 A 
ATOM     16  C   UNL     1      -2.024 -51.584  99.693  1.00  0.00     0.062 A 
ATOM     17  C   UNL     1      -2.447 -52.352 100.785  1.00  0.00     0.158 A 
BRANCH  15  18
ATOM     18  O   UNL     1      -3.255 -54.528 101.620  1.00  0.00    -0.504 OA
ATOM     19  H   UNL     1      -4.005 -54.298 102.258  1.00  0.00     0.293 HD
ENDBRANCH  15  18
BRANCH  17  20
ATOM     20  O   UNL     1      -2.474 -51.742 102.040  1.00  0.00    -0.504 OA
ATOM     21  H   UNL     1      -3.224 -51.856 102.707  1.00  0.00     0.293 HD
ENDBRANCH  17  20
ENDBRANCH   1  12
BRANCH   2  22
ATOM     22  O   UNL     1      -1.900 -53.171  95.697  1.00  0.00    -0.502 OA
ATOM     23  H   UNL     1      -1.859 -53.595  94.778  1.00  0.00     0.293 HD
ENDBRANCH   2  22
BRANCH   6  24
ATOM     24  O   UNL     1       0.125 -49.157  92.840  1.00  0.00    -0.507 OA
ATOM     25  H   UNL     1       0.988 -48.935  92.367  1.00  0.00     0.293 HD
ENDBRANCH   6  24
BRANCH   8  26
ATOM     26  O   UNL     1       0.125 -45.674  96.121  1.00  0.00    -0.508 OA
ATOM     27  H   UNL     1       0.814 -45.415  96.817  1.00  0.00     0.293 HD
ENDBRANCH   8  26
TORSDOF 6
ENDMDL
MODEL 2
REMARK VINA RESULT:    -5.298     12.443     12.733
REMARK INTER + INTRA:          -5.832
REMARK INTER:                  -5.516
REMARK INTRA:                  -0.317
REMARK UNBOUND:                 0.550
REMARK SMILES O=c1c(O)c(-c2ccc(O)c(O)c2)oc2cc(O)cc(O)c12
REMARK SMILES IDX 5 1 3 2 2 3 1 4 22 5 20 6 19 7 17 8 16 9 15 10 14 11 6 12
REMARK SMILES IDX 7 13 8 14 9 15 13 16 11 17 10 18 12 20 4 22 21 24 18 26
REMARK H PARENT 10 19 12 21 4 23 21 25 18 27
REMARK Flexibility Score: inf
ROOT
ATOM      1  C   UNL     1     -12.306 -45.707  93.733  1.00  0.00     0.180 A 
ATOM      2  C   UNL     1     -11.783 -45.775  92.430  1.00  0.00     0.208 A 
ATOM      3  C   UNL     1     -11.407 -44.586  91.785  1.00  0.00     0.238 A 
ATOM      4  O   UNL     1     -10.991 -44.649  90.598  1.00  0.00    -0.285 OA
ATOM      5  C   UNL     1     -11.542 -43.347  92.455  1.00  0.00     0.111 A 
ATOM      6  C   UNL     1     -11.155 -42.085  91.912  1.00  0.00     0.134 A 
ATOM      7  C   UNL     1     -11.456 -40.910  92.612  1.00  0.00     0.093 A 
ATOM      8  C   UNL     1     -12.069 -40.954  93.863  1.00  0.00     0.123 A 
ATOM      9  C   UNL     1     -12.398 -42.186  94.431  1.00  0.00     0.094 A 
ATOM     10  C   UNL     1     -12.144 -43.374  93.740  1.00  0.00     0.146 A 
ATOM     11  O   UNL     1     -12.481 -44.524  94.311  1.00  0.00    -0.452 OA
ENDROOT
BRANCH   1  12
ATOM     12  C   UNL     1     -12.701 -46.919  94.487  1.00  0.00     0.025 A 
ATOM     13  C   UNL     1     -14.057 -47.261  94.580  1.00  0.00     0.016 A 
ATOM     14  C   UNL     1     -14.453 -48.388  95.302  1.00  0.00     0.051 A 
ATOM     15  C   UNL     1     -13.509 -49.184  95.958  1.00  0.00     0.157 A 
ATOM     16  C   UNL     1     -11.752 -47.703  95.164  1.00  0.00     0.062 A 
ATOM     17  C   UNL     1     -12.139 -48.833  95.894  1.00  0.00     0.158 A 
BRANCH  15  18
ATOM     18  O   UNL     1     -13.969 -50.301  96.658  1.00  0.00    -0.504 OA
ATOM     19  H   UNL     1     -14.905 -50.390  97.028  1.00  0.00     0.293 HD
ENDBRANCH  15  18
BRANCH  17  20
ATOM     20  O   UNL     1     -11.141 -49.567  96.539  1.00  0.00    -0.504 OA
ATOM     21  H   UNL     1     -10.169 -49.559  96.266  1.00  0.00     0.293 HD
ENDBRANCH  17  20
ENDBRANCH   1  12
BRANCH   2  22
ATOM     22  O   UNL     1     -11.678 -47.007  91.778  1.00  0.00    -0.502 OA
ATOM     23  H   UNL     1     -12.466 -47.448  91.319  1.00  0.00     0.293 HD
ENDBRANCH   2  22
BRANCH   6  24
ATOM     24  O   UNL     1     -10.454 -41.933  90.711  1.00  0.00    -0.507 OA
ATOM     25  H   UNL     1      -9.821 -42.618  90.325  1.00  0.00     0.293 HD
ENDBRANCH   6  24
BRANCH   8  26
ATOM     26  O   UNL     1     -12.339 -39.766  94.539  1.00  0.00    -0.508 OA
ATOM     27  H   UNL     1     -13.019 -39.726  95.289  1.00  0.00     0.293 HD
ENDBRANCH   8  26
TORSDOF 6
ENDMDL
MODEL 3
REMARK VINA RESULT:    -5.277     12.847     14.506
REMARK INTER + INTRA:          -5.806
REMARK INTER:                  -5.483
REMARK INTRA:                  -0.323
REMARK UNBOUND:                 0.550
REMARK SMILES O=c1c(O)c(-c2ccc(O)c(O)c2)oc2cc(O)cc(O)c12
REMARK SMILES IDX 5 1 3 2 2 3 1 4 22 5 20 6 19 7 17 8 16 9 15 10 14 11 6 12
REMARK SMILES IDX 7 13 8 14 9 15 13 16 11 17 10 18 12 20 4 22 21 24 18 26
REMARK H PARENT 10 19 12 21 4 23 21 25 18 27
REMARK Flexibility Score: inf
ROOT
ATOM      1  C   UNL     1     -12.670 -46.306  94.381  1.00  0.00     0.180 A 
ATOM      2  C   UNL     1     -11.918 -47.206  95.155  1.00  0.00     0.208 A 
ATOM      3  C   UNL     1     -12.558 -48.327  95.710  1.00  0.00     0.238 A 
ATOM      4  O   UNL     1     -11.891 -49.100  96.446  1.00  0.00    -0.285 OA
ATOM      5  C   UNL     1     -13.936 -48.542  95.470  1.00  0.00     0.111 A 
ATOM      6  C   UNL     1     -14.677 -49.664  95.949  1.00  0.00     0.134 A 
ATOM      7  C   UNL     1     -16.064 -49.707  95.763  1.00  0.00     0.093 A 
ATOM      8  C   UNL     1     -16.727 -48.703  95.058  1.00  0.00     0.123 A 
ATOM      9  C   UNL     1     -16.004 -47.631  94.534  1.00  0.00     0.094 A 
ATOM     10  C   UNL     1     -14.624 -47.541  94.736  1.00  0.00     0.146 A 
ATOM     11  O   UNL     1     -13.975 -46.500  94.229  1.00  0.00    -0.452 OA
ENDROOT
BRANCH   1  12
ATOM     12  C   UNL     1     -12.061 -45.116  93.743  1.00  0.00     0.025 A 
ATOM     13  C   UNL     1     -11.994 -43.911  94.456  1.00  0.00     0.016 A 
ATOM     14  C   UNL     1     -11.442 -42.773  93.866  1.00  0.00     0.051 A 
ATOM     15  C   UNL     1     -10.962 -42.809  92.553  1.00  0.00     0.157 A 
ATOM     16  C   UNL     1     -11.601 -45.151  92.416  1.00  0.00     0.062 A 
ATOM     17  C   UNL     1     -11.049 -44.014  91.815  1.00  0.00     0.158 A 
BRANCH  15  18
ATOM     18  O   UNL     1     -10.416 -41.638  92.024  1.00  0.00    -0.504 OA
ATOM     19  H   UNL     1     -10.194 -40.820  92.574  1.00  0.00     0.293 HD
ENDBRANCH  15  18
BRANCH  17  20
ATOM     20  O   UNL     1     -10.610 -44.122  90.494  1.00  0.00    -0.504 OA
ATOM     21  H   UNL     1     -10.952 -43.549  89.736  1.00  0.00     0.293 HD
ENDBRANCH  17  20
ENDBRANCH   1  12
BRANCH   2  22
ATOM     22  O   UNL     1     -10.563 -46.964  95.396  1.00  0.00    -0.502 OA
ATOM     23  H   UNL     1     -10.134 -46.062  95.231  1.00  0.00     0.293 HD
ENDBRANCH   2  22
BRANCH   6  24
ATOM     24  O   UNL     1     -14.099 -50.767  96.585  1.00  0.00    -0.507 OA
ATOM     25  H   UNL     1     -14.054 -51.697  96.195  1.00  0.00     0.293 HD
ENDBRANCH   6  24
BRANCH   8  26
ATOM     26  O   UNL     1     -18.106 -48.786  94.877  1.00  0.00    -0.508 OA
ATOM     27  H   UNL     1     -18.722 -49.076  95.628  1.00  0.00     0.293 HD
ENDBRANCH   8  26
TORSDOF 6
ENDMDL
MODEL 4
REMARK VINA RESULT:    -5.275     11.958     12.820
REMARK INTER + INTRA:          -5.804
REMARK INTER:                  -5.485
REMARK INTRA:                  -0.319
REMARK UNBOUND:                 0.550
REMARK SMILES O=c1c(O)c(-c2ccc(O)c(O)c2)oc2cc(O)cc(O)c12
REMARK SMILES IDX 5 1 3 2 2 3 1 4 22 5 20 6 19 7 17 8 16 9 15 10 14 11 6 12
REMARK SMILES IDX 7 13 8 14 9 15 13 16 11 17 10 18 12 20 4 22 21 24 18 26
REMARK H PARENT 10 19 12 21 4 23 21 25 18 27
REMARK Flexibility Score: inf
ROOT
ATOM      1  C   UNL     1     -12.653 -50.788  92.761  1.00  0.00     0.180 A 
ATOM      2  C   UNL     1     -12.250 -49.690  91.982  1.00  0.00     0.208 A 
ATOM      3  C   UNL     1     -12.260 -48.408  92.556  1.00  0.00     0.238 A 
ATOM      4  O   UNL     1     -11.950 -47.422  91.836  1.00  0.00    -0.285 OA
ATOM      5  C   UNL     1     -12.655 -48.242  93.904  1.00  0.00     0.111 A 
ATOM      6  C   UNL     1     -12.665 -46.996  94.599  1.00  0.00     0.134 A 
ATOM      7  C   UNL     1     -13.200 -46.929  95.891  1.00  0.00     0.093 A 
ATOM      8  C   UNL     1     -13.665 -48.073  96.538  1.00  0.00     0.123 A 
ATOM      9  C   UNL     1     -13.605 -49.308  95.891  1.00  0.00     0.094 A 
ATOM     10  C   UNL     1     -13.111 -49.400  94.587  1.00  0.00     0.146 A 
ATOM     11  O   UNL     1     -13.081 -50.592  94.003  1.00  0.00    -0.452 OA
ENDROOT
BRANCH   1  12
ATOM     12  C   UNL     1     -12.645 -52.172  92.235  1.00  0.00     0.025 A 
ATOM     13  C   UNL     1     -13.847 -52.753  91.806  1.00  0.00     0.016 A 
ATOM     14  C   UNL     1     -13.865 -54.063  91.325  1.00  0.00     0.051 A 
ATOM     15  C   UNL     1     -12.693 -54.824  91.277  1.00  0.00     0.157 A 
ATOM     16  C   UNL     1     -11.469 -52.940  92.209  1.00  0.00     0.062 A 
ATOM     17  C   UNL     1     -11.478 -54.257  91.732  1.00  0.00     0.158 A 
BRANCH  15  18
ATOM     18  O   UNL     1     -12.778 -56.125  90.778  1.00  0.00    -0.504 OA
ATOM     19  H   UNL     1     -12.432 -56.406  89.872  1.00  0.00     0.293 HD
ENDBRANCH  15  18
BRANCH  17  20
ATOM     20  O   UNL     1     -10.272 -54.959  91.733  1.00  0.00    -0.504 OA
ATOM     21  H   UNL     1      -9.602 -54.933  90.978  1.00  0.00     0.293 HD
ENDBRANCH  17  20
ENDBRANCH   1  12
BRANCH   2  22
ATOM     22  O   UNL     1     -11.883 -49.873  90.646  1.00  0.00    -0.502 OA
ATOM     23  H   UNL     1     -10.939 -49.714  90.314  1.00  0.00     0.293 HD
ENDBRANCH   2  22
BRANCH   6  24
ATOM     24  O   UNL     1     -12.140 -45.808  94.080  1.00  0.00    -0.507 OA
ATOM     25  H   UNL     1     -11.257 -45.403  94.353  1.00  0.00     0.293 HD
ENDBRANCH   6  24
BRANCH   8  26
ATOM     26  O   UNL     1     -14.176 -47.972  97.831  1.00  0.00    -0.508 OA
ATOM     27  H   UNL     1     -13.568 -47.948  98.641  1.00  0.00     0.293 HD
ENDBRANCH   8  26
TORSDOF 6
ENDMDL
MODEL 5
REMARK VINA RESULT:    -5.186     13.722     15.111
REMARK INTER + INTRA:          -5.696
REMARK INTER:                  -5.392
REMARK INTRA:                  -0.304
REMARK UNBOUND:                 0.550
REMARK SMILES O=c1c(O)c(-c2ccc(O)c(O)c2)oc2cc(O)cc(O)c12
REMARK SMILES IDX 5 1 3 2 2 3 1 4 22 5 20 6 19 7 17 8 16 9 15 10 14 11 6 12
REMARK SMILES IDX 7 13 8 14 9 15 13 16 11 17 10 18 12 20 4 22 21 24 18 26
REMARK H PARENT 10 19 12 21 4 23 21 25 18 27
REMARK Flexibility Score: inf
ROOT
ATOM      1  C   UNL     1     -14.697 -49.282  94.752  1.00  0.00     0.180 A 
ATOM      2  C   UNL     1     -15.655 -49.513  95.754  1.00  0.00     0.208 A 
ATOM      3  C   UNL     1     -16.493 -50.636  95.650  1.00  0.00     0.238 A 
ATOM      4  O   UNL     1     -17.385 -50.806  96.522  1.00  0.00    -0.285 OA
ATOM      5  C   UNL     1     -16.351 -51.521  94.556  1.00  0.00     0.111 A 
ATOM      6  C   UNL     1     -17.119 -52.710  94.370  1.00  0.00     0.134 A 
ATOM      7  C   UNL     1     -16.984 -53.441  93.184  1.00  0.00     0.093 A 
ATOM      8  C   UNL     1     -16.065 -53.065  92.206  1.00  0.00     0.123 A 
ATOM      9  C   UNL     1     -15.267 -51.938  92.403  1.00  0.00     0.094 A 
ATOM     10  C   UNL     1     -15.404 -51.166  93.560  1.00  0.00     0.146 A 
ATOM     11  O   UNL     1     -14.632 -50.096  93.705  1.00  0.00    -0.452 OA
ENDROOT
BRANCH   1  12
ATOM     12  C   UNL     1     -13.762 -48.135  94.806  1.00  0.00     0.025 A 
ATOM     13  C   UNL     1     -14.179 -46.884  94.333  1.00  0.00     0.016 A 
ATOM     14  C   UNL     1     -13.307 -45.794  94.356  1.00  0.00     0.051 A 
ATOM     15  C   UNL     1     -12.001 -45.934  94.835  1.00  0.00     0.157 A 
ATOM     16  C   UNL     1     -12.444 -48.286  95.267  1.00  0.00     0.062 A 
ATOM     17  C   UNL     1     -11.560 -47.199  95.291  1.00  0.00     0.158 A 
BRANCH  15  18
ATOM     18  O   UNL     1     -11.181 -44.804  94.838  1.00  0.00    -0.504 OA
ATOM     19  H   UNL     1     -10.392 -44.680  95.456  1.00  0.00     0.293 HD
ENDBRANCH  15  18
BRANCH  17  20
ATOM     20  O   UNL     1     -10.266 -47.422  95.764  1.00  0.00    -0.504 OA
ATOM     21  H   UNL     1      -9.438 -47.373  95.189  1.00  0.00     0.293 HD
ENDBRANCH  17  20
ENDBRANCH   1  12
BRANCH   2  22
ATOM     22  O   UNL     1     -15.793 -48.614  96.816  1.00  0.00    -0.502 OA
ATOM     23  H   UNL     1     -15.563 -47.631  96.730  1.00  0.00     0.293 HD
ENDBRANCH   2  22
BRANCH   6  24
ATOM     24  O   UNL     1     -18.000 -53.228  95.325  1.00  0.00    -0.507 OA
ATOM     25  H   UNL     1     -18.480 -54.111  95.245  1.00  0.00     0.293 HD
ENDBRANCH   6  24
BRANCH   8  26
ATOM     26  O   UNL     1     -15.946 -53.825  91.044  1.00  0.00    -0.508 OA
ATOM     27  H   UNL     1     -15.957 -53.396  90.127  1.00  0.00     0.293 HD
ENDBRANCH   8  26
TORSDOF 6
ENDMDL
MODEL 6
REMARK VINA RESULT:    -5.172     13.164     14.970
REMARK INTER + INTRA:          -5.679
REMARK INTER:                  -5.374
REMARK INTRA:                  -0.305
REMARK UNBOUND:                 0.550
REMARK SMILES O=c1c(O)c(-c2ccc(O)c(O)c2)oc2cc(O)cc(O)c12
REMARK SMILES IDX 5 1 3 2 2 3 1 4 22 5 20 6 19 7 17 8 16 9 15 10 14 11 6 12
REMARK SMILES IDX 7 13 8 14 9 15 13 16 11 17 10 18 12 20 4 22 21 24 18 26
REMARK H PARENT 10 19 12 21 4 23 21 25 18 27
REMARK Flexibility Score: inf
ROOT
ATOM      1  C   UNL     1     -13.034 -44.539  94.156  1.00  0.00     0.180 A 
ATOM      2  C   UNL     1     -14.405 -44.698  94.419  1.00  0.00     0.208 A 
ATOM      3  C   UNL     1     -14.839 -45.843  95.108  1.00  0.00     0.238 A 
ATOM      4  O   UNL     1     -16.073 -46.005  95.291  1.00  0.00    -0.285 OA
ATOM      5  C   UNL     1     -13.895 -46.805  95.538  1.00  0.00     0.111 A 
ATOM      6  C   UNL     1     -14.218 -47.982  96.278  1.00  0.00     0.134 A 
ATOM      7  C   UNL     1     -13.221 -48.931  96.537  1.00  0.00     0.093 A 
ATOM      8  C   UNL     1     -11.901 -48.714  96.143  1.00  0.00     0.123 A 
ATOM      9  C   UNL     1     -11.562 -47.539  95.471  1.00  0.00     0.094 A 
ATOM     10  C   UNL     1     -12.542 -46.591  95.165  1.00  0.00     0.146 A 
ATOM     11  O   UNL     1     -12.181 -45.491  94.516  1.00  0.00    -0.452 OA
ENDROOT
BRANCH   1  12
ATOM     12  C   UNL     1     -12.498 -43.348  93.459  1.00  0.00     0.025 A 
ATOM     13  C   UNL     1     -12.287 -42.164  94.180  1.00  0.00     0.016 A 
ATOM     14  C   UNL     1     -11.802 -41.024  93.538  1.00  0.00     0.051 A 
ATOM     15  C   UNL     1     -11.534 -41.035  92.165  1.00  0.00     0.157 A 
ATOM     16  C   UNL     1     -12.252 -43.357  92.076  1.00  0.00     0.062 A 
ATOM     17  C   UNL     1     -11.768 -42.217  91.422  1.00  0.00     0.158 A 
BRANCH  15  18
ATOM     18  O   UNL     1     -11.044 -39.864  91.585  1.00  0.00    -0.504 OA
ATOM     19  H   UNL     1     -11.311 -39.533  90.669  1.00  0.00     0.293 HD
ENDBRANCH  15  18
BRANCH  17  20
ATOM     20  O   UNL     1     -11.544 -42.300  90.047  1.00  0.00    -0.504 OA
ATOM     21  H   UNL     1     -10.787 -41.832  89.569  1.00  0.00     0.293 HD
ENDBRANCH  17  20
ENDBRANCH   1  12
BRANCH   2  22
ATOM     22  O   UNL     1     -15.323 -43.745  93.966  1.00  0.00    -0.502 OA
ATOM     23  H   UNL     1     -16.174 -43.528  94.471  1.00  0.00     0.293 HD
ENDBRANCH   2  22
BRANCH   6  24
ATOM     24  O   UNL     1     -15.487 -48.253  96.800  1.00  0.00    -0.507 OA
ATOM     25  H   UNL     1     -15.823 -49.173  97.045  1.00  0.00     0.293 HD
ENDBRANCH   6  24
BRANCH   8  26
ATOM     26  O   UNL     1     -10.931 -49.672  96.432  1.00  0.00    -0.508 OA
ATOM     27  H   UNL     1      -9.943 -49.453  96.393  1.00  0.00     0.293 HD
ENDBRANCH   8  26
TORSDOF 6
ENDMDL
MODEL 7
REMARK VINA RESULT:    -5.143     15.176     15.924
REMARK INTER + INTRA:          -5.645
REMARK INTER:                  -5.482
REMARK INTRA:                  -0.163
REMARK UNBOUND:                 0.550
REMARK SMILES O=c1c(O)c(-c2ccc(O)c(O)c2)oc2cc(O)cc(O)c12
REMARK SMILES IDX 5 1 3 2 2 3 1 4 22 5 20 6 19 7 17 8 16 9 15 10 14 11 6 12
REMARK SMILES IDX 7 13 8 14 9 15 13 16 11 17 10 18 12 20 4 22 21 24 18 26
REMARK H PARENT 10 19 12 21 4 23 21 25 18 27
REMARK Flexibility Score: inf
ROOT
ATOM      1  C   UNL     1     -16.019 -45.769  97.731  1.00  0.00     0.180 A 
ATOM      2  C   UNL     1     -17.133 -46.342  97.093  1.00  0.00     0.208 A 
ATOM      3  C   UNL     1     -16.975 -47.555  96.403  1.00  0.00     0.238 A 
ATOM      4  O   UNL     1     -17.963 -48.033  95.788  1.00  0.00    -0.285 OA
ATOM      5  C   UNL     1     -15.709 -48.187  96.372  1.00  0.00     0.111 A 
ATOM      6  C   UNL     1     -15.443 -49.437  95.737  1.00  0.00     0.134 A 
ATOM      7  C   UNL     1     -14.126 -49.905  95.657  1.00  0.00     0.093 A 
ATOM      8  C   UNL     1     -13.075 -49.203  96.245  1.00  0.00     0.123 A 
ATOM      9  C   UNL     1     -13.332 -48.009  96.921  1.00  0.00     0.094 A 
ATOM     10  C   UNL     1     -14.631 -47.498  96.986  1.00  0.00     0.146 A 
ATOM     11  O   UNL     1     -14.831 -46.354  97.629  1.00  0.00    -0.452 OA
ENDROOT
BRANCH   1  12
ATOM     12  C   UNL     1     -16.114 -44.507  98.498  1.00  0.00     0.025 A 
ATOM     13  C   UNL     1     -16.382 -43.308  97.823  1.00  0.00     0.016 A 
ATOM     14  C   UNL     1     -16.456 -42.104  98.526  1.00  0.00     0.051 A 
ATOM     15  C   UNL     1     -16.248 -42.068  99.908  1.00  0.00     0.157 A 
ATOM     16  C   UNL     1     -15.882 -44.473  99.884  1.00  0.00     0.062 A 
ATOM     17  C   UNL     1     -15.951 -43.269 100.596  1.00  0.00     0.158 A 
BRANCH  15  18
ATOM     18  O   UNL     1     -16.343 -40.833 100.552  1.00  0.00    -0.504 OA
ATOM     19  H   UNL     1     -16.152 -40.692 101.534  1.00  0.00     0.293 HD
ENDBRANCH  15  18
BRANCH  17  20
ATOM     20  O   UNL     1     -15.712 -43.311 101.971  1.00  0.00    -0.504 OA
ATOM     21  H   UNL     1     -16.187 -42.727 102.645  1.00  0.00     0.293 HD
ENDBRANCH  17  20
ENDBRANCH   1  12
BRANCH   2  22
ATOM     22  O   UNL     1     -18.369 -45.689  97.118  1.00  0.00    -0.502 OA
ATOM     23  H   UNL     1     -19.213 -46.107  96.743  1.00  0.00     0.293 HD
ENDBRANCH   2  22
BRANCH   6  24
ATOM     24  O   UNL     1     -16.433 -50.265  95.197  1.00  0.00    -0.507 OA
ATOM     25  H   UNL     1     -16.817 -51.076  95.658  1.00  0.00     0.293 HD
ENDBRANCH   6  24
BRANCH   8  26
ATOM     26  O   UNL     1     -11.778 -49.706  96.160  1.00  0.00    -0.508 OA
ATOM     27  H   UNL     1     -11.450 -50.185  95.330  1.00  0.00     0.293 HD
ENDBRANCH   8  26
TORSDOF 6
ENDMDL
MODEL 8
REMARK VINA RESULT:    -5.139     17.501     19.701
REMARK INTER + INTRA:          -5.640
REMARK INTER:                  -5.319
REMARK INTRA:                  -0.321
REMARK UNBOUND:                 0.550
REMARK SMILES O=c1c(O)c(-c2ccc(O)c(O)c2)oc2cc(O)cc(O)c12
REMARK SMILES IDX 5 1 3 2 2 3 1 4 22 5 20 6 19 7 17 8 16 9 15 10 14 11 6 12
REMARK SMILES IDX 7 13 8 14 9 15 13 16 11 17 10 18 12 20 4 22 21 24 18 26
REMARK H PARENT 10 19 12 21 4 23 21 25 18 27
REMARK Flexibility Score: inf
ROOT
ATOM      1  C   UNL     1     -15.659 -41.566 104.278  1.00  0.00     0.180 A 
ATOM      2  C   UNL     1     -14.548 -40.910 104.836  1.00  0.00     0.208 A 
ATOM      3  C   UNL     1     -14.236 -41.127 106.188  1.00  0.00     0.238 A 
ATOM      4  O   UNL     1     -13.273 -40.494 106.694  1.00  0.00    -0.285 OA
ATOM      5  C   UNL     1     -15.028 -42.010 106.960  1.00  0.00     0.111 A 
ATOM      6  C   UNL     1     -14.780 -42.335 108.327  1.00  0.00     0.134 A 
ATOM      7  C   UNL     1     -15.704 -43.118 109.030  1.00  0.00     0.093 A 
ATOM      8  C   UNL     1     -16.831 -43.642 108.399  1.00  0.00     0.123 A 
ATOM      9  C   UNL     1     -17.053 -43.379 107.047  1.00  0.00     0.094 A 
ATOM     10  C   UNL     1     -16.168 -42.571 106.328  1.00  0.00     0.146 A 
ATOM     11  O   UNL     1     -16.420 -42.337 105.046  1.00  0.00    -0.452 OA
ENDROOT
BRANCH   1  12
ATOM     12  C   UNL     1     -16.035 -41.407 102.855  1.00  0.00     0.025 A 
ATOM     13  C   UNL     1     -16.887 -40.358 102.481  1.00  0.00     0.016 A 
ATOM     14  C   UNL     1     -17.270 -40.202 101.147  1.00  0.00     0.051 A 
ATOM     15  C   UNL     1     -16.826 -41.095 100.167  1.00  0.00     0.157 A 
ATOM     16  C   UNL     1     -15.606 -42.319 101.877  1.00  0.00     0.062 A 
ATOM     17  C   UNL     1     -15.988 -42.173 100.537  1.00  0.00     0.158 A 
BRANCH  15  18
ATOM     18  O   UNL     1     -17.240 -40.879  98.851  1.00  0.00    -0.504 OA
ATOM     19  H   UNL     1     -16.785 -40.241  98.213  1.00  0.00     0.293 HD
ENDBRANCH  15  18
BRANCH  17  20
ATOM     20  O   UNL     1     -15.521 -43.116  99.620  1.00  0.00    -0.504 OA
ATOM     21  H   UNL     1     -14.653 -43.622  99.721  1.00  0.00     0.293 HD
ENDBRANCH  17  20
ENDBRANCH   1  12
BRANCH   2  22
ATOM     22  O   UNL     1     -13.792 -40.026 104.060  1.00  0.00    -0.502 OA
ATOM     23  H   UNL     1     -13.307 -39.231 104.459  1.00  0.00     0.293 HD
ENDBRANCH   2  22
BRANCH   6  24
ATOM     24  O   UNL     1     -13.636 -41.940 109.029  1.00  0.00    -0.507 OA
ATOM     25  H   UNL     1     -13.567 -41.106 109.592  1.00  0.00     0.293 HD
ENDBRANCH   6  24
BRANCH   8  26
ATOM     26  O   UNL     1     -17.722 -44.430 109.125  1.00  0.00    -0.508 OA
ATOM     27  H   UNL     1     -17.748 -45.437 109.015  1.00  0.00     0.293 HD
ENDBRANCH   8  26
TORSDOF 6
ENDMDL
MODEL 9
REMARK VINA RESULT:    -4.955     11.921     12.754
REMARK INTER + INTRA:          -5.418
REMARK INTER:                  -5.097
REMARK INTRA:                  -0.320
REMARK UNBOUND:                 0.550
REMARK SMILES O=c1c(O)c(-c2ccc(O)c(O)c2)oc2cc(O)cc(O)c12
REMARK SMILES IDX 5 1 3 2 2 3 1 4 22 5 20 6 19 7 17 8 16 9 15 10 14 11 6 12
REMARK SMILES IDX 7 13 8 14 9 15 13 16 11 17 10 18 12 20 4 22 21 24 18 26
REMARK H PARENT 10 19 12 21 4 23 21 25 18 27
REMARK Flexibility Score: inf
ROOT
ATOM      1  C   UNL     1     -12.850 -50.218  93.054  1.00  0.00     0.180 A 
ATOM      2  C   UNL     1     -12.297 -49.366  92.083  1.00  0.00     0.208 A 
ATOM      3  C   UNL     1     -11.448 -49.909  91.105  1.00  0.00     0.238 A 
ATOM      4  O   UNL     1     -10.912 -49.132  90.272  1.00  0.00    -0.285 OA
ATOM      5  C   UNL     1     -11.177 -51.298  91.099  1.00  0.00     0.111 A 
ATOM      6  C   UNL     1     -10.365 -51.961  90.132  1.00  0.00     0.134 A 
ATOM      7  C   UNL     1     -10.059 -53.317  90.300  1.00  0.00     0.093 A 
ATOM      8  C   UNL     1     -10.589 -54.049  91.362  1.00  0.00     0.123 A 
ATOM      9  C   UNL     1     -11.432 -53.425  92.281  1.00  0.00     0.094 A 
ATOM     10  C   UNL     1     -11.726 -52.064  92.161  1.00  0.00     0.146 A 
ATOM     11  O   UNL     1     -12.526 -51.505  93.062  1.00  0.00    -0.452 OA
ENDROOT
BRANCH   1  12
ATOM     12  C   UNL     1     -13.773 -49.723  94.102  1.00  0.00     0.025 A 
ATOM     13  C   UNL     1     -15.153 -49.712  93.855  1.00  0.00     0.016 A 
ATOM     14  C   UNL     1     -16.038 -49.231  94.821  1.00  0.00     0.051 A 
ATOM     15  C   UNL     1     -15.567 -48.739  96.042  1.00  0.00     0.157 A 
ATOM     16  C   UNL     1     -13.293 -49.209  95.318  1.00  0.00     0.062 A 
ATOM     17  C   UNL     1     -14.174 -48.722  96.292  1.00  0.00     0.158 A 
BRANCH  15  18
ATOM     18  O   UNL     1     -16.505 -48.280  96.968  1.00  0.00    -0.504 OA
ATOM     19  H   UNL     1     -16.265 -47.822  97.836  1.00  0.00     0.293 HD
ENDBRANCH  15  18
BRANCH  17  20
ATOM     20  O   UNL     1     -13.626 -48.229  97.478  1.00  0.00    -0.504 OA
ATOM     21  H   UNL     1     -13.368 -47.263  97.622  1.00  0.00     0.293 HD
ENDBRANCH  17  20
ENDBRANCH   1  12
BRANCH   2  22
ATOM     22  O   UNL     1     -12.560 -47.993  92.120  1.00  0.00    -0.502 OA
ATOM     23  H   UNL     1     -13.484 -47.622  92.308  1.00  0.00     0.293 HD
ENDBRANCH   2  22
BRANCH   6  24
ATOM     24  O   UNL     1      -9.860 -51.346  88.982  1.00  0.00    -0.507 OA
ATOM     25  H   UNL     1     -10.240 -50.510  88.564  1.00  0.00     0.293 HD
ENDBRANCH   6  24
BRANCH   8  26
ATOM     26  O   UNL     1     -10.276 -55.401  91.489  1.00  0.00    -0.508 OA
ATOM     27  H   UNL     1      -9.541 -55.829  90.937  1.00  0.00     0.293 HD
ENDBRANCH   8  26
TORSDOF 6
ENDMDL
