MODEL 1
REMARK VINA RESULT:    -5.210      0.000      0.000
REMARK INTER + INTRA:          -5.638
REMARK INTER:                  -5.514
REMARK INTRA:                  -0.124
REMARK UNBOUND:                -0.124
REMARK SMILES C=C(C)[C@@H]1CC=C(C)CC1
REMARK SMILES IDX 8 1 7 2 6 3 5 4 4 5 10 6 9 7 2 8 1 9 3 10
REMARK H PARENT
REMARK Flexibility Score: inf
ROOT
ATOM      1  C   UNL     1      -3.867  13.541 -44.374  1.00  0.00     0.039 C 
ATOM      2  C   UNL     1      -3.393  13.967 -45.736  1.00  0.00    -0.077 C 
ATOM      3  C   UNL     1      -2.156  13.606 -46.142  1.00  0.00    -0.027 C 
ATOM      4  C   UNL     1      -1.610  13.938 -47.508  1.00  0.00     0.035 C 
ATOM      5  C   UNL     1      -2.324  15.146 -48.143  1.00  0.00     0.018 C 
ATOM      6  C   UNL     1      -3.846  14.970 -48.030  1.00  0.00     0.013 C 
ATOM      7  C   UNL     1      -4.264  14.900 -46.557  1.00  0.00     0.031 C 
ENDROOT
BRANCH   5   8
ATOM      8  C   UNL     1      -1.885  15.362 -49.585  1.00  0.00    -0.077 C 
ATOM      9  C   UNL     1      -2.148  14.454 -50.540  1.00  0.00     0.008 C 
ATOM     10  C   UNL     1      -1.144  16.617 -49.969  1.00  0.00     0.039 C 
ENDBRANCH   5   8
TORSDOF 1
ENDMDL
MODEL 2
REMARK VINA RESULT:    -5.047      9.602     12.199
REMARK INTER + INTRA:          -5.466
REMARK INTER:                  -5.341
REMARK INTRA:                  -0.125
REMARK UNBOUND:                -0.124
REMARK SMILES C=C(C)[C@@H]1CC=C(C)CC1
REMARK SMILES IDX 8 1 7 2 6 3 5 4 4 5 10 6 9 7 2 8 1 9 3 10
REMARK H PARENT
REMARK Flexibility Score: inf
ROOT
ATOM      1  C   UNL     1     -11.752  14.704 -45.425  1.00  0.00     0.039 C 
ATOM      2  C   UNL     1     -12.063  15.197 -44.039  1.00  0.00    -0.077 C 
ATOM      3  C   UNL     1     -13.284  14.956 -43.516  1.00  0.00    -0.027 C 
ATOM      4  C   UNL     1     -13.674  15.362 -42.116  1.00  0.00     0.035 C 
ATOM      5  C   UNL     1     -12.803  16.512 -41.580  1.00  0.00     0.018 C 
ATOM      6  C   UNL     1     -11.318  16.198 -41.821  1.00  0.00     0.013 C 
ATOM      7  C   UNL     1     -11.042  16.062 -43.323  1.00  0.00     0.031 C 
ENDROOT
BRANCH   5   8
ATOM      8  C   UNL     1     -13.089  16.795 -40.111  1.00  0.00    -0.077 C 
ATOM      9  C   UNL     1     -13.038  15.819 -39.188  1.00  0.00     0.008 C 
ATOM     10  C   UNL     1     -13.434  18.193 -39.664  1.00  0.00     0.039 C 
ENDBRANCH   5   8
TORSDOF 1
ENDMDL
MODEL 3
REMARK VINA RESULT:    -4.940      2.231      4.459
REMARK INTER + INTRA:          -5.353
REMARK INTER:                  -5.223
REMARK INTRA:                  -0.130
REMARK UNBOUND:                -0.124
REMARK SMILES C=C(C)[C@@H]1CC=C(C)CC1
REMARK SMILES IDX 8 1 7 2 6 3 5 4 4 5 10 6 9 7 2 8 1 9 3 10
REMARK H PARENT
REMARK Flexibility Score: inf
ROOT
ATOM      1  C   UNL     1      -1.040  16.547 -49.941  1.00  0.00     0.039 C 
ATOM      2  C   UNL     1      -1.718  15.263 -49.551  1.00  0.00    -0.077 C 
ATOM      3  C   UNL     1      -1.577  14.804 -48.289  1.00  0.00    -0.027 C 
ATOM      4  C   UNL     1      -2.259  13.556 -47.786  1.00  0.00     0.035 C 
ATOM      5  C   UNL     1      -2.642  12.601 -48.932  1.00  0.00     0.018 C 
ATOM      6  C   UNL     1      -3.359  13.382 -50.044  1.00  0.00     0.013 C 
ATOM      7  C   UNL     1      -2.430  14.456 -50.621  1.00  0.00     0.031 C 
ENDROOT
BRANCH   5   8
ATOM      8  C   UNL     1      -3.482  11.433 -48.431  1.00  0.00    -0.077 C 
ATOM      9  C   UNL     1      -3.715  11.251 -47.120  1.00  0.00     0.008 C 
ATOM     10  C   UNL     1      -4.074  10.453 -49.411  1.00  0.00     0.039 C 
ENDBRANCH   5   8
TORSDOF 1
ENDMDL
MODEL 4
REMARK VINA RESULT:    -4.871      2.811      4.062
REMARK INTER + INTRA:          -5.280
REMARK INTER:                  -5.153
REMARK INTRA:                  -0.127
REMARK UNBOUND:                -0.124
REMARK SMILES C=C(C)[C@@H]1CC=C(C)CC1
REMARK SMILES IDX 8 1 7 2 6 3 5 4 4 5 10 6 9 7 2 8 1 9 3 10
REMARK H PARENT
REMARK Flexibility Score: inf
ROOT
ATOM      1  C   UNL     1      -5.164  10.090 -50.585  1.00  0.00     0.039 C 
ATOM      2  C   UNL     1      -4.338  11.228 -50.052  1.00  0.00    -0.077 C 
ATOM      3  C   UNL     1      -4.283  12.382 -50.751  1.00  0.00    -0.027 C 
ATOM      4  C   UNL     1      -3.527  13.598 -50.274  1.00  0.00     0.035 C 
ATOM      5  C   UNL     1      -2.420  13.236 -49.267  1.00  0.00     0.018 C 
ATOM      6  C   UNL     1      -2.985  12.304 -48.184  1.00  0.00     0.013 C 
ATOM      7  C   UNL     1      -3.487  11.000 -48.816  1.00  0.00     0.031 C 
ENDROOT
BRANCH   5   8
ATOM      8  C   UNL     1      -1.782  14.481 -48.664  1.00  0.00    -0.077 C 
ATOM      9  C   UNL     1      -1.556  14.581 -47.343  1.00  0.00     0.008 C 
ATOM     10  C   UNL     1      -1.385  15.632 -49.552  1.00  0.00     0.039 C 
ENDBRANCH   5   8
TORSDOF 1
ENDMDL
MODEL 5
REMARK VINA RESULT:    -4.848     12.299     12.725
REMARK INTER + INTRA:          -5.255
REMARK INTER:                  -5.128
REMARK INTRA:                  -0.127
REMARK UNBOUND:                -0.124
REMARK SMILES C=C(C)[C@@H]1CC=C(C)CC1
REMARK SMILES IDX 8 1 7 2 6 3 5 4 4 5 10 6 9 7 2 8 1 9 3 10
REMARK H PARENT
REMARK Flexibility Score: inf
ROOT
ATOM      1  C   UNL     1     -11.367  10.921 -38.949  1.00  0.00     0.039 C 
ATOM      2  C   UNL     1     -11.847  12.252 -39.458  1.00  0.00    -0.077 C 
ATOM      3  C   UNL     1     -11.533  13.369 -38.769  1.00  0.00    -0.027 C 
ATOM      4  C   UNL     1     -11.922  14.754 -39.225  1.00  0.00     0.035 C 
ATOM      5  C   UNL     1     -13.128  14.734 -40.181  1.00  0.00     0.018 C 
ATOM      6  C   UNL     1     -12.907  13.681 -41.278  1.00  0.00     0.013 C 
ATOM      7  C   UNL     1     -12.780  12.285 -40.655  1.00  0.00     0.031 C 
ENDROOT
BRANCH   5   8
ATOM      8  C   UNL     1     -13.401  16.112 -40.769  1.00  0.00    -0.077 C 
ATOM      9  C   UNL     1     -13.575  16.287 -42.090  1.00  0.00     0.008 C 
ATOM     10  C   UNL     1     -13.487  17.316 -39.865  1.00  0.00     0.039 C 
ENDBRANCH   5   8
TORSDOF 1
ENDMDL
MODEL 6
REMARK VINA RESULT:    -4.821      8.783     10.673
REMARK INTER + INTRA:          -5.227
REMARK INTER:                  -5.103
REMARK INTRA:                  -0.123
REMARK UNBOUND:                -0.124
REMARK SMILES C=C(C)[C@@H]1CC=C(C)CC1
REMARK SMILES IDX 8 1 7 2 6 3 5 4 4 5 10 6 9 7 2 8 1 9 3 10
REMARK H PARENT
REMARK Flexibility Score: inf
ROOT
ATOM      1  C   UNL     1     -13.632  16.810 -39.882  1.00  0.00     0.039 C 
ATOM      2  C   UNL     1     -12.992  16.437 -41.192  1.00  0.00    -0.077 C 
ATOM      3  C   UNL     1     -11.647  16.480 -41.299  1.00  0.00    -0.027 C 
ATOM      4  C   UNL     1     -10.908  16.075 -42.551  1.00  0.00     0.035 C 
ATOM      5  C   UNL     1     -11.800  16.154 -43.804  1.00  0.00     0.018 C 
ATOM      6  C   UNL     1     -13.141  15.454 -43.534  1.00  0.00     0.013 C 
ATOM      7  C   UNL     1     -13.882  16.152 -42.387  1.00  0.00     0.031 C 
ENDROOT
BRANCH   5   8
ATOM      8  C   UNL     1     -11.099  15.579 -45.028  1.00  0.00    -0.077 C 
ATOM      9  C   UNL     1     -10.050  16.203 -45.590  1.00  0.00     0.008 C 
ATOM     10  C   UNL     1     -11.575  14.283 -45.632  1.00  0.00     0.039 C 
ENDBRANCH   5   8
TORSDOF 1
ENDMDL
MODEL 7
REMARK VINA RESULT:    -4.763     11.473     12.920
REMARK INTER + INTRA:          -5.166
REMARK INTER:                  -5.037
REMARK INTRA:                  -0.129
REMARK UNBOUND:                -0.124
REMARK SMILES C=C(C)[C@@H]1CC=C(C)CC1
REMARK SMILES IDX 8 1 7 2 6 3 5 4 4 5 10 6 9 7 2 8 1 9 3 10
REMARK H PARENT
REMARK Flexibility Score: inf
ROOT
ATOM      1  C   UNL     1     -13.649  18.352 -39.708  1.00  0.00     0.039 C 
ATOM      2  C   UNL     1     -13.342  16.931 -40.094  1.00  0.00    -0.077 C 
ATOM      3  C   UNL     1     -13.609  16.523 -41.354  1.00  0.00    -0.027 C 
ATOM      4  C   UNL     1     -13.289  15.135 -41.853  1.00  0.00     0.035 C 
ATOM      5  C   UNL     1     -13.170  14.117 -40.704  1.00  0.00     0.018 C 
ATOM      6  C   UNL     1     -12.264  14.680 -39.599  1.00  0.00     0.013 C 
ATOM      7  C   UNL     1     -12.868  15.967 -39.023  1.00  0.00     0.031 C 
ENDROOT
BRANCH   5   8
ATOM      8  C   UNL     1     -12.679  12.764 -41.203  1.00  0.00    -0.077 C 
ATOM      9  C   UNL     1     -12.394  11.765 -40.349  1.00  0.00     0.008 C 
ATOM     10  C   UNL     1     -12.506  12.520 -42.680  1.00  0.00     0.039 C 
ENDBRANCH   5   8
TORSDOF 1
ENDMDL
MODEL 8
REMARK VINA RESULT:    -4.731      1.134      4.748
REMARK INTER + INTRA:          -5.132
REMARK INTER:                  -5.008
REMARK INTRA:                  -0.123
REMARK UNBOUND:                -0.124
REMARK SMILES C=C(C)[C@@H]1CC=C(C)CC1
REMARK SMILES IDX 8 1 7 2 6 3 5 4 4 5 10 6 9 7 2 8 1 9 3 10
REMARK H PARENT
REMARK Flexibility Score: inf
ROOT
ATOM      1  C   UNL     1      -1.603  14.617 -49.745  1.00  0.00     0.039 C 
ATOM      2  C   UNL     1      -2.309  14.631 -48.417  1.00  0.00    -0.077 C 
ATOM      3  C   UNL     1      -3.579  15.084 -48.355  1.00  0.00    -0.027 C 
ATOM      4  C   UNL     1      -4.389  15.089 -47.082  1.00  0.00     0.035 C 
ATOM      5  C   UNL     1      -3.499  15.070 -45.826  1.00  0.00     0.018 C 
ATOM      6  C   UNL     1      -2.429  13.976 -45.961  1.00  0.00     0.013 C 
ATOM      7  C   UNL     1      -1.528  14.261 -47.169  1.00  0.00     0.031 C 
ENDROOT
BRANCH   5   8
ATOM      8  C   UNL     1      -4.323  14.900 -44.556  1.00  0.00    -0.077 C 
ATOM      9  C   UNL     1      -5.100  15.893 -44.089  1.00  0.00     0.008 C 
ATOM     10  C   UNL     1      -4.285  13.598 -43.798  1.00  0.00     0.039 C 
ENDBRANCH   5   8
TORSDOF 1
ENDMDL
MODEL 9
REMARK VINA RESULT:    -4.715      9.596     11.277
REMARK INTER + INTRA:          -5.115
REMARK INTER:                  -4.991
REMARK INTRA:                  -0.125
REMARK UNBOUND:                -0.124
REMARK SMILES C=C(C)[C@@H]1CC=C(C)CC1
REMARK SMILES IDX 8 1 7 2 6 3 5 4 4 5 10 6 9 7 2 8 1 9 3 10
REMARK H PARENT
REMARK Flexibility Score: inf
ROOT
ATOM      1  C   UNL     1     -13.228  17.205 -39.792  1.00  0.00     0.039 C 
ATOM      2  C   UNL     1     -12.885  16.343 -40.976  1.00  0.00    -0.077 C 
ATOM      3  C   UNL     1     -13.658  16.409 -42.081  1.00  0.00    -0.027 C 
ATOM      4  C   UNL     1     -13.366  15.626 -43.337  1.00  0.00     0.035 C 
ATOM      5  C   UNL     1     -12.495  14.387 -43.061  1.00  0.00     0.018 C 
ATOM      6  C   UNL     1     -11.288  14.781 -42.195  1.00  0.00     0.013 C 
ATOM      7  C   UNL     1     -11.762  15.331 -40.844  1.00  0.00     0.031 C 
ENDROOT
BRANCH   5   8
ATOM      8  C   UNL     1     -12.064  13.705 -44.353  1.00  0.00    -0.077 C 
ATOM      9  C   UNL     1     -11.958  12.368 -44.435  1.00  0.00     0.008 C 
ATOM     10  C   UNL     1     -11.752  14.529 -45.575  1.00  0.00     0.039 C 
ENDBRANCH   5   8
TORSDOF 1
ENDMDL
