MODEL 1
REMARK VINA RESULT:    -3.099      0.000      0.000
REMARK INTER + INTRA:          -3.736
REMARK INTER:                  -3.733
REMARK INTRA:                  -0.003
REMARK UNBOUND:                -0.003
REMARK SMILES OCC(O)CO
REMARK SMILES IDX 3 1 5 2 6 3 2 5 1 6 4 8
REMARK H PARENT 6 4 1 7 4 9
REMARK Flexibility Score: inf
ROOT
ATOM      1  C   UNL     1      22.258 -41.209 -18.970  1.00  0.00     0.165 C 
ENDROOT
BRANCH   1   2
ATOM      2  C   UNL     1      21.896 -41.167 -20.464  1.00  0.00     0.190 C 
BRANCH   2   3
ATOM      3  O   UNL     1      20.506 -41.108 -20.637  1.00  0.00    -0.394 OA
ATOM      4  H   UNL     1      20.214 -42.038 -20.824  1.00  0.00     0.210 HD
ENDBRANCH   2   3
ENDBRANCH   1   2
BRANCH   1   5
ATOM      5  C   UNL     1      23.779 -41.284 -18.732  1.00  0.00     0.190 C 
BRANCH   5   6
ATOM      6  O   UNL     1      24.074 -42.111 -17.639  1.00  0.00    -0.394 OA
ATOM      7  H   UNL     1      24.760 -42.759 -17.949  1.00  0.00     0.210 HD
ENDBRANCH   5   6
ENDBRANCH   1   5
BRANCH   1   8
ATOM      8  O   UNL     1      21.704 -40.109 -18.294  1.00  0.00    -0.388 OA
ATOM      9  H   UNL     1      21.467 -39.423 -18.973  1.00  0.00     0.211 HD
ENDBRANCH   1   8
TORSDOF 5
ENDMDL
MODEL 2
REMARK VINA RESULT:    -2.933      0.726      3.060
REMARK INTER + INTRA:          -3.536
REMARK INTER:                  -3.534
REMARK INTRA:                  -0.002
REMARK UNBOUND:                -0.003
REMARK SMILES OCC(O)CO
REMARK SMILES IDX 3 1 5 2 6 3 2 5 1 6 4 8
REMARK H PARENT 6 4 1 7 4 9
REMARK Flexibility Score: inf
ROOT
ATOM      1  C   UNL     1      22.526 -40.652 -19.189  1.00  0.00     0.165 C 
ENDROOT
BRANCH   1   2
ATOM      2  C   UNL     1      23.427 -41.600 -18.379  1.00  0.00     0.190 C 
BRANCH   2   3
ATOM      3  O   UNL     1      24.736 -41.588 -18.878  1.00  0.00    -0.394 OA
ATOM      4  H   UNL     1      24.989 -40.632 -18.962  1.00  0.00     0.210 HD
ENDBRANCH   2   3
ENDBRANCH   1   2
BRANCH   1   5
ATOM      5  C   UNL     1      21.890 -41.342 -20.410  1.00  0.00     0.190 C 
BRANCH   5   6
ATOM      6  O   UNL     1      20.495 -41.198 -20.397  1.00  0.00    -0.394 OA
ATOM      7  H   UNL     1      20.263 -40.601 -21.156  1.00  0.00     0.210 HD
ENDBRANCH   5   6
ENDBRANCH   1   5
BRANCH   1   8
ATOM      8  O   UNL     1      21.536 -40.086 -18.366  1.00  0.00    -0.388 OA
ATOM      9  H   UNL     1      21.621 -39.098 -18.424  1.00  0.00     0.211 HD
ENDBRANCH   1   8
TORSDOF 5
ENDMDL
MODEL 3
REMARK VINA RESULT:    -2.832      1.279      3.129
REMARK INTER + INTRA:          -3.414
REMARK INTER:                  -3.196
REMARK INTRA:                  -0.218
REMARK UNBOUND:                -0.003
REMARK SMILES OCC(O)CO
REMARK SMILES IDX 3 1 5 2 6 3 2 5 1 6 4 8
REMARK H PARENT 6 4 1 7 4 9
REMARK Flexibility Score: inf
ROOT
ATOM      1  C   UNL     1      21.896 -41.372 -19.961  1.00  0.00     0.165 C 
ENDROOT
BRANCH   1   2
ATOM      2  C   UNL     1      23.037 -40.916 -19.035  1.00  0.00     0.190 C 
BRANCH   2   3
ATOM      3  O   UNL     1      22.998 -41.613 -17.819  1.00  0.00    -0.394 OA
ATOM      4  H   UNL     1      22.694 -42.532 -18.039  1.00  0.00     0.210 HD
ENDBRANCH   2   3
ENDBRANCH   1   2
BRANCH   1   5
ATOM      5  C   UNL     1      20.571 -40.644 -19.666  1.00  0.00     0.190 C 
BRANCH   5   6
ATOM      6  O   UNL     1      20.701 -39.796 -18.557  1.00  0.00    -0.394 OA
ATOM      7  H   UNL     1      19.912 -39.193 -18.565  1.00  0.00     0.210 HD
ENDBRANCH   5   6
ENDBRANCH   1   5
BRANCH   1   8
ATOM      8  O   UNL     1      22.259 -41.215 -21.310  1.00  0.00    -0.388 OA
ATOM      9  H   UNL     1      21.447 -41.362 -21.863  1.00  0.00     0.211 HD
ENDBRANCH   1   8
TORSDOF 5
ENDMDL
MODEL 4
REMARK VINA RESULT:    -2.177      1.396      2.006
REMARK INTER + INTRA:          -2.626
REMARK INTER:                  -2.622
REMARK INTRA:                  -0.004
REMARK UNBOUND:                -0.003
REMARK SMILES OCC(O)CO
REMARK SMILES IDX 3 1 5 2 6 3 2 5 1 6 4 8
REMARK H PARENT 6 4 1 7 4 9
REMARK Flexibility Score: inf
ROOT
ATOM      1  C   UNL     1      22.216 -40.748 -19.790  1.00  0.00     0.165 C 
ENDROOT
BRANCH   1   2
ATOM      2  C   UNL     1      20.755 -40.594 -19.333  1.00  0.00     0.190 C 
BRANCH   2   3
ATOM      3  O   UNL     1      20.648 -39.610 -18.339  1.00  0.00    -0.394 OA
ATOM      4  H   UNL     1      19.858 -39.858 -17.792  1.00  0.00     0.210 HD
ENDBRANCH   2   3
ENDBRANCH   1   2
BRANCH   1   5
ATOM      5  C   UNL     1      23.123 -41.323 -18.685  1.00  0.00     0.190 C 
BRANCH   5   6
ATOM      6  O   UNL     1      24.474 -41.232 -19.049  1.00  0.00    -0.394 OA
ATOM      7  H   UNL     1      24.960 -40.888 -18.254  1.00  0.00     0.210 HD
ENDBRANCH   5   6
ENDBRANCH   1   5
BRANCH   1   8
ATOM      8  O   UNL     1      22.291 -41.534 -20.953  1.00  0.00    -0.388 OA
ATOM      9  H   UNL     1      22.764 -41.005 -21.648  1.00  0.00     0.211 HD
ENDBRANCH   1   8
TORSDOF 5
ENDMDL
MODEL 5
REMARK VINA RESULT:    -2.147     10.757     11.766
REMARK INTER + INTRA:          -2.588
REMARK INTER:                  -2.570
REMARK INTRA:                  -0.018
REMARK UNBOUND:                -0.003
REMARK SMILES OCC(O)CO
REMARK SMILES IDX 3 1 5 2 6 3 2 5 1 6 4 8
REMARK H PARENT 6 4 1 7 4 9
REMARK Flexibility Score: inf
ROOT
ATOM      1  C   UNL     1      14.325 -33.720 -19.583  1.00  0.00     0.165 C 
ENDROOT
BRANCH   1   2
ATOM      2  C   UNL     1      13.509 -32.959 -18.524  1.00  0.00     0.190 C 
BRANCH   2   3
ATOM      3  O   UNL     1      12.377 -32.366 -19.101  1.00  0.00    -0.394 OA
ATOM      4  H   UNL     1      12.531 -31.387 -19.064  1.00  0.00     0.210 HD
ENDBRANCH   2   3
ENDBRANCH   1   2
BRANCH   1   5
ATOM      5  C   UNL     1      13.849 -33.427 -21.018  1.00  0.00     0.190 C 
BRANCH   5   6
ATOM      6  O   UNL     1      13.911 -34.581 -21.812  1.00  0.00    -0.394 OA
ATOM      7  H   UNL     1      13.787 -34.288 -22.753  1.00  0.00     0.210 HD
ENDBRANCH   5   6
ENDBRANCH   1   5
BRANCH   1   8
ATOM      8  O   UNL     1      15.696 -33.440 -19.448  1.00  0.00    -0.388 OA
ATOM      9  H   UNL     1      16.102 -33.461 -20.354  1.00  0.00     0.211 HD
ENDBRANCH   1   8
TORSDOF 5
ENDMDL
MODEL 6
REMARK VINA RESULT:    -1.984     10.802     11.674
REMARK INTER + INTRA:          -2.393
REMARK INTER:                  -2.374
REMARK INTRA:                  -0.018
REMARK UNBOUND:                -0.003
REMARK SMILES OCC(O)CO
REMARK SMILES IDX 3 1 5 2 6 3 2 5 1 6 4 8
REMARK H PARENT 6 4 1 7 4 9
REMARK Flexibility Score: inf
ROOT
ATOM      1  C   UNL     1      14.494 -33.082 -19.845  1.00  0.00     0.165 C 
ENDROOT
BRANCH   1   2
ATOM      2  C   UNL     1      13.882 -33.504 -21.192  1.00  0.00     0.190 C 
BRANCH   2   3
ATOM      3  O   UNL     1      14.090 -34.872 -21.423  1.00  0.00    -0.394 OA
ATOM      4  H   UNL     1      14.481 -35.235 -20.587  1.00  0.00     0.210 HD
ENDBRANCH   2   3
ENDBRANCH   1   2
BRANCH   1   5
ATOM      5  C   UNL     1      13.459 -33.072 -18.704  1.00  0.00     0.190 C 
BRANCH   5   6
ATOM      6  O   UNL     1      12.277 -32.433 -19.106  1.00  0.00    -0.394 OA
ATOM      7  H   UNL     1      11.528 -32.925 -18.677  1.00  0.00     0.210 HD
ENDBRANCH   5   6
ENDBRANCH   1   5
BRANCH   1   8
ATOM      8  O   UNL     1      15.587 -33.903 -19.517  1.00  0.00    -0.388 OA
ATOM      9  H   UNL     1      16.281 -33.779 -20.217  1.00  0.00     0.211 HD
ENDBRANCH   1   8
TORSDOF 5
ENDMDL
MODEL 7
REMARK VINA RESULT:    -1.816     10.923     11.685
REMARK INTER + INTRA:          -2.191
REMARK INTER:                  -1.977
REMARK INTRA:                  -0.214
REMARK UNBOUND:                -0.003
REMARK SMILES OCC(O)CO
REMARK SMILES IDX 3 1 5 2 6 3 2 5 1 6 4 8
REMARK H PARENT 6 4 1 7 4 9
REMARK Flexibility Score: inf
ROOT
ATOM      1  C   UNL     1      13.137 -33.313 -19.558  1.00  0.00     0.165 C 
ENDROOT
BRANCH   1   2
ATOM      2  C   UNL     1      13.569 -33.216 -21.031  1.00  0.00     0.190 C 
BRANCH   2   3
ATOM      3  O   UNL     1      14.049 -34.451 -21.489  1.00  0.00    -0.394 OA
ATOM      4  H   UNL     1      13.902 -35.095 -20.749  1.00  0.00     0.210 HD
ENDBRANCH   2   3
ENDBRANCH   1   2
BRANCH   1   5
ATOM      5  C   UNL     1      14.336 -33.330 -18.591  1.00  0.00     0.190 C 
BRANCH   5   6
ATOM      6  O   UNL     1      15.539 -33.510 -19.288  1.00  0.00    -0.394 OA
ATOM      7  H   UNL     1      15.573 -34.466 -19.556  1.00  0.00     0.210 HD
ENDBRANCH   5   6
ENDBRANCH   1   5
BRANCH   1   8
ATOM      8  O   UNL     1      12.251 -32.271 -19.232  1.00  0.00    -0.388 OA
ATOM      9  H   UNL     1      11.867 -32.467 -18.337  1.00  0.00     0.211 HD
ENDBRANCH   1   8
TORSDOF 5
ENDMDL
MODEL 8
REMARK VINA RESULT:    -1.456     10.645     11.699
REMARK INTER + INTRA:          -1.756
REMARK INTER:                  -1.576
REMARK INTRA:                  -0.181
REMARK UNBOUND:                -0.003
REMARK SMILES OCC(O)CO
REMARK SMILES IDX 3 1 5 2 6 3 2 5 1 6 4 8
REMARK H PARENT 6 4 1 7 4 9
REMARK Flexibility Score: inf
ROOT
ATOM      1  C   UNL     1      13.602 -32.798 -19.857  1.00  0.00     0.165 C 
ENDROOT
BRANCH   1   2
ATOM      2  C   UNL     1      14.512 -33.530 -18.856  1.00  0.00     0.190 C 
BRANCH   2   3
ATOM      3  O   UNL     1      15.785 -33.740 -19.404  1.00  0.00    -0.394 OA
ATOM      4  H   UNL     1      16.377 -33.972 -18.642  1.00  0.00     0.210 HD
ENDBRANCH   2   3
ENDBRANCH   1   2
BRANCH   1   5
ATOM      5  C   UNL     1      13.754 -33.334 -21.294  1.00  0.00     0.190 C 
BRANCH   5   6
ATOM      6  O   UNL     1      14.099 -34.693 -21.287  1.00  0.00    -0.394 OA
ATOM      7  H   UNL     1      13.452 -35.148 -20.687  1.00  0.00     0.210 HD
ENDBRANCH   5   6
ENDBRANCH   1   5
BRANCH   1   8
ATOM      8  O   UNL     1      12.260 -32.858 -19.443  1.00  0.00    -0.388 OA
ATOM      9  H   UNL     1      11.906 -31.931 -19.423  1.00  0.00     0.211 HD
ENDBRANCH   1   8
TORSDOF 5
ENDMDL
MODEL 9
REMARK VINA RESULT:    -1.290      1.512      2.261
REMARK INTER + INTRA:          -1.556
REMARK INTER:                  -1.355
REMARK INTRA:                  -0.201
REMARK UNBOUND:                -0.003
REMARK SMILES OCC(O)CO
REMARK SMILES IDX 3 1 5 2 6 3 2 5 1 6 4 8
REMARK H PARENT 6 4 1 7 4 9
REMARK Flexibility Score: inf
ROOT
ATOM      1  C   UNL     1      21.927 -41.170 -19.267  1.00  0.00     0.165 C 
ENDROOT
BRANCH   1   2
ATOM      2  C   UNL     1      20.477 -40.809 -19.636  1.00  0.00     0.190 C 
BRANCH   2   3
ATOM      3  O   UNL     1      19.747 -41.961 -19.961  1.00  0.00    -0.394 OA
ATOM      4  H   UNL     1      18.846 -41.835 -19.567  1.00  0.00     0.210 HD
ENDBRANCH   2   3
ENDBRANCH   1   2
BRANCH   1   5
ATOM      5  C   UNL     1      22.849 -41.244 -20.498  1.00  0.00     0.190 C 
BRANCH   5   6
ATOM      6  O   UNL     1      22.135 -40.972 -21.675  1.00  0.00    -0.394 OA
ATOM      7  H   UNL     1      22.791 -41.007 -22.420  1.00  0.00     0.210 HD
ENDBRANCH   5   6
ENDBRANCH   1   5
BRANCH   1   8
ATOM      8  O   UNL     1      22.436 -40.265 -18.319  1.00  0.00    -0.388 OA
ATOM      9  H   UNL     1      22.489 -40.737 -17.446  1.00  0.00     0.211 HD
ENDBRANCH   1   8
TORSDOF 5
ENDMDL
