MODEL 1
REMARK VINA RESULT:    -3.953      0.000      0.000
REMARK INTER + INTRA:          -6.781
REMARK INTER:                  -6.032
REMARK INTRA:                  -0.749
REMARK UNBOUND:                -0.749
REMARK SMILES O=C([O-])CCCCCCCCC(=O)[O-]
REMARK SMILES IDX 7 1 6 2 5 3 4 4 2 5 1 6 3 7 8 8 9 9 10 10 11 11 12 12 13 13
REMARK SMILES IDX 14 14
REMARK H PARENT
REMARK Flexibility Score: inf
ROOT
ATOM      1  C   UNL     1      95.953   6.029  22.298  1.00  0.00     0.000 C 
ENDROOT
BRANCH   1   2
ATOM      2  C   UNL     1      97.456   6.187  22.606  1.00  0.00     0.000 C 
BRANCH   2   3
ATOM      3  C   UNL     1      98.359   6.405  21.376  1.00  0.00     0.006 C 
BRANCH   3   4
ATOM      4  C   UNL     1      97.959   7.602  20.499  1.00  0.00     0.053 C 
BRANCH   4   5
ATOM      5  C   UNL     1      97.548   7.176  19.123  1.00  0.00     0.041 C 
ATOM      6  O   UNL     1      96.331   7.169  18.799  1.00  0.00    -0.550 OA
ATOM      7  O   UNL     1      98.511   6.819  18.187  1.00  0.00    -0.550 OA
ENDBRANCH   4   5
ENDBRANCH   3   4
ENDBRANCH   2   3
ENDBRANCH   1   2
BRANCH   1   8
ATOM      8  C   UNL     1      95.006   6.479  23.425  1.00  0.00     0.000 C 
BRANCH   8   9
ATOM      9  C   UNL     1      95.685   6.491  24.805  1.00  0.00     0.000 C 
BRANCH   9  10
ATOM     10  C   UNL     1      95.426   5.194  25.599  1.00  0.00     0.006 C 
BRANCH  10  11
ATOM     11  C   UNL     1      96.695   4.364  25.849  1.00  0.00     0.053 C 
BRANCH  11  12
ATOM     12  C   UNL     1      96.755   3.145  24.984  1.00  0.00     0.041 C 
ATOM     13  O   UNL     1      95.924   2.986  24.052  1.00  0.00    -0.550 OA
ATOM     14  O   UNL     1      97.717   2.170  25.221  1.00  0.00    -0.550 OA
ENDBRANCH  11  12
ENDBRANCH  10  11
ENDBRANCH   9  10
ENDBRANCH   8   9
ENDBRANCH   1   8
TORSDOF 9
ENDMDL
MODEL 2
REMARK VINA RESULT:    -3.946      3.630      5.598
REMARK INTER + INTRA:          -6.771
REMARK INTER:                  -5.838
REMARK INTRA:                  -0.933
REMARK UNBOUND:                -0.749
REMARK SMILES O=C([O-])CCCCCCCCC(=O)[O-]
REMARK SMILES IDX 7 1 6 2 5 3 4 4 2 5 1 6 3 7 8 8 9 9 10 10 11 11 12 12 13 13
REMARK SMILES IDX 14 14
REMARK H PARENT
REMARK Flexibility Score: inf
ROOT
ATOM      1  C   UNL     1     100.187   3.433  23.790  1.00  0.00     0.000 C 
ENDROOT
BRANCH   1   2
ATOM      2  C   UNL     1      99.414   4.558  23.074  1.00  0.00     0.000 C 
BRANCH   2   3
ATOM      3  C   UNL     1      98.282   5.204  23.897  1.00  0.00     0.006 C 
BRANCH   3   4
ATOM      4  C   UNL     1      96.866   4.842  23.420  1.00  0.00     0.053 C 
BRANCH   4   5
ATOM      5  C   UNL     1      96.219   3.824  24.309  1.00  0.00     0.041 C 
ATOM      6  O   UNL     1      96.022   4.081  25.526  1.00  0.00    -0.550 OA
ATOM      7  O   UNL     1      95.803   2.606  23.786  1.00  0.00    -0.550 OA
ENDBRANCH   4   5
ENDBRANCH   3   4
ENDBRANCH   2   3
ENDBRANCH   1   2
BRANCH   1   8
ATOM      8  C   UNL     1     100.093   3.454  25.327  1.00  0.00     0.000 C 
BRANCH   8   9
ATOM      9  C   UNL     1      99.379   2.216  25.898  1.00  0.00     0.000 C 
BRANCH   9  10
ATOM     10  C   UNL     1      99.008   1.195  24.802  1.00  0.00     0.006 C 
BRANCH  10  11
ATOM     11  C   UNL     1      99.782  -0.128  24.908  1.00  0.00     0.053 C 
BRANCH  11  12
ATOM     12  C   UNL     1     100.765  -0.301  23.794  1.00  0.00     0.041 C 
ATOM     13  O   UNL     1     101.916   0.203  23.880  1.00  0.00    -0.550 OA
ATOM     14  O   UNL     1     100.404  -1.000  22.649  1.00  0.00    -0.550 OA
ENDBRANCH  11  12
ENDBRANCH  10  11
ENDBRANCH   9  10
ENDBRANCH   8   9
ENDBRANCH   1   8
TORSDOF 9
ENDMDL
MODEL 3
REMARK VINA RESULT:    -3.924      3.526      5.025
REMARK INTER + INTRA:          -6.737
REMARK INTER:                  -6.047
REMARK INTRA:                  -0.690
REMARK UNBOUND:                -0.749
REMARK SMILES O=C([O-])CCCCCCCCC(=O)[O-]
REMARK SMILES IDX 7 1 6 2 5 3 4 4 2 5 1 6 3 7 8 8 9 9 10 10 11 11 12 12 13 13
REMARK SMILES IDX 14 14
REMARK H PARENT
REMARK Flexibility Score: inf
ROOT
ATOM      1  C   UNL     1      98.760   5.450  22.740  1.00  0.00     0.000 C 
ENDROOT
BRANCH   1   2
ATOM      2  C   UNL     1      98.867   4.120  23.512  1.00  0.00     0.000 C 
BRANCH   2   3
ATOM      3  C   UNL     1     100.276   3.495  23.550  1.00  0.00     0.006 C 
BRANCH   3   4
ATOM      4  C   UNL     1     100.288   1.958  23.577  1.00  0.00     0.053 C 
BRANCH   4   5
ATOM      5  C   UNL     1      99.248   1.406  24.504  1.00  0.00     0.041 C 
ATOM      6  O   UNL     1      99.394   1.508  25.751  1.00  0.00    -0.550 OA
ATOM      7  O   UNL     1      98.103   0.810  23.992  1.00  0.00    -0.550 OA
ENDBRANCH   4   5
ENDBRANCH   3   4
ENDBRANCH   2   3
ENDBRANCH   1   2
BRANCH   1   8
ATOM      8  C   UNL     1      97.328   5.986  22.560  1.00  0.00     0.000 C 
BRANCH   8   9
ATOM      9  C   UNL     1      96.276   5.134  23.292  1.00  0.00     0.000 C 
BRANCH   9  10
ATOM     10  C   UNL     1      95.398   5.974  24.243  1.00  0.00     0.006 C 
BRANCH  10  11
ATOM     11  C   UNL     1      95.417   5.476  25.696  1.00  0.00     0.053 C 
BRANCH  11  12
ATOM     12  C   UNL     1      96.800   5.432  26.263  1.00  0.00     0.041 C 
ATOM     13  O   UNL     1      97.493   6.481  26.327  1.00  0.00    -0.550 OA
ATOM     14  O   UNL     1      97.336   4.227  26.701  1.00  0.00    -0.550 OA
ENDBRANCH  11  12
ENDBRANCH  10  11
ENDBRANCH   9  10
ENDBRANCH   8   9
ENDBRANCH   1   8
TORSDOF 9
ENDMDL
MODEL 4
REMARK VINA RESULT:    -3.919      2.034      3.297
REMARK INTER + INTRA:          -6.730
REMARK INTER:                  -5.661
REMARK INTRA:                  -1.069
REMARK UNBOUND:                -0.749
REMARK SMILES O=C([O-])CCCCCCCCC(=O)[O-]
REMARK SMILES IDX 7 1 6 2 5 3 4 4 2 5 1 6 3 7 8 8 9 9 10 10 11 11 12 12 13 13
REMARK SMILES IDX 14 14
REMARK H PARENT
REMARK Flexibility Score: inf
ROOT
ATOM      1  C   UNL     1      96.335   6.283  25.927  1.00  0.00     0.000 C 
ENDROOT
BRANCH   1   2
ATOM      2  C   UNL     1      95.301   5.697  24.946  1.00  0.00     0.000 C 
BRANCH   2   3
ATOM      3  C   UNL     1      95.306   6.323  23.536  1.00  0.00     0.006 C 
BRANCH   3   4
ATOM      4  C   UNL     1      96.327   5.702  22.569  1.00  0.00     0.053 C 
BRANCH   4   5
ATOM      5  C   UNL     1      97.563   6.538  22.448  1.00  0.00     0.041 C 
ATOM      6  O   UNL     1      97.583   7.710  22.908  1.00  0.00    -0.550 OA
ATOM      7  O   UNL     1      98.705   6.012  21.856  1.00  0.00    -0.550 OA
ENDBRANCH   4   5
ENDBRANCH   3   4
ENDBRANCH   2   3
ENDBRANCH   1   2
BRANCH   1   8
ATOM      8  C   UNL     1      97.277   5.252  26.575  1.00  0.00     0.000 C 
BRANCH   8   9
ATOM      9  C   UNL     1      98.593   5.075  25.797  1.00  0.00     0.000 C 
BRANCH   9  10
ATOM     10  C   UNL     1      98.564   3.846  24.865  1.00  0.00     0.006 C 
BRANCH  10  11
ATOM     11  C   UNL     1      97.678   2.703  25.385  1.00  0.00     0.053 C 
BRANCH  11  12
ATOM     12  C   UNL     1      97.072   1.905  24.274  1.00  0.00     0.041 C 
ATOM     13  O   UNL     1      97.647   0.869  23.849  1.00  0.00    -0.550 OA
ATOM     14  O   UNL     1      95.880   2.319  23.689  1.00  0.00    -0.550 OA
ENDBRANCH  11  12
ENDBRANCH  10  11
ENDBRANCH   9  10
ENDBRANCH   8   9
ENDBRANCH   1   8
TORSDOF 9
ENDMDL
MODEL 5
REMARK VINA RESULT:    -3.907      4.904      7.099
REMARK INTER + INTRA:          -6.712
REMARK INTER:                  -5.845
REMARK INTRA:                  -0.866
REMARK UNBOUND:                -0.749
REMARK SMILES O=C([O-])CCCCCCCCC(=O)[O-]
REMARK SMILES IDX 7 1 6 2 5 3 4 4 2 5 1 6 3 7 8 8 9 9 10 10 11 11 12 12 13 13
REMARK SMILES IDX 14 14
REMARK H PARENT
REMARK Flexibility Score: inf
ROOT
ATOM      1  C   UNL     1     101.477  -0.305  23.045  1.00  0.00     0.000 C 
ENDROOT
BRANCH   1   2
ATOM      2  C   UNL     1     102.954  -0.008  23.373  1.00  0.00     0.000 C 
BRANCH   2   3
ATOM      3  C   UNL     1     103.279   1.472  23.656  1.00  0.00     0.006 C 
BRANCH   3   4
ATOM      4  C   UNL     1     103.032   1.910  25.109  1.00  0.00     0.053 C 
BRANCH   4   5
ATOM      5  C   UNL     1     101.850   2.821  25.226  1.00  0.00     0.041 C 
ATOM      6  O   UNL     1     101.367   3.090  26.358  1.00  0.00    -0.550 OA
ATOM      7  O   UNL     1     101.300   3.401  24.090  1.00  0.00    -0.550 OA
ENDBRANCH   4   5
ENDBRANCH   3   4
ENDBRANCH   2   3
ENDBRANCH   1   2
BRANCH   1   8
ATOM      8  C   UNL     1     100.693  -1.023  24.159  1.00  0.00     0.000 C 
BRANCH   8   9
ATOM      9  C   UNL     1      99.750  -0.081  24.926  1.00  0.00     0.000 C 
BRANCH   9  10
ATOM     10  C   UNL     1      98.899   0.794  23.983  1.00  0.00     0.006 C 
BRANCH  10  11
ATOM     11  C   UNL     1      98.022   1.818  24.720  1.00  0.00     0.053 C 
BRANCH  11  12
ATOM     12  C   UNL     1      96.697   2.015  24.053  1.00  0.00     0.041 C 
ATOM     13  O   UNL     1      96.124   1.050  23.482  1.00  0.00    -0.550 OA
ATOM     14  O   UNL     1      96.103   3.272  24.041  1.00  0.00    -0.550 OA
ENDBRANCH  11  12
ENDBRANCH  10  11
ENDBRANCH   9  10
ENDBRANCH   8   9
ENDBRANCH   1   8
TORSDOF 9
ENDMDL
MODEL 6
REMARK VINA RESULT:    -3.889      3.214      4.116
REMARK INTER + INTRA:          -6.683
REMARK INTER:                  -5.794
REMARK INTRA:                  -0.889
REMARK UNBOUND:                -0.749
REMARK SMILES O=C([O-])CCCCCCCCC(=O)[O-]
REMARK SMILES IDX 7 1 6 2 5 3 4 4 2 5 1 6 3 7 8 8 9 9 10 10 11 11 12 12 13 13
REMARK SMILES IDX 14 14
REMARK H PARENT
REMARK Flexibility Score: inf
ROOT
ATOM      1  C   UNL     1      97.267   6.364  22.341  1.00  0.00     0.000 C 
ENDROOT
BRANCH   1   2
ATOM      2  C   UNL     1      98.684   5.772  22.476  1.00  0.00     0.000 C 
BRANCH   2   3
ATOM      3  C   UNL     1      98.749   4.357  23.086  1.00  0.00     0.006 C 
BRANCH   3   4
ATOM      4  C   UNL     1     100.079   4.028  23.783  1.00  0.00     0.053 C 
BRANCH   4   5
ATOM      5  C   UNL     1     100.468   2.593  23.598  1.00  0.00     0.041 C 
ATOM      6  O   UNL     1     101.399   2.287  22.807  1.00  0.00    -0.550 OA
ATOM      7  O   UNL     1      99.825   1.597  24.322  1.00  0.00    -0.550 OA
ENDBRANCH   4   5
ENDBRANCH   3   4
ENDBRANCH   2   3
ENDBRANCH   1   2
BRANCH   1   8
ATOM      8  C   UNL     1      96.144   5.515  22.965  1.00  0.00     0.000 C 
BRANCH   8   9
ATOM      9  C   UNL     1      95.491   6.193  24.182  1.00  0.00     0.000 C 
BRANCH   9  10
ATOM     10  C   UNL     1      95.493   5.285  25.430  1.00  0.00     0.006 C 
BRANCH  10  11
ATOM     11  C   UNL     1      96.861   5.196  26.122  1.00  0.00     0.053 C 
BRANCH  11  12
ATOM     12  C   UNL     1      97.280   3.782  26.373  1.00  0.00     0.041 C 
ATOM     13  O   UNL     1      96.833   2.851  25.652  1.00  0.00    -0.550 OA
ATOM     14  O   UNL     1      98.146   3.487  27.419  1.00  0.00    -0.550 OA
ENDBRANCH  11  12
ENDBRANCH  10  11
ENDBRANCH   9  10
ENDBRANCH   8   9
ENDBRANCH   1   8
TORSDOF 9
ENDMDL
MODEL 7
REMARK VINA RESULT:    -3.865      3.615      6.047
REMARK INTER + INTRA:          -6.647
REMARK INTER:                  -5.800
REMARK INTRA:                  -0.846
REMARK UNBOUND:                -0.749
REMARK SMILES O=C([O-])CCCCCCCCC(=O)[O-]
REMARK SMILES IDX 7 1 6 2 5 3 4 4 2 5 1 6 3 7 8 8 9 9 10 10 11 11 12 12 13 13
REMARK SMILES IDX 14 14
REMARK H PARENT
REMARK Flexibility Score: inf
ROOT
ATOM      1  C   UNL     1      99.652   3.244  25.088  1.00  0.00     0.000 C 
ENDROOT
BRANCH   1   2
ATOM      2  C   UNL     1      99.896   3.236  23.565  1.00  0.00     0.000 C 
BRANCH   2   3
ATOM      3  C   UNL     1     101.071   2.356  23.094  1.00  0.00     0.006 C 
BRANCH   3   4
ATOM      4  C   UNL     1     101.445   1.223  24.064  1.00  0.00     0.053 C 
BRANCH   4   5
ATOM      5  C   UNL     1     100.604   0.003  23.851  1.00  0.00     0.041 C 
ATOM      6  O   UNL     1     100.594  -0.572  22.730  1.00  0.00    -0.550 OA
ATOM      7  O   UNL     1      99.856  -0.521  24.898  1.00  0.00    -0.550 OA
ENDBRANCH   4   5
ENDBRANCH   3   4
ENDBRANCH   2   3
ENDBRANCH   1   2
BRANCH   1   8
ATOM      8  C   UNL     1      98.286   2.689  25.532  1.00  0.00     0.000 C 
BRANCH   8   9
ATOM      9  C   UNL     1      97.461   2.127  24.361  1.00  0.00     0.000 C 
BRANCH   9  10
ATOM     10  C   UNL     1      96.140   2.897  24.151  1.00  0.00     0.006 C 
BRANCH  10  11
ATOM     11  C   UNL     1      96.341   4.341  23.668  1.00  0.00     0.053 C 
BRANCH  11  12
ATOM     12  C   UNL     1      95.582   5.328  24.497  1.00  0.00     0.041 C 
ATOM     13  O   UNL     1      95.042   6.328  23.956  1.00  0.00    -0.550 OA
ATOM     14  O   UNL     1      95.489   5.156  25.873  1.00  0.00    -0.550 OA
ENDBRANCH  11  12
ENDBRANCH  10  11
ENDBRANCH   9  10
ENDBRANCH   8   9
ENDBRANCH   1   8
TORSDOF 9
ENDMDL
MODEL 8
REMARK VINA RESULT:    -3.860      2.624      3.848
REMARK INTER + INTRA:          -6.639
REMARK INTER:                  -5.715
REMARK INTRA:                  -0.924
REMARK UNBOUND:                -0.749
REMARK SMILES O=C([O-])CCCCCCCCC(=O)[O-]
REMARK SMILES IDX 7 1 6 2 5 3 4 4 2 5 1 6 3 7 8 8 9 9 10 10 11 11 12 12 13 13
REMARK SMILES IDX 14 14
REMARK H PARENT
REMARK Flexibility Score: inf
ROOT
ATOM      1  C   UNL     1      96.110   3.911  25.040  1.00  0.00     0.000 C 
ENDROOT
BRANCH   1   2
ATOM      2  C   UNL     1      95.572   5.343  25.234  1.00  0.00     0.000 C 
BRANCH   2   3
ATOM      3  C   UNL     1      95.421   6.168  23.940  1.00  0.00     0.006 C 
BRANCH   3   4
ATOM      4  C   UNL     1      96.276   5.668  22.765  1.00  0.00     0.053 C 
BRANCH   4   5
ATOM      5  C   UNL     1      97.362   6.636  22.411  1.00  0.00     0.041 C 
ATOM      6  O   UNL     1      97.445   7.741  23.010  1.00  0.00    -0.550 OA
ATOM      7  O   UNL     1      98.303   6.305  21.444  1.00  0.00    -0.550 OA
ENDBRANCH   4   5
ENDBRANCH   3   4
ENDBRANCH   2   3
ENDBRANCH   1   2
BRANCH   1   8
ATOM      8  C   UNL     1      97.428   3.605  25.775  1.00  0.00     0.000 C 
BRANCH   8   9
ATOM      9  C   UNL     1      98.424   4.776  25.726  1.00  0.00     0.000 C 
BRANCH   9  10
ATOM     10  C   UNL     1      99.744   4.396  25.023  1.00  0.00     0.006 C 
BRANCH  10  11
ATOM     11  C   UNL     1      99.544   3.823  23.611  1.00  0.00     0.053 C 
BRANCH  11  12
ATOM     12  C   UNL     1     100.209   2.494  23.438  1.00  0.00     0.041 C 
ATOM     13  O   UNL     1     101.354   2.420  22.919  1.00  0.00    -0.550 OA
ATOM     14  O   UNL     1      99.555   1.332  23.829  1.00  0.00    -0.550 OA
ENDBRANCH  11  12
ENDBRANCH  10  11
ENDBRANCH   9  10
ENDBRANCH   8   9
ENDBRANCH   1   8
TORSDOF 9
ENDMDL
MODEL 9
REMARK VINA RESULT:    -3.852      3.230      4.882
REMARK INTER + INTRA:          -6.627
REMARK INTER:                  -5.822
REMARK INTRA:                  -0.805
REMARK UNBOUND:                -0.749
REMARK SMILES O=C([O-])CCCCCCCCC(=O)[O-]
REMARK SMILES IDX 7 1 6 2 5 3 4 4 2 5 1 6 3 7 8 8 9 9 10 10 11 11 12 12 13 13
REMARK SMILES IDX 14 14
REMARK H PARENT
REMARK Flexibility Score: inf
ROOT
ATOM      1  C   UNL     1      99.137   5.215  22.483  1.00  0.00     0.000 C 
ENDROOT
BRANCH   1   2
ATOM      2  C   UNL     1      98.048   6.024  23.216  1.00  0.00     0.000 C 
BRANCH   2   3
ATOM      3  C   UNL     1      96.597   5.653  22.849  1.00  0.00     0.006 C 
BRANCH   3   4
ATOM      4  C   UNL     1      95.723   5.250  24.048  1.00  0.00     0.053 C 
BRANCH   4   5
ATOM      5  C   UNL     1      96.149   3.939  24.635  1.00  0.00     0.041 C 
ATOM      6  O   UNL     1      96.521   3.874  25.836  1.00  0.00    -0.550 OA
ATOM      7  O   UNL     1      96.102   2.783  23.866  1.00  0.00    -0.550 OA
ENDBRANCH   4   5
ENDBRANCH   3   4
ENDBRANCH   2   3
ENDBRANCH   1   2
BRANCH   1   8
ATOM      8  C   UNL     1      99.630   3.961  23.228  1.00  0.00     0.000 C 
BRANCH   8   9
ATOM      9  C   UNL     1      99.931   4.229  24.712  1.00  0.00     0.000 C 
BRANCH   9  10
ATOM     10  C   UNL     1     100.405   2.962  25.454  1.00  0.00     0.006 C 
BRANCH  10  11
ATOM     11  C   UNL     1      99.313   1.891  25.599  1.00  0.00     0.053 C 
BRANCH  11  12
ATOM     12  C   UNL     1      99.537   0.725  24.689  1.00  0.00     0.041 C 
ATOM     13  O   UNL     1      98.657   0.396  23.850  1.00  0.00    -0.550 OA
ATOM     14  O   UNL     1     100.709  -0.016  24.782  1.00  0.00    -0.550 OA
ENDBRANCH  11  12
ENDBRANCH  10  11
ENDBRANCH   9  10
ENDBRANCH   8   9
ENDBRANCH   1   8
TORSDOF 9
ENDMDL
