MODEL 1
REMARK VINA RESULT:    -5.960      0.000      0.000
REMARK INTER + INTRA:          -7.727
REMARK INTER:                  -7.354
REMARK INTRA:                  -0.373
REMARK UNBOUND:                -0.373
REMARK SMILES Oc1cc(O)c2cc(O)c(-c3cc(O)c(O)c(O)c3)[o+]c2c1
REMARK SMILES IDX 10 1 20 2 21 3 22 4 2 5 3 6 4 7 6 8 7 9 8 10 11 11 12 12
REMARK SMILES IDX 13 13 19 14 15 15 17 16 14 17 16 19 18 21 9 23 1 25 5 27
REMARK H PARENT 14 18 16 20 18 22 9 24 1 26 5 28
REMARK Flexibility Score: inf
ROOT
ATOM      1  C   UNL     1     -40.982  74.713  30.375  1.00  0.00     0.402 A 
ATOM      2  O   UNL     1     -41.291  73.703  31.184  1.00  0.00    -0.202 OA
ATOM      3  C   UNL     1     -41.099  73.735  32.498  1.00  0.00     0.368 A 
ATOM      4  C   UNL     1     -41.459  72.624  33.266  1.00  0.00     0.162 A 
ATOM      5  C   UNL     1     -41.272  72.631  34.648  1.00  0.00     0.128 A 
ATOM      6  C   UNL     1     -40.722  73.757  35.270  1.00  0.00     0.093 A 
ATOM      7  C   UNL     1     -40.353  74.883  34.525  1.00  0.00     0.136 A 
ATOM      8  C   UNL     1     -40.539  74.879  33.118  1.00  0.00     0.125 A 
ATOM      9  C   UNL     1     -40.187  75.956  32.289  1.00  0.00     0.078 A 
ATOM     10  C   UNL     1     -40.397  75.876  30.909  1.00  0.00     0.223 A 
ENDROOT
BRANCH   1  11
ATOM     11  C   UNL     1     -41.253  74.561  28.927  1.00  0.00     0.091 A 
ATOM     12  C   UNL     1     -42.505  74.931  28.418  1.00  0.00     0.068 A 
ATOM     13  C   UNL     1     -42.780  74.815  27.050  1.00  0.00     0.162 A 
ATOM     14  C   UNL     1     -40.263  74.108  28.041  1.00  0.00     0.068 A 
ATOM     15  C   UNL     1     -41.799  74.341  26.169  1.00  0.00     0.200 A 
ATOM     16  C   UNL     1     -40.523  73.991  26.671  1.00  0.00     0.162 A 
BRANCH  13  17
ATOM     17  O   UNL     1     -44.035  75.170  26.556  1.00  0.00    -0.504 OA
ATOM     18  H   UNL     1     -44.875  74.676  26.836  1.00  0.00     0.293 HD
ENDBRANCH  13  17
BRANCH  15  19
ATOM     19  O   UNL     1     -42.128  74.237  24.815  1.00  0.00    -0.502 OA
ATOM     20  H   UNL     1     -41.799  74.873  24.102  1.00  0.00     0.293 HD
ENDBRANCH  15  19
BRANCH  16  21
ATOM     21  O   UNL     1     -39.490  73.533  25.850  1.00  0.00    -0.504 OA
ATOM     22  H   UNL     1     -38.530  73.835  25.926  1.00  0.00     0.293 HD
ENDBRANCH  16  21
ENDBRANCH   1  11
BRANCH  10  23
ATOM     23  O   UNL     1     -40.001  76.926  30.079  1.00  0.00    -0.500 OA
ATOM     24  H   UNL     1     -40.053  76.855  29.069  1.00  0.00     0.294 HD
ENDBRANCH  10  23
BRANCH   5  25
ATOM     25  O   UNL     1     -41.638  71.513  35.396  1.00  0.00    -0.507 OA
ATOM     26  H   UNL     1     -42.555  71.092  35.306  1.00  0.00     0.293 HD
ENDBRANCH   5  25
BRANCH   7  27
ATOM     27  O   UNL     1     -39.813  75.968  35.221  1.00  0.00    -0.507 OA
ATOM     28  H   UNL     1     -39.063  76.549  34.878  1.00  0.00     0.293 HD
ENDBRANCH   7  27
TORSDOF 7
ENDMDL
MODEL 2
REMARK VINA RESULT:    -5.615      0.204      1.810
REMARK INTER + INTRA:          -7.302
REMARK INTER:                  -6.933
REMARK INTRA:                  -0.369
REMARK UNBOUND:                -0.373
REMARK SMILES Oc1cc(O)c2cc(O)c(-c3cc(O)c(O)c(O)c3)[o+]c2c1
REMARK SMILES IDX 10 1 20 2 21 3 22 4 2 5 3 6 4 7 6 8 7 9 8 10 11 11 12 12
REMARK SMILES IDX 13 13 19 14 15 15 17 16 14 17 16 19 18 21 9 23 1 25 5 27
REMARK H PARENT 14 18 16 20 18 22 9 24 1 26 5 28
REMARK Flexibility Score: inf
ROOT
ATOM      1  C   UNL     1     -40.882  74.748  30.455  1.00  0.00     0.402 A 
ATOM      2  O   UNL     1     -41.239  73.726  31.227  1.00  0.00    -0.202 OA
ATOM      3  C   UNL     1     -41.013  73.685  32.536  1.00  0.00     0.368 A 
ATOM      4  C   UNL     1     -41.428  72.567  33.264  1.00  0.00     0.162 A 
ATOM      5  C   UNL     1     -41.207  72.499  34.639  1.00  0.00     0.128 A 
ATOM      6  C   UNL     1     -40.566  73.556  35.295  1.00  0.00     0.093 A 
ATOM      7  C   UNL     1     -40.140  74.688  34.589  1.00  0.00     0.136 A 
ATOM      8  C   UNL     1     -40.361  74.760  33.189  1.00  0.00     0.125 A 
ATOM      9  C   UNL     1     -39.957  75.848  32.398  1.00  0.00     0.078 A 
ATOM     10  C   UNL     1     -40.207  75.844  31.022  1.00  0.00     0.223 A 
ENDROOT
BRANCH   1  11
ATOM     11  C   UNL     1     -41.199  74.680  29.010  1.00  0.00     0.091 A 
ATOM     12  C   UNL     1     -40.240  74.183  28.117  1.00  0.00     0.068 A 
ATOM     13  C   UNL     1     -40.521  74.090  26.749  1.00  0.00     0.162 A 
ATOM     14  C   UNL     1     -42.462  75.049  28.519  1.00  0.00     0.068 A 
ATOM     15  C   UNL     1     -41.774  74.480  26.256  1.00  0.00     0.200 A 
ATOM     16  C   UNL     1     -42.758  74.958  27.154  1.00  0.00     0.162 A 
BRANCH  13  17
ATOM     17  O   UNL     1     -39.554  73.609  25.866  1.00  0.00    -0.504 OA
ATOM     18  H   UNL     1     -39.683  73.656  24.861  1.00  0.00     0.293 HD
ENDBRANCH  13  17
BRANCH  15  19
ATOM     19  O   UNL     1     -42.000  74.375  24.881  1.00  0.00    -0.502 OA
ATOM     20  H   UNL     1     -42.637  73.712  24.462  1.00  0.00     0.293 HD
ENDBRANCH  15  19
BRANCH  16  21
ATOM     21  O   UNL     1     -44.034  75.344  26.739  1.00  0.00    -0.504 OA
ATOM     22  H   UNL     1     -44.402  76.279  26.835  1.00  0.00     0.293 HD
ENDBRANCH  16  21
ENDBRANCH   1  11
BRANCH  10  23
ATOM     23  O   UNL     1     -39.762  76.902  30.228  1.00  0.00    -0.500 OA
ATOM     24  H   UNL     1     -39.257  76.744  29.364  1.00  0.00     0.294 HD
ENDBRANCH  10  23
BRANCH   5  25
ATOM     25  O   UNL     1     -41.628  71.375  35.348  1.00  0.00    -0.507 OA
ATOM     26  H   UNL     1     -40.985  70.834  35.914  1.00  0.00     0.293 HD
ENDBRANCH   5  25
BRANCH   7  27
ATOM     27  O   UNL     1     -39.511  75.702  35.316  1.00  0.00    -0.507 OA
ATOM     28  H   UNL     1     -39.875  76.102  36.168  1.00  0.00     0.293 HD
ENDBRANCH   7  27
TORSDOF 7
ENDMDL
MODEL 3
REMARK VINA RESULT:    -5.466     14.557     15.729
REMARK INTER + INTRA:          -7.118
REMARK INTER:                  -6.867
REMARK INTRA:                  -0.251
REMARK UNBOUND:                -0.373
REMARK SMILES Oc1cc(O)c2cc(O)c(-c3cc(O)c(O)c(O)c3)[o+]c2c1
REMARK SMILES IDX 10 1 20 2 21 3 22 4 2 5 3 6 4 7 6 8 7 9 8 10 11 11 12 12
REMARK SMILES IDX 13 13 19 14 15 15 17 16 14 17 16 19 18 21 9 23 1 25 5 27
REMARK H PARENT 14 18 16 20 18 22 9 24 1 26 5 28
REMARK Flexibility Score: inf
ROOT
ATOM      1  C   UNL     1     -44.004  59.931  26.665  1.00  0.00     0.402 A 
ATOM      2  O   UNL     1     -45.006  59.256  27.220  1.00  0.00    -0.202 OA
ATOM      3  C   UNL     1     -45.648  59.665  28.310  1.00  0.00     0.368 A 
ATOM      4  C   UNL     1     -46.692  58.888  28.818  1.00  0.00     0.162 A 
ATOM      5  C   UNL     1     -47.384  59.295  29.958  1.00  0.00     0.128 A 
ATOM      6  C   UNL     1     -47.033  60.490  30.596  1.00  0.00     0.093 A 
ATOM      7  C   UNL     1     -45.992  61.288  30.107  1.00  0.00     0.136 A 
ATOM      8  C   UNL     1     -45.282  60.876  28.949  1.00  0.00     0.125 A 
ATOM      9  C   UNL     1     -44.217  61.603  28.396  1.00  0.00     0.078 A 
ATOM     10  C   UNL     1     -43.563  61.130  27.254  1.00  0.00     0.223 A 
ENDROOT
BRANCH   1  11
ATOM     11  C   UNL     1     -43.375  59.375  25.444  1.00  0.00     0.091 A 
ATOM     12  C   UNL     1     -44.089  59.378  24.239  1.00  0.00     0.068 A 
ATOM     13  C   UNL     1     -43.511  58.876  23.067  1.00  0.00     0.162 A 
ATOM     14  C   UNL     1     -42.054  58.898  25.454  1.00  0.00     0.068 A 
ATOM     15  C   UNL     1     -42.201  58.378  23.082  1.00  0.00     0.200 A 
ATOM     16  C   UNL     1     -41.462  58.397  24.289  1.00  0.00     0.162 A 
BRANCH  13  17
ATOM     17  O   UNL     1     -44.236  58.868  21.875  1.00  0.00    -0.504 OA
ATOM     18  H   UNL     1     -44.576  58.004  21.467  1.00  0.00     0.293 HD
ENDBRANCH  13  17
BRANCH  15  19
ATOM     19  O   UNL     1     -41.674  57.882  21.887  1.00  0.00    -0.502 OA
ATOM     20  H   UNL     1     -40.971  57.158  21.836  1.00  0.00     0.293 HD
ENDBRANCH  15  19
BRANCH  16  21
ATOM     21  O   UNL     1     -40.146  57.938  24.375  1.00  0.00    -0.504 OA
ATOM     22  H   UNL     1     -39.475  58.268  25.053  1.00  0.00     0.293 HD
ENDBRANCH  16  21
ENDBRANCH   1  11
BRANCH  10  23
ATOM     23  O   UNL     1     -42.472  61.827  26.733  1.00  0.00    -0.500 OA
ATOM     24  H   UNL     1     -42.217  61.763  25.754  1.00  0.00     0.294 HD
ENDBRANCH  10  23
BRANCH   5  25
ATOM     25  O   UNL     1     -48.422  58.506  30.449  1.00  0.00    -0.507 OA
ATOM     26  H   UNL     1     -48.906  58.741  31.308  1.00  0.00     0.293 HD
ENDBRANCH   5  25
BRANCH   7  27
ATOM     27  O   UNL     1     -45.704  62.467  30.800  1.00  0.00    -0.507 OA
ATOM     28  H   UNL     1     -44.946  63.093  30.571  1.00  0.00     0.293 HD
ENDBRANCH   7  27
TORSDOF 7
ENDMDL
MODEL 4
REMARK VINA RESULT:    -5.277      4.770      6.845
REMARK INTER + INTRA:          -6.884
REMARK INTER:                  -6.619
REMARK INTRA:                  -0.265
REMARK UNBOUND:                -0.373
REMARK SMILES Oc1cc(O)c2cc(O)c(-c3cc(O)c(O)c(O)c3)[o+]c2c1
REMARK SMILES IDX 10 1 20 2 21 3 22 4 2 5 3 6 4 7 6 8 7 9 8 10 11 11 12 12
REMARK SMILES IDX 13 13 19 14 15 15 17 16 14 17 16 19 18 21 9 23 1 25 5 27
REMARK H PARENT 14 18 16 20 18 22 9 24 1 26 5 28
REMARK Flexibility Score: inf
ROOT
ATOM      1  C   UNL     1     -38.503  73.520  27.292  1.00  0.00     0.402 A 
ATOM      2  O   UNL     1     -39.809  73.362  27.092  1.00  0.00    -0.202 OA
ATOM      3  C   UNL     1     -40.654  74.378  26.951  1.00  0.00     0.368 A 
ATOM      4  C   UNL     1     -42.010  74.111  26.742  1.00  0.00     0.162 A 
ATOM      5  C   UNL     1     -42.919  75.157  26.587  1.00  0.00     0.128 A 
ATOM      6  C   UNL     1     -42.471  76.482  26.640  1.00  0.00     0.093 A 
ATOM      7  C   UNL     1     -41.119  76.776  26.848  1.00  0.00     0.136 A 
ATOM      8  C   UNL     1     -40.191  75.715  27.009  1.00  0.00     0.125 A 
ATOM      9  C   UNL     1     -38.820  75.915  27.235  1.00  0.00     0.078 A 
ATOM     10  C   UNL     1     -37.967  74.817  27.388  1.00  0.00     0.223 A 
ENDROOT
BRANCH   1  11
ATOM     11  C   UNL     1     -37.662  72.308  27.425  1.00  0.00     0.091 A 
ATOM     12  C   UNL     1     -37.896  71.420  28.483  1.00  0.00     0.068 A 
ATOM     13  C   UNL     1     -37.128  70.258  28.620  1.00  0.00     0.162 A 
ATOM     14  C   UNL     1     -36.672  71.998  26.479  1.00  0.00     0.068 A 
ATOM     15  C   UNL     1     -36.123  69.960  27.689  1.00  0.00     0.200 A 
ATOM     16  C   UNL     1     -35.899  70.838  26.602  1.00  0.00     0.162 A 
BRANCH  13  17
ATOM     17  O   UNL     1     -37.356  69.388  29.686  1.00  0.00    -0.504 OA
ATOM     18  H   UNL     1     -37.554  68.405  29.537  1.00  0.00     0.293 HD
ENDBRANCH  13  17
BRANCH  15  19
ATOM     19  O   UNL     1     -35.381  68.791  27.876  1.00  0.00    -0.502 OA
ATOM     20  H   UNL     1     -35.485  67.959  27.314  1.00  0.00     0.293 HD
ENDBRANCH  15  19
BRANCH  16  21
ATOM     21  O   UNL     1     -34.932  70.595  25.624  1.00  0.00    -0.504 OA
ATOM     22  H   UNL     1     -34.163  69.950  25.735  1.00  0.00     0.293 HD
ENDBRANCH  16  21
ENDBRANCH   1  11
BRANCH  10  23
ATOM     23  O   UNL     1     -36.614  75.016  27.663  1.00  0.00    -0.500 OA
ATOM     24  H   UNL     1     -36.036  75.617  27.087  1.00  0.00     0.294 HD
ENDBRANCH  10  23
BRANCH   5  25
ATOM     25  O   UNL     1     -44.267  74.870  26.379  1.00  0.00    -0.507 OA
ATOM     26  H   UNL     1     -44.580  74.355  25.564  1.00  0.00     0.293 HD
ENDBRANCH   5  25
BRANCH   7  27
ATOM     27  O   UNL     1     -40.752  78.125  26.886  1.00  0.00    -0.507 OA
ATOM     28  H   UNL     1     -40.057  78.509  27.510  1.00  0.00     0.293 HD
ENDBRANCH   7  27
TORSDOF 7
ENDMDL
MODEL 5
REMARK VINA RESULT:    -5.177      1.948      6.909
REMARK INTER + INTRA:          -6.761
REMARK INTER:                  -6.462
REMARK INTRA:                  -0.299
REMARK UNBOUND:                -0.373
REMARK SMILES Oc1cc(O)c2cc(O)c(-c3cc(O)c(O)c(O)c3)[o+]c2c1
REMARK SMILES IDX 10 1 20 2 21 3 22 4 2 5 3 6 4 7 6 8 7 9 8 10 11 11 12 12
REMARK SMILES IDX 13 13 19 14 15 15 17 16 14 17 16 19 18 21 9 23 1 25 5 27
REMARK H PARENT 14 18 16 20 18 22 9 24 1 26 5 28
REMARK Flexibility Score: inf
ROOT
ATOM      1  C   UNL     1     -40.763  74.122  30.767  1.00  0.00     0.402 A 
ATOM      2  O   UNL     1     -41.097  73.682  29.556  1.00  0.00    -0.202 OA
ATOM      3  C   UNL     1     -41.384  74.489  28.540  1.00  0.00     0.368 A 
ATOM      4  C   UNL     1     -41.722  73.932  27.304  1.00  0.00     0.162 A 
ATOM      5  C   UNL     1     -42.025  74.755  26.219  1.00  0.00     0.128 A 
ATOM      6  C   UNL     1     -41.989  76.146  26.369  1.00  0.00     0.093 A 
ATOM      7  C   UNL     1     -41.653  76.729  27.596  1.00  0.00     0.136 A 
ATOM      8  C   UNL     1     -41.347  75.895  28.703  1.00  0.00     0.125 A 
ATOM      9  C   UNL     1     -41.014  76.390  29.974  1.00  0.00     0.078 A 
ATOM     10  C   UNL     1     -40.729  75.505  31.019  1.00  0.00     0.223 A 
ENDROOT
BRANCH   1  11
ATOM     11  C   UNL     1     -40.455  73.122  31.816  1.00  0.00     0.091 A 
ATOM     12  C   UNL     1     -39.225  72.451  31.788  1.00  0.00     0.068 A 
ATOM     13  C   UNL     1     -38.902  71.516  32.779  1.00  0.00     0.162 A 
ATOM     14  C   UNL     1     -41.345  72.873  32.873  1.00  0.00     0.068 A 
ATOM     15  C   UNL     1     -39.800  71.250  33.821  1.00  0.00     0.200 A 
ATOM     16  C   UNL     1     -41.033  71.943  33.872  1.00  0.00     0.162 A 
BRANCH  13  17
ATOM     17  O   UNL     1     -37.682  70.841  32.734  1.00  0.00    -0.504 OA
ATOM     18  H   UNL     1     -37.099  70.853  31.904  1.00  0.00     0.293 HD
ENDBRANCH  13  17
BRANCH  15  19
ATOM     19  O   UNL     1     -39.432  70.302  34.779  1.00  0.00    -0.502 OA
ATOM     20  H   UNL     1     -40.023  69.539  35.076  1.00  0.00     0.293 HD
ENDBRANCH  15  19
BRANCH  16  21
ATOM     21  O   UNL     1     -41.967  71.747  34.891  1.00  0.00    -0.504 OA
ATOM     22  H   UNL     1     -42.965  71.710  34.745  1.00  0.00     0.293 HD
ENDBRANCH  16  21
ENDBRANCH   1  11
BRANCH  10  23
ATOM     23  O   UNL     1     -40.446  75.996  32.294  1.00  0.00    -0.500 OA
ATOM     24  H   UNL     1     -39.641  75.676  32.821  1.00  0.00     0.294 HD
ENDBRANCH  10  23
BRANCH   5  25
ATOM     25  O   UNL     1     -42.359  74.181  24.994  1.00  0.00    -0.507 OA
ATOM     26  H   UNL     1     -42.618  74.749  24.196  1.00  0.00     0.293 HD
ENDBRANCH   5  25
BRANCH   7  27
ATOM     27  O   UNL     1     -41.638  78.125  27.663  1.00  0.00    -0.507 OA
ATOM     28  H   UNL     1     -42.380  78.685  28.056  1.00  0.00     0.293 HD
ENDBRANCH   7  27
TORSDOF 7
ENDMDL
MODEL 6
REMARK VINA RESULT:    -5.170      2.099      3.156
REMARK INTER + INTRA:          -6.752
REMARK INTER:                  -6.406
REMARK INTRA:                  -0.346
REMARK UNBOUND:                -0.373
REMARK SMILES Oc1cc(O)c2cc(O)c(-c3cc(O)c(O)c(O)c3)[o+]c2c1
REMARK SMILES IDX 10 1 20 2 21 3 22 4 2 5 3 6 4 7 6 8 7 9 8 10 11 11 12 12
REMARK SMILES IDX 13 13 19 14 15 15 17 16 14 17 16 19 18 21 9 23 1 25 5 27
REMARK H PARENT 14 18 16 20 18 22 9 24 1 26 5 28
REMARK Flexibility Score: inf
ROOT
ATOM      1  C   UNL     1     -40.441  73.549  30.521  1.00  0.00     0.402 A 
ATOM      2  O   UNL     1     -41.000  73.436  31.723  1.00  0.00    -0.202 OA
ATOM      3  C   UNL     1     -40.537  72.627  32.670  1.00  0.00     0.368 A 
ATOM      4  C   UNL     1     -41.191  72.580  33.904  1.00  0.00     0.162 A 
ATOM      5  C   UNL     1     -40.726  71.742  34.917  1.00  0.00     0.128 A 
ATOM      6  C   UNL     1     -39.597  70.945  34.698  1.00  0.00     0.093 A 
ATOM      7  C   UNL     1     -38.923  70.974  33.472  1.00  0.00     0.136 A 
ATOM      8  C   UNL     1     -39.395  71.823  32.437  1.00  0.00     0.125 A 
ATOM      9  C   UNL     1     -38.792  71.907  31.172  1.00  0.00     0.078 A 
ATOM     10  C   UNL     1     -39.318  72.765  30.200  1.00  0.00     0.223 A 
ENDROOT
BRANCH   1  11
ATOM     11  C   UNL     1     -41.044  74.494  29.553  1.00  0.00     0.091 A 
ATOM     12  C   UNL     1     -40.722  75.856  29.628  1.00  0.00     0.068 A 
ATOM     13  C   UNL     1     -41.263  76.767  28.713  1.00  0.00     0.162 A 
ATOM     14  C   UNL     1     -41.887  74.048  28.523  1.00  0.00     0.068 A 
ATOM     15  C   UNL     1     -42.123  76.325  27.699  1.00  0.00     0.200 A 
ATOM     16  C   UNL     1     -42.432  74.947  27.599  1.00  0.00     0.162 A 
BRANCH  13  17
ATOM     17  O   UNL     1     -40.950  78.123  28.806  1.00  0.00    -0.504 OA
ATOM     18  H   UNL     1     -41.672  78.830  28.882  1.00  0.00     0.293 HD
ENDBRANCH  13  17
BRANCH  15  19
ATOM     19  O   UNL     1     -42.642  77.276  26.817  1.00  0.00    -0.502 OA
ATOM     20  H   UNL     1     -42.892  77.082  25.858  1.00  0.00     0.293 HD
ENDBRANCH  15  19
BRANCH  16  21
ATOM     21  O   UNL     1     -43.263  74.431  26.603  1.00  0.00    -0.504 OA
ATOM     22  H   UNL     1     -42.933  74.076  25.718  1.00  0.00     0.293 HD
ENDBRANCH  16  21
ENDBRANCH   1  11
BRANCH  10  23
ATOM     23  O   UNL     1     -38.749  72.812  28.927  1.00  0.00    -0.500 OA
ATOM     24  H   UNL     1     -38.019  73.475  28.694  1.00  0.00     0.294 HD
ENDBRANCH  10  23
BRANCH   5  25
ATOM     25  O   UNL     1     -41.392  71.709  36.141  1.00  0.00    -0.507 OA
ATOM     26  H   UNL     1     -42.311  71.291  36.233  1.00  0.00     0.293 HD
ENDBRANCH   5  25
BRANCH   7  27
ATOM     27  O   UNL     1     -37.803  70.150  33.333  1.00  0.00    -0.507 OA
ATOM     28  H   UNL     1     -37.612  69.578  32.523  1.00  0.00     0.293 HD
ENDBRANCH   7  27
TORSDOF 7
ENDMDL
MODEL 7
REMARK VINA RESULT:    -5.092      5.364     10.051
REMARK INTER + INTRA:          -6.656
REMARK INTER:                  -6.449
REMARK INTRA:                  -0.207
REMARK UNBOUND:                -0.373
REMARK SMILES Oc1cc(O)c2cc(O)c(-c3cc(O)c(O)c(O)c3)[o+]c2c1
REMARK SMILES IDX 10 1 20 2 21 3 22 4 2 5 3 6 4 7 6 8 7 9 8 10 11 11 12 12
REMARK SMILES IDX 13 13 19 14 15 15 17 16 14 17 16 19 18 21 9 23 1 25 5 27
REMARK H PARENT 14 18 16 20 18 22 9 24 1 26 5 28
REMARK Flexibility Score: inf
ROOT
ATOM      1  C   UNL     1     -37.969  69.731  35.600  1.00  0.00     0.402 A 
ATOM      2  O   UNL     1     -39.043  70.503  35.747  1.00  0.00    -0.202 OA
ATOM      3  C   UNL     1     -39.548  71.245  34.767  1.00  0.00     0.368 A 
ATOM      4  C   UNL     1     -40.682  72.022  35.016  1.00  0.00     0.162 A 
ATOM      5  C   UNL     1     -41.236  72.807  34.006  1.00  0.00     0.128 A 
ATOM      6  C   UNL     1     -40.653  72.816  32.733  1.00  0.00     0.093 A 
ATOM      7  C   UNL     1     -39.517  72.047  32.457  1.00  0.00     0.136 A 
ATOM      8  C   UNL     1     -38.949  71.248  33.483  1.00  0.00     0.125 A 
ATOM      9  C   UNL     1     -37.804  70.456  33.302  1.00  0.00     0.078 A 
ATOM     10  C   UNL     1     -37.300  69.699  34.363  1.00  0.00     0.223 A 
ENDROOT
BRANCH   1  11
ATOM     11  C   UNL     1     -37.508  68.942  36.766  1.00  0.00     0.091 A 
ATOM     12  C   UNL     1     -37.198  69.601  37.964  1.00  0.00     0.068 A 
ATOM     13  C   UNL     1     -36.778  68.877  39.086  1.00  0.00     0.162 A 
ATOM     14  C   UNL     1     -37.430  67.541  36.717  1.00  0.00     0.068 A 
ATOM     15  C   UNL     1     -36.678  67.480  39.031  1.00  0.00     0.200 A 
ATOM     16  C   UNL     1     -37.015  66.805  37.833  1.00  0.00     0.162 A 
BRANCH  13  17
ATOM     17  O   UNL     1     -36.455  69.543  40.269  1.00  0.00    -0.504 OA
ATOM     18  H   UNL     1     -36.565  69.100  41.174  1.00  0.00     0.293 HD
ENDBRANCH  13  17
BRANCH  15  19
ATOM     19  O   UNL     1     -36.247  66.807  40.176  1.00  0.00    -0.502 OA
ATOM     20  H   UNL     1     -36.460  67.101  41.119  1.00  0.00     0.293 HD
ENDBRANCH  15  19
BRANCH  16  21
ATOM     21  O   UNL     1     -36.961  65.415  37.711  1.00  0.00    -0.504 OA
ATOM     22  H   UNL     1     -37.296  64.771  38.412  1.00  0.00     0.293 HD
ENDBRANCH  16  21
ENDBRANCH   1  11
BRANCH  10  23
ATOM     23  O   UNL     1     -36.134  68.951  34.198  1.00  0.00    -0.500 OA
ATOM     24  H   UNL     1     -35.384  68.974  34.879  1.00  0.00     0.294 HD
ENDBRANCH  10  23
BRANCH   5  25
ATOM     25  O   UNL     1     -42.367  73.575  34.274  1.00  0.00    -0.507 OA
ATOM     26  H   UNL     1     -42.961  73.923  33.530  1.00  0.00     0.293 HD
ENDBRANCH   5  25
BRANCH   7  27
ATOM     27  O   UNL     1     -38.996  72.110  31.161  1.00  0.00    -0.507 OA
ATOM     28  H   UNL     1     -39.521  72.401  30.349  1.00  0.00     0.293 HD
ENDBRANCH   7  27
TORSDOF 7
ENDMDL
MODEL 8
REMARK VINA RESULT:    -4.999      6.320     10.846
REMARK INTER + INTRA:          -6.541
REMARK INTER:                  -6.378
REMARK INTRA:                  -0.163
REMARK UNBOUND:                -0.373
REMARK SMILES Oc1cc(O)c2cc(O)c(-c3cc(O)c(O)c(O)c3)[o+]c2c1
REMARK SMILES IDX 10 1 20 2 21 3 22 4 2 5 3 6 4 7 6 8 7 9 8 10 11 11 12 12
REMARK SMILES IDX 13 13 19 14 15 15 17 16 14 17 16 19 18 21 9 23 1 25 5 27
REMARK H PARENT 14 18 16 20 18 22 9 24 1 26 5 28
REMARK Flexibility Score: inf
ROOT
ATOM      1  C   UNL     1     -37.506  69.090  35.484  1.00  0.00     0.402 A 
ATOM      2  O   UNL     1     -36.747  68.798  34.431  1.00  0.00    -0.202 OA
ATOM      3  C   UNL     1     -36.918  69.346  33.233  1.00  0.00     0.368 A 
ATOM      4  C   UNL     1     -36.066  68.978  32.188  1.00  0.00     0.162 A 
ATOM      5  C   UNL     1     -36.221  69.539  30.921  1.00  0.00     0.128 A 
ATOM      6  C   UNL     1     -37.234  70.479  30.694  1.00  0.00     0.093 A 
ATOM      7  C   UNL     1     -38.100  70.865  31.723  1.00  0.00     0.136 A 
ATOM      8  C   UNL     1     -37.948  70.294  33.014  1.00  0.00     0.125 A 
ATOM      9  C   UNL     1     -38.777  70.610  34.101  1.00  0.00     0.078 A 
ATOM     10  C   UNL     1     -38.568  70.002  35.343  1.00  0.00     0.223 A 
ENDROOT
BRANCH   1  11
ATOM     11  C   UNL     1     -37.209  68.419  36.770  1.00  0.00     0.091 A 
ATOM     12  C   UNL     1     -37.123  67.021  36.814  1.00  0.00     0.068 A 
ATOM     13  C   UNL     1     -36.824  66.363  38.014  1.00  0.00     0.162 A 
ATOM     14  C   UNL     1     -36.955  69.156  37.938  1.00  0.00     0.068 A 
ATOM     15  C   UNL     1     -36.593  67.098  39.185  1.00  0.00     0.200 A 
ATOM     16  C   UNL     1     -36.652  68.511  39.143  1.00  0.00     0.162 A 
BRANCH  13  17
ATOM     17  O   UNL     1     -36.757  64.971  38.051  1.00  0.00    -0.504 OA
ATOM     18  H   UNL     1     -36.586  64.425  37.214  1.00  0.00     0.293 HD
ENDBRANCH  13  17
BRANCH  15  19
ATOM     19  O   UNL     1     -36.307  66.392  40.356  1.00  0.00    -0.502 OA
ATOM     20  H   UNL     1     -35.600  66.666  41.023  1.00  0.00     0.293 HD
ENDBRANCH  15  19
BRANCH  16  21
ATOM     21  O   UNL     1     -36.411  69.309  40.264  1.00  0.00    -0.504 OA
ATOM     22  H   UNL     1     -35.727  70.051  40.294  1.00  0.00     0.293 HD
ENDBRANCH  16  21
ENDBRANCH   1  11
BRANCH  10  23
ATOM     23  O   UNL     1     -39.422  70.279  36.411  1.00  0.00    -0.500 OA
ATOM     24  H   UNL     1     -39.082  70.691  37.272  1.00  0.00     0.294 HD
ENDBRANCH  10  23
BRANCH   5  25
ATOM     25  O   UNL     1     -35.362  69.159  29.891  1.00  0.00    -0.507 OA
ATOM     26  H   UNL     1     -34.503  69.664  29.704  1.00  0.00     0.293 HD
ENDBRANCH   5  25
BRANCH   7  27
ATOM     27  O   UNL     1     -39.083  71.810  31.417  1.00  0.00    -0.507 OA
ATOM     28  H   UNL     1     -39.999  71.838  31.842  1.00  0.00     0.293 HD
ENDBRANCH   7  27
TORSDOF 7
ENDMDL
MODEL 9
REMARK VINA RESULT:    -4.966      2.553      4.013
REMARK INTER + INTRA:          -6.501
REMARK INTER:                  -6.251
REMARK INTRA:                  -0.250
REMARK UNBOUND:                -0.373
REMARK SMILES Oc1cc(O)c2cc(O)c(-c3cc(O)c(O)c(O)c3)[o+]c2c1
REMARK SMILES IDX 10 1 20 2 21 3 22 4 2 5 3 6 4 7 6 8 7 9 8 10 11 11 12 12
REMARK SMILES IDX 13 13 19 14 15 15 17 16 14 17 16 19 18 21 9 23 1 25 5 27
REMARK H PARENT 14 18 16 20 18 22 9 24 1 26 5 28
REMARK Flexibility Score: inf
ROOT
ATOM      1  C   UNL     1     -40.567  73.219  32.453  1.00  0.00     0.402 A 
ATOM      2  O   UNL     1     -39.624  72.289  32.327  1.00  0.00    -0.202 OA
ATOM      3  C   UNL     1     -39.280  71.460  33.307  1.00  0.00     0.368 A 
ATOM      4  C   UNL     1     -38.278  70.514  33.078  1.00  0.00     0.162 A 
ATOM      5  C   UNL     1     -37.900  69.629  34.087  1.00  0.00     0.128 A 
ATOM      6  C   UNL     1     -38.528  69.688  35.337  1.00  0.00     0.093 A 
ATOM      7  C   UNL     1     -39.534  70.626  35.592  1.00  0.00     0.136 A 
ATOM      8  C   UNL     1     -39.921  71.530  34.569  1.00  0.00     0.125 A 
ATOM      9  C   UNL     1     -40.910  72.513  34.738  1.00  0.00     0.078 A 
ATOM     10  C   UNL     1     -41.233  73.371  33.683  1.00  0.00     0.223 A 
ENDROOT
BRANCH   1  11
ATOM     11  C   UNL     1     -40.867  74.077  31.283  1.00  0.00     0.091 A 
ATOM     12  C   UNL     1     -40.509  75.431  31.313  1.00  0.00     0.068 A 
ATOM     13  C   UNL     1     -40.764  76.260  30.214  1.00  0.00     0.162 A 
ATOM     14  C   UNL     1     -41.450  73.550  30.120  1.00  0.00     0.068 A 
ATOM     15  C   UNL     1     -41.367  75.739  29.061  1.00  0.00     0.200 A 
ATOM     16  C   UNL     1     -41.707  74.366  29.012  1.00  0.00     0.162 A 
BRANCH  13  17
ATOM     17  O   UNL     1     -40.419  77.611  30.259  1.00  0.00    -0.504 OA
ATOM     18  H   UNL     1     -39.800  77.976  30.973  1.00  0.00     0.293 HD
ENDBRANCH  13  17
BRANCH  15  19
ATOM     19  O   UNL     1     -41.607  76.610  27.995  1.00  0.00    -0.502 OA
ATOM     20  H   UNL     1     -42.329  76.472  27.302  1.00  0.00     0.293 HD
ENDBRANCH  15  19
BRANCH  16  21
ATOM     21  O   UNL     1     -42.290  73.773  27.890  1.00  0.00    -0.504 OA
ATOM     22  H   UNL     1     -42.363  72.777  27.750  1.00  0.00     0.293 HD
ENDBRANCH  16  21
ENDBRANCH   1  11
BRANCH  10  23
ATOM     23  O   UNL     1     -42.180  74.379  33.866  1.00  0.00    -0.500 OA
ATOM     24  H   UNL     1     -43.140  74.169  34.116  1.00  0.00     0.294 HD
ENDBRANCH  10  23
BRANCH   5  25
ATOM     25  O   UNL     1     -36.898  68.692  33.839  1.00  0.00    -0.507 OA
ATOM     26  H   UNL     1     -36.874  68.158  32.979  1.00  0.00     0.293 HD
ENDBRANCH   5  25
BRANCH   7  27
ATOM     27  O   UNL     1     -40.113  70.620  36.864  1.00  0.00    -0.507 OA
ATOM     28  H   UNL     1     -40.984  71.075  37.097  1.00  0.00     0.293 HD
ENDBRANCH   7  27
TORSDOF 7
ENDMDL
