MODEL 1
REMARK VINA RESULT:    -4.386      0.000      0.000
REMARK INTER + INTRA:          -4.658
REMARK INTER:                  -4.642
REMARK INTRA:                  -0.016
REMARK UNBOUND:                -0.016
REMARK SMILES O=C([O-])c1cccnc1
REMARK SMILES IDX 4 1 5 2 9 3 6 4 8 5 7 6 2 7 1 8 3 9
REMARK H PARENT
REMARK Flexibility Score: inf
ROOT
ATOM      1  C   UNL     1     -30.854 -21.257 -23.818  1.00  0.00     0.016 A 
ATOM      2  C   UNL     1     -29.553 -21.642 -23.449  1.00  0.00     0.013 A 
ATOM      3  C   UNL     1     -31.828 -21.145 -22.812  1.00  0.00     0.120 A 
ATOM      4  C   UNL     1     -29.254 -21.903 -22.111  1.00  0.00     0.021 A 
ATOM      5  N   UNL     1     -31.510 -21.406 -21.515  1.00  0.00    -0.264 NA
ATOM      6  C   UNL     1     -30.256 -21.779 -21.148  1.00  0.00     0.111 A 
ENDROOT
BRANCH   1   7
ATOM      7  C   UNL     1     -31.192 -20.976 -25.229  1.00  0.00     0.073 C 
ATOM      8  O   UNL     1     -31.138 -19.799 -25.680  1.00  0.00    -0.545 OA
ATOM      9  O   UNL     1     -31.574 -22.006 -26.081  1.00  0.00    -0.545 OA
ENDBRANCH   1   7
TORSDOF 1
ENDMDL
MODEL 2
REMARK VINA RESULT:    -4.267      2.775      3.567
REMARK INTER + INTRA:          -4.532
REMARK INTER:                  -4.510
REMARK INTRA:                  -0.022
REMARK UNBOUND:                -0.016
REMARK SMILES O=C([O-])c1cccnc1
REMARK SMILES IDX 4 1 5 2 9 3 6 4 8 5 7 6 2 7 1 8 3 9
REMARK H PARENT
REMARK Flexibility Score: inf
ROOT
ATOM      1  C   UNL     1     -29.694 -21.900 -22.329  1.00  0.00     0.016 A 
ATOM      2  C   UNL     1     -30.108 -21.631 -23.645  1.00  0.00     0.013 A 
ATOM      3  C   UNL     1     -30.571 -21.590 -21.277  1.00  0.00     0.120 A 
ATOM      4  C   UNL     1     -31.364 -21.070 -23.883  1.00  0.00     0.021 A 
ATOM      5  N   UNL     1     -31.789 -21.043 -21.536  1.00  0.00    -0.264 NA
ATOM      6  C   UNL     1     -32.199 -20.779 -22.804  1.00  0.00     0.111 A 
ENDROOT
BRANCH   1   7
ATOM      7  C   UNL     1     -28.368 -22.494 -22.056  1.00  0.00     0.073 C 
ATOM      8  O   UNL     1     -28.156 -23.125 -20.985  1.00  0.00    -0.545 OA
ATOM      9  O   UNL     1     -27.335 -22.366 -22.977  1.00  0.00    -0.545 OA
ENDBRANCH   1   7
TORSDOF 1
ENDMDL
MODEL 3
REMARK VINA RESULT:    -4.128      1.989      2.623
REMARK INTER + INTRA:          -4.386
REMARK INTER:                  -4.366
REMARK INTRA:                  -0.020
REMARK UNBOUND:                -0.016
REMARK SMILES O=C([O-])c1cccnc1
REMARK SMILES IDX 4 1 5 2 9 3 6 4 8 5 7 6 2 7 1 8 3 9
REMARK H PARENT
REMARK Flexibility Score: inf
ROOT
ATOM      1  C   UNL     1     -30.407 -21.930 -22.483  1.00  0.00     0.016 A 
ATOM      2  C   UNL     1     -30.759 -22.538 -21.265  1.00  0.00     0.013 A 
ATOM      3  C   UNL     1     -29.055 -21.932 -22.864  1.00  0.00     0.120 A 
ATOM      4  C   UNL     1     -29.776 -23.125 -20.466  1.00  0.00     0.021 A 
ATOM      5  N   UNL     1     -28.117 -22.510 -22.065  1.00  0.00    -0.264 NA
ATOM      6  C   UNL     1     -28.447 -23.100 -20.887  1.00  0.00     0.111 A 
ENDROOT
BRANCH   1   7
ATOM      7  C   UNL     1     -31.433 -21.304 -23.344  1.00  0.00     0.073 C 
ATOM      8  O   UNL     1     -31.409 -21.468 -24.593  1.00  0.00    -0.545 OA
ATOM      9  O   UNL     1     -32.439 -20.523 -22.787  1.00  0.00    -0.545 OA
ENDBRANCH   1   7
TORSDOF 1
ENDMDL
MODEL 4
REMARK VINA RESULT:    -4.049      3.050      3.933
REMARK INTER + INTRA:          -4.301
REMARK INTER:                  -4.277
REMARK INTRA:                  -0.024
REMARK UNBOUND:                -0.016
REMARK SMILES O=C([O-])c1cccnc1
REMARK SMILES IDX 4 1 5 2 9 3 6 4 8 5 7 6 2 7 1 8 3 9
REMARK H PARENT
REMARK Flexibility Score: inf
ROOT
ATOM      1  C   UNL     1     -29.966 -21.976 -22.193  1.00  0.00     0.016 A 
ATOM      2  C   UNL     1     -31.117 -21.581 -21.490  1.00  0.00     0.013 A 
ATOM      3  C   UNL     1     -29.868 -21.642 -23.554  1.00  0.00     0.120 A 
ATOM      4  C   UNL     1     -32.128 -20.873 -22.142  1.00  0.00     0.021 A 
ATOM      5  N   UNL     1     -30.869 -20.953 -24.166  1.00  0.00    -0.264 NA
ATOM      6  C   UNL     1     -31.984 -20.566 -23.495  1.00  0.00     0.111 A 
ENDROOT
BRANCH   1   7
ATOM      7  C   UNL     1     -28.884 -22.725 -21.520  1.00  0.00     0.073 C 
ATOM      8  O   UNL     1     -29.021 -23.121 -20.331  1.00  0.00    -0.545 OA
ATOM      9  O   UNL     1     -27.698 -23.003 -22.190  1.00  0.00    -0.545 OA
ENDBRANCH   1   7
TORSDOF 1
ENDMDL
MODEL 5
REMARK VINA RESULT:    -4.010      1.871      2.280
REMARK INTER + INTRA:          -4.261
REMARK INTER:                  -4.239
REMARK INTRA:                  -0.022
REMARK UNBOUND:                -0.016
REMARK SMILES O=C([O-])c1cccnc1
REMARK SMILES IDX 4 1 5 2 9 3 6 4 8 5 7 6 2 7 1 8 3 9
REMARK H PARENT
REMARK Flexibility Score: inf
ROOT
ATOM      1  C   UNL     1     -30.323 -21.957 -22.390  1.00  0.00     0.016 A 
ATOM      2  C   UNL     1     -28.982 -21.984 -22.810  1.00  0.00     0.013 A 
ATOM      3  C   UNL     1     -30.646 -22.527 -21.147  1.00  0.00     0.120 A 
ATOM      4  C   UNL     1     -28.006 -22.567 -21.999  1.00  0.00     0.021 A 
ATOM      5  N   UNL     1     -29.675 -23.090 -20.377  1.00  0.00    -0.264 NA
ATOM      6  C   UNL     1     -28.377 -23.122 -20.774  1.00  0.00     0.111 A 
ENDROOT
BRANCH   1   7
ATOM      7  C   UNL     1     -31.371 -21.343 -23.233  1.00  0.00     0.073 C 
ATOM      8  O   UNL     1     -31.260 -21.334 -24.489  1.00  0.00    -0.545 OA
ATOM      9  O   UNL     1     -32.495 -20.768 -22.652  1.00  0.00    -0.545 OA
ENDBRANCH   1   7
TORSDOF 1
ENDMDL
MODEL 6
REMARK VINA RESULT:    -3.909      2.856      3.614
REMARK INTER + INTRA:          -4.153
REMARK INTER:                  -4.131
REMARK INTRA:                  -0.023
REMARK UNBOUND:                -0.016
REMARK SMILES O=C([O-])c1cccnc1
REMARK SMILES IDX 4 1 5 2 9 3 6 4 8 5 7 6 2 7 1 8 3 9
REMARK H PARENT
REMARK Flexibility Score: inf
ROOT
ATOM      1  C   UNL     1     -30.359 -21.787 -22.818  1.00  0.00     0.016 A 
ATOM      2  C   UNL     1     -29.659 -21.579 -24.019  1.00  0.00     0.013 A 
ATOM      3  C   UNL     1     -31.619 -21.184 -22.667  1.00  0.00     0.120 A 
ATOM      4  C   UNL     1     -30.217 -20.792 -25.028  1.00  0.00     0.021 A 
ATOM      5  N   UNL     1     -32.139 -20.420 -23.665  1.00  0.00    -0.264 NA
ATOM      6  C   UNL     1     -31.471 -20.214 -24.830  1.00  0.00     0.111 A 
ENDROOT
BRANCH   1   7
ATOM      7  C   UNL     1     -29.786 -22.617 -21.738  1.00  0.00     0.073 C 
ATOM      8  O   UNL     1     -30.526 -23.101 -20.840  1.00  0.00    -0.545 OA
ATOM      9  O   UNL     1     -28.421 -22.877 -21.698  1.00  0.00    -0.545 OA
ENDBRANCH   1   7
TORSDOF 1
ENDMDL
MODEL 7
REMARK VINA RESULT:    -3.541      4.943      5.941
REMARK INTER + INTRA:          -3.764
REMARK INTER:                  -3.746
REMARK INTRA:                  -0.018
REMARK UNBOUND:                -0.016
REMARK SMILES O=C([O-])c1cccnc1
REMARK SMILES IDX 4 1 5 2 9 3 6 4 8 5 7 6 2 7 1 8 3 9
REMARK H PARENT
REMARK Flexibility Score: inf
ROOT
ATOM      1  C   UNL     1     -28.535 -22.337 -19.258  1.00  0.00     0.016 A 
ATOM      2  C   UNL     1     -27.907 -23.125 -20.238  1.00  0.00     0.013 A 
ATOM      3  C   UNL     1     -29.490 -21.393 -19.672  1.00  0.00     0.120 A 
ATOM      4  C   UNL     1     -28.236 -22.963 -21.585  1.00  0.00     0.021 A 
ATOM      5  N   UNL     1     -29.792 -21.254 -20.992  1.00  0.00    -0.264 NA
ATOM      6  C   UNL     1     -29.191 -22.011 -21.946  1.00  0.00     0.111 A 
ENDROOT
BRANCH   1   7
ATOM      7  C   UNL     1     -28.201 -22.493 -17.827  1.00  0.00     0.073 C 
ATOM      8  O   UNL     1     -29.099 -22.767 -16.985  1.00  0.00    -0.545 OA
ATOM      9  O   UNL     1     -26.891 -22.340 -17.388  1.00  0.00    -0.545 OA
ENDBRANCH   1   7
TORSDOF 1
ENDMDL
MODEL 8
REMARK VINA RESULT:    -3.182      2.924      3.967
REMARK INTER + INTRA:          -3.384
REMARK INTER:                  -3.367
REMARK INTRA:                  -0.017
REMARK UNBOUND:                -0.016
REMARK SMILES O=C([O-])c1cccnc1
REMARK SMILES IDX 4 1 5 2 9 3 6 4 8 5 7 6 2 7 1 8 3 9
REMARK H PARENT
REMARK Flexibility Score: inf
ROOT
ATOM      1  C   UNL     1     -31.520 -20.840 -24.283  1.00  0.00     0.016 A 
ATOM      2  C   UNL     1     -31.143 -19.656 -24.940  1.00  0.00     0.013 A 
ATOM      3  C   UNL     1     -31.613 -22.022 -25.037  1.00  0.00     0.120 A 
ATOM      4  C   UNL     1     -30.869 -19.672 -26.309  1.00  0.00     0.021 A 
ATOM      5  N   UNL     1     -31.341 -22.009 -26.370  1.00  0.00    -0.264 NA
ATOM      6  C   UNL     1     -30.975 -20.870 -27.014  1.00  0.00     0.111 A 
ENDROOT
BRANCH   1   7
ATOM      7  C   UNL     1     -31.814 -20.845 -22.834  1.00  0.00     0.073 C 
ATOM      8  O   UNL     1     -31.063 -21.460 -22.030  1.00  0.00    -0.545 OA
ATOM      9  O   UNL     1     -32.924 -20.172 -22.338  1.00  0.00    -0.545 OA
ENDBRANCH   1   7
TORSDOF 1
ENDMDL
