MODEL 1
REMARK VINA RESULT:    -4.505      0.000      0.000
REMARK INTER + INTRA:          -7.444
REMARK INTER:                  -6.876
REMARK INTRA:                  -0.568
REMARK UNBOUND:                -0.568
REMARK SMILES O=C([O-])CCCCCCCCC(=O)[O-]
REMARK SMILES IDX 7 1 6 2 5 3 4 4 2 5 1 6 3 7 8 8 9 9 10 10 11 11 12 12 13 13
REMARK SMILES IDX 14 14
REMARK H PARENT
REMARK Flexibility Score: inf
ROOT
ATOM      1  C   UNL     1      -1.403   0.095   8.294  1.00  0.00     0.000 C 
ENDROOT
BRANCH   1   2
ATOM      2  C   UNL     1      -1.152   0.077   6.776  1.00  0.00     0.000 C 
BRANCH   2   3
ATOM      3  C   UNL     1      -1.291  -1.329   6.172  1.00  0.00     0.006 C 
BRANCH   3   4
ATOM      4  C   UNL     1      -1.508  -1.298   4.654  1.00  0.00     0.053 C 
BRANCH   4   5
ATOM      5  C   UNL     1      -1.628  -2.689   4.116  1.00  0.00     0.041 C 
ATOM      6  O   UNL     1      -1.975  -3.633   4.873  1.00  0.00    -0.550 OA
ATOM      7  O   UNL     1      -1.307  -2.952   2.790  1.00  0.00    -0.550 OA
ENDBRANCH   4   5
ENDBRANCH   3   4
ENDBRANCH   2   3
ENDBRANCH   1   2
BRANCH   1   8
ATOM      8  C   UNL     1      -0.139  -0.227   9.111  1.00  0.00     0.000 C 
BRANCH   8   9
ATOM      9  C   UNL     1      -0.254  -1.463  10.026  1.00  0.00     0.000 C 
BRANCH   9  10
ATOM     10  C   UNL     1       0.548  -2.697   9.566  1.00  0.00     0.006 C 
BRANCH  10  11
ATOM     11  C   UNL     1      -0.261  -3.709   8.743  1.00  0.00     0.053 C 
BRANCH  11  12
ATOM     12  C   UNL     1       0.541  -4.929   8.410  1.00  0.00     0.041 C 
ATOM     13  O   UNL     1       0.186  -5.686   7.469  1.00  0.00    -0.550 OA
ATOM     14  O   UNL     1       1.701  -5.212   9.120  1.00  0.00    -0.550 OA
ENDBRANCH  11  12
ENDBRANCH  10  11
ENDBRANCH   9  10
ENDBRANCH   8   9
ENDBRANCH   1   8
TORSDOF 9
ENDMDL
MODEL 2
REMARK VINA RESULT:    -4.421      3.676      5.084
REMARK INTER + INTRA:          -7.316
REMARK INTER:                  -6.883
REMARK INTRA:                  -0.433
REMARK UNBOUND:                -0.568
REMARK SMILES O=C([O-])CCCCCCCCC(=O)[O-]
REMARK SMILES IDX 7 1 6 2 5 3 4 4 2 5 1 6 3 7 8 8 9 9 10 10 11 11 12 12 13 13
REMARK SMILES IDX 14 14
REMARK H PARENT
REMARK Flexibility Score: inf
ROOT
ATOM      1  C   UNL     1      -0.004  -6.010   6.506  1.00  0.00     0.000 C 
ENDROOT
BRANCH   1   2
ATOM      2  C   UNL     1      -0.463  -4.572   6.803  1.00  0.00     0.000 C 
BRANCH   2   3
ATOM      3  C   UNL     1      -1.300  -3.972   5.662  1.00  0.00     0.006 C 
BRANCH   3   4
ATOM      4  C   UNL     1      -1.263  -2.438   5.648  1.00  0.00     0.053 C 
BRANCH   4   5
ATOM      5  C   UNL     1      -1.487  -1.924   4.261  1.00  0.00     0.041 C 
ATOM      6  O   UNL     1      -1.884  -0.743   4.080  1.00  0.00    -0.550 OA
ATOM      7  O   UNL     1      -1.304  -2.764   3.170  1.00  0.00    -0.550 OA
ENDBRANCH   4   5
ENDBRANCH   3   4
ENDBRANCH   2   3
ENDBRANCH   1   2
BRANCH   1   8
ATOM      8  C   UNL     1      -0.848  -7.067   7.241  1.00  0.00     0.000 C 
BRANCH   8   9
ATOM      9  C   UNL     1      -1.300  -6.667   8.660  1.00  0.00     0.000 C 
BRANCH   9  10
ATOM     10  C   UNL     1      -2.482  -7.481   9.226  1.00  0.00     0.006 C 
BRANCH  10  11
ATOM     11  C   UNL     1      -3.094  -8.482   8.235  1.00  0.00     0.053 C 
BRANCH  11  12
ATOM     12  C   UNL     1      -4.555  -8.232   8.019  1.00  0.00     0.041 C 
ATOM     13  O   UNL     1      -4.947  -7.133   7.549  1.00  0.00    -0.550 OA
ATOM     14  O   UNL     1      -5.480  -9.228   8.305  1.00  0.00    -0.550 OA
ENDBRANCH  11  12
ENDBRANCH  10  11
ENDBRANCH   9  10
ENDBRANCH   8   9
ENDBRANCH   1   8
TORSDOF 9
ENDMDL
MODEL 3
REMARK VINA RESULT:    -4.370      3.728      6.636
REMARK INTER + INTRA:          -7.238
REMARK INTER:                  -6.860
REMARK INTRA:                  -0.378
REMARK UNBOUND:                -0.568
REMARK SMILES O=C([O-])CCCCCCCCC(=O)[O-]
REMARK SMILES IDX 7 1 6 2 5 3 4 4 2 5 1 6 3 7 8 8 9 9 10 10 11 11 12 12 13 13
REMARK SMILES IDX 14 14
REMARK H PARENT
REMARK Flexibility Score: inf
ROOT
ATOM      1  C   UNL     1      -1.213  -6.988   7.401  1.00  0.00     0.000 C 
ENDROOT
BRANCH   1   2
ATOM      2  C   UNL     1      -1.393  -6.826   8.921  1.00  0.00     0.000 C 
BRANCH   2   3
ATOM      3  C   UNL     1      -2.385  -7.842   9.509  1.00  0.00     0.006 C 
BRANCH   3   4
ATOM      4  C   UNL     1      -2.989  -8.762   8.439  1.00  0.00     0.053 C 
BRANCH   4   5
ATOM      5  C   UNL     1      -4.461  -8.523   8.317  1.00  0.00     0.041 C 
ATOM      6  O   UNL     1      -5.278  -9.308   8.866  1.00  0.00    -0.550 OA
ATOM      7  O   UNL     1      -4.932  -7.462   7.554  1.00  0.00    -0.550 OA
ENDBRANCH   4   5
ENDBRANCH   3   4
ENDBRANCH   2   3
ENDBRANCH   1   2
BRANCH   1   8
ATOM      8  C   UNL     1      -0.104  -6.083   6.834  1.00  0.00     0.000 C 
BRANCH   8   9
ATOM      9  C   UNL     1      -0.404  -4.572   6.894  1.00  0.00     0.000 C 
BRANCH   9  10
ATOM     10  C   UNL     1      -1.189  -4.011   5.691  1.00  0.00     0.006 C 
BRANCH  10  11
ATOM     11  C   UNL     1      -1.284  -2.478   5.654  1.00  0.00     0.053 C 
BRANCH  11  12
ATOM     12  C   UNL     1      -1.503  -1.965   4.264  1.00  0.00     0.041 C 
ATOM     13  O   UNL     1      -1.779  -0.752   4.072  1.00  0.00    -0.550 OA
ATOM     14  O   UNL     1      -1.368  -2.821   3.178  1.00  0.00    -0.550 OA
ENDBRANCH  11  12
ENDBRANCH  10  11
ENDBRANCH   9  10
ENDBRANCH   8   9
ENDBRANCH   1   8
TORSDOF 9
ENDMDL
MODEL 4
REMARK VINA RESULT:    -4.238      1.821      2.776
REMARK INTER + INTRA:          -7.036
REMARK INTER:                  -6.683
REMARK INTRA:                  -0.353
REMARK UNBOUND:                -0.568
REMARK SMILES O=C([O-])CCCCCCCCC(=O)[O-]
REMARK SMILES IDX 7 1 6 2 5 3 4 4 2 5 1 6 3 7 8 8 9 9 10 10 11 11 12 12 13 13
REMARK SMILES IDX 14 14
REMARK H PARENT
REMARK Flexibility Score: inf
ROOT
ATOM      1  C   UNL     1       0.138  -1.377   9.761  1.00  0.00     0.000 C 
ENDROOT
BRANCH   1   2
ATOM      2  C   UNL     1      -1.031  -0.498   9.283  1.00  0.00     0.000 C 
BRANCH   2   3
ATOM      3  C   UNL     1      -0.798   0.083   7.880  1.00  0.00     0.006 C 
BRANCH   3   4
ATOM      4  C   UNL     1      -1.227  -0.879   6.765  1.00  0.00     0.053 C 
BRANCH   4   5
ATOM      5  C   UNL     1      -1.317  -0.157   5.458  1.00  0.00     0.041 C 
ATOM      6  O   UNL     1      -1.072   1.076   5.398  1.00  0.00    -0.550 OA
ATOM      7  O   UNL     1      -1.719  -0.836   4.314  1.00  0.00    -0.550 OA
ENDBRANCH   4   5
ENDBRANCH   3   4
ENDBRANCH   2   3
ENDBRANCH   1   2
BRANCH   1   8
ATOM      8  C   UNL     1      -0.056  -2.864   9.414  1.00  0.00     0.000 C 
BRANCH   8   9
ATOM      9  C   UNL     1       1.185  -3.752   9.640  1.00  0.00     0.000 C 
BRANCH   9  10
ATOM     10  C   UNL     1       1.013  -5.232   9.244  1.00  0.00     0.006 C 
BRANCH  10  11
ATOM     11  C   UNL     1       1.198  -5.513   7.745  1.00  0.00     0.053 C 
BRANCH  11  12
ATOM     12  C   UNL     1      -0.113  -5.703   7.046  1.00  0.00     0.041 C 
ATOM     13  O   UNL     1      -0.580  -4.790   6.317  1.00  0.00    -0.550 OA
ATOM     14  O   UNL     1      -0.800  -6.903   7.174  1.00  0.00    -0.550 OA
ENDBRANCH  11  12
ENDBRANCH  10  11
ENDBRANCH   9  10
ENDBRANCH   8   9
ENDBRANCH   1   8
TORSDOF 9
ENDMDL
MODEL 5
REMARK VINA RESULT:    -3.987      4.035      6.001
REMARK INTER + INTRA:          -6.654
REMARK INTER:                  -6.242
REMARK INTRA:                  -0.412
REMARK UNBOUND:                -0.568
REMARK SMILES O=C([O-])CCCCCCCCC(=O)[O-]
REMARK SMILES IDX 7 1 6 2 5 3 4 4 2 5 1 6 3 7 8 8 9 9 10 10 11 11 12 12 13 13
REMARK SMILES IDX 14 14
REMARK H PARENT
REMARK Flexibility Score: inf
ROOT
ATOM      1  C   UNL     1      -0.650  -7.409   6.878  1.00  0.00     0.000 C 
ENDROOT
BRANCH   1   2
ATOM      2  C   UNL     1      -1.728  -7.312   7.972  1.00  0.00     0.000 C 
BRANCH   2   3
ATOM      3  C   UNL     1      -2.433  -8.654   8.226  1.00  0.00     0.006 C 
BRANCH   3   4
ATOM      4  C   UNL     1      -3.792  -8.484   8.917  1.00  0.00     0.053 C 
BRANCH   4   5
ATOM      5  C   UNL     1      -4.872  -8.284   7.902  1.00  0.00     0.041 C 
ATOM      6  O   UNL     1      -5.139  -7.128   7.481  1.00  0.00    -0.550 OA
ATOM      7  O   UNL     1      -5.619  -9.369   7.458  1.00  0.00    -0.550 OA
ENDBRANCH   4   5
ENDBRANCH   3   4
ENDBRANCH   2   3
ENDBRANCH   1   2
BRANCH   1   8
ATOM      8  C   UNL     1       0.257  -6.166   6.826  1.00  0.00     0.000 C 
BRANCH   8   9
ATOM      9  C   UNL     1      -0.400  -4.860   7.316  1.00  0.00     0.000 C 
BRANCH   9  10
ATOM     10  C   UNL     1       0.125  -4.328   8.665  1.00  0.00     0.006 C 
BRANCH  10  11
ATOM     11  C   UNL     1       1.157  -5.238   9.347  1.00  0.00     0.053 C 
BRANCH  11  12
ATOM     12  C   UNL     1       2.559  -4.756   9.129  1.00  0.00     0.041 C 
ATOM     13  O   UNL     1       3.322  -5.364   8.334  1.00  0.00    -0.550 OA
ATOM     14  O   UNL     1       3.010  -3.615   9.780  1.00  0.00    -0.550 OA
ENDBRANCH  11  12
ENDBRANCH  10  11
ENDBRANCH   9  10
ENDBRANCH   8   9
ENDBRANCH   1   8
TORSDOF 9
ENDMDL
MODEL 6
REMARK VINA RESULT:    -3.822     14.770     17.604
REMARK INTER + INTRA:          -6.402
REMARK INTER:                  -5.784
REMARK INTRA:                  -0.618
REMARK UNBOUND:                -0.568
REMARK SMILES O=C([O-])CCCCCCCCC(=O)[O-]
REMARK SMILES IDX 7 1 6 2 5 3 4 4 2 5 1 6 3 7 8 8 9 9 10 10 11 11 12 12 13 13
REMARK SMILES IDX 14 14
REMARK H PARENT
REMARK Flexibility Score: inf
ROOT
ATOM      1  C   UNL     1       7.082   6.654  -5.217  1.00  0.00     0.000 C 
ENDROOT
BRANCH   1   2
ATOM      2  C   UNL     1       6.440   5.733  -4.165  1.00  0.00     0.000 C 
BRANCH   2   3
ATOM      3  C   UNL     1       5.060   5.214  -4.598  1.00  0.00     0.006 C 
BRANCH   3   4
ATOM      4  C   UNL     1       4.901   3.705  -4.375  1.00  0.00     0.053 C 
BRANCH   4   5
ATOM      5  C   UNL     1       4.559   3.021  -5.661  1.00  0.00     0.041 C 
ATOM      6  O   UNL     1       4.691   1.773  -5.769  1.00  0.00    -0.550 OA
ATOM      7  O   UNL     1       4.140   3.767  -6.756  1.00  0.00    -0.550 OA
ENDBRANCH   4   5
ENDBRANCH   3   4
ENDBRANCH   2   3
ENDBRANCH   1   2
BRANCH   1   8
ATOM      8  C   UNL     1       6.511   6.433  -6.629  1.00  0.00     0.000 C 
BRANCH   8   9
ATOM      9  C   UNL     1       6.417   7.703  -7.499  1.00  0.00     0.000 C 
BRANCH   9  10
ATOM     10  C   UNL     1       5.127   7.833  -8.333  1.00  0.00     0.006 C 
BRANCH  10  11
ATOM     11  C   UNL     1       3.962   6.961  -7.840  1.00  0.00     0.053 C 
BRANCH  11  12
ATOM     12  C   UNL     1       2.645   7.664  -7.965  1.00  0.00     0.041 C 
ATOM     13  O   UNL     1       1.601   7.141  -7.497  1.00  0.00    -0.550 OA
ATOM     14  O   UNL     1       2.580   8.913  -8.570  1.00  0.00    -0.550 OA
ENDBRANCH  11  12
ENDBRANCH  10  11
ENDBRANCH   9  10
ENDBRANCH   8   9
ENDBRANCH   1   8
TORSDOF 9
ENDMDL
MODEL 7
REMARK VINA RESULT:    -3.803      5.366      6.995
REMARK INTER + INTRA:          -6.372
REMARK INTER:                  -5.975
REMARK INTRA:                  -0.397
REMARK UNBOUND:                -0.568
REMARK SMILES O=C([O-])CCCCCCCCC(=O)[O-]
REMARK SMILES IDX 7 1 6 2 5 3 4 4 2 5 1 6 3 7 8 8 9 9 10 10 11 11 12 12 13 13
REMARK SMILES IDX 14 14
REMARK H PARENT
REMARK Flexibility Score: inf
ROOT
ATOM      1  C   UNL     1      -3.846  -8.845   8.624  1.00  0.00     0.000 C 
ENDROOT
BRANCH   1   2
ATOM      2  C   UNL     1      -4.761  -7.880   7.851  1.00  0.00     0.000 C 
BRANCH   2   3
ATOM      3  C   UNL     1      -5.576  -6.967   8.781  1.00  0.00     0.006 C 
BRANCH   3   4
ATOM      4  C   UNL     1      -7.057  -7.361   8.843  1.00  0.00     0.053 C 
BRANCH   4   5
ATOM      5  C   UNL     1      -7.925  -6.157   8.660  1.00  0.00     0.041 C 
ATOM      6  O   UNL     1      -9.105  -6.154   9.101  1.00  0.00    -0.550 OA
ATOM      7  O   UNL     1      -7.449  -5.056   7.958  1.00  0.00    -0.550 OA
ENDBRANCH   4   5
ENDBRANCH   3   4
ENDBRANCH   2   3
ENDBRANCH   1   2
BRANCH   1   8
ATOM      8  C   UNL     1      -2.367  -8.721   8.214  1.00  0.00     0.000 C 
BRANCH   8   9
ATOM      9  C   UNL     1      -1.889  -7.281   7.936  1.00  0.00     0.000 C 
BRANCH   9  10
ATOM     10  C   UNL     1      -0.635  -7.168   7.045  1.00  0.00     0.006 C 
BRANCH  10  11
ATOM     11  C   UNL     1      -0.171  -5.728   6.784  1.00  0.00     0.053 C 
BRANCH  11  12
ATOM     12  C   UNL     1       0.360  -5.077   8.024  1.00  0.00     0.041 C 
ATOM     13  O   UNL     1       1.374  -5.547   8.602  1.00  0.00    -0.550 OA
ATOM     14  O   UNL     1      -0.248  -3.932   8.521  1.00  0.00    -0.550 OA
ENDBRANCH  11  12
ENDBRANCH  10  11
ENDBRANCH   9  10
ENDBRANCH   8   9
ENDBRANCH   1   8
TORSDOF 9
ENDMDL
MODEL 8
REMARK VINA RESULT:    -3.788      3.839      5.718
REMARK INTER + INTRA:          -6.349
REMARK INTER:                  -5.863
REMARK INTRA:                  -0.486
REMARK UNBOUND:                -0.568
REMARK SMILES O=C([O-])CCCCCCCCC(=O)[O-]
REMARK SMILES IDX 7 1 6 2 5 3 4 4 2 5 1 6 3 7 8 8 9 9 10 10 11 11 12 12 13 13
REMARK SMILES IDX 14 14
REMARK H PARENT
REMARK Flexibility Score: inf
ROOT
ATOM      1  C   UNL     1       2.737  -4.326   9.014  1.00  0.00     0.000 C 
ENDROOT
BRANCH   1   2
ATOM      2  C   UNL     1       2.019  -5.414   9.831  1.00  0.00     0.000 C 
BRANCH   2   3
ATOM      3  C   UNL     1       0.517  -5.494   9.516  1.00  0.00     0.006 C 
BRANCH   3   4
ATOM      4  C   UNL     1       0.091  -4.505   8.424  1.00  0.00     0.053 C 
BRANCH   4   5
ATOM      5  C   UNL     1      -0.289  -5.238   7.176  1.00  0.00     0.041 C 
ATOM      6  O   UNL     1      -0.669  -4.601   6.159  1.00  0.00    -0.550 OA
ATOM      7  O   UNL     1      -0.270  -6.627   7.152  1.00  0.00    -0.550 OA
ENDBRANCH   4   5
ENDBRANCH   3   4
ENDBRANCH   2   3
ENDBRANCH   1   2
BRANCH   1   8
ATOM      8  C   UNL     1       3.398  -3.255   9.901  1.00  0.00     0.000 C 
BRANCH   8   9
ATOM      9  C   UNL     1       2.555  -1.983  10.122  1.00  0.00     0.000 C 
BRANCH   9  10
ATOM     10  C   UNL     1       3.324  -0.654   9.979  1.00  0.00     0.006 C 
BRANCH  10  11
ATOM     11  C   UNL     1       4.687  -0.781   9.282  1.00  0.00     0.053 C 
BRANCH  11  12
ATOM     12  C   UNL     1       5.196   0.544   8.803  1.00  0.00     0.041 C 
ATOM     13  O   UNL     1       4.399   1.397   8.333  1.00  0.00    -0.550 OA
ATOM     14  O   UNL     1       6.547   0.847   8.908  1.00  0.00    -0.550 OA
ENDBRANCH  11  12
ENDBRANCH  10  11
ENDBRANCH   9  10
ENDBRANCH   8   9
ENDBRANCH   1   8
TORSDOF 9
ENDMDL
MODEL 9
REMARK VINA RESULT:    -3.666     14.918     17.214
REMARK INTER + INTRA:          -6.163
REMARK INTER:                  -5.521
REMARK INTRA:                  -0.641
REMARK UNBOUND:                -0.568
REMARK SMILES O=C([O-])CCCCCCCCC(=O)[O-]
REMARK SMILES IDX 7 1 6 2 5 3 4 4 2 5 1 6 3 7 8 8 9 9 10 10 11 11 12 12 13 13
REMARK SMILES IDX 14 14
REMARK H PARENT
REMARK Flexibility Score: inf
ROOT
ATOM      1  C   UNL     1       7.311   7.170  -6.570  1.00  0.00     0.000 C 
ENDROOT
BRANCH   1   2
ATOM      2  C   UNL     1       6.419   6.763  -7.756  1.00  0.00     0.000 C 
BRANCH   2   3
ATOM      3  C   UNL     1       5.207   7.691  -7.929  1.00  0.00     0.006 C 
BRANCH   3   4
ATOM      4  C   UNL     1       3.985   6.963  -8.503  1.00  0.00     0.053 C 
BRANCH   4   5
ATOM      5  C   UNL     1       2.728   7.694  -8.150  1.00  0.00     0.041 C 
ATOM      6  O   UNL     1       1.871   7.156  -7.402  1.00  0.00    -0.550 OA
ATOM      7  O   UNL     1       2.481   8.952  -8.687  1.00  0.00    -0.550 OA
ENDBRANCH   4   5
ENDBRANCH   3   4
ENDBRANCH   2   3
ENDBRANCH   1   2
BRANCH   1   8
ATOM      8  C   UNL     1       7.514   6.028  -5.558  1.00  0.00     0.000 C 
BRANCH   8   9
ATOM      9  C   UNL     1       6.560   6.056  -4.346  1.00  0.00     0.000 C 
BRANCH   9  10
ATOM     10  C   UNL     1       5.165   5.450  -4.597  1.00  0.00     0.006 C 
BRANCH  10  11
ATOM     11  C   UNL     1       5.103   3.921  -4.461  1.00  0.00     0.053 C 
BRANCH  11  12
ATOM     12  C   UNL     1       4.614   3.267  -5.716  1.00  0.00     0.041 C 
ATOM     13  O   UNL     1       4.220   3.967  -6.684  1.00  0.00    -0.550 OA
ATOM     14  O   UNL     1       4.627   1.882  -5.828  1.00  0.00    -0.550 OA
ENDBRANCH  11  12
ENDBRANCH  10  11
ENDBRANCH   9  10
ENDBRANCH   8   9
ENDBRANCH   1   8
TORSDOF 9
ENDMDL
