MODEL 1
REMARK VINA RESULT:    -4.005      0.000      0.000
REMARK INTER + INTRA:         -12.520
REMARK INTER:                  -8.687
REMARK INTRA:                  -3.833
REMARK UNBOUND:                -3.833
REMARK SMILES CCCCCCCCCCCCCCCCCCCCCC(=O)[O-]
REMARK SMILES IDX 12 1 11 2 10 3 9 4 8 5 7 6 6 7 5 8 4 9 3 10 2 11 1 12 13 13
REMARK SMILES IDX 14 14 15 15 16 16 17 17 18 18 19 19 20 20 21 21 22 22 23 23
REMARK SMILES IDX 24 24
REMARK H PARENT
REMARK Flexibility Score: inf
ROOT
ATOM      1  C   UNL     1       5.428  13.891  10.912  1.00  0.00     0.000 C 
ENDROOT
BRANCH   1   2
ATOM      2  C   UNL     1       4.606  14.415  12.102  1.00  0.00     0.000 C 
BRANCH   2   3
ATOM      3  C   UNL     1       3.090  14.408  11.831  1.00  0.00     0.000 C 
BRANCH   3   4
ATOM      4  C   UNL     1       2.271  13.427  12.695  1.00  0.00    -0.000 C 
BRANCH   4   5
ATOM      5  C   UNL     1       2.497  11.935  12.381  1.00  0.00    -0.000 C 
BRANCH   5   6
ATOM      6  C   UNL     1       2.149  11.517  10.939  1.00  0.00    -0.000 C 
BRANCH   6   7
ATOM      7  C   UNL     1       3.351  11.089  10.074  1.00  0.00    -0.000 C 
BRANCH   7   8
ATOM      8  C   UNL     1       3.299  11.556   8.608  1.00  0.00    -0.000 C 
BRANCH   8   9
ATOM      9  C   UNL     1       2.078  12.440   8.307  1.00  0.00    -0.000 C 
BRANCH   9  10
ATOM     10  C   UNL     1       2.506  13.885   8.015  1.00  0.00    -0.000 C 
BRANCH  10  11
ATOM     11  C   UNL     1       1.581  14.919   8.676  1.00  0.00    -0.003 C 
ATOM     12  C   UNL     1       0.323  14.291   9.276  1.00  0.00     0.004 C 
ENDBRANCH  10  11
ENDBRANCH   9  10
ENDBRANCH   8   9
ENDBRANCH   7   8
ENDBRANCH   6   7
ENDBRANCH   5   6
ENDBRANCH   4   5
ENDBRANCH   3   4
ENDBRANCH   2   3
ENDBRANCH   1   2
BRANCH   1  13
ATOM     13  C   UNL     1       6.571  12.952  11.339  1.00  0.00     0.000 C 
BRANCH  13  14
ATOM     14  C   UNL     1       6.175  11.846  12.334  1.00  0.00     0.000 C 
BRANCH  14  15
ATOM     15  C   UNL     1       7.200  11.655  13.462  1.00  0.00     0.000 C 
BRANCH  15  16
ATOM     16  C   UNL     1       8.504  12.404  13.149  1.00  0.00     0.000 C 
BRANCH  16  17
ATOM     17  C   UNL     1       9.630  11.468  12.679  1.00  0.00     0.000 C 
BRANCH  17  18
ATOM     18  C   UNL     1      10.134  11.814  11.267  1.00  0.00     0.000 C 
BRANCH  18  19
ATOM     19  C   UNL     1       9.439  10.989  10.172  1.00  0.00     0.000 C 
BRANCH  19  20
ATOM     20  C   UNL     1       9.017   9.592  10.660  1.00  0.00     0.006 C 
BRANCH  20  21
ATOM     21  C   UNL     1       7.606   9.216  10.188  1.00  0.00     0.053 C 
BRANCH  21  22
ATOM     22  C   UNL     1       7.422   9.472   8.723  1.00  0.00     0.041 C 
ATOM     23  O   UNL     1       7.998   8.742   7.875  1.00  0.00    -0.550 OA
ATOM     24  O   UNL     1       6.636  10.535   8.297  1.00  0.00    -0.550 OA
ENDBRANCH  21  22
ENDBRANCH  20  21
ENDBRANCH  19  20
ENDBRANCH  18  19
ENDBRANCH  17  18
ENDBRANCH  16  17
ENDBRANCH  15  16
ENDBRANCH  14  15
ENDBRANCH  13  14
ENDBRANCH   1  13
TORSDOF 20
ENDMDL
MODEL 2
REMARK VINA RESULT:    -3.993      1.786      3.171
REMARK INTER + INTRA:         -12.494
REMARK INTER:                  -8.504
REMARK INTRA:                  -3.989
REMARK UNBOUND:                -3.833
REMARK SMILES CCCCCCCCCCCCCCCCCCCCCC(=O)[O-]
REMARK SMILES IDX 12 1 11 2 10 3 9 4 8 5 7 6 6 7 5 8 4 9 3 10 2 11 1 12 13 13
REMARK SMILES IDX 14 14 15 15 16 16 17 17 18 18 19 19 20 20 21 21 22 22 23 23
REMARK SMILES IDX 24 24
REMARK H PARENT
REMARK Flexibility Score: inf
ROOT
ATOM      1  C   UNL     1       3.083  14.719  11.524  1.00  0.00     0.000 C 
ENDROOT
BRANCH   1   2
ATOM      2  C   UNL     1       1.782  13.901  11.468  1.00  0.00     0.000 C 
BRANCH   2   3
ATOM      3  C   UNL     1       1.105  13.947  10.085  1.00  0.00     0.000 C 
BRANCH   3   4
ATOM      4  C   UNL     1       1.947  14.584   8.961  1.00  0.00    -0.000 C 
BRANCH   4   5
ATOM      5  C   UNL     1       2.551  13.587   7.952  1.00  0.00    -0.000 C 
BRANCH   5   6
ATOM      6  C   UNL     1       3.950  13.057   8.324  1.00  0.00    -0.000 C 
BRANCH   6   7
ATOM      7  C   UNL     1       4.026  11.540   8.587  1.00  0.00    -0.000 C 
BRANCH   7   8
ATOM      8  C   UNL     1       3.471  11.086   9.949  1.00  0.00    -0.000 C 
BRANCH   8   9
ATOM      9  C   UNL     1       2.515   9.889   9.836  1.00  0.00    -0.000 C 
BRANCH   9  10
ATOM     10  C   UNL     1       1.067  10.360   9.640  1.00  0.00    -0.000 C 
BRANCH  10  11
ATOM     11  C   UNL     1       0.644  10.371   8.164  1.00  0.00    -0.003 C 
ATOM     12  C   UNL     1      -0.509  11.336   7.884  1.00  0.00     0.004 C 
ENDBRANCH  10  11
ENDBRANCH   9  10
ENDBRANCH   8   9
ENDBRANCH   7   8
ENDBRANCH   6   7
ENDBRANCH   5   6
ENDBRANCH   4   5
ENDBRANCH   3   4
ENDBRANCH   2   3
ENDBRANCH   1   2
BRANCH   1  13
ATOM     13  C   UNL     1       3.933  14.410  12.771  1.00  0.00     0.000 C 
BRANCH  13  14
ATOM     14  C   UNL     1       5.129  13.470  12.533  1.00  0.00     0.000 C 
BRANCH  14  15
ATOM     15  C   UNL     1       5.927  13.819  11.267  1.00  0.00     0.000 C 
BRANCH  15  16
ATOM     16  C   UNL     1       7.009  12.763  10.993  1.00  0.00     0.000 C 
BRANCH  16  17
ATOM     17  C   UNL     1       6.703  11.411  11.658  1.00  0.00     0.000 C 
BRANCH  17  18
ATOM     18  C   UNL     1       7.390  10.234  10.944  1.00  0.00     0.000 C 
BRANCH  18  19
ATOM     19  C   UNL     1       7.458  10.424   9.420  1.00  0.00     0.000 C 
BRANCH  19  20
ATOM     20  C   UNL     1       7.771   9.116   8.671  1.00  0.00     0.006 C 
BRANCH  20  21
ATOM     21  C   UNL     1       6.733   8.809   7.584  1.00  0.00     0.053 C 
BRANCH  21  22
ATOM     22  C   UNL     1       5.678   7.864   8.072  1.00  0.00     0.041 C 
ATOM     23  O   UNL     1       4.484   7.998   7.699  1.00  0.00    -0.550 OA
ATOM     24  O   UNL     1       6.011   6.852   8.963  1.00  0.00    -0.550 OA
ENDBRANCH  21  22
ENDBRANCH  20  21
ENDBRANCH  19  20
ENDBRANCH  18  19
ENDBRANCH  17  18
ENDBRANCH  16  17
ENDBRANCH  15  16
ENDBRANCH  14  15
ENDBRANCH  13  14
ENDBRANCH   1  13
TORSDOF 20
ENDMDL
MODEL 3
REMARK VINA RESULT:    -3.957      1.369      2.862
REMARK INTER + INTRA:         -12.415
REMARK INTER:                  -9.377
REMARK INTRA:                  -3.038
REMARK UNBOUND:                -3.833
REMARK SMILES CCCCCCCCCCCCCCCCCCCCCC(=O)[O-]
REMARK SMILES IDX 12 1 11 2 10 3 9 4 8 5 7 6 6 7 5 8 4 9 3 10 2 11 1 12 13 13
REMARK SMILES IDX 14 14 15 15 16 16 17 17 18 18 19 19 20 20 21 21 22 22 23 23
REMARK SMILES IDX 24 24
REMARK H PARENT
REMARK Flexibility Score: inf
ROOT
ATOM      1  C   UNL     1       4.110  15.019  12.557  1.00  0.00     0.000 C 
ENDROOT
BRANCH   1   2
ATOM      2  C   UNL     1       2.668  14.629  12.192  1.00  0.00     0.000 C 
BRANCH   2   3
ATOM      3  C   UNL     1       2.207  15.230  10.851  1.00  0.00     0.000 C 
BRANCH   3   4
ATOM      4  C   UNL     1       1.550  14.234   9.873  1.00  0.00    -0.000 C 
BRANCH   4   5
ATOM      5  C   UNL     1       1.640  14.624   8.385  1.00  0.00    -0.000 C 
BRANCH   5   6
ATOM      6  C   UNL     1       2.730  13.882   7.586  1.00  0.00    -0.000 C 
BRANCH   6   7
ATOM      7  C   UNL     1       2.817  12.366   7.851  1.00  0.00    -0.000 C 
BRANCH   7   8
ATOM      8  C   UNL     1       3.908  11.942   8.851  1.00  0.00    -0.000 C 
BRANCH   8   9
ATOM      9  C   UNL     1       3.501  10.724   9.695  1.00  0.00    -0.000 C 
BRANCH   9  10
ATOM     10  C   UNL     1       3.381  11.101  11.178  1.00  0.00    -0.000 C 
BRANCH  10  11
ATOM     11  C   UNL     1       1.954  10.922  11.719  1.00  0.00    -0.003 C 
ATOM     12  C   UNL     1       0.967  10.463  10.645  1.00  0.00     0.004 C 
ENDBRANCH  10  11
ENDBRANCH   9  10
ENDBRANCH   8   9
ENDBRANCH   7   8
ENDBRANCH   6   7
ENDBRANCH   5   6
ENDBRANCH   4   5
ENDBRANCH   3   4
ENDBRANCH   2   3
ENDBRANCH   1   2
BRANCH   1  13
ATOM     13  C   UNL     1       5.086  13.829  12.508  1.00  0.00     0.000 C 
BRANCH  13  14
ATOM     14  C   UNL     1       5.999  13.780  11.269  1.00  0.00     0.000 C 
BRANCH  14  15
ATOM     15  C   UNL     1       6.864  12.512  11.209  1.00  0.00     0.000 C 
BRANCH  15  16
ATOM     16  C   UNL     1       7.026  11.892  12.605  1.00  0.00     0.000 C 
BRANCH  16  17
ATOM     17  C   UNL     1       8.467  11.980  13.132  1.00  0.00     0.000 C 
BRANCH  17  18
ATOM     18  C   UNL     1       9.514  11.847  12.011  1.00  0.00     0.000 C 
BRANCH  18  19
ATOM     19  C   UNL     1       9.919  10.387  11.751  1.00  0.00     0.000 C 
BRANCH  19  20
ATOM     20  C   UNL     1       9.574   9.921  10.324  1.00  0.00     0.006 C 
BRANCH  20  21
ATOM     21  C   UNL     1       8.242   9.164  10.269  1.00  0.00     0.053 C 
BRANCH  21  22
ATOM     22  C   UNL     1       8.447   7.680  10.210  1.00  0.00     0.041 C 
ATOM     23  O   UNL     1       9.605   7.196  10.288  1.00  0.00    -0.550 OA
ATOM     24  O   UNL     1       7.357   6.835  10.041  1.00  0.00    -0.550 OA
ENDBRANCH  21  22
ENDBRANCH  20  21
ENDBRANCH  19  20
ENDBRANCH  18  19
ENDBRANCH  17  18
ENDBRANCH  16  17
ENDBRANCH  15  16
ENDBRANCH  14  15
ENDBRANCH  13  14
ENDBRANCH   1  13
TORSDOF 20
ENDMDL
MODEL 4
REMARK VINA RESULT:    -3.901      2.073      6.833
REMARK INTER + INTRA:         -12.296
REMARK INTER:                  -9.134
REMARK INTRA:                  -3.162
REMARK UNBOUND:                -3.833
REMARK SMILES CCCCCCCCCCCCCCCCCCCCCC(=O)[O-]
REMARK SMILES IDX 12 1 11 2 10 3 9 4 8 5 7 6 6 7 5 8 4 9 3 10 2 11 1 12 13 13
REMARK SMILES IDX 14 14 15 15 16 16 17 17 18 18 19 19 20 20 21 21 22 22 23 23
REMARK SMILES IDX 24 24
REMARK H PARENT
REMARK Flexibility Score: inf
ROOT
ATOM      1  C   UNL     1       3.526  14.934  12.512  1.00  0.00     0.000 C 
ENDROOT
BRANCH   1   2
ATOM      2  C   UNL     1       4.865  14.239  12.211  1.00  0.00     0.000 C 
BRANCH   2   3
ATOM      3  C   UNL     1       4.948  12.820  12.804  1.00  0.00     0.000 C 
BRANCH   3   4
ATOM      4  C   UNL     1       6.375  12.261  12.980  1.00  0.00    -0.000 C 
BRANCH   4   5
ATOM      5  C   UNL     1       7.239  12.263  11.704  1.00  0.00    -0.000 C 
BRANCH   5   6
ATOM      6  C   UNL     1       7.814  10.888  11.309  1.00  0.00    -0.000 C 
BRANCH   6   7
ATOM      7  C   UNL     1       9.329  10.722  11.542  1.00  0.00    -0.000 C 
BRANCH   7   8
ATOM      8  C   UNL     1      10.090  12.027  11.837  1.00  0.00    -0.000 C 
BRANCH   8   9
ATOM      9  C   UNL     1      10.885  11.971  13.151  1.00  0.00    -0.000 C 
BRANCH   9  10
ATOM     10  C   UNL     1      10.110  12.651  14.289  1.00  0.00    -0.000 C 
BRANCH  10  11
ATOM     11  C   UNL     1       9.466  11.641  15.251  1.00  0.00    -0.003 C 
ATOM     12  C   UNL     1       8.345  12.253  16.090  1.00  0.00     0.004 C 
ENDBRANCH  10  11
ENDBRANCH   9  10
ENDBRANCH   8   9
ENDBRANCH   7   8
ENDBRANCH   6   7
ENDBRANCH   5   6
ENDBRANCH   4   5
ENDBRANCH   3   4
ENDBRANCH   2   3
ENDBRANCH   1   2
BRANCH   1  13
ATOM     13  C   UNL     1       2.607  15.028  11.280  1.00  0.00     0.000 C 
BRANCH  13  14
ATOM     14  C   UNL     1       1.512  13.949  11.195  1.00  0.00     0.000 C 
BRANCH  14  15
ATOM     15  C   UNL     1       0.762  13.957   9.855  1.00  0.00     0.000 C 
BRANCH  15  16
ATOM     16  C   UNL     1       1.653  14.508   8.732  1.00  0.00     0.000 C 
BRANCH  16  17
ATOM     17  C   UNL     1       2.014  13.445   7.682  1.00  0.00     0.000 C 
BRANCH  17  18
ATOM     18  C   UNL     1       3.531  13.208   7.579  1.00  0.00     0.000 C 
BRANCH  18  19
ATOM     19  C   UNL     1       4.161  12.811   8.924  1.00  0.00     0.000 C 
BRANCH  19  20
ATOM     20  C   UNL     1       4.160  11.289   9.153  1.00  0.00     0.006 C 
BRANCH  20  21
ATOM     21  C   UNL     1       3.164  10.868  10.241  1.00  0.00     0.053 C 
BRANCH  21  22
ATOM     22  C   UNL     1       2.108   9.950   9.704  1.00  0.00     0.041 C 
ATOM     23  O   UNL     1       2.373   8.740   9.480  1.00  0.00    -0.550 OA
ATOM     24  O   UNL     1       0.839  10.440   9.425  1.00  0.00    -0.550 OA
ENDBRANCH  21  22
ENDBRANCH  20  21
ENDBRANCH  19  20
ENDBRANCH  18  19
ENDBRANCH  17  18
ENDBRANCH  16  17
ENDBRANCH  15  16
ENDBRANCH  14  15
ENDBRANCH  13  14
ENDBRANCH   1  13
TORSDOF 20
ENDMDL
MODEL 5
REMARK VINA RESULT:    -3.887      1.884      3.298
REMARK INTER + INTRA:         -12.264
REMARK INTER:                  -8.619
REMARK INTRA:                  -3.645
REMARK UNBOUND:                -3.833
REMARK SMILES CCCCCCCCCCCCCCCCCCCCCC(=O)[O-]
REMARK SMILES IDX 12 1 11 2 10 3 9 4 8 5 7 6 6 7 5 8 4 9 3 10 2 11 1 12 13 13
REMARK SMILES IDX 14 14 15 15 16 16 17 17 18 18 19 19 20 20 21 21 22 22 23 23
REMARK SMILES IDX 24 24
REMARK H PARENT
REMARK Flexibility Score: inf
ROOT
ATOM      1  C   UNL     1       3.386  14.915  12.015  1.00  0.00     0.000 C 
ENDROOT
BRANCH   1   2
ATOM      2  C   UNL     1       2.404  13.906  11.396  1.00  0.00     0.000 C 
BRANCH   2   3
ATOM      3  C   UNL     1       2.572  13.765   9.872  1.00  0.00     0.000 C 
BRANCH   3   4
ATOM      4  C   UNL     1       3.997  13.412   9.396  1.00  0.00    -0.000 C 
BRANCH   4   5
ATOM      5  C   UNL     1       4.134  12.039   8.711  1.00  0.00    -0.000 C 
BRANCH   5   6
ATOM      6  C   UNL     1       3.786  10.831   9.604  1.00  0.00    -0.000 C 
BRANCH   6   7
ATOM      7  C   UNL     1       2.534  10.040   9.174  1.00  0.00    -0.000 C 
BRANCH   7   8
ATOM      8  C   UNL     1       1.324  10.172  10.117  1.00  0.00    -0.000 C 
BRANCH   8   9
ATOM      9  C   UNL     1       1.730  10.324  11.591  1.00  0.00    -0.000 C 
BRANCH   9  10
ATOM     10  C   UNL     1       0.533  10.762  12.447  1.00  0.00    -0.000 C 
BRANCH  10  11
ATOM     11  C   UNL     1       0.937  11.133  13.882  1.00  0.00    -0.003 C 
ATOM     12  C   UNL     1       0.564  12.570  14.249  1.00  0.00     0.004 C 
ENDBRANCH  10  11
ENDBRANCH   9  10
ENDBRANCH   8   9
ENDBRANCH   7   8
ENDBRANCH   6   7
ENDBRANCH   5   6
ENDBRANCH   4   5
ENDBRANCH   3   4
ENDBRANCH   2   3
ENDBRANCH   1   2
BRANCH   1  13
ATOM     13  C   UNL     1       4.369  14.265  13.008  1.00  0.00     0.000 C 
BRANCH  13  14
ATOM     14  C   UNL     1       4.210  12.744  13.187  1.00  0.00     0.000 C 
BRANCH  14  15
ATOM     15  C   UNL     1       5.403  11.946  12.641  1.00  0.00     0.000 C 
BRANCH  15  16
ATOM     16  C   UNL     1       6.428  12.878  11.977  1.00  0.00     0.000 C 
BRANCH  16  17
ATOM     17  C   UNL     1       7.391  12.133  11.039  1.00  0.00     0.000 C 
BRANCH  17  18
ATOM     18  C   UNL     1       7.529  10.643  11.397  1.00  0.00     0.000 C 
BRANCH  18  19
ATOM     19  C   UNL     1       7.334   9.722  10.181  1.00  0.00     0.000 C 
BRANCH  19  20
ATOM     20  C   UNL     1       8.419   8.634  10.081  1.00  0.00     0.006 C 
BRANCH  20  21
ATOM     21  C   UNL     1       7.830   7.220  10.166  1.00  0.00     0.053 C 
BRANCH  21  22
ATOM     22  C   UNL     1       7.130   6.831   8.899  1.00  0.00     0.041 C 
ATOM     23  O   UNL     1       7.765   6.779   7.814  1.00  0.00    -0.550 OA
ATOM     24  O   UNL     1       5.769   6.555   8.915  1.00  0.00    -0.550 OA
ENDBRANCH  21  22
ENDBRANCH  20  21
ENDBRANCH  19  20
ENDBRANCH  18  19
ENDBRANCH  17  18
ENDBRANCH  16  17
ENDBRANCH  15  16
ENDBRANCH  14  15
ENDBRANCH  13  14
ENDBRANCH   1  13
TORSDOF 20
ENDMDL
MODEL 6
REMARK VINA RESULT:    -3.876      1.929      4.916
REMARK INTER + INTRA:         -12.241
REMARK INTER:                  -9.284
REMARK INTRA:                  -2.957
REMARK UNBOUND:                -3.833
REMARK SMILES CCCCCCCCCCCCCCCCCCCCCC(=O)[O-]
REMARK SMILES IDX 12 1 11 2 10 3 9 4 8 5 7 6 6 7 5 8 4 9 3 10 2 11 1 12 13 13
REMARK SMILES IDX 14 14 15 15 16 16 17 17 18 18 19 19 20 20 21 21 22 22 23 23
REMARK SMILES IDX 24 24
REMARK H PARENT
REMARK Flexibility Score: inf
ROOT
ATOM      1  C   UNL     1       2.624  14.029   7.738  1.00  0.00     0.000 C 
ENDROOT
BRANCH   1   2
ATOM      2  C   UNL     1       1.377  14.104   8.637  1.00  0.00     0.000 C 
BRANCH   2   3
ATOM      3  C   UNL     1       1.132  15.516   9.202  1.00  0.00     0.000 C 
BRANCH   3   4
ATOM      4  C   UNL     1       1.863  15.834  10.522  1.00  0.00    -0.000 C 
BRANCH   4   5
ATOM      5  C   UNL     1       2.359  14.604  11.307  1.00  0.00    -0.000 C 
BRANCH   5   6
ATOM      6  C   UNL     1       3.624  14.843  12.154  1.00  0.00    -0.000 C 
BRANCH   6   7
ATOM      7  C   UNL     1       4.847  13.992  11.758  1.00  0.00    -0.000 C 
BRANCH   7   8
ATOM      8  C   UNL     1       5.157  12.816  12.702  1.00  0.00    -0.000 C 
BRANCH   8   9
ATOM      9  C   UNL     1       6.379  11.998  12.255  1.00  0.00    -0.000 C 
BRANCH   9  10
ATOM     10  C   UNL     1       7.238  12.794  11.262  1.00  0.00    -0.000 C 
BRANCH  10  11
ATOM     11  C   UNL     1       8.650  12.211  11.102  1.00  0.00    -0.003 C 
ATOM     12  C   UNL     1       9.357  11.994  12.441  1.00  0.00     0.004 C 
ENDBRANCH  10  11
ENDBRANCH   9  10
ENDBRANCH   8   9
ENDBRANCH   7   8
ENDBRANCH   6   7
ENDBRANCH   5   6
ENDBRANCH   4   5
ENDBRANCH   3   4
ENDBRANCH   2   3
ENDBRANCH   1   2
BRANCH   1  13
ATOM     13  C   UNL     1       3.466  12.763   7.984  1.00  0.00     0.000 C 
BRANCH  13  14
ATOM     14  C   UNL     1       2.975  11.861   9.131  1.00  0.00     0.000 C 
BRANCH  14  15
ATOM     15  C   UNL     1       4.064  10.920   9.665  1.00  0.00     0.000 C 
BRANCH  15  16
ATOM     16  C   UNL     1       5.286  10.913   8.734  1.00  0.00     0.000 C 
BRANCH  16  17
ATOM     17  C   UNL     1       6.324   9.847   9.121  1.00  0.00     0.000 C 
BRANCH  17  18
ATOM     18  C   UNL     1       7.554   9.858   8.198  1.00  0.00     0.000 C 
BRANCH  18  19
ATOM     19  C   UNL     1       8.824   9.347   8.898  1.00  0.00     0.000 C 
BRANCH  19  20
ATOM     20  C   UNL     1       8.522   8.622  10.221  1.00  0.00     0.006 C 
BRANCH  20  21
ATOM     21  C   UNL     1       8.329   7.113  10.022  1.00  0.00     0.053 C 
BRANCH  21  22
ATOM     22  C   UNL     1       9.552   6.339  10.411  1.00  0.00     0.041 C 
ATOM     23  O   UNL     1       9.530   5.081  10.421  1.00  0.00    -0.550 OA
ATOM     24  O   UNL     1      10.707   7.012  10.790  1.00  0.00    -0.550 OA
ENDBRANCH  21  22
ENDBRANCH  20  21
ENDBRANCH  19  20
ENDBRANCH  18  19
ENDBRANCH  17  18
ENDBRANCH  16  17
ENDBRANCH  15  16
ENDBRANCH  14  15
ENDBRANCH  13  14
ENDBRANCH   1  13
TORSDOF 20
ENDMDL
MODEL 7
REMARK VINA RESULT:    -3.865      1.821      3.942
REMARK INTER + INTRA:         -12.218
REMARK INTER:                  -8.861
REMARK INTRA:                  -3.357
REMARK UNBOUND:                -3.833
REMARK SMILES CCCCCCCCCCCCCCCCCCCCCC(=O)[O-]
REMARK SMILES IDX 12 1 11 2 10 3 9 4 8 5 7 6 6 7 5 8 4 9 3 10 2 11 1 12 13 13
REMARK SMILES IDX 14 14 15 15 16 16 17 17 18 18 19 19 20 20 21 21 22 22 23 23
REMARK SMILES IDX 24 24
REMARK H PARENT
REMARK Flexibility Score: inf
ROOT
ATOM      1  C   UNL     1       7.382  12.697  11.195  1.00  0.00     0.000 C 
ENDROOT
BRANCH   1   2
ATOM      2  C   UNL     1       5.886  12.958  10.952  1.00  0.00     0.000 C 
BRANCH   2   3
ATOM      3  C   UNL     1       5.005  11.736  11.273  1.00  0.00     0.000 C 
BRANCH   3   4
ATOM      4  C   UNL     1       3.877  11.453  10.260  1.00  0.00    -0.000 C 
BRANCH   4   5
ATOM      5  C   UNL     1       4.158  11.925   8.820  1.00  0.00    -0.000 C 
BRANCH   5   6
ATOM      6  C   UNL     1       2.925  12.448   8.057  1.00  0.00    -0.000 C 
BRANCH   6   7
ATOM      7  C   UNL     1       2.831  13.982   7.938  1.00  0.00    -0.000 C 
BRANCH   7   8
ATOM      8  C   UNL     1       1.597  14.613   8.607  1.00  0.00    -0.000 C 
BRANCH   8   9
ATOM      9  C   UNL     1       1.469  14.244  10.093  1.00  0.00    -0.000 C 
BRANCH   9  10
ATOM     10  C   UNL     1       2.376  15.131  10.958  1.00  0.00    -0.000 C 
BRANCH  10  11
ATOM     11  C   UNL     1       2.676  14.510  12.330  1.00  0.00    -0.003 C 
ATOM     12  C   UNL     1       3.978  15.026  12.944  1.00  0.00     0.004 C 
ENDBRANCH  10  11
ENDBRANCH   9  10
ENDBRANCH   8   9
ENDBRANCH   7   8
ENDBRANCH   6   7
ENDBRANCH   5   6
ENDBRANCH   4   5
ENDBRANCH   3   4
ENDBRANCH   2   3
ENDBRANCH   1   2
BRANCH   1  13
ATOM     13  C   UNL     1       7.659  11.305  11.793  1.00  0.00     0.000 C 
BRANCH  13  14
ATOM     14  C   UNL     1       8.293  10.289  10.825  1.00  0.00     0.000 C 
BRANCH  14  15
ATOM     15  C   UNL     1       8.565  10.874   9.432  1.00  0.00     0.000 C 
BRANCH  15  16
ATOM     16  C   UNL     1       7.539  10.359   8.411  1.00  0.00     0.000 C 
BRANCH  16  17
ATOM     17  C   UNL     1       6.659   9.229   8.970  1.00  0.00     0.000 C 
BRANCH  17  18
ATOM     18  C   UNL     1       6.537   8.041   7.999  1.00  0.00     0.000 C 
BRANCH  18  19
ATOM     19  C   UNL     1       6.747   6.685   8.694  1.00  0.00     0.000 C 
BRANCH  19  20
ATOM     20  C   UNL     1       7.479   6.816  10.041  1.00  0.00     0.006 C 
BRANCH  20  21
ATOM     21  C   UNL     1       8.845   6.118  10.028  1.00  0.00     0.053 C 
BRANCH  21  22
ATOM     22  C   UNL     1       9.688   6.568   8.873  1.00  0.00     0.041 C 
ATOM     23  O   UNL     1      10.135   7.744   8.834  1.00  0.00    -0.550 OA
ATOM     24  O   UNL     1       9.955   5.695   7.826  1.00  0.00    -0.550 OA
ENDBRANCH  21  22
ENDBRANCH  20  21
ENDBRANCH  19  20
ENDBRANCH  18  19
ENDBRANCH  17  18
ENDBRANCH  16  17
ENDBRANCH  15  16
ENDBRANCH  14  15
ENDBRANCH  13  14
ENDBRANCH   1  13
TORSDOF 20
ENDMDL
MODEL 8
REMARK VINA RESULT:    -3.846      2.215      3.121
REMARK INTER + INTRA:         -12.175
REMARK INTER:                  -8.664
REMARK INTRA:                  -3.511
REMARK UNBOUND:                -3.833
REMARK SMILES CCCCCCCCCCCCCCCCCCCCCC(=O)[O-]
REMARK SMILES IDX 12 1 11 2 10 3 9 4 8 5 7 6 6 7 5 8 4 9 3 10 2 11 1 12 13 13
REMARK SMILES IDX 14 14 15 15 16 16 17 17 18 18 19 19 20 20 21 21 22 22 23 23
REMARK SMILES IDX 24 24
REMARK H PARENT
REMARK Flexibility Score: inf
ROOT
ATOM      1  C   UNL     1       6.129  13.537  11.190  1.00  0.00     0.000 C 
ENDROOT
BRANCH   1   2
ATOM      2  C   UNL     1       4.710  13.990  11.576  1.00  0.00     0.000 C 
BRANCH   2   3
ATOM      3  C   UNL     1       3.904  12.889  12.289  1.00  0.00     0.000 C 
BRANCH   3   4
ATOM      4  C   UNL     1       2.741  12.290  11.472  1.00  0.00    -0.000 C 
BRANCH   4   5
ATOM      5  C   UNL     1       3.082  11.005  10.693  1.00  0.00    -0.000 C 
BRANCH   5   6
ATOM      6  C   UNL     1       2.976  11.128   9.160  1.00  0.00    -0.000 C 
BRANCH   6   7
ATOM      7  C   UNL     1       4.111  11.926   8.489  1.00  0.00    -0.000 C 
BRANCH   7   8
ATOM      8  C   UNL     1       3.661  13.193   7.738  1.00  0.00    -0.000 C 
BRANCH   8   9
ATOM      9  C   UNL     1       2.158  13.475   7.890  1.00  0.00    -0.000 C 
BRANCH   9  10
ATOM     10  C   UNL     1       1.917  14.675   8.816  1.00  0.00    -0.000 C 
BRANCH  10  11
ATOM     11  C   UNL     1       0.450  14.796   9.256  1.00  0.00    -0.003 C 
ATOM     12  C   UNL     1      -0.202  13.439   9.523  1.00  0.00     0.004 C 
ENDBRANCH  10  11
ENDBRANCH   9  10
ENDBRANCH   8   9
ENDBRANCH   7   8
ENDBRANCH   6   7
ENDBRANCH   5   6
ENDBRANCH   4   5
ENDBRANCH   3   4
ENDBRANCH   2   3
ENDBRANCH   1   2
BRANCH   1  13
ATOM     13  C   UNL     1       6.752  12.574  12.217  1.00  0.00     0.000 C 
BRANCH  13  14
ATOM     14  C   UNL     1       7.106  11.177  11.676  1.00  0.00     0.000 C 
BRANCH  14  15
ATOM     15  C   UNL     1       7.163  11.122  10.142  1.00  0.00     0.000 C 
BRANCH  15  16
ATOM     16  C   UNL     1       8.608  10.946   9.654  1.00  0.00     0.000 C 
BRANCH  16  17
ATOM     17  C   UNL     1       8.696  10.219   8.303  1.00  0.00     0.000 C 
BRANCH  17  18
ATOM     18  C   UNL     1       7.326  10.084   7.615  1.00  0.00     0.000 C 
BRANCH  18  19
ATOM     19  C   UNL     1       6.827   8.630   7.571  1.00  0.00     0.000 C 
BRANCH  19  20
ATOM     20  C   UNL     1       5.439   8.460   8.214  1.00  0.00     0.006 C 
BRANCH  20  21
ATOM     21  C   UNL     1       4.902   7.031   8.063  1.00  0.00     0.053 C 
BRANCH  21  22
ATOM     22  C   UNL     1       3.632   6.995   7.268  1.00  0.00     0.041 C 
ATOM     23  O   UNL     1       3.293   5.946   6.661  1.00  0.00    -0.550 OA
ATOM     24  O   UNL     1       2.839   8.132   7.175  1.00  0.00    -0.550 OA
ENDBRANCH  21  22
ENDBRANCH  20  21
ENDBRANCH  19  20
ENDBRANCH  18  19
ENDBRANCH  17  18
ENDBRANCH  16  17
ENDBRANCH  15  16
ENDBRANCH  14  15
ENDBRANCH  13  14
ENDBRANCH   1  13
TORSDOF 20
ENDMDL
MODEL 9
REMARK VINA RESULT:    -3.821      1.950      3.842
REMARK INTER + INTRA:         -12.121
REMARK INTER:                  -8.791
REMARK INTRA:                  -3.330
REMARK UNBOUND:                -3.833
REMARK SMILES CCCCCCCCCCCCCCCCCCCCCC(=O)[O-]
REMARK SMILES IDX 12 1 11 2 10 3 9 4 8 5 7 6 6 7 5 8 4 9 3 10 2 11 1 12 13 13
REMARK SMILES IDX 14 14 15 15 16 16 17 17 18 18 19 19 20 20 21 21 22 22 23 23
REMARK SMILES IDX 24 24
REMARK H PARENT
REMARK Flexibility Score: inf
ROOT
ATOM      1  C   UNL     1       6.019  11.485  11.919  1.00  0.00     0.000 C 
ENDROOT
BRANCH   1   2
ATOM      2  C   UNL     1       6.479  12.952  11.968  1.00  0.00     0.000 C 
BRANCH   2   3
ATOM      3  C   UNL     1       5.522  13.904  11.226  1.00  0.00     0.000 C 
BRANCH   3   4
ATOM      4  C   UNL     1       4.483  14.618  12.115  1.00  0.00    -0.000 C 
BRANCH   4   5
ATOM      5  C   UNL     1       3.046  14.073  12.006  1.00  0.00    -0.000 C 
BRANCH   5   6
ATOM      6  C   UNL     1       2.254  14.571  10.780  1.00  0.00    -0.000 C 
BRANCH   6   7
ATOM      7  C   UNL     1       2.078  13.536   9.652  1.00  0.00    -0.000 C 
BRANCH   7   8
ATOM      8  C   UNL     1       2.832  13.858   8.349  1.00  0.00    -0.000 C 
BRANCH   8   9
ATOM      9  C   UNL     1       3.772  12.725   7.908  1.00  0.00    -0.000 C 
BRANCH   9  10
ATOM     10  C   UNL     1       3.808  11.604   8.956  1.00  0.00    -0.000 C 
BRANCH  10  11
ATOM     11  C   UNL     1       3.438  10.233   8.367  1.00  0.00    -0.003 C 
ATOM     12  C   UNL     1       1.954  10.118   8.020  1.00  0.00     0.004 C 
ENDBRANCH  10  11
ENDBRANCH   9  10
ENDBRANCH   8   9
ENDBRANCH   7   8
ENDBRANCH   6   7
ENDBRANCH   5   6
ENDBRANCH   4   5
ENDBRANCH   3   4
ENDBRANCH   2   3
ENDBRANCH   1   2
BRANCH   1  13
ATOM     13  C   UNL     1       6.746  10.664  10.838  1.00  0.00     0.000 C 
BRANCH  13  14
ATOM     14  C   UNL     1       8.021  11.313  10.267  1.00  0.00     0.000 C 
BRANCH  14  15
ATOM     15  C   UNL     1       8.486  10.671   8.952  1.00  0.00     0.000 C 
BRANCH  15  16
ATOM     16  C   UNL     1       7.285  10.287   8.075  1.00  0.00     0.000 C 
BRANCH  16  17
ATOM     17  C   UNL     1       7.370   8.847   7.545  1.00  0.00     0.000 C 
BRANCH  17  18
ATOM     18  C   UNL     1       6.232   7.955   8.075  1.00  0.00     0.000 C 
BRANCH  18  19
ATOM     19  C   UNL     1       6.751   6.732   8.849  1.00  0.00     0.000 C 
BRANCH  19  20
ATOM     20  C   UNL     1       7.505   7.119  10.134  1.00  0.00     0.006 C 
BRANCH  20  21
ATOM     21  C   UNL     1       8.893   6.471  10.207  1.00  0.00     0.053 C 
BRANCH  21  22
ATOM     22  C   UNL     1       9.983   7.455   9.908  1.00  0.00     0.041 C 
ATOM     23  O   UNL     1      10.418   8.215  10.813  1.00  0.00    -0.550 OA
ATOM     24  O   UNL     1      10.498   7.552   8.622  1.00  0.00    -0.550 OA
ENDBRANCH  21  22
ENDBRANCH  20  21
ENDBRANCH  19  20
ENDBRANCH  18  19
ENDBRANCH  17  18
ENDBRANCH  16  17
ENDBRANCH  15  16
ENDBRANCH  14  15
ENDBRANCH  13  14
ENDBRANCH   1  13
TORSDOF 20
ENDMDL
