MODEL 1
REMARK VINA RESULT:    -4.383      0.000      0.000
REMARK INTER + INTRA:          -4.767
REMARK INTER:                  -4.767
REMARK INTRA:                   0.000
REMARK UNBOUND:                 0.000
REMARK SMILES Oc1cccc(O)c1O
REMARK SMILES IDX 4 1 5 2 6 3 8 4 2 5 3 6 7 7 1 9 9 11
REMARK H PARENT 7 8 1 10 9 12
REMARK Flexibility Score: inf
ROOT
ATOM      1  C   UNL     1      37.027  55.218  43.084  1.00  0.00     0.008 A 
ATOM      2  C   UNL     1      36.876  54.595  41.844  1.00  0.00     0.050 A 
ATOM      3  C   UNL     1      37.369  53.298  41.640  1.00  0.00     0.161 A 
ATOM      4  C   UNL     1      38.018  52.624  42.690  1.00  0.00     0.200 A 
ATOM      5  C   UNL     1      38.168  53.256  43.939  1.00  0.00     0.161 A 
ATOM      6  C   UNL     1      37.671  54.550  44.129  1.00  0.00     0.050 A 
ENDROOT
BRANCH   3   7
ATOM      7  O   UNL     1      37.217  52.680  40.400  1.00  0.00    -0.504 OA
ATOM      8  H   UNL     1      37.903  52.793  39.662  1.00  0.00     0.293 HD
ENDBRANCH   3   7
BRANCH   5   9
ATOM      9  O   UNL     1      38.806  52.615  45.000  1.00  0.00    -0.504 OA
ATOM     10  H   UNL     1      39.158  53.121  45.804  1.00  0.00     0.293 HD
ENDBRANCH   5   9
BRANCH   4  11
ATOM     11  O   UNL     1      38.517  51.332  42.507  1.00  0.00    -0.502 OA
ATOM     12  H   UNL     1      39.445  51.160  42.141  1.00  0.00     0.293 HD
ENDBRANCH   4  11
TORSDOF 3
ENDMDL
MODEL 2
REMARK VINA RESULT:    -4.259      0.156      2.812
REMARK INTER + INTRA:          -4.632
REMARK INTER:                  -4.632
REMARK INTRA:                   0.000
REMARK UNBOUND:                 0.000
REMARK SMILES Oc1cccc(O)c1O
REMARK SMILES IDX 4 1 5 2 6 3 8 4 2 5 3 6 7 7 1 9 9 11
REMARK H PARENT 7 8 1 10 9 12
REMARK Flexibility Score: inf
ROOT
ATOM      1  C   UNL     1      37.018  55.347  42.929  1.00  0.00     0.008 A 
ATOM      2  C   UNL     1      37.623  54.702  44.010  1.00  0.00     0.050 A 
ATOM      3  C   UNL     1      38.089  53.386  43.876  1.00  0.00     0.161 A 
ATOM      4  C   UNL     1      37.946  52.715  42.648  1.00  0.00     0.200 A 
ATOM      5  C   UNL     1      37.336  53.370  41.561  1.00  0.00     0.161 A 
ATOM      6  C   UNL     1      36.875  54.683  41.709  1.00  0.00     0.050 A 
ENDROOT
BRANCH   3   7
ATOM      7  O   UNL     1      38.692  52.745  44.958  1.00  0.00    -0.504 OA
ATOM      8  H   UNL     1      39.240  53.256  45.641  1.00  0.00     0.293 HD
ENDBRANCH   3   7
BRANCH   5   9
ATOM      9  O   UNL     1      37.179  52.732  40.332  1.00  0.00    -0.504 OA
ATOM     10  H   UNL     1      36.483  53.026  39.656  1.00  0.00     0.293 HD
ENDBRANCH   5   9
BRANCH   4  11
ATOM     11  O   UNL     1      38.403  51.405  42.495  1.00  0.00    -0.502 OA
ATOM     12  H   UNL     1      38.072  50.647  43.079  1.00  0.00     0.293 HD
ENDBRANCH   4  11
TORSDOF 3
ENDMDL
MODEL 3
REMARK VINA RESULT:    -4.157     16.231     17.282
REMARK INTER + INTRA:          -4.522
REMARK INTER:                  -4.522
REMARK INTRA:                   0.000
REMARK UNBOUND:                 0.000
REMARK SMILES Oc1cccc(O)c1O
REMARK SMILES IDX 4 1 5 2 6 3 8 4 2 5 3 6 7 7 1 9 9 11
REMARK H PARENT 7 8 1 10 9 12
REMARK Flexibility Score: inf
ROOT
ATOM      1  C   UNL     1      41.554  57.272  24.982  1.00  0.00     0.008 A 
ATOM      2  C   UNL     1      40.678  57.683  25.989  1.00  0.00     0.050 A 
ATOM      3  C   UNL     1      41.140  57.847  27.303  1.00  0.00     0.161 A 
ATOM      4  C   UNL     1      42.491  57.596  27.606  1.00  0.00     0.200 A 
ATOM      5  C   UNL     1      43.370  57.182  26.587  1.00  0.00     0.161 A 
ATOM      6  C   UNL     1      42.895  57.022  25.280  1.00  0.00     0.050 A 
ENDROOT
BRANCH   3   7
ATOM      7  O   UNL     1      40.262  58.256  28.306  1.00  0.00    -0.504 OA
ATOM      8  H   UNL     1      39.664  57.597  28.791  1.00  0.00     0.293 HD
ENDBRANCH   3   7
BRANCH   5   9
ATOM      9  O   UNL     1      44.713  56.925  26.854  1.00  0.00    -0.504 OA
ATOM     10  H   UNL     1      45.046  56.703  27.786  1.00  0.00     0.293 HD
ENDBRANCH   5   9
BRANCH   4  11
ATOM     11  O   UNL     1      42.970  57.752  28.908  1.00  0.00    -0.502 OA
ATOM     12  H   UNL     1      42.705  57.126  29.658  1.00  0.00     0.293 HD
ENDBRANCH   4  11
TORSDOF 3
ENDMDL
MODEL 4
REMARK VINA RESULT:    -4.080     15.998     17.080
REMARK INTER + INTRA:          -4.438
REMARK INTER:                  -4.438
REMARK INTRA:                   0.000
REMARK UNBOUND:                 0.000
REMARK SMILES Oc1cccc(O)c1O
REMARK SMILES IDX 4 1 5 2 6 3 8 4 2 5 3 6 7 7 1 9 9 11
REMARK H PARENT 7 8 1 10 9 12
REMARK Flexibility Score: inf
ROOT
ATOM      1  C   UNL     1      41.208  57.571  25.229  1.00  0.00     0.008 A 
ATOM      2  C   UNL     1      42.552  57.221  25.370  1.00  0.00     0.050 A 
ATOM      3  C   UNL     1      43.159  57.247  26.634  1.00  0.00     0.161 A 
ATOM      4  C   UNL     1      42.409  57.629  27.762  1.00  0.00     0.200 A 
ATOM      5  C   UNL     1      41.054  57.982  27.614  1.00  0.00     0.161 A 
ATOM      6  C   UNL     1      40.461  57.951  26.347  1.00  0.00     0.050 A 
ENDROOT
BRANCH   3   7
ATOM      7  O   UNL     1      44.501  56.897  26.772  1.00  0.00    -0.504 OA
ATOM      8  H   UNL     1      45.067  57.252  27.534  1.00  0.00     0.293 HD
ENDBRANCH   3   7
BRANCH   5   9
ATOM      9  O   UNL     1      40.285  58.364  28.711  1.00  0.00    -0.504 OA
ATOM     10  H   UNL     1      40.680  58.464  29.639  1.00  0.00     0.293 HD
ENDBRANCH   5   9
BRANCH   4  11
ATOM     11  O   UNL     1      42.995  57.662  29.029  1.00  0.00    -0.502 OA
ATOM     12  H   UNL     1      43.240  56.818  29.532  1.00  0.00     0.293 HD
ENDBRANCH   4  11
TORSDOF 3
ENDMDL
MODEL 5
REMARK VINA RESULT:    -4.063     12.961     13.927
REMARK INTER + INTRA:          -4.419
REMARK INTER:                  -4.419
REMARK INTRA:                   0.000
REMARK UNBOUND:                 0.000
REMARK SMILES Oc1cccc(O)c1O
REMARK SMILES IDX 4 1 5 2 6 3 8 4 2 5 3 6 7 7 1 9 9 11
REMARK H PARENT 7 8 1 10 9 12
REMARK Flexibility Score: inf
ROOT
ATOM      1  C   UNL     1      47.999  49.386  34.257  1.00  0.00     0.008 A 
ATOM      2  C   UNL     1      46.858  49.338  35.060  1.00  0.00     0.050 A 
ATOM      3  C   UNL     1      46.185  48.123  35.260  1.00  0.00     0.161 A 
ATOM      4  C   UNL     1      46.663  46.950  34.647  1.00  0.00     0.200 A 
ATOM      5  C   UNL     1      47.814  47.004  33.837  1.00  0.00     0.161 A 
ATOM      6  C   UNL     1      48.475  48.223  33.647  1.00  0.00     0.050 A 
ENDROOT
BRANCH   3   7
ATOM      7  O   UNL     1      45.046  48.079  36.062  1.00  0.00    -0.504 OA
ATOM      8  H   UNL     1      44.390  47.308  36.012  1.00  0.00     0.293 HD
ENDBRANCH   3   7
BRANCH   5   9
ATOM      9  O   UNL     1      48.312  45.860  33.216  1.00  0.00    -0.504 OA
ATOM     10  H   UNL     1      49.300  45.635  33.212  1.00  0.00     0.293 HD
ENDBRANCH   5   9
BRANCH   4  11
ATOM     11  O   UNL     1      46.007  45.732  34.832  1.00  0.00    -0.502 OA
ATOM     12  H   UNL     1      46.149  44.944  34.212  1.00  0.00     0.293 HD
ENDBRANCH   4  11
TORSDOF 3
ENDMDL
MODEL 6
REMARK VINA RESULT:    -4.040     13.017     13.867
REMARK INTER + INTRA:          -4.394
REMARK INTER:                  -4.394
REMARK INTRA:                   0.000
REMARK UNBOUND:                 0.000
REMARK SMILES Oc1cccc(O)c1O
REMARK SMILES IDX 4 1 5 2 6 3 8 4 2 5 3 6 7 7 1 9 9 11
REMARK H PARENT 7 8 1 10 9 12
REMARK Flexibility Score: inf
ROOT
ATOM      1  C   UNL     1      46.629  47.937  35.834  1.00  0.00     0.008 A 
ATOM      2  C   UNL     1      47.809  47.573  36.486  1.00  0.00     0.050 A 
ATOM      3  C   UNL     1      48.969  48.346  36.331  1.00  0.00     0.161 A 
ATOM      4  C   UNL     1      48.942  49.491  35.514  1.00  0.00     0.200 A 
ATOM      5  C   UNL     1      47.750  49.853  34.858  1.00  0.00     0.161 A 
ATOM      6  C   UNL     1      46.600  49.073  35.022  1.00  0.00     0.050 A 
ENDROOT
BRANCH   3   7
ATOM      7  O   UNL     1      50.145  47.980  36.984  1.00  0.00    -0.504 OA
ATOM      8  H   UNL     1      50.351  48.294  37.925  1.00  0.00     0.293 HD
ENDBRANCH   3   7
BRANCH   5   9
ATOM      9  O   UNL     1      47.691  50.981  34.041  1.00  0.00    -0.504 OA
ATOM     10  H   UNL     1      47.573  51.915  34.418  1.00  0.00     0.293 HD
ENDBRANCH   5   9
BRANCH   4  11
ATOM     11  O   UNL     1      50.086  50.273  35.346  1.00  0.00    -0.502 OA
ATOM     12  H   UNL     1      50.967  50.041  35.787  1.00  0.00     0.293 HD
ENDBRANCH   4  11
TORSDOF 3
ENDMDL
MODEL 7
REMARK VINA RESULT:    -4.035     12.161     13.192
REMARK INTER + INTRA:          -4.389
REMARK INTER:                  -4.389
REMARK INTRA:                   0.000
REMARK UNBOUND:                 0.000
REMARK SMILES Oc1cccc(O)c1O
REMARK SMILES IDX 4 1 5 2 6 3 8 4 2 5 3 6 7 7 1 9 9 11
REMARK H PARENT 7 8 1 10 9 12
REMARK Flexibility Score: inf
ROOT
ATOM      1  C   UNL     1      47.980  49.630  35.020  1.00  0.00     0.008 A 
ATOM      2  C   UNL     1      48.895  48.919  35.798  1.00  0.00     0.050 A 
ATOM      3  C   UNL     1      48.476  47.802  36.536  1.00  0.00     0.161 A 
ATOM      4  C   UNL     1      47.128  47.400  36.493  1.00  0.00     0.200 A 
ATOM      5  C   UNL     1      46.209  48.122  35.707  1.00  0.00     0.161 A 
ATOM      6  C   UNL     1      46.641  49.233  34.975  1.00  0.00     0.050 A 
ENDROOT
BRANCH   3   7
ATOM      7  O   UNL     1      49.393  47.094  37.312  1.00  0.00    -0.504 OA
ATOM      8  H   UNL     1      49.146  46.218  37.758  1.00  0.00     0.293 HD
ENDBRANCH   3   7
BRANCH   5   9
ATOM      9  O   UNL     1      44.868  47.749  35.642  1.00  0.00    -0.504 OA
ATOM     10  H   UNL     1      44.285  47.967  34.842  1.00  0.00     0.293 HD
ENDBRANCH   5   9
BRANCH   4  11
ATOM     11  O   UNL     1      46.692  46.292  37.221  1.00  0.00    -0.502 OA
ATOM     12  H   UNL     1      47.216  45.922  38.004  1.00  0.00     0.293 HD
ENDBRANCH   4  11
TORSDOF 3
ENDMDL
MODEL 8
REMARK VINA RESULT:    -4.030     13.018     13.649
REMARK INTER + INTRA:          -4.384
REMARK INTER:                  -4.384
REMARK INTRA:                   0.000
REMARK UNBOUND:                 0.000
REMARK SMILES Oc1cccc(O)c1O
REMARK SMILES IDX 4 1 5 2 6 3 8 4 2 5 3 6 7 7 1 9 9 11
REMARK H PARENT 7 8 1 10 9 12
REMARK Flexibility Score: inf
ROOT
ATOM      1  C   UNL     1      46.625  47.917  35.843  1.00  0.00     0.008 A 
ATOM      2  C   UNL     1      46.597  49.054  35.033  1.00  0.00     0.050 A 
ATOM      3  C   UNL     1      47.751  49.836  34.874  1.00  0.00     0.161 A 
ATOM      4  C   UNL     1      48.939  49.473  35.534  1.00  0.00     0.200 A 
ATOM      5  C   UNL     1      48.962  48.325  36.350  1.00  0.00     0.161 A 
ATOM      6  C   UNL     1      47.804  47.554  36.499  1.00  0.00     0.050 A 
ENDROOT
BRANCH   3   7
ATOM      7  O   UNL     1      47.719  50.971  34.065  1.00  0.00    -0.504 OA
ATOM      8  H   UNL     1      48.536  51.282  33.553  1.00  0.00     0.293 HD
ENDBRANCH   3   7
BRANCH   5   9
ATOM      9  O   UNL     1      50.123  47.938  37.017  1.00  0.00    -0.504 OA
ATOM     10  H   UNL     1      51.022  48.364  36.826  1.00  0.00     0.293 HD
ENDBRANCH   5   9
BRANCH   4  11
ATOM     11  O   UNL     1      50.097  50.239  35.389  1.00  0.00    -0.502 OA
ATOM     12  H   UNL     1      50.316  51.006  36.012  1.00  0.00     0.293 HD
ENDBRANCH   4  11
TORSDOF 3
ENDMDL
MODEL 9
REMARK VINA RESULT:    -4.016     12.154     12.994
REMARK INTER + INTRA:          -4.369
REMARK INTER:                  -4.369
REMARK INTRA:                   0.000
REMARK UNBOUND:                 0.000
REMARK SMILES Oc1cccc(O)c1O
REMARK SMILES IDX 4 1 5 2 6 3 8 4 2 5 3 6 7 7 1 9 9 11
REMARK H PARENT 7 8 1 10 9 12
REMARK Flexibility Score: inf
ROOT
ATOM      1  C   UNL     1      47.991  49.664  35.006  1.00  0.00     0.008 A 
ATOM      2  C   UNL     1      46.645  49.299  34.955  1.00  0.00     0.050 A 
ATOM      3  C   UNL     1      46.188  48.185  35.676  1.00  0.00     0.161 A 
ATOM      4  C   UNL     1      47.092  47.435  36.451  1.00  0.00     0.200 A 
ATOM      5  C   UNL     1      48.449  47.808  36.498  1.00  0.00     0.161 A 
ATOM      6  C   UNL     1      48.891  48.921  35.774  1.00  0.00     0.050 A 
ENDROOT
BRANCH   3   7
ATOM      7  O   UNL     1      44.843  47.823  35.623  1.00  0.00    -0.504 OA
ATOM      8  H   UNL     1      44.422  47.236  36.335  1.00  0.00     0.293 HD
ENDBRANCH   3   7
BRANCH   5   9
ATOM      9  O   UNL     1      49.369  47.086  37.256  1.00  0.00    -0.504 OA
ATOM     10  H   UNL     1      49.144  46.186  37.664  1.00  0.00     0.293 HD
ENDBRANCH   5   9
BRANCH   4  11
ATOM     11  O   UNL     1      46.657  46.323  37.174  1.00  0.00    -0.502 OA
ATOM     12  H   UNL     1      46.088  45.598  36.757  1.00  0.00     0.293 HD
ENDBRANCH   4  11
TORSDOF 3
ENDMDL
