MODEL 1
REMARK VINA RESULT:    -5.580      0.000      0.000
REMARK INTER + INTRA:          -7.013
REMARK INTER:                  -6.722
REMARK INTRA:                  -0.292
REMARK UNBOUND:                -0.292
REMARK SMILES O=c1c(O)c(-c2ccc(O)c(O)c2)oc2cc(O)cc(O)c12
REMARK SMILES IDX 5 1 3 2 2 3 1 4 22 5 20 6 19 7 17 8 16 9 15 10 14 11 6 12
REMARK SMILES IDX 7 13 8 14 9 15 13 16 11 17 10 18 12 20 4 22 21 24 18 26
REMARK H PARENT 10 19 12 21 4 23 21 25 18 27
REMARK Flexibility Score: inf
ROOT
ATOM      1  C   UNL     1      -4.756  -7.570  11.070  1.00  0.00     0.180 A 
ATOM      2  C   UNL     1      -5.652  -6.736  10.374  1.00  0.00     0.208 A 
ATOM      3  C   UNL     1      -6.771  -6.227  11.053  1.00  0.00     0.238 A 
ATOM      4  O   UNL     1      -7.575  -5.471  10.443  1.00  0.00    -0.285 OA
ATOM      5  C   UNL     1      -6.985  -6.573  12.403  1.00  0.00     0.111 A 
ATOM      6  C   UNL     1      -8.089  -6.106  13.157  1.00  0.00     0.134 A 
ATOM      7  C   UNL     1      -8.236  -6.504  14.494  1.00  0.00     0.093 A 
ATOM      8  C   UNL     1      -7.302  -7.359  15.090  1.00  0.00     0.123 A 
ATOM      9  C   UNL     1      -6.212  -7.822  14.350  1.00  0.00     0.094 A 
ATOM     10  C   UNL     1      -6.046  -7.436  13.017  1.00  0.00     0.146 A 
ATOM     11  O   UNL     1      -4.998  -7.886  12.339  1.00  0.00    -0.452 OA
ENDROOT
BRANCH   1  12
ATOM     12  C   UNL     1      -3.544  -8.129  10.430  1.00  0.00     0.025 A 
ATOM     13  C   UNL     1      -3.514  -9.489  10.079  1.00  0.00     0.016 A 
ATOM     14  C   UNL     1      -2.374 -10.044   9.492  1.00  0.00     0.051 A 
ATOM     15  C   UNL     1      -1.242  -9.252   9.263  1.00  0.00     0.157 A 
ATOM     16  C   UNL     1      -2.398  -7.343  10.217  1.00  0.00     0.062 A 
ATOM     17  C   UNL     1      -1.252  -7.900   9.630  1.00  0.00     0.158 A 
BRANCH  15  18
ATOM     18  O   UNL     1      -0.103  -9.800   8.676  1.00  0.00    -0.504 OA
ATOM     19  H   UNL     1       0.417  -9.302   7.963  1.00  0.00     0.293 HD
ENDBRANCH  15  18
BRANCH  17  20
ATOM     20  O   UNL     1      -0.119  -7.118   9.413  1.00  0.00    -0.504 OA
ATOM     21  H   UNL     1       0.805  -7.529   9.351  1.00  0.00     0.293 HD
ENDBRANCH  17  20
ENDBRANCH   1  12
BRANCH   2  22
ATOM     22  O   UNL     1      -5.445  -6.448   9.023  1.00  0.00    -0.502 OA
ATOM     23  H   UNL     1      -4.799  -6.976   8.448  1.00  0.00     0.293 HD
ENDBRANCH   2  22
BRANCH   6  24
ATOM     24  O   UNL     1      -9.036  -5.254  12.589  1.00  0.00    -0.507 OA
ATOM     25  H   UNL     1      -9.263  -5.290  11.602  1.00  0.00     0.293 HD
ENDBRANCH   6  24
BRANCH   8  26
ATOM     26  O   UNL     1      -7.449  -7.755  16.418  1.00  0.00    -0.508 OA
ATOM     27  H   UNL     1      -7.845  -7.135  17.114  1.00  0.00     0.293 HD
ENDBRANCH   8  26
TORSDOF 6
ENDMDL
MODEL 2
REMARK VINA RESULT:    -5.353      2.367      6.907
REMARK INTER + INTRA:          -6.740
REMARK INTER:                  -7.108
REMARK INTRA:                   0.368
REMARK UNBOUND:                -0.292
REMARK SMILES O=c1c(O)c(-c2ccc(O)c(O)c2)oc2cc(O)cc(O)c12
REMARK SMILES IDX 5 1 3 2 2 3 1 4 22 5 20 6 19 7 17 8 16 9 15 10 14 11 6 12
REMARK SMILES IDX 7 13 8 14 9 15 13 16 11 17 10 18 12 20 4 22 21 24 18 26
REMARK H PARENT 10 19 12 21 4 23 21 25 18 27
REMARK Flexibility Score: inf
ROOT
ATOM      1  C   UNL     1      -3.870  -7.713  11.889  1.00  0.00     0.180 A 
ATOM      2  C   UNL     1      -3.610  -8.090  13.221  1.00  0.00     0.208 A 
ATOM      3  C   UNL     1      -2.382  -8.697  13.526  1.00  0.00     0.238 A 
ATOM      4  O   UNL     1      -2.133  -9.030  14.718  1.00  0.00    -0.285 OA
ATOM      5  C   UNL     1      -1.447  -8.936  12.499  1.00  0.00     0.111 A 
ATOM      6  C   UNL     1      -0.189  -9.546  12.721  1.00  0.00     0.134 A 
ATOM      7  C   UNL     1       0.683  -9.757  11.643  1.00  0.00     0.093 A 
ATOM      8  C   UNL     1       0.321  -9.370  10.347  1.00  0.00     0.123 A 
ATOM      9  C   UNL     1      -0.918  -8.768  10.123  1.00  0.00     0.094 A 
ATOM     10  C   UNL     1      -1.801  -8.547  11.185  1.00  0.00     0.146 A 
ATOM     11  O   UNL     1      -2.971  -7.967  10.944  1.00  0.00    -0.452 OA
ENDROOT
BRANCH   1  12
ATOM     12  C   UNL     1      -5.133  -7.051  11.492  1.00  0.00     0.025 A 
ATOM     13  C   UNL     1      -6.298  -7.281  12.241  1.00  0.00     0.016 A 
ATOM     14  C   UNL     1      -7.507  -6.682  11.872  1.00  0.00     0.051 A 
ATOM     15  C   UNL     1      -7.569  -5.858  10.742  1.00  0.00     0.157 A 
ATOM     16  C   UNL     1      -5.206  -6.239  10.345  1.00  0.00     0.062 A 
ATOM     17  C   UNL     1      -6.418  -5.640   9.974  1.00  0.00     0.158 A 
BRANCH  15  18
ATOM     18  O   UNL     1      -8.771  -5.257  10.371  1.00  0.00    -0.504 OA
ATOM     19  H   UNL     1      -9.005  -4.316  10.665  1.00  0.00     0.293 HD
ENDBRANCH  15  18
BRANCH  17  20
ATOM     20  O   UNL     1      -6.487  -4.830   8.842  1.00  0.00    -0.504 OA
ATOM     21  H   UNL     1      -5.658  -4.586   8.313  1.00  0.00     0.293 HD
ENDBRANCH  17  20
ENDBRANCH   1  12
BRANCH   2  22
ATOM     22  O   UNL     1      -4.573  -7.888  14.213  1.00  0.00    -0.502 OA
ATOM     23  H   UNL     1      -4.524  -7.117  14.868  1.00  0.00     0.293 HD
ENDBRANCH   2  22
BRANCH   6  24
ATOM     24  O   UNL     1       0.199  -9.944  14.001  1.00  0.00    -0.507 OA
ATOM     25  H   UNL     1       1.085 -10.407  14.170  1.00  0.00     0.293 HD
ENDBRANCH   6  24
BRANCH   8  26
ATOM     26  O   UNL     1       1.186  -9.580   9.276  1.00  0.00    -0.508 OA
ATOM     27  H   UNL     1       0.846  -9.897   8.375  1.00  0.00     0.293 HD
ENDBRANCH   8  26
TORSDOF 6
ENDMDL
MODEL 3
REMARK VINA RESULT:    -5.259      2.486      6.582
REMARK INTER + INTRA:          -6.627
REMARK INTER:                  -6.383
REMARK INTRA:                  -0.244
REMARK UNBOUND:                -0.292
REMARK SMILES O=c1c(O)c(-c2ccc(O)c(O)c2)oc2cc(O)cc(O)c12
REMARK SMILES IDX 5 1 3 2 2 3 1 4 22 5 20 6 19 7 17 8 16 9 15 10 14 11 6 12
REMARK SMILES IDX 7 13 8 14 9 15 13 16 11 17 10 18 12 20 4 22 21 24 18 26
REMARK H PARENT 10 19 12 21 4 23 21 25 18 27
REMARK Flexibility Score: inf
ROOT
ATOM      1  C   UNL     1      -3.587  -8.352  10.842  1.00  0.00     0.180 A 
ATOM      2  C   UNL     1      -2.890  -8.642   9.654  1.00  0.00     0.208 A 
ATOM      3  C   UNL     1      -1.566  -9.100   9.738  1.00  0.00     0.238 A 
ATOM      4  O   UNL     1      -0.935  -9.372   8.680  1.00  0.00    -0.285 OA
ATOM      5  C   UNL     1      -0.955  -9.239  11.000  1.00  0.00     0.111 A 
ATOM      6  C   UNL     1       0.376  -9.690  11.172  1.00  0.00     0.134 A 
ATOM      7  C   UNL     1       0.915  -9.793  12.463  1.00  0.00     0.093 A 
ATOM      8  C   UNL     1       0.149  -9.455  13.585  1.00  0.00     0.123 A 
ATOM      9  C   UNL     1      -1.165  -9.011  13.420  1.00  0.00     0.094 A 
ATOM     10  C   UNL     1      -1.721  -8.903  12.142  1.00  0.00     0.146 A 
ATOM     11  O   UNL     1      -2.974  -8.483  12.015  1.00  0.00    -0.452 OA
ENDROOT
BRANCH   1  12
ATOM     12  C   UNL     1      -4.991  -7.885  10.837  1.00  0.00     0.025 A 
ATOM     13  C   UNL     1      -6.016  -8.775  11.198  1.00  0.00     0.016 A 
ATOM     14  C   UNL     1      -7.351  -8.363  11.180  1.00  0.00     0.051 A 
ATOM     15  C   UNL     1      -7.682  -7.060  10.787  1.00  0.00     0.157 A 
ATOM     16  C   UNL     1      -5.330  -6.584  10.423  1.00  0.00     0.062 A 
ATOM     17  C   UNL     1      -6.670  -6.170  10.403  1.00  0.00     0.158 A 
BRANCH  15  18
ATOM     18  O   UNL     1      -9.012  -6.643  10.770  1.00  0.00    -0.504 OA
ATOM     19  H   UNL     1      -9.567  -6.610  11.617  1.00  0.00     0.293 HD
ENDBRANCH  15  18
BRANCH  17  20
ATOM     20  O   UNL     1      -7.003  -4.879  10.000  1.00  0.00    -0.504 OA
ATOM     21  H   UNL     1      -6.879  -4.083  10.615  1.00  0.00     0.293 HD
ENDBRANCH  17  20
ENDBRANCH   1  12
BRANCH   2  22
ATOM     22  O   UNL     1      -3.501  -8.448   8.412  1.00  0.00    -0.502 OA
ATOM     23  H   UNL     1      -4.503  -8.528   8.281  1.00  0.00     0.293 HD
ENDBRANCH   2  22
BRANCH   6  24
ATOM     24  O   UNL     1       1.165 -10.033  10.073  1.00  0.00    -0.507 OA
ATOM     25  H   UNL     1       1.922 -10.703  10.149  1.00  0.00     0.293 HD
ENDBRANCH   6  24
BRANCH   8  26
ATOM     26  O   UNL     1       0.683  -9.558  14.867  1.00  0.00    -0.508 OA
ATOM     27  H   UNL     1       0.917 -10.456  15.273  1.00  0.00     0.293 HD
ENDBRANCH   8  26
TORSDOF 6
ENDMDL
MODEL 4
REMARK VINA RESULT:    -5.204      2.915      7.505
REMARK INTER + INTRA:          -6.561
REMARK INTER:                  -6.232
REMARK INTRA:                  -0.329
REMARK UNBOUND:                -0.292
REMARK SMILES O=c1c(O)c(-c2ccc(O)c(O)c2)oc2cc(O)cc(O)c12
REMARK SMILES IDX 5 1 3 2 2 3 1 4 22 5 20 6 19 7 17 8 16 9 15 10 14 11 6 12
REMARK SMILES IDX 7 13 8 14 9 15 13 16 11 17 10 18 12 20 4 22 21 24 18 26
REMARK H PARENT 10 19 12 21 4 23 21 25 18 27
REMARK Flexibility Score: inf
ROOT
ATOM      1  C   UNL     1      -2.387  -8.711  11.494  1.00  0.00     0.180 A 
ATOM      2  C   UNL     1      -2.063  -9.021  12.828  1.00  0.00     0.208 A 
ATOM      3  C   UNL     1      -0.737  -9.356  13.144  1.00  0.00     0.238 A 
ATOM      4  O   UNL     1      -0.432  -9.626  14.338  1.00  0.00    -0.285 OA
ATOM      5  C   UNL     1       0.235  -9.396  12.123  1.00  0.00     0.111 A 
ATOM      6  C   UNL     1       1.591  -9.728  12.356  1.00  0.00     0.134 A 
ATOM      7  C   UNL     1       2.495  -9.754  11.284  1.00  0.00     0.093 A 
ATOM      8  C   UNL     1       2.070  -9.455   9.985  1.00  0.00     0.123 A 
ATOM      9  C   UNL     1       0.733  -9.127   9.750  1.00  0.00     0.094 A 
ATOM     10  C   UNL     1      -0.184  -9.093  10.805  1.00  0.00     0.146 A 
ATOM     11  O   UNL     1      -1.447  -8.772  10.555  1.00  0.00    -0.452 OA
ENDROOT
BRANCH   1  12
ATOM     12  C   UNL     1      -3.757  -8.329  11.086  1.00  0.00     0.025 A 
ATOM     13  C   UNL     1      -4.660  -9.325  10.681  1.00  0.00     0.016 A 
ATOM     14  C   UNL     1      -5.953  -8.987  10.272  1.00  0.00     0.051 A 
ATOM     15  C   UNL     1      -6.356  -7.645  10.247  1.00  0.00     0.157 A 
ATOM     16  C   UNL     1      -4.160  -6.981  11.038  1.00  0.00     0.062 A 
ATOM     17  C   UNL     1      -5.456  -6.641  10.626  1.00  0.00     0.158 A 
BRANCH  15  18
ATOM     18  O   UNL     1      -7.644  -7.302   9.841  1.00  0.00    -0.504 OA
ATOM     19  H   UNL     1      -7.951  -6.337   9.814  1.00  0.00     0.293 HD
ENDBRANCH  15  18
BRANCH  17  20
ATOM     20  O   UNL     1      -5.856  -5.306  10.587  1.00  0.00    -0.504 OA
ATOM     21  H   UNL     1      -5.370  -4.592  11.116  1.00  0.00     0.293 HD
ENDBRANCH  17  20
ENDBRANCH   1  12
BRANCH   2  22
ATOM     22  O   UNL     1      -3.054  -9.023  13.813  1.00  0.00    -0.502 OA
ATOM     23  H   UNL     1      -3.586  -9.852  14.046  1.00  0.00     0.293 HD
ENDBRANCH   2  22
BRANCH   6  24
ATOM     24  O   UNL     1       2.045 -10.032  13.640  1.00  0.00    -0.507 OA
ATOM     25  H   UNL     1       2.557 -10.885  13.837  1.00  0.00     0.293 HD
ENDBRANCH   6  24
BRANCH   8  26
ATOM     26  O   UNL     1       2.967  -9.482   8.920  1.00  0.00    -0.508 OA
ATOM     27  H   UNL     1       3.958  -9.631   9.067  1.00  0.00     0.293 HD
ENDBRANCH   8  26
TORSDOF 6
ENDMDL
MODEL 5
REMARK VINA RESULT:    -5.128      2.685      4.134
REMARK INTER + INTRA:          -6.468
REMARK INTER:                  -6.655
REMARK INTRA:                   0.186
REMARK UNBOUND:                -0.292
REMARK SMILES O=c1c(O)c(-c2ccc(O)c(O)c2)oc2cc(O)cc(O)c12
REMARK SMILES IDX 5 1 3 2 2 3 1 4 22 5 20 6 19 7 17 8 16 9 15 10 14 11 6 12
REMARK SMILES IDX 7 13 8 14 9 15 13 16 11 17 10 18 12 20 4 22 21 24 18 26
REMARK H PARENT 10 19 12 21 4 23 21 25 18 27
REMARK Flexibility Score: inf
ROOT
ATOM      1  C   UNL     1      -3.610  -8.153  12.846  1.00  0.00     0.180 A 
ATOM      2  C   UNL     1      -4.634  -8.385  13.785  1.00  0.00     0.208 A 
ATOM      3  C   UNL     1      -5.916  -7.871  13.530  1.00  0.00     0.238 A 
ATOM      4  O   UNL     1      -6.844  -8.081  14.358  1.00  0.00    -0.285 OA
ATOM      5  C   UNL     1      -6.147  -7.121  12.359  1.00  0.00     0.111 A 
ATOM      6  C   UNL     1      -7.407  -6.566  12.031  1.00  0.00     0.134 A 
ATOM      7  C   UNL     1      -7.554  -5.824  10.849  1.00  0.00     0.093 A 
ATOM      8  C   UNL     1      -6.466  -5.626   9.991  1.00  0.00     0.123 A 
ATOM      9  C   UNL     1      -5.221  -6.172  10.311  1.00  0.00     0.094 A 
ATOM     10  C   UNL     1      -5.055  -6.916  11.483  1.00  0.00     0.146 A 
ATOM     11  O   UNL     1      -3.861  -7.429  11.760  1.00  0.00    -0.452 OA
ENDROOT
BRANCH   1  12
ATOM     12  C   UNL     1      -2.239  -8.678  13.034  1.00  0.00     0.025 A 
ATOM     13  C   UNL     1      -1.654  -8.641  14.310  1.00  0.00     0.016 A 
ATOM     14  C   UNL     1      -0.353  -9.112  14.507  1.00  0.00     0.051 A 
ATOM     15  C   UNL     1       0.387  -9.612  13.427  1.00  0.00     0.157 A 
ATOM     16  C   UNL     1      -1.484  -9.162  11.949  1.00  0.00     0.062 A 
ATOM     17  C   UNL     1      -0.178  -9.632  12.146  1.00  0.00     0.158 A 
BRANCH  15  18
ATOM     18  O   UNL     1       1.684 -10.085  13.618  1.00  0.00    -0.504 OA
ATOM     19  H   UNL     1       1.993 -10.961  13.214  1.00  0.00     0.293 HD
ENDBRANCH  15  18
BRANCH  17  20
ATOM     20  O   UNL     1       0.566 -10.118  11.072  1.00  0.00    -0.504 OA
ATOM     21  H   UNL     1       0.120 -10.441  10.221  1.00  0.00     0.293 HD
ENDBRANCH  17  20
ENDBRANCH   1  12
BRANCH   2  22
ATOM     22  O   UNL     1      -4.368  -9.088  14.962  1.00  0.00    -0.502 OA
ATOM     23  H   UNL     1      -5.031  -9.737  15.368  1.00  0.00     0.293 HD
ENDBRANCH   2  22
BRANCH   6  24
ATOM     24  O   UNL     1      -8.510  -6.745  12.866  1.00  0.00    -0.507 OA
ATOM     25  H   UNL     1      -9.393  -6.278  12.691  1.00  0.00     0.293 HD
ENDBRANCH   6  24
BRANCH   8  26
ATOM     26  O   UNL     1      -6.611  -4.889   8.819  1.00  0.00    -0.508 OA
ATOM     27  H   UNL     1      -7.032  -5.291   7.989  1.00  0.00     0.293 HD
ENDBRANCH   8  26
TORSDOF 6
ENDMDL
MODEL 6
REMARK VINA RESULT:    -5.123     15.554     17.613
REMARK INTER + INTRA:          -6.462
REMARK INTER:                  -6.927
REMARK INTRA:                   0.465
REMARK UNBOUND:                -0.292
REMARK SMILES O=c1c(O)c(-c2ccc(O)c(O)c2)oc2cc(O)cc(O)c12
REMARK SMILES IDX 5 1 3 2 2 3 1 4 22 5 20 6 19 7 17 8 16 9 15 10 14 11 6 12
REMARK SMILES IDX 7 13 8 14 9 15 13 16 11 17 10 18 12 20 4 22 21 24 18 26
REMARK H PARENT 10 19 12 21 4 23 21 25 18 27
REMARK Flexibility Score: inf
ROOT
ATOM      1  C   UNL     1       2.460   7.102   9.965  1.00  0.00     0.180 A 
ATOM      2  C   UNL     1       3.524   6.386   9.383  1.00  0.00     0.208 A 
ATOM      3  C   UNL     1       4.780   6.408  10.010  1.00  0.00     0.238 A 
ATOM      4  O   UNL     1       5.738   5.763   9.503  1.00  0.00    -0.285 OA
ATOM      5  C   UNL     1       4.957   7.159  11.190  1.00  0.00     0.111 A 
ATOM      6  C   UNL     1       6.190   7.238  11.880  1.00  0.00     0.134 A 
ATOM      7  C   UNL     1       6.288   8.014  13.045  1.00  0.00     0.093 A 
ATOM      8  C   UNL     1       5.177   8.713  13.531  1.00  0.00     0.123 A 
ATOM      9  C   UNL     1       3.958   8.638  12.853  1.00  0.00     0.094 A 
ATOM     10  C   UNL     1       3.840   7.868  11.692  1.00  0.00     0.146 A 
ATOM     11  O   UNL     1       2.668   7.810  11.071  1.00  0.00    -0.452 OA
ENDROOT
BRANCH   1  12
ATOM     12  C   UNL     1       1.103   7.110   9.375  1.00  0.00     0.025 A 
ATOM     13  C   UNL     1       0.088   7.863   9.989  1.00  0.00     0.016 A 
ATOM     14  C   UNL     1      -1.206   7.870   9.462  1.00  0.00     0.051 A 
ATOM     15  C   UNL     1      -1.509   7.112   8.324  1.00  0.00     0.157 A 
ATOM     16  C   UNL     1       0.789   6.334   8.244  1.00  0.00     0.062 A 
ATOM     17  C   UNL     1      -0.510   6.339   7.717  1.00  0.00     0.158 A 
BRANCH  15  18
ATOM     18  O   UNL     1      -2.797   7.117   7.793  1.00  0.00    -0.504 OA
ATOM     19  H   UNL     1      -3.594   7.418   8.341  1.00  0.00     0.293 HD
ENDBRANCH  15  18
BRANCH  17  20
ATOM     20  O   UNL     1      -0.818   5.576   6.592  1.00  0.00    -0.504 OA
ATOM     21  H   UNL     1      -1.658   5.743   6.052  1.00  0.00     0.293 HD
ENDBRANCH  17  20
ENDBRANCH   1  12
BRANCH   2  22
ATOM     22  O   UNL     1       3.335   5.690   8.186  1.00  0.00    -0.502 OA
ATOM     23  H   UNL     1       3.772   4.794   8.005  1.00  0.00     0.293 HD
ENDBRANCH   2  22
BRANCH   6  24
ATOM     24  O   UNL     1       7.316   6.554  11.420  1.00  0.00    -0.507 OA
ATOM     25  H   UNL     1       7.533   6.488  10.431  1.00  0.00     0.293 HD
ENDBRANCH   6  24
BRANCH   8  26
ATOM     26  O   UNL     1       5.273   9.484  14.686  1.00  0.00    -0.508 OA
ATOM     27  H   UNL     1       5.907   9.237  15.437  1.00  0.00     0.293 HD
ENDBRANCH   8  26
TORSDOF 6
ENDMDL
MODEL 7
REMARK VINA RESULT:    -5.027     15.249     17.656
REMARK INTER + INTRA:          -6.347
REMARK INTER:                  -6.026
REMARK INTRA:                  -0.322
REMARK UNBOUND:                -0.292
REMARK SMILES O=c1c(O)c(-c2ccc(O)c(O)c2)oc2cc(O)cc(O)c12
REMARK SMILES IDX 5 1 3 2 2 3 1 4 22 5 20 6 19 7 17 8 16 9 15 10 14 11 6 12
REMARK SMILES IDX 7 13 8 14 9 15 13 16 11 17 10 18 12 20 4 22 21 24 18 26
REMARK H PARENT 10 19 12 21 4 23 21 25 18 27
REMARK Flexibility Score: inf
ROOT
ATOM      1  C   UNL     1       3.081   6.749   8.714  1.00  0.00     0.180 A 
ATOM      2  C   UNL     1       3.957   7.770   8.297  1.00  0.00     0.208 A 
ATOM      3  C   UNL     1       5.341   7.542   8.359  1.00  0.00     0.238 A 
ATOM      4  O   UNL     1       6.135   8.446   7.980  1.00  0.00    -0.285 OA
ATOM      5  C   UNL     1       5.825   6.314   8.854  1.00  0.00     0.111 A 
ATOM      6  C   UNL     1       7.203   6.007   8.953  1.00  0.00     0.134 A 
ATOM      7  C   UNL     1       7.604   4.764   9.464  1.00  0.00     0.093 A 
ATOM      8  C   UNL     1       6.655   3.823   9.878  1.00  0.00     0.123 A 
ATOM      9  C   UNL     1       5.294   4.121   9.781  1.00  0.00     0.094 A 
ATOM     10  C   UNL     1       4.873   5.354   9.273  1.00  0.00     0.146 A 
ATOM     11  O   UNL     1       3.573   5.608   9.187  1.00  0.00    -0.452 OA
ENDROOT
BRANCH   1  12
ATOM     12  C   UNL     1       1.610   6.905   8.660  1.00  0.00     0.025 A 
ATOM     13  C   UNL     1       0.906   7.227   9.832  1.00  0.00     0.016 A 
ATOM     14  C   UNL     1      -0.485   7.359   9.809  1.00  0.00     0.051 A 
ATOM     15  C   UNL     1      -1.194   7.156   8.618  1.00  0.00     0.157 A 
ATOM     16  C   UNL     1       0.892   6.682   7.471  1.00  0.00     0.062 A 
ATOM     17  C   UNL     1      -0.504   6.812   7.448  1.00  0.00     0.158 A 
BRANCH  15  18
ATOM     18  O   UNL     1      -2.581   7.289   8.589  1.00  0.00    -0.504 OA
ATOM     19  H   UNL     1      -3.097   7.626   9.394  1.00  0.00     0.293 HD
ENDBRANCH  15  18
BRANCH  17  20
ATOM     20  O   UNL     1      -1.214   6.598   6.267  1.00  0.00    -0.504 OA
ATOM     21  H   UNL     1      -1.127   7.225   5.476  1.00  0.00     0.293 HD
ENDBRANCH  17  20
ENDBRANCH   1  12
BRANCH   2  22
ATOM     22  O   UNL     1       3.454   8.997   7.858  1.00  0.00    -0.502 OA
ATOM     23  H   UNL     1       3.751   9.427   6.991  1.00  0.00     0.293 HD
ENDBRANCH   2  22
BRANCH   6  24
ATOM     24  O   UNL     1       8.173   6.925   8.550  1.00  0.00    -0.507 OA
ATOM     25  H   UNL     1       8.065   7.921   8.709  1.00  0.00     0.293 HD
ENDBRANCH   6  24
BRANCH   8  26
ATOM     26  O   UNL     1       7.052   2.589  10.386  1.00  0.00    -0.508 OA
ATOM     27  H   UNL     1       8.004   2.426  10.695  1.00  0.00     0.293 HD
ENDBRANCH   8  26
TORSDOF 6
ENDMDL
MODEL 8
REMARK VINA RESULT:    -5.020     15.359     16.567
REMARK INTER + INTRA:          -6.339
REMARK INTER:                  -6.014
REMARK INTRA:                  -0.325
REMARK UNBOUND:                -0.292
REMARK SMILES O=c1c(O)c(-c2ccc(O)c(O)c2)oc2cc(O)cc(O)c12
REMARK SMILES IDX 5 1 3 2 2 3 1 4 22 5 20 6 19 7 17 8 16 9 15 10 14 11 6 12
REMARK SMILES IDX 7 13 8 14 9 15 13 16 11 17 10 18 12 20 4 22 21 24 18 26
REMARK H PARENT 10 19 12 21 4 23 21 25 18 27
REMARK Flexibility Score: inf
ROOT
ATOM      1  C   UNL     1       3.966   6.242   9.394  1.00  0.00     0.180 A 
ATOM      2  C   UNL     1       4.024   7.279  10.345  1.00  0.00     0.208 A 
ATOM      3  C   UNL     1       2.870   8.040  10.588  1.00  0.00     0.238 A 
ATOM      4  O   UNL     1       2.907   8.966  11.444  1.00  0.00    -0.285 OA
ATOM      5  C   UNL     1       1.690   7.769   9.867  1.00  0.00     0.111 A 
ATOM      6  C   UNL     1       0.486   8.491  10.049  1.00  0.00     0.134 A 
ATOM      7  C   UNL     1      -0.644   8.165   9.285  1.00  0.00     0.093 A 
ATOM      8  C   UNL     1      -0.594   7.130   8.343  1.00  0.00     0.123 A 
ATOM      9  C   UNL     1       0.591   6.415   8.161  1.00  0.00     0.094 A 
ATOM     10  C   UNL     1       1.728   6.723   8.913  1.00  0.00     0.146 A 
ATOM     11  O   UNL     1       2.840   6.022   8.723  1.00  0.00    -0.452 OA
ENDROOT
BRANCH   1  12
ATOM     12  C   UNL     1       5.134   5.382   9.097  1.00  0.00     0.025 A 
ATOM     13  C   UNL     1       5.919   5.652   7.964  1.00  0.00     0.016 A 
ATOM     14  C   UNL     1       7.015   4.842   7.651  1.00  0.00     0.051 A 
ATOM     15  C   UNL     1       7.331   3.741   8.458  1.00  0.00     0.157 A 
ATOM     16  C   UNL     1       5.443   4.263   9.892  1.00  0.00     0.062 A 
ATOM     17  C   UNL     1       6.541   3.449   9.577  1.00  0.00     0.158 A 
BRANCH  15  18
ATOM     18  O   UNL     1       8.423   2.932   8.152  1.00  0.00    -0.504 OA
ATOM     19  H   UNL     1       9.256   3.309   7.715  1.00  0.00     0.293 HD
ENDBRANCH  15  18
BRANCH  17  20
ATOM     20  O   UNL     1       6.850   2.345  10.370  1.00  0.00    -0.504 OA
ATOM     21  H   UNL     1       6.147   1.663  10.626  1.00  0.00     0.293 HD
ENDBRANCH  17  20
ENDBRANCH   1  12
BRANCH   2  22
ATOM     22  O   UNL     1       5.219   7.561  11.010  1.00  0.00    -0.502 OA
ATOM     23  H   UNL     1       5.645   8.480  10.995  1.00  0.00     0.293 HD
ENDBRANCH   2  22
BRANCH   6  24
ATOM     24  O   UNL     1       0.406   9.528  10.979  1.00  0.00    -0.507 OA
ATOM     25  H   UNL     1       0.826  10.434  10.805  1.00  0.00     0.293 HD
ENDBRANCH   6  24
BRANCH   8  26
ATOM     26  O   UNL     1      -1.715   6.806   7.584  1.00  0.00    -0.508 OA
ATOM     27  H   UNL     1      -2.119   5.877   7.606  1.00  0.00     0.293 HD
ENDBRANCH   8  26
TORSDOF 6
ENDMDL
MODEL 9
REMARK VINA RESULT:    -4.976     15.872     16.597
REMARK INTER + INTRA:          -6.286
REMARK INTER:                  -6.075
REMARK INTRA:                  -0.211
REMARK UNBOUND:                -0.292
REMARK SMILES O=c1c(O)c(-c2ccc(O)c(O)c2)oc2cc(O)cc(O)c12
REMARK SMILES IDX 5 1 3 2 2 3 1 4 22 5 20 6 19 7 17 8 16 9 15 10 14 11 6 12
REMARK SMILES IDX 7 13 8 14 9 15 13 16 11 17 10 18 12 20 4 22 21 24 18 26
REMARK H PARENT 10 19 12 21 4 23 21 25 18 27
REMARK Flexibility Score: inf
ROOT
ATOM      1  C   UNL     1       4.055   5.987   9.017  1.00  0.00     0.180 A 
ATOM      2  C   UNL     1       3.807   5.875   7.636  1.00  0.00     0.208 A 
ATOM      3  C   UNL     1       2.621   6.415   7.113  1.00  0.00     0.238 A 
ATOM      4  O   UNL     1       2.394   6.329   5.876  1.00  0.00    -0.285 OA
ATOM      5  C   UNL     1       1.697   7.035   7.978  1.00  0.00     0.111 A 
ATOM      6  C   UNL     1       0.477   7.599   7.533  1.00  0.00     0.134 A 
ATOM      7  C   UNL     1      -0.394   8.192   8.458  1.00  0.00     0.093 A 
ATOM      8  C   UNL     1      -0.070   8.230   9.820  1.00  0.00     0.123 A 
ATOM      9  C   UNL     1       1.132   7.675  10.263  1.00  0.00     0.094 A 
ATOM     10  C   UNL     1       2.015   7.082   9.356  1.00  0.00     0.146 A 
ATOM     11  O   UNL     1       3.154   6.567   9.805  1.00  0.00    -0.452 OA
ENDROOT
BRANCH   1  12
ATOM     12  C   UNL     1       5.291   5.462   9.640  1.00  0.00     0.025 A 
ATOM     13  C   UNL     1       6.269   6.360  10.097  1.00  0.00     0.016 A 
ATOM     14  C   UNL     1       7.453   5.887  10.669  1.00  0.00     0.051 A 
ATOM     15  C   UNL     1       7.682   4.510  10.779  1.00  0.00     0.157 A 
ATOM     16  C   UNL     1       5.535   4.080   9.733  1.00  0.00     0.062 A 
ATOM     17  C   UNL     1       6.724   3.605  10.305  1.00  0.00     0.158 A 
BRANCH  15  18
ATOM     18  O   UNL     1       8.860   4.033  11.351  1.00  0.00    -0.504 OA
ATOM     19  H   UNL     1       9.763   4.204  10.923  1.00  0.00     0.293 HD
ENDBRANCH  15  18
BRANCH  17  20
ATOM     20  O   UNL     1       6.962   2.235  10.404  1.00  0.00    -0.504 OA
ATOM     21  H   UNL     1       6.329   1.557   9.996  1.00  0.00     0.293 HD
ENDBRANCH  17  20
ENDBRANCH   1  12
BRANCH   2  22
ATOM     22  O   UNL     1       4.716   5.212   6.807  1.00  0.00    -0.502 OA
ATOM     23  H   UNL     1       4.456   4.846   5.899  1.00  0.00     0.293 HD
ENDBRANCH   2  22
BRANCH   6  24
ATOM     24  O   UNL     1       0.126   7.575   6.183  1.00  0.00    -0.507 OA
ATOM     25  H   UNL     1       0.189   6.727   5.630  1.00  0.00     0.293 HD
ENDBRANCH   6  24
BRANCH   8  26
ATOM     26  O   UNL     1      -0.935   8.818  10.739  1.00  0.00    -0.508 OA
ATOM     27  H   UNL     1      -0.595   9.214  11.608  1.00  0.00     0.293 HD
ENDBRANCH   8  26
TORSDOF 6
ENDMDL
