MODEL 1
REMARK VINA RESULT:    10.997      0.000      0.000
REMARK INTER + INTRA:          18.433
REMARK INTER:                  19.354
REMARK INTRA:                  -0.921
REMARK UNBOUND:                -0.921
REMARK SMILES CCCCCCCCCCCCCCC(=O)[O-]
REMARK SMILES IDX 9 1 10 2 11 3 12 4 13 5 14 6 15 7 16 8 17 9 8 10 7 11 6 12
REMARK SMILES IDX 5 13 4 14 3 15 2 16 1 17
REMARK H PARENT
REMARK Flexibility Score: inf
ROOT
ATOM      1  C   UNL     1     -17.011  41.235  -3.475  1.00  0.00     0.000 C 
ENDROOT
BRANCH   1   2
ATOM      2  C   UNL     1     -15.644  40.666  -3.051  1.00  0.00     0.000 C 
BRANCH   2   3
ATOM      3  C   UNL     1     -14.469  41.578  -3.437  1.00  0.00     0.000 C 
BRANCH   3   4
ATOM      4  C   UNL     1     -13.633  40.951  -4.558  1.00  0.00     0.000 C 
BRANCH   4   5
ATOM      5  C   UNL     1     -13.667  41.821  -5.824  1.00  0.00     0.006 C 
BRANCH   5   6
ATOM      6  C   UNL     1     -12.800  41.245  -6.949  1.00  0.00     0.053 C 
BRANCH   6   7
ATOM      7  C   UNL     1     -11.506  41.989  -7.092  1.00  0.00     0.041 C 
ATOM      8  O   UNL     1     -11.241  42.949  -6.322  1.00  0.00    -0.550 OA
ATOM      9  O   UNL     1     -10.582  41.599  -8.052  1.00  0.00    -0.550 OA
ENDBRANCH   6   7
ENDBRANCH   5   6
ENDBRANCH   4   5
ENDBRANCH   3   4
ENDBRANCH   2   3
ENDBRANCH   1   2
BRANCH   1  10
ATOM     10  C   UNL     1     -17.328  42.640  -2.933  1.00  0.00     0.000 C 
BRANCH  10  11
ATOM     11  C   UNL     1     -18.834  42.935  -2.875  1.00  0.00    -0.000 C 
BRANCH  11  12
ATOM     12  C   UNL     1     -19.473  42.796  -4.262  1.00  0.00    -0.000 C 
BRANCH  12  13
ATOM     13  C   UNL     1     -20.936  42.343  -4.152  1.00  0.00    -0.000 C 
BRANCH  13  14
ATOM     14  C   UNL     1     -21.122  41.129  -3.224  1.00  0.00    -0.000 C 
BRANCH  14  15
ATOM     15  C   UNL     1     -20.999  39.758  -3.914  1.00  0.00    -0.000 C 
BRANCH  15  16
ATOM     16  C   UNL     1     -20.289  38.711  -3.042  1.00  0.00    -0.003 C 
ATOM     17  C   UNL     1     -20.450  37.310  -3.624  1.00  0.00     0.004 C 
ENDBRANCH  15  16
ENDBRANCH  14  15
ENDBRANCH  13  14
ENDBRANCH  12  13
ENDBRANCH  11  12
ENDBRANCH  10  11
ENDBRANCH   1  10
TORSDOF 13
ENDMDL
MODEL 2
REMARK VINA RESULT:    11.488     12.269     13.460
REMARK INTER + INTRA:          19.298
REMARK INTER:                  19.749
REMARK INTRA:                  -0.451
REMARK UNBOUND:                -0.921
REMARK SMILES CCCCCCCCCCCCCCC(=O)[O-]
REMARK SMILES IDX 9 1 10 2 11 3 12 4 13 5 14 6 15 7 16 8 17 9 8 10 7 11 6 12
REMARK SMILES IDX 5 13 4 14 3 15 2 16 1 17
REMARK H PARENT
REMARK Flexibility Score: inf
ROOT
ATOM      1  C   UNL     1     -15.027  28.271  -3.719  1.00  0.00     0.000 C 
ENDROOT
BRANCH   1   2
ATOM      2  C   UNL     1     -13.816  28.901  -3.005  1.00  0.00     0.000 C 
BRANCH   2   3
ATOM      3  C   UNL     1     -12.565  28.969  -3.895  1.00  0.00     0.000 C 
BRANCH   3   4
ATOM      4  C   UNL     1     -12.086  30.416  -4.059  1.00  0.00     0.000 C 
BRANCH   4   5
ATOM      5  C   UNL     1     -11.557  30.663  -5.480  1.00  0.00     0.006 C 
BRANCH   5   6
ATOM      6  C   UNL     1     -11.245  29.356  -6.219  1.00  0.00     0.053 C 
BRANCH   6   7
ATOM      7  C   UNL     1     -10.504  29.602  -7.498  1.00  0.00     0.041 C 
ATOM      8  O   UNL     1     -11.044  29.338  -8.603  1.00  0.00    -0.550 OA
ATOM      9  O   UNL     1      -9.230  30.155  -7.468  1.00  0.00    -0.550 OA
ENDBRANCH   6   7
ENDBRANCH   5   6
ENDBRANCH   4   5
ENDBRANCH   3   4
ENDBRANCH   2   3
ENDBRANCH   1   2
BRANCH   1  10
ATOM     10  C   UNL     1     -16.327  28.243  -2.893  1.00  0.00     0.000 C 
BRANCH  10  11
ATOM     11  C   UNL     1     -17.231  27.051  -3.239  1.00  0.00    -0.000 C 
BRANCH  11  12
ATOM     12  C   UNL     1     -18.661  27.515  -3.539  1.00  0.00    -0.000 C 
BRANCH  12  13
ATOM     13  C   UNL     1     -19.691  26.586  -2.881  1.00  0.00    -0.000 C 
BRANCH  13  14
ATOM     14  C   UNL     1     -19.882  25.263  -3.642  1.00  0.00    -0.000 C 
BRANCH  14  15
ATOM     15  C   UNL     1     -21.124  25.208  -4.550  1.00  0.00    -0.000 C 
BRANCH  15  16
ATOM     16  C   UNL     1     -21.006  26.119  -5.781  1.00  0.00    -0.003 C 
ATOM     17  C   UNL     1     -21.075  25.310  -7.073  1.00  0.00     0.004 C 
ENDBRANCH  15  16
ENDBRANCH  14  15
ENDBRANCH  13  14
ENDBRANCH  12  13
ENDBRANCH  11  12
ENDBRANCH  10  11
ENDBRANCH   1  10
TORSDOF 13
ENDMDL
MODEL 3
REMARK VINA RESULT:    11.734      3.664      7.988
REMARK INTER + INTRA:          19.730
REMARK INTER:                  20.196
REMARK INTRA:                  -0.466
REMARK UNBOUND:                -0.921
REMARK SMILES CCCCCCCCCCCCCCC(=O)[O-]
REMARK SMILES IDX 9 1 10 2 11 3 12 4 13 5 14 6 15 7 16 8 17 9 8 10 7 11 6 12
REMARK SMILES IDX 5 13 4 14 3 15 2 16 1 17
REMARK H PARENT
REMARK Flexibility Score: inf
ROOT
ATOM      1  C   UNL     1     -17.085  42.053  -3.782  1.00  0.00     0.000 C 
ENDROOT
BRANCH   1   2
ATOM      2  C   UNL     1     -18.160  42.719  -2.903  1.00  0.00     0.000 C 
BRANCH   2   3
ATOM      3  C   UNL     1     -19.312  43.325  -3.720  1.00  0.00     0.000 C 
BRANCH   3   4
ATOM      4  C   UNL     1     -20.570  42.454  -3.624  1.00  0.00     0.000 C 
BRANCH   4   5
ATOM      5  C   UNL     1     -20.277  41.144  -2.876  1.00  0.00     0.006 C 
BRANCH   5   6
ATOM      6  C   UNL     1     -21.115  39.974  -3.404  1.00  0.00     0.053 C 
BRANCH   6   7
ATOM      7  C   UNL     1     -20.340  38.691  -3.410  1.00  0.00     0.041 C 
ATOM      8  O   UNL     1     -20.918  37.603  -3.669  1.00  0.00    -0.550 OA
ATOM      9  O   UNL     1     -18.974  38.703  -3.162  1.00  0.00    -0.550 OA
ENDBRANCH   6   7
ENDBRANCH   5   6
ENDBRANCH   4   5
ENDBRANCH   3   4
ENDBRANCH   2   3
ENDBRANCH   1   2
BRANCH   1  10
ATOM     10  C   UNL     1     -16.021  41.250  -3.012  1.00  0.00     0.000 C 
BRANCH  10  11
ATOM     11  C   UNL     1     -14.605  41.821  -3.177  1.00  0.00    -0.000 C 
BRANCH  11  12
ATOM     12  C   UNL     1     -13.865  41.129  -4.328  1.00  0.00    -0.000 C 
BRANCH  12  13
ATOM     13  C   UNL     1     -14.434  41.561  -5.687  1.00  0.00    -0.000 C 
BRANCH  13  14
ATOM     14  C   UNL     1     -13.365  42.142  -6.630  1.00  0.00    -0.000 C 
BRANCH  14  15
ATOM     15  C   UNL     1     -11.915  41.751  -6.289  1.00  0.00    -0.000 C 
BRANCH  15  16
ATOM     16  C   UNL     1     -11.176  41.106  -7.471  1.00  0.00    -0.003 C 
ATOM     17  C   UNL     1      -9.789  41.717  -7.651  1.00  0.00     0.004 C 
ENDBRANCH  15  16
ENDBRANCH  14  15
ENDBRANCH  13  14
ENDBRANCH  12  13
ENDBRANCH  11  12
ENDBRANCH  10  11
ENDBRANCH   1  10
TORSDOF 13
ENDMDL
MODEL 4
REMARK VINA RESULT:    11.917     12.275     15.132
REMARK INTER + INTRA:          20.052
REMARK INTER:                  19.793
REMARK INTRA:                   0.259
REMARK UNBOUND:                -0.921
REMARK SMILES CCCCCCCCCCCCCCC(=O)[O-]
REMARK SMILES IDX 9 1 10 2 11 3 12 4 13 5 14 6 15 7 16 8 17 9 8 10 7 11 6 12
REMARK SMILES IDX 5 13 4 14 3 15 2 16 1 17
REMARK H PARENT
REMARK Flexibility Score: inf
ROOT
ATOM      1  C   UNL     1     -16.800  27.362  -3.598  1.00  0.00     0.000 C 
ENDROOT
BRANCH   1   2
ATOM      2  C   UNL     1     -17.096  26.015  -2.913  1.00  0.00     0.000 C 
BRANCH   2   3
ATOM      3  C   UNL     1     -18.588  25.647  -2.934  1.00  0.00     0.000 C 
BRANCH   3   4
ATOM      4  C   UNL     1     -19.453  26.878  -3.227  1.00  0.00     0.000 C 
BRANCH   4   5
ATOM      5  C   UNL     1     -19.696  27.033  -4.736  1.00  0.00     0.006 C 
BRANCH   5   6
ATOM      6  C   UNL     1     -20.060  28.473  -5.121  1.00  0.00     0.053 C 
BRANCH   6   7
ATOM      7  C   UNL     1     -19.951  29.406  -3.953  1.00  0.00     0.041 C 
ATOM      8  O   UNL     1     -18.820  29.704  -3.486  1.00  0.00    -0.550 OA
ATOM      9  O   UNL     1     -21.094  29.971  -3.404  1.00  0.00    -0.550 OA
ENDBRANCH   6   7
ENDBRANCH   5   6
ENDBRANCH   4   5
ENDBRANCH   3   4
ENDBRANCH   2   3
ENDBRANCH   1   2
BRANCH   1  10
ATOM     10  C   UNL     1     -15.767  28.246  -2.875  1.00  0.00     0.000 C 
BRANCH  10  11
ATOM     11  C   UNL     1     -14.317  27.868  -3.209  1.00  0.00    -0.000 C 
BRANCH  11  12
ATOM     12  C   UNL     1     -13.424  29.113  -3.270  1.00  0.00    -0.000 C 
BRANCH  12  13
ATOM     13  C   UNL     1     -12.185  28.861  -4.139  1.00  0.00    -0.000 C 
BRANCH  13  14
ATOM     14  C   UNL     1     -12.345  29.375  -5.581  1.00  0.00    -0.000 C 
BRANCH  14  15
ATOM     15  C   UNL     1     -11.123  30.121  -6.145  1.00  0.00    -0.000 C 
BRANCH  15  16
ATOM     16  C   UNL     1     -10.462  29.385  -7.321  1.00  0.00    -0.003 C 
ATOM     17  C   UNL     1      -9.145  30.048  -7.715  1.00  0.00     0.004 C 
ENDBRANCH  15  16
ENDBRANCH  14  15
ENDBRANCH  13  14
ENDBRANCH  12  13
ENDBRANCH  11  12
ENDBRANCH  10  11
ENDBRANCH   1  10
TORSDOF 13
ENDMDL
MODEL 5
REMARK VINA RESULT:    12.002     13.344     15.643
REMARK INTER + INTRA:          20.202
REMARK INTER:                  20.677
REMARK INTRA:                  -0.475
REMARK UNBOUND:                -0.921
REMARK SMILES CCCCCCCCCCCCCCC(=O)[O-]
REMARK SMILES IDX 9 1 10 2 11 3 12 4 13 5 14 6 15 7 16 8 17 9 8 10 7 11 6 12
REMARK SMILES IDX 5 13 4 14 3 15 2 16 1 17
REMARK H PARENT
REMARK Flexibility Score: inf
ROOT
ATOM      1  C   UNL     1     -15.483  27.870  -3.705  1.00  0.00     0.000 C 
ENDROOT
BRANCH   1   2
ATOM      2  C   UNL     1     -16.746  27.574  -2.875  1.00  0.00     0.000 C 
BRANCH   2   3
ATOM      3  C   UNL     1     -18.003  27.389  -3.741  1.00  0.00     0.000 C 
BRANCH   3   4
ATOM      4  C   UNL     1     -19.112  26.682  -2.953  1.00  0.00     0.000 C 
BRANCH   4   5
ATOM      5  C   UNL     1     -20.497  27.037  -3.514  1.00  0.00     0.006 C 
BRANCH   5   6
ATOM      6  C   UNL     1     -21.005  25.992  -4.515  1.00  0.00     0.053 C 
BRANCH   6   7
ATOM      7  C   UNL     1     -20.717  26.390  -5.930  1.00  0.00     0.041 C 
ATOM      8  O   UNL     1     -20.375  27.572  -6.198  1.00  0.00    -0.550 OA
ATOM      9  O   UNL     1     -20.794  25.448  -6.948  1.00  0.00    -0.550 OA
ENDBRANCH   6   7
ENDBRANCH   5   6
ENDBRANCH   4   5
ENDBRANCH   3   4
ENDBRANCH   2   3
ENDBRANCH   1   2
BRANCH   1  10
ATOM     10  C   UNL     1     -14.544  28.932  -3.104  1.00  0.00     0.000 C 
BRANCH  10  11
ATOM     11  C   UNL     1     -13.065  28.521  -3.154  1.00  0.00    -0.000 C 
BRANCH  11  12
ATOM     12  C   UNL     1     -12.248  29.513  -3.990  1.00  0.00    -0.000 C 
BRANCH  12  13
ATOM     13  C   UNL     1     -12.570  29.369  -5.485  1.00  0.00    -0.000 C 
BRANCH  13  14
ATOM     14  C   UNL     1     -11.550  30.080  -6.391  1.00  0.00    -0.000 C 
BRANCH  14  15
ATOM     15  C   UNL     1     -11.001  29.226  -7.549  1.00  0.00    -0.000 C 
BRANCH  15  16
ATOM     16  C   UNL     1      -9.599  29.662  -8.001  1.00  0.00    -0.003 C 
ATOM     17  C   UNL     1      -8.929  30.539  -6.947  1.00  0.00     0.004 C 
ENDBRANCH  15  16
ENDBRANCH  14  15
ENDBRANCH  13  14
ENDBRANCH  12  13
ENDBRANCH  11  12
ENDBRANCH  10  11
ENDBRANCH   1  10
TORSDOF 13
ENDMDL
MODEL 6
REMARK VINA RESULT:    12.048     13.170     15.518
REMARK INTER + INTRA:          20.282
REMARK INTER:                  20.009
REMARK INTRA:                   0.274
REMARK UNBOUND:                -0.921
REMARK SMILES CCCCCCCCCCCCCCC(=O)[O-]
REMARK SMILES IDX 9 1 10 2 11 3 12 4 13 5 14 6 15 7 16 8 17 9 8 10 7 11 6 12
REMARK SMILES IDX 5 13 4 14 3 15 2 16 1 17
REMARK H PARENT
REMARK Flexibility Score: inf
ROOT
ATOM      1  C   UNL     1     -16.088  27.169  -3.078  1.00  0.00     0.000 C 
ENDROOT
BRANCH   1   2
ATOM      2  C   UNL     1     -17.614  26.995  -2.972  1.00  0.00     0.000 C 
BRANCH   2   3
ATOM      3  C   UNL     1     -18.377  28.326  -3.064  1.00  0.00     0.000 C 
BRANCH   3   4
ATOM      4  C   UNL     1     -19.862  28.087  -3.362  1.00  0.00     0.000 C 
BRANCH   4   5
ATOM      5  C   UNL     1     -20.215  26.597  -3.245  1.00  0.00     0.006 C 
BRANCH   5   6
ATOM      6  C   UNL     1     -21.023  26.095  -4.447  1.00  0.00     0.053 C 
BRANCH   6   7
ATOM      7  C   UNL     1     -20.683  26.845  -5.699  1.00  0.00     0.041 C 
ATOM      8  O   UNL     1     -20.343  26.221  -6.739  1.00  0.00    -0.550 OA
ATOM      9  O   UNL     1     -20.774  28.230  -5.727  1.00  0.00    -0.550 OA
ENDBRANCH   6   7
ENDBRANCH   5   6
ENDBRANCH   4   5
ENDBRANCH   3   4
ENDBRANCH   2   3
ENDBRANCH   1   2
BRANCH   1  10
ATOM     10  C   UNL     1     -15.581  28.609  -2.875  1.00  0.00     0.000 C 
BRANCH  10  11
ATOM     11  C   UNL     1     -14.055  28.729  -3.000  1.00  0.00    -0.000 C 
BRANCH  11  12
ATOM     12  C   UNL     1     -13.642  28.991  -4.453  1.00  0.00    -0.000 C 
BRANCH  12  13
ATOM     13  C   UNL     1     -12.125  28.836  -4.632  1.00  0.00    -0.000 C 
BRANCH  13  14
ATOM     14  C   UNL     1     -11.551  29.752  -5.728  1.00  0.00    -0.000 C 
BRANCH  14  15
ATOM     15  C   UNL     1     -11.132  29.032  -7.023  1.00  0.00    -0.000 C 
BRANCH  15  16
ATOM     16  C   UNL     1     -10.171  29.864  -7.886  1.00  0.00    -0.003 C 
ATOM     17  C   UNL     1      -8.947  30.297  -7.083  1.00  0.00     0.004 C 
ENDBRANCH  15  16
ENDBRANCH  14  15
ENDBRANCH  13  14
ENDBRANCH  12  13
ENDBRANCH  11  12
ENDBRANCH  10  11
ENDBRANCH   1  10
TORSDOF 13
ENDMDL
