MODEL 1
REMARK VINA RESULT:    -4.376      0.000      0.000
REMARK INTER + INTRA:          -4.504
REMARK INTER:                  -4.504
REMARK INTRA:                   0.000
REMARK UNBOUND:                 0.000
REMARK SMILES Nc1ncnc2nc[nH]c12
REMARK SMILES IDX 8 1 7 2 6 3 5 4 4 5 3 6 2 7 10 8 9 9 1 11
REMARK H PARENT 9 10 1 12 1 13
REMARK Flexibility Score: inf
ROOT
ATOM      1  C   UNL     1     -11.215  23.100   6.502  1.00  0.00     0.199 A 
ATOM      2  N   UNL     1     -11.730  22.037   7.178  1.00  0.00    -0.217 NA
ATOM      3  C   UNL     1     -10.670  21.604   7.880  1.00  0.00     0.182 A 
ATOM      4  N   UNL     1     -10.639  20.552   8.731  1.00  0.00    -0.215 NA
ATOM      5  C   UNL     1      -9.458  20.262   9.358  1.00  0.00     0.226 A 
ATOM      6  N   UNL     1      -8.341  21.023   9.123  1.00  0.00    -0.217 NA
ATOM      7  C   UNL     1      -8.370  22.086   8.264  1.00  0.00     0.152 A 
ATOM      8  C   UNL     1      -9.579  22.367   7.635  1.00  0.00     0.127 A 
ATOM      9  N   UNL     1      -9.903  23.327   6.760  1.00  0.00    -0.340 N 
ATOM     10  H   UNL     1      -9.298  24.078   6.362  1.00  0.00     0.168 HD
ENDROOT
BRANCH   7  11
ATOM     11  N   UNL     1      -7.194  22.864   8.036  1.00  0.00    -0.382 N 
ATOM     12  H   UNL     1      -6.701  22.848   7.117  1.00  0.00     0.158 HD
ATOM     13  H   UNL     1      -6.810  23.466   8.798  1.00  0.00     0.158 HD
ENDBRANCH   7  11
TORSDOF 1
ENDMDL
MODEL 2
REMARK VINA RESULT:    -4.316      2.262      4.320
REMARK INTER + INTRA:          -4.442
REMARK INTER:                  -4.442
REMARK INTRA:                   0.000
REMARK UNBOUND:                 0.000
REMARK SMILES Nc1ncnc2nc[nH]c12
REMARK SMILES IDX 8 1 7 2 6 3 5 4 4 5 3 6 2 7 10 8 9 9 1 11
REMARK H PARENT 9 10 1 12 1 13
REMARK Flexibility Score: inf
ROOT
ATOM      1  C   UNL     1      -9.809  22.616   7.551  1.00  0.00     0.199 A 
ATOM      2  N   UNL     1     -10.939  22.358   6.838  1.00  0.00    -0.217 NA
ATOM      3  C   UNL     1     -11.157  23.528   6.215  1.00  0.00     0.182 A 
ATOM      4  N   UNL     1     -12.173  23.816   5.367  1.00  0.00    -0.215 NA
ATOM      5  C   UNL     1     -12.228  25.072   4.827  1.00  0.00     0.226 A 
ATOM      6  N   UNL     1     -11.275  26.007   5.142  1.00  0.00    -0.217 NA
ATOM      7  C   UNL     1     -10.249  25.719   5.998  1.00  0.00     0.152 A 
ATOM      8  C   UNL     1     -10.207  24.437   6.539  1.00  0.00     0.127 A 
ATOM      9  N   UNL     1      -9.338  23.878   7.389  1.00  0.00    -0.340 N 
ATOM     10  H   UNL     1      -8.492  24.302   7.831  1.00  0.00     0.168 HD
ENDROOT
BRANCH   7  11
ATOM     11  N   UNL     1      -9.269  26.709   6.312  1.00  0.00    -0.382 N 
ATOM     12  H   UNL     1      -9.392  27.360   7.118  1.00  0.00     0.158 HD
ATOM     13  H   UNL     1      -8.406  26.793   5.729  1.00  0.00     0.158 HD
ENDBRANCH   7  11
TORSDOF 1
ENDMDL
MODEL 3
REMARK VINA RESULT:    -3.974      0.918      3.005
REMARK INTER + INTRA:          -4.090
REMARK INTER:                  -4.090
REMARK INTRA:                   0.000
REMARK UNBOUND:                 0.000
REMARK SMILES Nc1ncnc2nc[nH]c12
REMARK SMILES IDX 8 1 7 2 6 3 5 4 4 5 3 6 2 7 10 8 9 9 1 11
REMARK H PARENT 9 10 1 12 1 13
REMARK Flexibility Score: inf
ROOT
ATOM      1  C   UNL     1      -7.904  21.596   8.603  1.00  0.00     0.199 A 
ATOM      2  N   UNL     1      -8.883  20.817   9.140  1.00  0.00    -0.217 NA
ATOM      3  C   UNL     1      -9.982  21.267   8.513  1.00  0.00     0.182 A 
ATOM      4  N   UNL     1     -11.250  20.823   8.685  1.00  0.00    -0.215 NA
ATOM      5  C   UNL     1     -12.245  21.410   7.952  1.00  0.00     0.226 A 
ATOM      6  N   UNL     1     -11.956  22.419   7.070  1.00  0.00    -0.217 NA
ATOM      7  C   UNL     1     -10.677  22.870   6.895  1.00  0.00     0.152 A 
ATOM      8  C   UNL     1      -9.676  22.262   7.648  1.00  0.00     0.127 A 
ATOM      9  N   UNL     1      -8.358  22.489   7.688  1.00  0.00    -0.340 N 
ATOM     10  H   UNL     1      -7.799  23.185   7.149  1.00  0.00     0.168 HD
ENDROOT
BRANCH   7  11
ATOM     11  N   UNL     1     -10.401  23.923   5.970  1.00  0.00    -0.382 N 
ATOM     12  H   UNL     1      -9.919  23.737   5.063  1.00  0.00     0.158 HD
ATOM     13  H   UNL     1     -10.680  24.903   6.196  1.00  0.00     0.158 HD
ENDBRANCH   7  11
TORSDOF 1
ENDMDL
MODEL 4
REMARK VINA RESULT:    -3.814      1.479      2.348
REMARK INTER + INTRA:          -3.926
REMARK INTER:                  -3.926
REMARK INTRA:                   0.000
REMARK UNBOUND:                 0.000
REMARK SMILES Nc1ncnc2nc[nH]c12
REMARK SMILES IDX 8 1 7 2 6 3 5 4 4 5 3 6 2 7 10 8 9 9 1 11
REMARK H PARENT 9 10 1 12 1 13
REMARK Flexibility Score: inf
ROOT
ATOM      1  C   UNL     1     -10.872  25.227   6.664  1.00  0.00     0.199 A 
ATOM      2  N   UNL     1     -11.977  24.498   6.349  1.00  0.00    -0.217 NA
ATOM      3  C   UNL     1     -11.570  23.242   6.596  1.00  0.00     0.182 A 
ATOM      4  N   UNL     1     -12.299  22.111   6.443  1.00  0.00    -0.215 NA
ATOM      5  C   UNL     1     -11.708  20.915   6.747  1.00  0.00     0.226 A 
ATOM      6  N   UNL     1     -10.412  20.874   7.194  1.00  0.00    -0.217 NA
ATOM      7  C   UNL     1      -9.674  22.013   7.349  1.00  0.00     0.152 A 
ATOM      8  C   UNL     1     -10.289  23.222   7.035  1.00  0.00     0.127 A 
ATOM      9  N   UNL     1      -9.824  24.476   7.087  1.00  0.00    -0.340 N 
ATOM     10  H   UNL     1      -8.880  24.810   7.381  1.00  0.00     0.168 HD
ENDROOT
BRANCH   7  11
ATOM     11  N   UNL     1      -8.326  21.945   7.816  1.00  0.00    -0.382 N 
ATOM     12  H   UNL     1      -8.033  21.243   8.530  1.00  0.00     0.158 HD
ATOM     13  H   UNL     1      -7.610  22.608   7.444  1.00  0.00     0.158 HD
ENDBRANCH   7  11
TORSDOF 1
ENDMDL
MODEL 5
REMARK VINA RESULT:    -3.789      6.725      8.439
REMARK INTER + INTRA:          -3.900
REMARK INTER:                  -3.900
REMARK INTRA:                   0.000
REMARK UNBOUND:                 0.000
REMARK SMILES Nc1ncnc2nc[nH]c12
REMARK SMILES IDX 8 1 7 2 6 3 5 4 4 5 3 6 2 7 10 8 9 9 1 11
REMARK H PARENT 9 10 1 12 1 13
REMARK Flexibility Score: inf
ROOT
ATOM      1  C   UNL     1     -11.844  16.820   9.559  1.00  0.00     0.199 A 
ATOM      2  N   UNL     1     -12.152  16.284  10.772  1.00  0.00    -0.217 NA
ATOM      3  C   UNL     1     -12.565  15.049  10.442  1.00  0.00     0.182 A 
ATOM      4  N   UNL     1     -12.993  14.086  11.292  1.00  0.00    -0.215 NA
ATOM      5  C   UNL     1     -13.376  12.883  10.765  1.00  0.00     0.226 A 
ATOM      6  N   UNL     1     -13.323  12.669   9.411  1.00  0.00    -0.217 NA
ATOM      7  C   UNL     1     -12.893  13.640   8.551  1.00  0.00     0.152 A 
ATOM      8  C   UNL     1     -12.507  14.858   9.103  1.00  0.00     0.127 A 
ATOM      9  N   UNL     1     -12.050  15.973   8.520  1.00  0.00    -0.340 N 
ATOM     10  H   UNL     1     -11.886  16.159   7.506  1.00  0.00     0.168 HD
ENDROOT
BRANCH   7  11
ATOM     11  N   UNL     1     -12.847  13.393   7.145  1.00  0.00    -0.382 N 
ATOM     12  H   UNL     1     -13.106  14.132   6.455  1.00  0.00     0.158 HD
ATOM     13  H   UNL     1     -12.549  12.458   6.788  1.00  0.00     0.158 HD
ENDBRANCH   7  11
TORSDOF 1
ENDMDL
MODEL 6
REMARK VINA RESULT:    -3.749      7.460      9.304
REMARK INTER + INTRA:          -3.858
REMARK INTER:                  -3.858
REMARK INTRA:                   0.000
REMARK UNBOUND:                 0.000
REMARK SMILES Nc1ncnc2nc[nH]c12
REMARK SMILES IDX 8 1 7 2 6 3 5 4 4 5 3 6 2 7 10 8 9 9 1 11
REMARK H PARENT 9 10 1 12 1 13
REMARK Flexibility Score: inf
ROOT
ATOM      1  C   UNL     1     -12.277  13.827  12.219  1.00  0.00     0.199 A 
ATOM      2  N   UNL     1     -13.079  12.817  11.787  1.00  0.00    -0.217 NA
ATOM      3  C   UNL     1     -13.242  13.117  10.488  1.00  0.00     0.182 A 
ATOM      4  N   UNL     1     -13.967  12.420   9.582  1.00  0.00    -0.215 NA
ATOM      5  C   UNL     1     -14.015  12.886   8.296  1.00  0.00     0.226 A 
ATOM      6  N   UNL     1     -13.342  14.029   7.945  1.00  0.00    -0.217 NA
ATOM      7  C   UNL     1     -12.610  14.735   8.858  1.00  0.00     0.152 A 
ATOM      8  C   UNL     1     -12.572  14.247  10.162  1.00  0.00     0.127 A 
ATOM      9  N   UNL     1     -11.949  14.717  11.249  1.00  0.00    -0.340 N 
ATOM     10  H   UNL     1     -11.350  15.567  11.342  1.00  0.00     0.168 HD
ENDROOT
BRANCH   7  11
ATOM     11  N   UNL     1     -11.918  15.922   8.469  1.00  0.00    -0.382 N 
ATOM     12  H   UNL     1     -12.345  16.609   7.809  1.00  0.00     0.158 HD
ATOM     13  H   UNL     1     -10.965  16.118   8.846  1.00  0.00     0.158 HD
ENDBRANCH   7  11
TORSDOF 1
ENDMDL
MODEL 7
REMARK VINA RESULT:    -3.745      6.669      8.771
REMARK INTER + INTRA:          -3.854
REMARK INTER:                  -3.854
REMARK INTRA:                   0.000
REMARK UNBOUND:                 0.000
REMARK SMILES Nc1ncnc2nc[nH]c12
REMARK SMILES IDX 8 1 7 2 6 3 5 4 4 5 3 6 2 7 10 8 9 9 1 11
REMARK H PARENT 9 10 1 12 1 13
REMARK Flexibility Score: inf
ROOT
ATOM      1  C   UNL     1     -12.691  12.738  11.808  1.00  0.00     0.199 A 
ATOM      2  N   UNL     1     -12.519  13.906  12.484  1.00  0.00    -0.217 NA
ATOM      3  C   UNL     1     -12.461  14.806  11.488  1.00  0.00     0.182 A 
ATOM      4  N   UNL     1     -12.294  16.143  11.616  1.00  0.00    -0.215 NA
ATOM      5  C   UNL     1     -12.259  16.902  10.478  1.00  0.00     0.226 A 
ATOM      6  N   UNL     1     -12.389  16.314   9.246  1.00  0.00    -0.217 NA
ATOM      7  C   UNL     1     -12.556  14.964   9.114  1.00  0.00     0.152 A 
ATOM      8  C   UNL     1     -12.590  14.206  10.281  1.00  0.00     0.127 A 
ATOM      9  N   UNL     1     -12.739  12.888  10.461  1.00  0.00    -0.340 N 
ATOM     10  H   UNL     1     -12.863  12.142   9.742  1.00  0.00     0.168 HD
ENDROOT
BRANCH   7  11
ATOM     11  N   UNL     1     -12.690  14.373   7.820  1.00  0.00    -0.382 N 
ATOM     12  H   UNL     1     -12.752  14.959   6.959  1.00  0.00     0.158 HD
ATOM     13  H   UNL     1     -12.728  13.335   7.721  1.00  0.00     0.158 HD
ENDBRANCH   7  11
TORSDOF 1
ENDMDL
MODEL 8
REMARK VINA RESULT:    -3.729      1.435      3.882
REMARK INTER + INTRA:          -3.838
REMARK INTER:                  -3.838
REMARK INTRA:                   0.000
REMARK UNBOUND:                 0.000
REMARK SMILES Nc1ncnc2nc[nH]c12
REMARK SMILES IDX 8 1 7 2 6 3 5 4 4 5 3 6 2 7 10 8 9 9 1 11
REMARK H PARENT 9 10 1 12 1 13
REMARK Flexibility Score: inf
ROOT
ATOM      1  C   UNL     1      -8.613  21.250   8.501  1.00  0.00     0.199 A 
ATOM      2  N   UNL     1      -8.868  22.533   8.125  1.00  0.00    -0.217 NA
ATOM      3  C   UNL     1      -9.957  22.392   7.351  1.00  0.00     0.182 A 
ATOM      4  N   UNL     1     -10.629  23.380   6.714  1.00  0.00    -0.215 NA
ATOM      5  C   UNL     1     -11.723  23.040   5.966  1.00  0.00     0.226 A 
ATOM      6  N   UNL     1     -12.120  21.731   5.871  1.00  0.00    -0.217 NA
ATOM      7  C   UNL     1     -11.443  20.732   6.512  1.00  0.00     0.152 A 
ATOM      8  C   UNL     1     -10.332  21.094   7.269  1.00  0.00     0.127 A 
ATOM      9  N   UNL     1      -9.490  20.348   7.994  1.00  0.00    -0.340 N 
ATOM     10  H   UNL     1      -9.497  19.315   8.142  1.00  0.00     0.168 HD
ENDROOT
BRANCH   7  11
ATOM     11  N   UNL     1     -11.875  19.375   6.398  1.00  0.00    -0.382 N 
ATOM     12  H   UNL     1     -11.237  18.580   6.622  1.00  0.00     0.158 HD
ATOM     13  H   UNL     1     -12.848  19.161   6.085  1.00  0.00     0.158 HD
ENDBRANCH   7  11
TORSDOF 1
ENDMDL
MODEL 9
REMARK VINA RESULT:    -3.642      1.237      3.025
REMARK INTER + INTRA:          -3.748
REMARK INTER:                  -3.748
REMARK INTRA:                   0.000
REMARK UNBOUND:                 0.000
REMARK SMILES Nc1ncnc2nc[nH]c12
REMARK SMILES IDX 8 1 7 2 6 3 5 4 4 5 3 6 2 7 10 8 9 9 1 11
REMARK H PARENT 9 10 1 12 1 13
REMARK Flexibility Score: inf
ROOT
ATOM      1  C   UNL     1     -10.831  20.134  10.447  1.00  0.00     0.199 A 
ATOM      2  N   UNL     1     -11.989  20.401   9.785  1.00  0.00    -0.217 NA
ATOM      3  C   UNL     1     -11.557  21.108   8.728  1.00  0.00     0.182 A 
ATOM      4  N   UNL     1     -12.319  21.628   7.737  1.00  0.00    -0.215 NA
ATOM      5  C   UNL     1     -11.694  22.323   6.738  1.00  0.00     0.226 A 
ATOM      6  N   UNL     1     -10.332  22.483   6.749  1.00  0.00    -0.217 NA
ATOM      7  C   UNL     1      -9.561  21.959   7.748  1.00  0.00     0.152 A 
ATOM      8  C   UNL     1     -10.212  21.255   8.757  1.00  0.00     0.127 A 
ATOM      9  N   UNL     1      -9.727  20.642   9.844  1.00  0.00    -0.340 N 
ATOM     10  H   UNL     1      -8.736  20.566  10.163  1.00  0.00     0.168 HD
ENDROOT
BRANCH   7  11
ATOM     11  N   UNL     1      -8.144  22.139   7.739  1.00  0.00    -0.382 N 
ATOM     12  H   UNL     1      -7.544  21.692   7.010  1.00  0.00     0.158 HD
ATOM     13  H   UNL     1      -7.686  22.726   8.471  1.00  0.00     0.158 HD
ENDBRANCH   7  11
TORSDOF 1
ENDMDL
