MODEL 1
REMARK VINA RESULT:    -4.772      0.000      0.000
REMARK INTER + INTRA:          -7.838
REMARK INTER:                  -7.282
REMARK INTRA:                  -0.556
REMARK UNBOUND:                -0.556
REMARK SMILES CC1=CCC[C@@H](C)C(=O)C[C@@H](C(C)C)C(=O)C1
REMARK SMILES IDX 8 1 9 2 6 3 7 4 5 5 4 6 3 7 2 8 1 9 10 11 11 12 15 13 16 14
REMARK SMILES IDX 17 15 12 17 13 18 14 19
REMARK H PARENT
REMARK Flexibility Score: 70.00
ROOT
ATOM      1  C   UNL     1      31.482  20.276  27.468  1.00  0.00     0.136 C 
ATOM      2  O   UNL     1      31.032  21.286  27.990  1.00  0.00    -0.299 OA
ENDROOT
BRANCH   1   3
ATOM      3  C   UNL     1      32.700  20.358  26.556  1.00  0.00     0.053 C 
ATOM      4  C   UNL     1      33.929  20.944  27.272  1.00  0.00     0.016 C 
BRANCH   3   5
ATOM      5  C   UNL     1      32.400  21.123  25.244  1.00  0.00     0.015 C 
BRANCH   5   6
ATOM      6  C   UNL     1      31.374  20.408  24.348  1.00  0.00     0.028 C 
BRANCH   6   7
ATOM      7  C   UNL     1      31.895  19.125  23.746  1.00  0.00    -0.028 C 
ATOM      8  C   UNL     1      31.451  17.868  24.008  1.00  0.00    -0.070 CG0
ATOM      9  C   UNL     1      32.042  16.746  23.191  1.00  0.00     0.039 C 
ATOM     10  G   UNL     1      30.463  17.508  25.116  1.00  0.00     0.000 G0
ENDBRANCH   6   7
ENDBRANCH   5   6
ENDBRANCH   3   5
ENDBRANCH   1   3
BRANCH   1  11
ATOM     11  C   UNL     1      30.843  18.941  27.773  1.00  0.00     0.087 C 
BRANCH  11  12
ATOM     12  C   UNL     1      31.722  17.704  27.422  1.00  0.00     0.066 C 
BRANCH  12  13
ATOM     13  C   UNL     1      31.059  16.851  26.341  1.00  0.00     0.140 C 
ATOM     14  O   UNL     1      31.064  15.630  26.424  1.00  0.00    -0.299 OA
BRANCH  13  15
ATOM     15  C   UNL     1      30.464  17.504  25.118  1.00  0.00     0.106 CG0
ATOM     16  G   UNL     1      31.470  17.871  24.029  1.00  0.00     0.000 G0
ENDBRANCH  13  15
ENDBRANCH  12  13
BRANCH  12  17
ATOM     17  C   UNL     1      32.179  16.851  28.657  1.00  0.00    -0.006 C 
ATOM     18  C   UNL     1      33.626  16.355  28.472  1.00  0.00     0.008 C 
ATOM     19  C   UNL     1      32.097  17.622  29.988  1.00  0.00     0.008 C 
ENDBRANCH  12  17
ENDBRANCH  11  12
ENDBRANCH   1  11
TORSDOF 1
ENDMDL
MODEL 2
REMARK VINA RESULT:    -4.737      1.547      3.770
REMARK INTER + INTRA:          -7.786
REMARK INTER:                  -7.769
REMARK INTRA:                  -0.017
REMARK UNBOUND:                -0.556
REMARK SMILES CC1=CCC[C@@H](C)C(=O)C[C@@H](C(C)C)C(=O)C1
REMARK SMILES IDX 8 1 9 2 6 3 7 4 5 5 4 6 3 7 2 8 1 9 10 11 11 12 15 13 16 14
REMARK SMILES IDX 17 15 12 17 13 18 14 19
REMARK H PARENT
REMARK Flexibility Score: 70.00
ROOT
ATOM      1  C   UNL     1      31.620  18.946  28.080  1.00  0.00     0.136 C 
ATOM      2  O   UNL     1      30.623  19.641  28.211  1.00  0.00    -0.299 OA
ENDROOT
BRANCH   1   3
ATOM      3  C   UNL     1      31.653  17.533  28.650  1.00  0.00     0.053 C 
ATOM      4  C   UNL     1      33.051  17.138  29.157  1.00  0.00     0.016 C 
BRANCH   3   5
ATOM      5  C   UNL     1      31.104  16.486  27.652  1.00  0.00     0.015 C 
BRANCH   5   6
ATOM      6  C   UNL     1      30.269  17.107  26.519  1.00  0.00     0.028 C 
BRANCH   6   7
ATOM      7  C   UNL     1      30.759  16.735  25.140  1.00  0.00    -0.028 C 
ATOM      8  C   UNL     1      31.228  17.586  24.190  1.00  0.00    -0.070 CG0
ATOM      9  C   UNL     1      31.781  16.970  22.928  1.00  0.00     0.039 C 
ATOM     10  G   UNL     1      31.162  19.110  24.278  1.00  0.00     0.000 G0
ENDBRANCH   6   7
ENDBRANCH   5   6
ENDBRANCH   3   5
ENDBRANCH   1   3
BRANCH   1  11
ATOM     11  C   UNL     1      32.801  19.489  27.309  1.00  0.00     0.087 C 
BRANCH  11  12
ATOM     12  C   UNL     1      32.429  20.466  26.154  1.00  0.00     0.066 C 
BRANCH  12  13
ATOM     13  C   UNL     1      32.444  19.748  24.805  1.00  0.00     0.140 C 
ATOM     14  O   UNL     1      33.457  19.738  24.118  1.00  0.00    -0.299 OA
BRANCH  13  15
ATOM     15  C   UNL     1      31.184  19.116  24.268  1.00  0.00     0.106 CG0
ATOM     16  G   UNL     1      31.210  17.590  24.191  1.00  0.00     0.000 G0
ENDBRANCH  13  15
ENDBRANCH  12  13
BRANCH  12  17
ATOM     17  C   UNL     1      33.258  21.798  26.129  1.00  0.00    -0.006 C 
ATOM     18  C   UNL     1      32.369  22.985  25.709  1.00  0.00     0.008 C 
ATOM     19  C   UNL     1      33.906  22.133  27.485  1.00  0.00     0.008 C 
ENDBRANCH  12  17
ENDBRANCH  11  12
ENDBRANCH   1  11
TORSDOF 1
ENDMDL
MODEL 3
REMARK VINA RESULT:    -4.297      1.968      4.887
REMARK INTER + INTRA:          -7.114
REMARK INTER:                  -6.834
REMARK INTRA:                  -0.280
REMARK UNBOUND:                -0.556
REMARK SMILES CC1=CCC[C@@H](C)C(=O)C[C@@H](C(C)C)C(=O)C1
REMARK SMILES IDX 8 1 9 2 6 3 7 4 5 5 4 6 3 7 2 8 1 9 10 11 11 12 15 13 16 14
REMARK SMILES IDX 17 15 12 17 13 18 14 19
REMARK H PARENT
REMARK Flexibility Score: 70.00
ROOT
ATOM      1  C   UNL     1      30.397  17.172  25.988  1.00  0.00     0.136 C 
ATOM      2  O   UNL     1      29.423  16.510  26.317  1.00  0.00    -0.299 OA
ENDROOT
BRANCH   1   3
ATOM      3  C   UNL     1      31.654  17.170  26.850  1.00  0.00     0.053 C 
ATOM      4  C   UNL     1      32.016  15.764  27.356  1.00  0.00     0.016 C 
BRANCH   3   5
ATOM      5  C   UNL     1      31.565  18.179  28.020  1.00  0.00     0.015 C 
BRANCH   5   6
ATOM      6  C   UNL     1      32.802  19.088  28.132  1.00  0.00     0.028 C 
BRANCH   6   7
ATOM      7  C   UNL     1      32.515  20.532  27.796  1.00  0.00    -0.028 C 
ATOM      8  C   UNL     1      32.532  21.095  26.560  1.00  0.00    -0.070 CG0
ATOM      9  C   UNL     1      32.090  22.534  26.453  1.00  0.00     0.039 C 
ATOM     10  G   UNL     1      33.038  20.402  25.295  1.00  0.00     0.000 G0
ENDBRANCH   6   7
ENDBRANCH   5   6
ENDBRANCH   3   5
ENDBRANCH   1   3
BRANCH   1  11
ATOM     11  C   UNL     1      30.355  17.955  24.696  1.00  0.00     0.087 C 
BRANCH  11  12
ATOM     12  C   UNL     1      31.748  18.407  24.165  1.00  0.00     0.066 C 
BRANCH  12  13
ATOM     13  C   UNL     1      31.949  19.908  24.367  1.00  0.00     0.140 C 
ATOM     14  O   UNL     1      31.284  20.715  23.729  1.00  0.00    -0.299 OA
BRANCH  13  15
ATOM     15  C   UNL     1      33.027  20.411  25.294  1.00  0.00     0.106 CG0
ATOM     16  G   UNL     1      32.519  21.094  26.564  1.00  0.00     0.000 G0
ENDBRANCH  13  15
ENDBRANCH  12  13
BRANCH  12  17
ATOM     17  C   UNL     1      32.069  17.954  22.697  1.00  0.00    -0.006 C 
ATOM     18  C   UNL     1      33.410  18.548  22.224  1.00  0.00     0.008 C 
ATOM     19  C   UNL     1      32.131  16.424  22.536  1.00  0.00     0.008 C 
ENDBRANCH  12  17
ENDBRANCH  11  12
ENDBRANCH   1  11
TORSDOF 1
ENDMDL
MODEL 4
REMARK VINA RESULT:    -4.065     14.714     16.308
REMARK INTER + INTRA:          -6.760
REMARK INTER:                  -6.207
REMARK INTRA:                  -0.552
REMARK UNBOUND:                -0.556
REMARK SMILES CC1=CCC[C@@H](C)C(=O)C[C@@H](C(C)C)C(=O)C1
REMARK SMILES IDX 8 1 9 2 6 3 7 4 5 5 4 6 3 7 2 8 1 9 10 11 11 12 15 13 16 14
REMARK SMILES IDX 17 15 12 17 13 18 14 19
REMARK H PARENT
REMARK Flexibility Score: 70.00
ROOT
ATOM      1  C   UNL     1      17.554  24.441  26.761  1.00  0.00     0.136 C 
ATOM      2  O   UNL     1      17.244  24.468  25.578  1.00  0.00    -0.299 OA
ENDROOT
BRANCH   1   3
ATOM      3  C   UNL     1      18.036  23.144  27.399  1.00  0.00     0.053 C 
ATOM      4  C   UNL     1      19.317  22.607  26.740  1.00  0.00     0.016 C 
BRANCH   3   5
ATOM      5  C   UNL     1      16.930  22.062  27.436  1.00  0.00     0.015 C 
BRANCH   5   6
ATOM      6  C   UNL     1      15.841  22.345  28.486  1.00  0.00     0.028 C 
BRANCH   6   7
ATOM      7  C   UNL     1      16.372  22.406  29.898  1.00  0.00    -0.028 C 
ATOM      8  C   UNL     1      16.438  23.508  30.692  1.00  0.00    -0.070 CG0
ATOM      9  C   UNL     1      16.894  23.303  32.115  1.00  0.00     0.039 C 
ATOM     10  G   UNL     1      16.160  24.935  30.223  1.00  0.00     0.000 G0
ENDBRANCH   6   7
ENDBRANCH   5   6
ENDBRANCH   3   5
ENDBRANCH   1   3
BRANCH   1  11
ATOM     11  C   UNL     1      17.495  25.717  27.568  1.00  0.00     0.087 C 
BRANCH  11  12
ATOM     12  C   UNL     1      18.323  25.690  28.887  1.00  0.00     0.066 C 
BRANCH  12  13
ATOM     13  C   UNL     1      17.412  25.810  30.108  1.00  0.00     0.140 C 
ATOM     14  O   UNL     1      17.707  26.557  31.032  1.00  0.00    -0.299 OA
BRANCH  13  15
ATOM     15  C   UNL     1      16.180  24.947  30.222  1.00  0.00     0.106 CG0
ATOM     16  G   UNL     1      16.435  23.518  30.698  1.00  0.00     0.000 G0
ENDBRANCH  13  15
ENDBRANCH  12  13
BRANCH  12  17
ATOM     17  C   UNL     1      19.519  26.705  28.933  1.00  0.00    -0.006 C 
ATOM     18  C   UNL     1      20.711  26.182  28.109  1.00  0.00     0.008 C 
ATOM     19  C   UNL     1      19.144  28.105  28.411  1.00  0.00     0.008 C 
ENDBRANCH  12  17
ENDBRANCH  11  12
ENDBRANCH   1  11
TORSDOF 1
ENDMDL
MODEL 5
REMARK VINA RESULT:    -3.740      1.998      4.445
REMARK INTER + INTRA:          -6.263
REMARK INTER:                  -7.109
REMARK INTRA:                   0.846
REMARK UNBOUND:                -0.556
REMARK SMILES CC1=CCC[C@@H](C)C(=O)C[C@@H](C(C)C)C(=O)C1
REMARK SMILES IDX 8 1 9 2 6 3 7 4 5 5 4 6 3 7 2 8 1 9 10 11 11 12 15 13 16 14
REMARK SMILES IDX 17 15 12 17 13 18 14 19
REMARK H PARENT
REMARK Flexibility Score: 70.00
ROOT
ATOM      1  C   UNL     1      31.745  18.974  25.254  1.00  0.00     0.136 C 
ATOM      2  O   UNL     1      31.042  19.857  24.784  1.00  0.00    -0.299 OA
ENDROOT
BRANCH   1   3
ATOM      3  C   UNL     1      31.380  17.509  25.047  1.00  0.00     0.053 C 
ATOM      4  C   UNL     1      31.525  17.071  23.580  1.00  0.00     0.016 C 
BRANCH   3   5
ATOM      5  C   UNL     1      29.972  17.172  25.595  1.00  0.00     0.015 C 
BRANCH   5   6
ATOM      6  C   UNL     1      30.008  16.409  26.931  1.00  0.00     0.028 C 
BRANCH   6   7
ATOM      7  C   UNL     1      31.408  16.135  27.426  1.00  0.00    -0.028 C 
ATOM      8  C   UNL     1      32.080  16.828  28.382  1.00  0.00    -0.070 CG0
ATOM      9  C   UNL     1      33.427  16.293  28.801  1.00  0.00     0.039 C 
ATOM     10  G   UNL     1      31.605  18.143  28.998  1.00  0.00     0.000 G0
ENDBRANCH   6   7
ENDBRANCH   5   6
ENDBRANCH   3   5
ENDBRANCH   1   3
BRANCH   1  11
ATOM     11  C   UNL     1      33.002  19.352  26.003  1.00  0.00     0.087 C 
BRANCH  11  12
ATOM     12  C   UNL     1      32.760  19.915  27.435  1.00  0.00     0.066 C 
BRANCH  12  13
ATOM     13  C   UNL     1      31.500  19.312  28.055  1.00  0.00     0.140 C 
ATOM     14  O   UNL     1      30.403  19.808  27.838  1.00  0.00    -0.299 OA
BRANCH  13  15
ATOM     15  C   UNL     1      31.607  18.147  29.008  1.00  0.00     0.106 CG0
ATOM     16  G   UNL     1      32.083  16.839  28.377  1.00  0.00     0.000 G0
ENDBRANCH  13  15
ENDBRANCH  12  13
BRANCH  12  17
ATOM     17  C   UNL     1      32.783  21.481  27.537  1.00  0.00    -0.006 C 
ATOM     18  C   UNL     1      34.230  22.009  27.494  1.00  0.00     0.008 C 
ATOM     19  C   UNL     1      31.980  22.172  26.419  1.00  0.00     0.008 C 
ENDBRANCH  12  17
ENDBRANCH  11  12
ENDBRANCH   1  11
TORSDOF 1
ENDMDL
MODEL 6
REMARK VINA RESULT:    -3.611     12.243     13.546
REMARK INTER + INTRA:          -6.067
REMARK INTER:                  -6.009
REMARK INTRA:                  -0.058
REMARK UNBOUND:                -0.556
REMARK SMILES CC1=CCC[C@@H](C)C(=O)C[C@@H](C(C)C)C(=O)C1
REMARK SMILES IDX 8 1 9 2 6 3 7 4 5 5 4 6 3 7 2 8 1 9 10 11 11 12 15 13 16 14
REMARK SMILES IDX 17 15 12 17 13 18 14 19
REMARK H PARENT
REMARK Flexibility Score: 70.00
ROOT
ATOM      1  C   UNL     1      22.142  25.900  27.506  1.00  0.00     0.136 C 
ATOM      2  O   UNL     1      23.212  26.316  27.085  1.00  0.00    -0.299 OA
ENDROOT
BRANCH   1   3
ATOM      3  C   UNL     1      21.107  26.868  28.064  1.00  0.00     0.053 C 
ATOM      4  C   UNL     1      21.726  27.899  29.023  1.00  0.00     0.016 C 
BRANCH   3   5
ATOM      5  C   UNL     1      19.915  26.135  28.725  1.00  0.00     0.015 C 
BRANCH   5   6
ATOM      6  C   UNL     1      18.614  26.237  27.909  1.00  0.00     0.028 C 
BRANCH   6   7
ATOM      7  C   UNL     1      17.689  25.059  28.108  1.00  0.00    -0.028 C 
ATOM      8  C   UNL     1      17.698  23.895  27.407  1.00  0.00    -0.070 CG0
ATOM      9  C   UNL     1      16.757  22.809  27.868  1.00  0.00     0.039 C 
ATOM     10  G   UNL     1      18.529  23.642  26.151  1.00  0.00     0.000 G0
ENDBRANCH   6   7
ENDBRANCH   5   6
ENDBRANCH   3   5
ENDBRANCH   1   3
BRANCH   1  11
ATOM     11  C   UNL     1      21.842  24.421  27.423  1.00  0.00     0.087 C 
BRANCH  11  12
ATOM     12  C   UNL     1      21.140  23.973  26.107  1.00  0.00     0.066 C 
BRANCH  12  13
ATOM     13  C   UNL     1      19.923  23.098  26.406  1.00  0.00     0.140 C 
ATOM     14  O   UNL     1      20.067  21.944  26.787  1.00  0.00    -0.299 OA
BRANCH  13  15
ATOM     15  C   UNL     1      18.532  23.624  26.156  1.00  0.00     0.106 CG0
ATOM     16  G   UNL     1      17.703  23.878  27.414  1.00  0.00     0.000 G0
ENDBRANCH  13  15
ENDBRANCH  12  13
BRANCH  12  17
ATOM     17  C   UNL     1      22.094  23.323  25.043  1.00  0.00    -0.006 C 
ATOM     18  C   UNL     1      21.291  22.814  23.830  1.00  0.00     0.008 C 
ATOM     19  C   UNL     1      23.181  24.288  24.535  1.00  0.00     0.008 C 
ENDBRANCH  12  17
ENDBRANCH  11  12
ENDBRANCH   1  11
TORSDOF 1
ENDMDL
MODEL 7
REMARK VINA RESULT:    -3.450     13.339     14.500
REMARK INTER + INTRA:          -5.822
REMARK INTER:                  -5.419
REMARK INTRA:                  -0.403
REMARK UNBOUND:                -0.556
REMARK SMILES CC1=CCC[C@@H](C)C(=O)C[C@@H](C(C)C)C(=O)C1
REMARK SMILES IDX 8 1 9 2 6 3 7 4 5 5 4 6 3 7 2 8 1 9 10 11 11 12 15 13 16 14
REMARK SMILES IDX 17 15 12 17 13 18 14 19
REMARK H PARENT
REMARK Flexibility Score: 70.00
ROOT
ATOM      1  C   UNL     1      19.244  27.254  28.525  1.00  0.00     0.136 C 
ATOM      2  O   UNL     1      18.896  28.345  28.952  1.00  0.00    -0.299 OA
ENDROOT
BRANCH   1   3
ATOM      3  C   UNL     1      20.607  26.682  28.898  1.00  0.00     0.053 C 
ATOM      4  C   UNL     1      21.507  27.718  29.591  1.00  0.00     0.016 C 
BRANCH   3   5
ATOM      5  C   UNL     1      21.324  26.039  27.687  1.00  0.00     0.015 C 
BRANCH   5   6
ATOM      6  C   UNL     1      21.609  24.539  27.878  1.00  0.00     0.028 C 
BRANCH   6   7
ATOM      7  C   UNL     1      21.370  23.720  26.632  1.00  0.00    -0.028 C 
ATOM      8  C   UNL     1      20.227  23.064  26.301  1.00  0.00    -0.070 CG0
ATOM      9  C   UNL     1      20.178  22.412  24.941  1.00  0.00     0.039 C 
ATOM     10  G   UNL     1      19.032  22.875  27.233  1.00  0.00     0.000 G0
ENDBRANCH   6   7
ENDBRANCH   5   6
ENDBRANCH   3   5
ENDBRANCH   1   3
BRANCH   1  11
ATOM     11  C   UNL     1      18.291  26.460  27.661  1.00  0.00     0.087 C 
BRANCH  11  12
ATOM     12  C   UNL     1      17.912  25.060  28.229  1.00  0.00     0.066 C 
BRANCH  12  13
ATOM     13  C   UNL     1      17.983  23.991  27.139  1.00  0.00     0.140 C 
ATOM     14  O   UNL     1      17.169  23.982  26.225  1.00  0.00    -0.299 OA
BRANCH  13  15
ATOM     15  C   UNL     1      19.008  22.887  27.225  1.00  0.00     0.106 CG0
ATOM     16  G   UNL     1      20.220  23.060  26.311  1.00  0.00     0.000 G0
ENDBRANCH  13  15
ENDBRANCH  12  13
BRANCH  12  17
ATOM     17  C   UNL     1      16.558  25.017  29.019  1.00  0.00    -0.006 C 
ATOM     18  C   UNL     1      16.813  24.859  30.531  1.00  0.00     0.008 C 
ATOM     19  C   UNL     1      15.689  26.270  28.801  1.00  0.00     0.008 C 
ENDBRANCH  12  17
ENDBRANCH  11  12
ENDBRANCH   1  11
TORSDOF 1
ENDMDL
MODEL 8
REMARK VINA RESULT:    -3.380     11.107     12.952
REMARK INTER + INTRA:          -5.714
REMARK INTER:                  -5.115
REMARK INTRA:                  -0.599
REMARK UNBOUND:                -0.556
REMARK SMILES CC1=CCC[C@@H](C)C(=O)C[C@@H](C(C)C)C(=O)C1
REMARK SMILES IDX 8 1 9 2 6 3 7 4 5 5 4 6 3 7 2 8 1 9 10 11 11 12 15 13 16 14
REMARK SMILES IDX 17 15 12 17 13 18 14 19
REMARK H PARENT
REMARK Flexibility Score: 70.00
ROOT
ATOM      1  C   UNL     1      29.894  31.505  28.128  1.00  0.00     0.136 C 
ATOM      2  O   UNL     1      30.022  32.193  27.125  1.00  0.00    -0.299 OA
ENDROOT
BRANCH   1   3
ATOM      3  C   UNL     1      30.683  30.211  28.279  1.00  0.00     0.053 C 
ATOM      4  C   UNL     1      32.202  30.450  28.301  1.00  0.00     0.016 C 
BRANCH   3   5
ATOM      5  C   UNL     1      30.298  29.161  27.208  1.00  0.00     0.015 C 
BRANCH   5   6
ATOM      6  C   UNL     1      29.235  28.161  27.695  1.00  0.00     0.028 C 
BRANCH   6   7
ATOM      7  C   UNL     1      27.820  28.645  27.489  1.00  0.00    -0.028 C 
ATOM      8  C   UNL     1      26.974  29.107  28.446  1.00  0.00    -0.070 CG0
ATOM      9  C   UNL     1      25.645  29.654  27.984  1.00  0.00     0.039 C 
ATOM     10  G   UNL     1      27.240  29.039  29.949  1.00  0.00     0.000 G0
ENDBRANCH   6   7
ENDBRANCH   5   6
ENDBRANCH   3   5
ENDBRANCH   1   3
BRANCH   1  11
ATOM     11  C   UNL     1      28.979  31.978  29.234  1.00  0.00     0.087 C 
BRANCH  11  12
ATOM     12  C   UNL     1      28.906  31.028  30.467  1.00  0.00     0.066 C 
BRANCH  12  13
ATOM     13  C   UNL     1      27.519  30.400  30.592  1.00  0.00     0.140 C 
ATOM     14  O   UNL     1      26.650  30.942  31.262  1.00  0.00    -0.299 OA
BRANCH  13  15
ATOM     15  C   UNL     1      27.233  29.062  29.957  1.00  0.00     0.106 CG0
ATOM     16  G   UNL     1      26.985  29.103  28.450  1.00  0.00     0.000 G0
ENDBRANCH  13  15
ENDBRANCH  12  13
BRANCH  12  17
ATOM     17  C   UNL     1      29.396  31.665  31.815  1.00  0.00    -0.006 C 
ATOM     18  C   UNL     1      30.219  30.648  32.631  1.00  0.00     0.008 C 
ATOM     19  C   UNL     1      30.250  32.930  31.613  1.00  0.00     0.008 C 
ENDBRANCH  12  17
ENDBRANCH  11  12
ENDBRANCH   1  11
TORSDOF 1
ENDMDL
MODEL 9
REMARK VINA RESULT:    -3.334     14.840     16.212
REMARK INTER + INTRA:          -5.643
REMARK INTER:                  -5.887
REMARK INTRA:                   0.244
REMARK UNBOUND:                -0.556
REMARK SMILES CC1=CCC[C@@H](C)C(=O)C[C@@H](C(C)C)C(=O)C1
REMARK SMILES IDX 8 1 9 2 6 3 7 4 5 5 4 6 3 7 2 8 1 9 10 11 11 12 15 13 16 14
REMARK SMILES IDX 17 15 12 17 13 18 14 19
REMARK H PARENT
REMARK Flexibility Score: 70.00
ROOT
ATOM      1  C   UNL     1      18.901  25.232  27.779  1.00  0.00     0.136 C 
ATOM      2  O   UNL     1      19.974  25.799  27.931  1.00  0.00    -0.299 OA
ENDROOT
BRANCH   1   3
ATOM      3  C   UNL     1      18.843  23.861  27.119  1.00  0.00     0.053 C 
ATOM      4  C   UNL     1      20.206  23.424  26.555  1.00  0.00     0.016 C 
BRANCH   3   5
ATOM      5  C   UNL     1      17.738  23.775  26.039  1.00  0.00     0.015 C 
BRANCH   5   6
ATOM      6  C   UNL     1      16.648  22.740  26.368  1.00  0.00     0.028 C 
BRANCH   6   7
ATOM      7  C   UNL     1      16.877  22.026  27.678  1.00  0.00    -0.028 C 
ATOM      8  C   UNL     1      16.472  22.439  28.907  1.00  0.00    -0.070 CG0
ATOM      9  C   UNL     1      16.707  21.495  30.061  1.00  0.00     0.039 C 
ATOM     10  G   UNL     1      15.875  23.812  29.211  1.00  0.00     0.000 G0
ENDBRANCH   6   7
ENDBRANCH   5   6
ENDBRANCH   3   5
ENDBRANCH   1   3
BRANCH   1  11
ATOM     11  C   UNL     1      17.641  25.888  28.294  1.00  0.00     0.087 C 
BRANCH  11  12
ATOM     12  C   UNL     1      17.463  25.830  29.841  1.00  0.00     0.066 C 
BRANCH  12  13
ATOM     13  C   UNL     1      16.617  24.626  30.250  1.00  0.00     0.140 C 
ATOM     14  O   UNL     1      16.584  24.258  31.417  1.00  0.00    -0.299 OA
BRANCH  13  15
ATOM     15  C   UNL     1      15.879  23.827  29.204  1.00  0.00     0.106 CG0
ATOM     16  G   UNL     1      16.470  22.450  28.908  1.00  0.00     0.000 G0
ENDBRANCH  13  15
ENDBRANCH  12  13
BRANCH  12  17
ATOM     17  C   UNL     1      16.957  27.164  30.493  1.00  0.00    -0.006 C 
ATOM     18  C   UNL     1      18.110  28.177  30.633  1.00  0.00     0.008 C 
ATOM     19  C   UNL     1      15.818  27.832  29.700  1.00  0.00     0.008 C 
ENDBRANCH  12  17
ENDBRANCH  11  12
ENDBRANCH   1  11
TORSDOF 1
ENDMDL
