MODEL 1
REMARK VINA RESULT:     2.949      0.000      0.000
REMARK INTER + INTRA:           3.037
REMARK INTER:                   3.207
REMARK INTRA:                  -0.170
REMARK UNBOUND:                -0.170
REMARK SMILES Cc1ccc(C(C)C)c(O)c1
REMARK SMILES IDX 1 1 2 2 11 3 9 4 5 5 4 6 3 7 10 8 6 10 7 11 8 12
REMARK H PARENT 10 9
REMARK Flexibility Score: inf
ROOT
ATOM      1  C   UNL     1       0.393   6.852  -6.825  1.00  0.00     0.044 C 
ATOM      2  C   UNL     1       0.023   6.347  -8.188  1.00  0.00    -0.047 A 
ATOM      3  C   UNL     1       0.821   5.389  -8.826  1.00  0.00     0.049 A 
ATOM      4  C   UNL     1       0.515   4.944 -10.118  1.00  0.00     0.119 A 
ATOM      5  C   UNL     1      -0.643   5.432 -10.781  1.00  0.00    -0.004 A 
ATOM      6  C   UNL     1      -1.396   6.446 -10.151  1.00  0.00     0.008 A 
ATOM      7  C   UNL     1      -1.067   6.894  -8.870  1.00  0.00     0.004 A 
ENDROOT
BRANCH   4   8
ATOM      8  O   UNL     1       1.400   4.036 -10.707  1.00  0.00    -0.508 OA
ATOM      9  H   UNL     1       1.492   3.901 -11.704  1.00  0.00     0.293 HD
ENDBRANCH   4   8
BRANCH   5  10
ATOM     10  C   UNL     1      -1.033   4.940 -12.173  1.00  0.00     0.017 C 
ATOM     11  C   UNL     1      -2.544   5.022 -12.446  1.00  0.00     0.012 C 
ATOM     12  C   UNL     1      -0.248   5.704 -13.243  1.00  0.00     0.012 C 
ENDBRANCH   5  10
TORSDOF 2
ENDMDL
MODEL 2
REMARK VINA RESULT:     3.517      1.208      4.157
REMARK INTER + INTRA:           3.656
REMARK INTER:                   2.839
REMARK INTRA:                   0.816
REMARK UNBOUND:                -0.170
REMARK SMILES Cc1ccc(C(C)C)c(O)c1
REMARK SMILES IDX 1 1 2 2 11 3 9 4 5 5 4 6 3 7 10 8 6 10 7 11 8 12
REMARK H PARENT 10 9
REMARK Flexibility Score: inf
ROOT
ATOM      1  C   UNL     1      -1.111   5.254 -13.441  1.00  0.00     0.044 C 
ATOM      2  C   UNL     1      -0.910   5.591 -11.994  1.00  0.00    -0.047 A 
ATOM      3  C   UNL     1       0.378   5.612 -11.446  1.00  0.00     0.049 A 
ATOM      4  C   UNL     1       0.578   5.877 -10.086  1.00  0.00     0.119 A 
ATOM      5  C   UNL     1      -0.533   6.174  -9.251  1.00  0.00    -0.004 A 
ATOM      6  C   UNL     1      -1.828   6.080  -9.804  1.00  0.00     0.008 A 
ATOM      7  C   UNL     1      -2.012   5.796 -11.158  1.00  0.00     0.004 A 
ENDROOT
BRANCH   4   8
ATOM      8  O   UNL     1       1.890   5.815  -9.608  1.00  0.00    -0.508 OA
ATOM      9  H   UNL     1       2.287   6.474  -8.952  1.00  0.00     0.293 HD
ENDBRANCH   4   8
BRANCH   5  10
ATOM     10  C   UNL     1      -0.352   6.509  -7.772  1.00  0.00     0.017 C 
ATOM     11  C   UNL     1       1.087   6.301  -7.272  1.00  0.00     0.012 C 
ATOM     12  C   UNL     1      -0.820   7.940  -7.493  1.00  0.00     0.012 C 
ENDBRANCH   5  10
TORSDOF 2
ENDMDL
MODEL 3
REMARK VINA RESULT:     3.876      1.878      4.638
REMARK INTER + INTRA:           4.046
REMARK INTER:                   3.975
REMARK INTRA:                   0.072
REMARK UNBOUND:                -0.170
REMARK SMILES Cc1ccc(C(C)C)c(O)c1
REMARK SMILES IDX 1 1 2 2 11 3 9 4 5 5 4 6 3 7 10 8 6 10 7 11 8 12
REMARK H PARENT 10 9
REMARK Flexibility Score: inf
ROOT
ATOM      1  C   UNL     1      -1.060   5.211 -13.027  1.00  0.00     0.044 C 
ATOM      2  C   UNL     1      -0.809   5.550 -11.587  1.00  0.00    -0.047 A 
ATOM      3  C   UNL     1      -1.880   5.852 -10.737  1.00  0.00     0.049 A 
ATOM      4  C   UNL     1      -1.659   6.216  -9.403  1.00  0.00     0.119 A 
ATOM      5  C   UNL     1      -0.336   6.240  -8.884  1.00  0.00    -0.004 A 
ATOM      6  C   UNL     1       0.734   6.000  -9.773  1.00  0.00     0.008 A 
ATOM      7  C   UNL     1       0.498   5.656 -11.105  1.00  0.00     0.004 A 
ENDROOT
BRANCH   4   8
ATOM      8  O   UNL     1      -2.778   6.565  -8.642  1.00  0.00    -0.508 OA
ATOM      9  H   UNL     1      -3.633   6.028  -8.612  1.00  0.00     0.293 HD
ENDBRANCH   4   8
BRANCH   5  10
ATOM     10  C   UNL     1      -0.058   6.592  -7.425  1.00  0.00     0.017 C 
ATOM     11  C   UNL     1       1.421   6.430  -7.032  1.00  0.00     0.012 C 
ATOM     12  C   UNL     1      -0.545   8.011  -7.120  1.00  0.00     0.012 C 
ENDBRANCH   5  10
TORSDOF 2
ENDMDL
MODEL 4
REMARK VINA RESULT:     4.447      1.649      4.368
REMARK INTER + INTRA:           4.667
REMARK INTER:                   3.837
REMARK INTRA:                   0.830
REMARK UNBOUND:                -0.170
REMARK SMILES Cc1ccc(C(C)C)c(O)c1
REMARK SMILES IDX 1 1 2 2 11 3 9 4 5 5 4 6 3 7 10 8 6 10 7 11 8 12
REMARK H PARENT 10 9
REMARK Flexibility Score: inf
ROOT
ATOM      1  C   UNL     1      -3.155   5.393 -13.371  1.00  0.00     0.044 C 
ATOM      2  C   UNL     1      -2.096   5.529 -12.317  1.00  0.00    -0.047 A 
ATOM      3  C   UNL     1      -2.453   5.800 -10.990  1.00  0.00     0.049 A 
ATOM      4  C   UNL     1      -1.475   5.978 -10.004  1.00  0.00     0.119 A 
ATOM      5  C   UNL     1      -0.100   5.841 -10.336  1.00  0.00    -0.004 A 
ATOM      6  C   UNL     1       0.243   5.637 -11.690  1.00  0.00     0.008 A 
ATOM      7  C   UNL     1      -0.744   5.480 -12.666  1.00  0.00     0.004 A 
ENDROOT
BRANCH   4   8
ATOM      8  O   UNL     1      -1.914   6.309  -8.719  1.00  0.00    -0.508 OA
ATOM      9  H   UNL     1      -1.574   7.100  -8.190  1.00  0.00     0.293 HD
ENDBRANCH   4   8
BRANCH   5  10
ATOM     10  C   UNL     1       0.995   5.987  -9.282  1.00  0.00     0.017 C 
ATOM     11  C   UNL     1       0.451   6.328  -7.884  1.00  0.00     0.012 C 
ATOM     12  C   UNL     1       1.855   4.721  -9.233  1.00  0.00     0.012 C 
ENDBRANCH   5  10
TORSDOF 2
ENDMDL
MODEL 5
REMARK VINA RESULT:     4.453     10.567     12.150
REMARK INTER + INTRA:           4.673
REMARK INTER:                   4.454
REMARK INTRA:                   0.219
REMARK UNBOUND:                -0.170
REMARK SMILES Cc1ccc(C(C)C)c(O)c1
REMARK SMILES IDX 1 1 2 2 11 3 9 4 5 5 4 6 3 7 10 8 6 10 7 11 8 12
REMARK H PARENT 10 9
REMARK Flexibility Score: inf
ROOT
ATOM      1  C   UNL     1      13.514   7.968 -10.086  1.00  0.00     0.044 C 
ATOM      2  C   UNL     1      12.403   7.964  -9.078  1.00  0.00    -0.047 A 
ATOM      3  C   UNL     1      12.514   7.201  -7.909  1.00  0.00     0.049 A 
ATOM      4  C   UNL     1      11.466   7.149  -6.982  1.00  0.00     0.119 A 
ATOM      5  C   UNL     1      10.287   7.914  -7.200  1.00  0.00    -0.004 A 
ATOM      6  C   UNL     1      10.166   8.621  -8.415  1.00  0.00     0.008 A 
ATOM      7  C   UNL     1      11.212   8.648  -9.339  1.00  0.00     0.004 A 
ENDROOT
BRANCH   4   8
ATOM      8  O   UNL     1      11.632   6.313  -5.875  1.00  0.00    -0.508 OA
ATOM      9  H   UNL     1      11.928   5.348  -5.933  1.00  0.00     0.293 HD
ENDBRANCH   4   8
BRANCH   5  10
ATOM     10  C   UNL     1       9.140   7.916  -6.193  1.00  0.00     0.017 C 
ATOM     11  C   UNL     1       7.933   8.755  -6.647  1.00  0.00     0.012 C 
ATOM     12  C   UNL     1       8.711   6.481  -5.875  1.00  0.00     0.012 C 
ENDBRANCH   5  10
TORSDOF 2
ENDMDL
MODEL 6
REMARK VINA RESULT:     4.824      1.468      2.023
REMARK INTER + INTRA:           5.077
REMARK INTER:                   4.285
REMARK INTRA:                   0.792
REMARK UNBOUND:                -0.170
REMARK SMILES Cc1ccc(C(C)C)c(O)c1
REMARK SMILES IDX 1 1 2 2 11 3 9 4 5 5 4 6 3 7 10 8 6 10 7 11 8 12
REMARK H PARENT 10 9
REMARK Flexibility Score: inf
ROOT
ATOM      1  C   UNL     1       0.437   6.774  -6.978  1.00  0.00     0.044 C 
ATOM      2  C   UNL     1       0.152   6.353  -8.389  1.00  0.00    -0.047 A 
ATOM      3  C   UNL     1      -1.153   6.418  -8.895  1.00  0.00     0.049 A 
ATOM      4  C   UNL     1      -1.444   5.984 -10.194  1.00  0.00     0.119 A 
ATOM      5  C   UNL     1      -0.400   5.511 -11.034  1.00  0.00    -0.004 A 
ATOM      6  C   UNL     1       0.895   5.387 -10.485  1.00  0.00     0.008 A 
ATOM      7  C   UNL     1       1.166   5.807  -9.181  1.00  0.00     0.004 A 
ENDROOT
BRANCH   4   8
ATOM      8  O   UNL     1      -2.781   6.023 -10.596  1.00  0.00    -0.508 OA
ATOM      9  H   UNL     1      -3.192   6.779 -11.126  1.00  0.00     0.293 HD
ENDBRANCH   4   8
BRANCH   5  10
ATOM     10  C   UNL     1      -0.669   5.067 -12.470  1.00  0.00     0.017 C 
ATOM     11  C   UNL     1      -2.167   4.919 -12.790  1.00  0.00     0.012 C 
ATOM     12  C   UNL     1       0.001   6.028 -13.455  1.00  0.00     0.012 C 
ENDBRANCH   5  10
TORSDOF 2
ENDMDL
MODEL 7
REMARK VINA RESULT:     5.190      8.904     10.631
REMARK INTER + INTRA:           5.475
REMARK INTER:                   5.662
REMARK INTRA:                  -0.187
REMARK UNBOUND:                -0.170
REMARK SMILES Cc1ccc(C(C)C)c(O)c1
REMARK SMILES IDX 1 1 2 2 11 3 9 4 5 5 4 6 3 7 10 8 6 10 7 11 8 12
REMARK H PARENT 10 9
REMARK Flexibility Score: inf
ROOT
ATOM      1  C   UNL     1       5.653  10.067  -5.878  1.00  0.00     0.044 C 
ATOM      2  C   UNL     1       6.926   9.347  -6.207  1.00  0.00    -0.047 A 
ATOM      3  C   UNL     1       7.045   7.974  -5.957  1.00  0.00     0.049 A 
ATOM      4  C   UNL     1       8.244   7.297  -6.214  1.00  0.00     0.119 A 
ATOM      5  C   UNL     1       9.346   7.995  -6.777  1.00  0.00    -0.004 A 
ATOM      6  C   UNL     1       9.231   9.391  -6.958  1.00  0.00     0.008 A 
ATOM      7  C   UNL     1       8.035  10.055  -6.679  1.00  0.00     0.004 A 
ENDROOT
BRANCH   4   8
ATOM      8  O   UNL     1       8.298   5.943  -5.875  1.00  0.00    -0.508 OA
ATOM      9  H   UNL     1       8.181   5.588  -4.936  1.00  0.00     0.293 HD
ENDBRANCH   4   8
BRANCH   5  10
ATOM     10  C   UNL     1      10.655   7.284  -7.110  1.00  0.00     0.017 C 
ATOM     11  C   UNL     1      11.378   7.880  -8.331  1.00  0.00     0.012 C 
ATOM     12  C   UNL     1      11.577   7.274  -5.888  1.00  0.00     0.012 C 
ENDBRANCH   5  10
TORSDOF 2
ENDMDL
