MODEL 1
REMARK VINA RESULT:    -4.050      0.000      0.000
REMARK INTER + INTRA:          -8.777
REMARK INTER:                  -7.128
REMARK INTRA:                  -1.649
REMARK UNBOUND:                -1.649
REMARK SMILES CCCCCCCCCCCCCCC(=O)[O-]
REMARK SMILES IDX 9 1 10 2 11 3 12 4 13 5 14 6 15 7 16 8 17 9 8 10 7 11 6 12
REMARK SMILES IDX 5 13 4 14 3 15 2 16 1 17
REMARK H PARENT
REMARK Flexibility Score: inf
ROOT
ATOM      1  C   UNL     1       8.863  13.304  25.300  1.00  0.00     0.000 C 
ENDROOT
BRANCH   1   2
ATOM      2  C   UNL     1       8.618  12.492  24.018  1.00  0.00     0.000 C 
BRANCH   2   3
ATOM      3  C   UNL     1       9.906  11.853  23.468  1.00  0.00     0.000 C 
BRANCH   3   4
ATOM      4  C   UNL     1      10.710  12.818  22.582  1.00  0.00     0.000 C 
BRANCH   4   5
ATOM      5  C   UNL     1       9.810  13.685  21.686  1.00  0.00     0.006 C 
BRANCH   5   6
ATOM      6  C   UNL     1      10.207  13.597  20.206  1.00  0.00     0.053 C 
BRANCH   6   7
ATOM      7  C   UNL     1      10.118  14.931  19.528  1.00  0.00     0.041 C 
ATOM      8  O   UNL     1       9.135  15.687  19.745  1.00  0.00    -0.550 OA
ATOM      9  O   UNL     1      11.103  15.320  18.630  1.00  0.00    -0.550 OA
ENDBRANCH   6   7
ENDBRANCH   5   6
ENDBRANCH   4   5
ENDBRANCH   3   4
ENDBRANCH   2   3
ENDBRANCH   1   2
BRANCH   1  10
ATOM     10  C   UNL     1       8.324  14.739  25.201  1.00  0.00     0.000 C 
BRANCH  10  11
ATOM     11  C   UNL     1       9.010  15.654  26.228  1.00  0.00    -0.000 C 
BRANCH  11  12
ATOM     12  C   UNL     1       9.952  16.679  25.574  1.00  0.00    -0.000 C 
BRANCH  12  13
ATOM     13  C   UNL     1      10.961  16.026  24.614  1.00  0.00    -0.000 C 
BRANCH  13  14
ATOM     14  C   UNL     1      10.894  16.617  23.196  1.00  0.00    -0.000 C 
BRANCH  14  15
ATOM     15  C   UNL     1       9.557  17.315  22.906  1.00  0.00    -0.000 C 
BRANCH  15  16
ATOM     16  C   UNL     1       9.784  18.750  22.418  1.00  0.00    -0.003 C 
ATOM     17  C   UNL     1      10.964  19.398  23.135  1.00  0.00     0.004 C 
ENDBRANCH  15  16
ENDBRANCH  14  15
ENDBRANCH  13  14
ENDBRANCH  12  13
ENDBRANCH  11  12
ENDBRANCH  10  11
ENDBRANCH   1  10
TORSDOF 13
ENDMDL
MODEL 2
REMARK VINA RESULT:    -4.043      1.478      2.541
REMARK INTER + INTRA:          -8.764
REMARK INTER:                  -6.713
REMARK INTRA:                  -2.051
REMARK UNBOUND:                -1.649
REMARK SMILES CCCCCCCCCCCCCCC(=O)[O-]
REMARK SMILES IDX 9 1 10 2 11 3 12 4 13 5 14 6 15 7 16 8 17 9 8 10 7 11 6 12
REMARK SMILES IDX 5 13 4 14 3 15 2 16 1 17
REMARK H PARENT
REMARK Flexibility Score: inf
ROOT
ATOM      1  C   UNL     1      10.132  16.358  25.527  1.00  0.00     0.000 C 
ENDROOT
BRANCH   1   2
ATOM      2  C   UNL     1       8.897  15.721  24.871  1.00  0.00     0.000 C 
BRANCH   2   3
ATOM      3  C   UNL     1       9.252  14.881  23.632  1.00  0.00     0.000 C 
BRANCH   3   4
ATOM      4  C   UNL     1      10.760  14.604  23.520  1.00  0.00     0.000 C 
BRANCH   4   5
ATOM      5  C   UNL     1      11.231  14.489  22.060  1.00  0.00     0.006 C 
BRANCH   5   6
ATOM      6  C   UNL     1      10.127  13.960  21.134  1.00  0.00     0.053 C 
BRANCH   6   7
ATOM      7  C   UNL     1      10.015  14.776  19.882  1.00  0.00     0.041 C 
ATOM      8  O   UNL     1       9.064  15.588  19.738  1.00  0.00    -0.550 OA
ATOM      9  O   UNL     1      10.944  14.612  18.862  1.00  0.00    -0.550 OA
ENDBRANCH   6   7
ENDBRANCH   5   6
ENDBRANCH   4   5
ENDBRANCH   3   4
ENDBRANCH   2   3
ENDBRANCH   1   2
BRANCH   1  10
ATOM     10  C   UNL     1       9.807  17.677  26.245  1.00  0.00     0.000 C 
BRANCH  10  11
ATOM     11  C   UNL     1       8.439  18.219  25.801  1.00  0.00    -0.000 C 
BRANCH  11  12
ATOM     12  C   UNL     1       8.551  19.529  25.001  1.00  0.00    -0.000 C 
BRANCH  12  13
ATOM     13  C   UNL     1       9.991  20.065  24.944  1.00  0.00    -0.000 C 
BRANCH  13  14
ATOM     14  C   UNL     1      10.469  20.320  23.505  1.00  0.00    -0.000 C 
BRANCH  14  15
ATOM     15  C   UNL     1       9.605  19.603  22.457  1.00  0.00    -0.000 C 
BRANCH  15  16
ATOM     16  C   UNL     1      10.127  18.186  22.193  1.00  0.00    -0.003 C 
ATOM     17  C   UNL     1      11.625  18.090  22.465  1.00  0.00     0.004 C 
ENDBRANCH  15  16
ENDBRANCH  14  15
ENDBRANCH  13  14
ENDBRANCH  12  13
ENDBRANCH  11  12
ENDBRANCH  10  11
ENDBRANCH   1  10
TORSDOF 13
ENDMDL
MODEL 3
REMARK VINA RESULT:    -3.987      1.413      4.711
REMARK INTER + INTRA:          -8.666
REMARK INTER:                  -7.040
REMARK INTRA:                  -1.626
REMARK UNBOUND:                -1.649
REMARK SMILES CCCCCCCCCCCCCCC(=O)[O-]
REMARK SMILES IDX 9 1 10 2 11 3 12 4 13 5 14 6 15 7 16 8 17 9 8 10 7 11 6 12
REMARK SMILES IDX 5 13 4 14 3 15 2 16 1 17
REMARK H PARENT
REMARK Flexibility Score: inf
ROOT
ATOM      1  C   UNL     1      10.432  16.532  25.190  1.00  0.00     0.000 C 
ENDROOT
BRANCH   1   2
ATOM      2  C   UNL     1       9.929  17.253  23.930  1.00  0.00     0.000 C 
BRANCH   2   3
ATOM      3  C   UNL     1      10.542  16.685  22.638  1.00  0.00     0.000 C 
BRANCH   3   4
ATOM      4  C   UNL     1      11.216  15.320  22.855  1.00  0.00     0.000 C 
BRANCH   4   5
ATOM      5  C   UNL     1      10.773  14.272  21.820  1.00  0.00     0.006 C 
BRANCH   5   6
ATOM      6  C   UNL     1      10.044  14.908  20.628  1.00  0.00     0.053 C 
BRANCH   6   7
ATOM      7  C   UNL     1      10.755  14.638  19.336  1.00  0.00     0.041 C 
ATOM      8  O   UNL     1      10.876  13.458  18.915  1.00  0.00    -0.550 OA
ATOM      9  O   UNL     1      11.313  15.687  18.618  1.00  0.00    -0.550 OA
ENDBRANCH   6   7
ENDBRANCH   5   6
ENDBRANCH   4   5
ENDBRANCH   3   4
ENDBRANCH   2   3
ENDBRANCH   1   2
BRANCH   1  10
ATOM     10  C   UNL     1       9.306  15.815  25.950  1.00  0.00     0.000 C 
BRANCH  10  11
ATOM     11  C   UNL     1       8.075  15.619  25.051  1.00  0.00    -0.000 C 
BRANCH  11  12
ATOM     12  C   UNL     1       7.953  14.182  24.516  1.00  0.00    -0.000 C 
BRANCH  12  13
ATOM     13  C   UNL     1       8.633  13.151  25.433  1.00  0.00    -0.000 C 
BRANCH  13  14
ATOM     14  C   UNL     1       9.766  12.389  24.726  1.00  0.00    -0.000 C 
BRANCH  14  15
ATOM     15  C   UNL     1       9.276  11.116  24.020  1.00  0.00    -0.000 C 
BRANCH  15  16
ATOM     16  C   UNL     1       9.132   9.960  25.016  1.00  0.00    -0.003 C 
ATOM     17  C   UNL     1       9.431   8.619  24.351  1.00  0.00     0.004 C 
ENDBRANCH  15  16
ENDBRANCH  14  15
ENDBRANCH  13  14
ENDBRANCH  12  13
ENDBRANCH  11  12
ENDBRANCH  10  11
ENDBRANCH   1  10
TORSDOF 13
ENDMDL
MODEL 4
REMARK VINA RESULT:    -3.957      3.465      6.583
REMARK INTER + INTRA:          -8.612
REMARK INTER:                  -7.748
REMARK INTRA:                  -0.864
REMARK UNBOUND:                -1.649
REMARK SMILES CCCCCCCCCCCCCCC(=O)[O-]
REMARK SMILES IDX 9 1 10 2 11 3 12 4 13 5 14 6 15 7 16 8 17 9 8 10 7 11 6 12
REMARK SMILES IDX 5 13 4 14 3 15 2 16 1 17
REMARK H PARENT
REMARK Flexibility Score: inf
ROOT
ATOM      1  C   UNL     1      10.197  12.923  23.890  1.00  0.00     0.000 C 
ENDROOT
BRANCH   1   2
ATOM      2  C   UNL     1       9.899  14.360  24.345  1.00  0.00     0.000 C 
BRANCH   2   3
ATOM      3  C   UNL     1      10.818  15.396  23.674  1.00  0.00     0.000 C 
BRANCH   3   4
ATOM      4  C   UNL     1      10.061  16.316  22.703  1.00  0.00     0.000 C 
BRANCH   4   5
ATOM      5  C   UNL     1      10.446  16.068  21.235  1.00  0.00     0.006 C 
BRANCH   5   6
ATOM      6  C   UNL     1       9.485  15.093  20.541  1.00  0.00     0.053 C 
BRANCH   6   7
ATOM      7  C   UNL     1      10.218  13.946  19.912  1.00  0.00     0.041 C 
ATOM      8  O   UNL     1      10.155  12.797  20.423  1.00  0.00    -0.550 OA
ATOM      9  O   UNL     1      10.998  14.157  18.782  1.00  0.00    -0.550 OA
ENDBRANCH   6   7
ENDBRANCH   5   6
ENDBRANCH   4   5
ENDBRANCH   3   4
ENDBRANCH   2   3
ENDBRANCH   1   2
BRANCH   1  10
ATOM     10  C   UNL     1       8.921  12.104  23.643  1.00  0.00     0.000 C 
BRANCH  10  11
ATOM     11  C   UNL     1       8.281  11.671  24.971  1.00  0.00    -0.000 C 
BRANCH  11  12
ATOM     12  C   UNL     1       9.253  10.886  25.869  1.00  0.00    -0.000 C 
BRANCH  12  13
ATOM     13  C   UNL     1       8.596   9.654  26.515  1.00  0.00    -0.000 C 
BRANCH  13  14
ATOM     14  C   UNL     1       8.615   9.712  28.051  1.00  0.00    -0.000 C 
BRANCH  14  15
ATOM     15  C   UNL     1       8.498   8.324  28.698  1.00  0.00    -0.000 C 
BRANCH  15  16
ATOM     16  C   UNL     1       8.816   7.219  27.684  1.00  0.00    -0.003 C 
ATOM     17  C   UNL     1       8.188   5.892  28.098  1.00  0.00     0.004 C 
ENDBRANCH  15  16
ENDBRANCH  14  15
ENDBRANCH  13  14
ENDBRANCH  12  13
ENDBRANCH  11  12
ENDBRANCH  10  11
ENDBRANCH   1  10
TORSDOF 13
ENDMDL
MODEL 5
REMARK VINA RESULT:    -3.899      1.133      2.025
REMARK INTER + INTRA:          -8.511
REMARK INTER:                  -6.738
REMARK INTRA:                  -1.773
REMARK UNBOUND:                -1.649
REMARK SMILES CCCCCCCCCCCCCCC(=O)[O-]
REMARK SMILES IDX 9 1 10 2 11 3 12 4 13 5 14 6 15 7 16 8 17 9 8 10 7 11 6 12
REMARK SMILES IDX 5 13 4 14 3 15 2 16 1 17
REMARK H PARENT
REMARK Flexibility Score: inf
ROOT
ATOM      1  C   UNL     1       9.578  14.937  24.880  1.00  0.00     0.000 C 
ENDROOT
BRANCH   1   2
ATOM      2  C   UNL     1       9.234  13.458  25.115  1.00  0.00     0.000 C 
BRANCH   2   3
ATOM      3  C   UNL     1       9.606  12.566  23.917  1.00  0.00     0.000 C 
BRANCH   3   4
ATOM      4  C   UNL     1      10.650  13.219  22.998  1.00  0.00     0.000 C 
BRANCH   4   5
ATOM      5  C   UNL     1      10.098  13.508  21.591  1.00  0.00     0.006 C 
BRANCH   5   6
ATOM      6  C   UNL     1      11.110  14.260  20.715  1.00  0.00     0.053 C 
BRANCH   6   7
ATOM      7  C   UNL     1      10.429  15.066  19.651  1.00  0.00     0.041 C 
ATOM      8  O   UNL     1       9.215  15.376  19.769  1.00  0.00    -0.550 OA
ATOM      9  O   UNL     1      11.129  15.445  18.513  1.00  0.00    -0.550 OA
ENDBRANCH   6   7
ENDBRANCH   5   6
ENDBRANCH   4   5
ENDBRANCH   3   4
ENDBRANCH   2   3
ENDBRANCH   1   2
BRANCH   1  10
ATOM     10  C   UNL     1       8.372  15.755  24.393  1.00  0.00     0.000 C 
BRANCH  10  11
ATOM     11  C   UNL     1       8.802  16.800  23.352  1.00  0.00    -0.000 C 
BRANCH  11  12
ATOM     12  C   UNL     1      10.330  16.880  23.188  1.00  0.00    -0.000 C 
BRANCH  12  13
ATOM     13  C   UNL     1      10.757  17.915  22.134  1.00  0.00    -0.000 C 
BRANCH  13  14
ATOM     14  C   UNL     1      10.055  19.270  22.319  1.00  0.00    -0.000 C 
BRANCH  14  15
ATOM     15  C   UNL     1      10.908  20.279  23.101  1.00  0.00    -0.000 C 
BRANCH  15  16
ATOM     16  C   UNL     1      10.084  20.955  24.203  1.00  0.00    -0.003 C 
ATOM     17  C   UNL     1       9.726  19.966  25.310  1.00  0.00     0.004 C 
ENDBRANCH  15  16
ENDBRANCH  14  15
ENDBRANCH  13  14
ENDBRANCH  12  13
ENDBRANCH  11  12
ENDBRANCH  10  11
ENDBRANCH   1  10
TORSDOF 13
ENDMDL
MODEL 6
REMARK VINA RESULT:    -3.663     16.791     18.731
REMARK INTER + INTRA:          -8.095
REMARK INTER:                  -6.318
REMARK INTRA:                  -1.778
REMARK UNBOUND:                -1.649
REMARK SMILES CCCCCCCCCCCCCCC(=O)[O-]
REMARK SMILES IDX 9 1 10 2 11 3 12 4 13 5 14 6 15 7 16 8 17 9 8 10 7 11 6 12
REMARK SMILES IDX 5 13 4 14 3 15 2 16 1 17
REMARK H PARENT
REMARK Flexibility Score: inf
ROOT
ATOM      1  C   UNL     1      24.300   3.142  28.199  1.00  0.00     0.000 C 
ENDROOT
BRANCH   1   2
ATOM      2  C   UNL     1      25.489   3.607  29.054  1.00  0.00     0.000 C 
BRANCH   2   3
ATOM      3  C   UNL     1      25.530   5.135  29.229  1.00  0.00     0.000 C 
BRANCH   3   4
ATOM      4  C   UNL     1      24.171   5.717  29.651  1.00  0.00     0.000 C 
BRANCH   4   5
ATOM      5  C   UNL     1      23.625   6.734  28.634  1.00  0.00     0.006 C 
BRANCH   5   6
ATOM      6  C   UNL     1      24.448   6.759  27.340  1.00  0.00     0.053 C 
BRANCH   6   7
ATOM      7  C   UNL     1      23.601   6.463  26.139  1.00  0.00     0.041 C 
ATOM      8  O   UNL     1      24.130   6.353  25.002  1.00  0.00    -0.550 OA
ATOM      9  O   UNL     1      22.224   6.342  26.273  1.00  0.00    -0.550 OA
ENDBRANCH   6   7
ENDBRANCH   5   6
ENDBRANCH   4   5
ENDBRANCH   3   4
ENDBRANCH   2   3
ENDBRANCH   1   2
BRANCH   1  10
ATOM     10  C   UNL     1      23.566   1.939  28.811  1.00  0.00     0.000 C 
BRANCH  10  11
ATOM     11  C   UNL     1      22.402   2.403  29.702  1.00  0.00    -0.000 C 
BRANCH  11  12
ATOM     12  C   UNL     1      22.540   1.922  31.157  1.00  0.00    -0.000 C 
BRANCH  12  13
ATOM     13  C   UNL     1      23.362   2.891  32.023  1.00  0.00    -0.000 C 
BRANCH  13  14
ATOM     14  C   UNL     1      22.522   4.062  32.559  1.00  0.00    -0.000 C 
BRANCH  14  15
ATOM     15  C   UNL     1      21.115   3.631  32.999  1.00  0.00    -0.000 C 
BRANCH  15  16
ATOM     16  C   UNL     1      20.078   4.701  32.642  1.00  0.00    -0.003 C 
ATOM     17  C   UNL     1      19.751   4.678  31.152  1.00  0.00     0.004 C 
ENDBRANCH  15  16
ENDBRANCH  14  15
ENDBRANCH  13  14
ENDBRANCH  12  13
ENDBRANCH  11  12
ENDBRANCH  10  11
ENDBRANCH   1  10
TORSDOF 13
ENDMDL
MODEL 7
REMARK VINA RESULT:    -3.647      2.392      4.534
REMARK INTER + INTRA:          -8.067
REMARK INTER:                  -5.931
REMARK INTRA:                  -2.136
REMARK UNBOUND:                -1.649
REMARK SMILES CCCCCCCCCCCCCCC(=O)[O-]
REMARK SMILES IDX 9 1 10 2 11 3 12 4 13 5 14 6 15 7 16 8 17 9 8 10 7 11 6 12
REMARK SMILES IDX 5 13 4 14 3 15 2 16 1 17
REMARK H PARENT
REMARK Flexibility Score: inf
ROOT
ATOM      1  C   UNL     1      11.454  18.187  22.562  1.00  0.00     0.000 C 
ENDROOT
BRANCH   1   2
ATOM      2  C   UNL     1      10.431  17.421  21.709  1.00  0.00     0.000 C 
BRANCH   2   3
ATOM      3  C   UNL     1      10.901  15.999  21.356  1.00  0.00     0.000 C 
BRANCH   3   4
ATOM      4  C   UNL     1       9.733  15.012  21.206  1.00  0.00     0.000 C 
BRANCH   4   5
ATOM      5  C   UNL     1      10.175  13.547  21.368  1.00  0.00     0.006 C 
BRANCH   5   6
ATOM      6  C   UNL     1      10.706  13.254  22.777  1.00  0.00     0.053 C 
BRANCH   6   7
ATOM      7  C   UNL     1       9.791  12.340  23.535  1.00  0.00     0.041 C 
ATOM      8  O   UNL     1       8.789  11.832  22.966  1.00  0.00    -0.550 OA
ATOM      9  O   UNL     1      10.029  12.077  24.878  1.00  0.00    -0.550 OA
ENDBRANCH   6   7
ENDBRANCH   5   6
ENDBRANCH   4   5
ENDBRANCH   3   4
ENDBRANCH   2   3
ENDBRANCH   1   2
BRANCH   1  10
ATOM     10  C   UNL     1      10.937  19.561  23.014  1.00  0.00     0.000 C 
BRANCH  10  11
ATOM     11  C   UNL     1       9.430  19.695  22.746  1.00  0.00    -0.000 C 
BRANCH  11  12
ATOM     12  C   UNL     1       8.589  19.607  24.031  1.00  0.00    -0.000 C 
BRANCH  12  13
ATOM     13  C   UNL     1       9.454  19.511  25.299  1.00  0.00    -0.000 C 
BRANCH  13  14
ATOM     14  C   UNL     1       9.344  18.141  25.987  1.00  0.00    -0.000 C 
BRANCH  14  15
ATOM     15  C   UNL     1       8.371  17.193  25.269  1.00  0.00    -0.000 C 
BRANCH  15  16
ATOM     16  C   UNL     1       9.080  15.904  24.838  1.00  0.00    -0.003 C 
ATOM     17  C   UNL     1      10.543  15.907  25.273  1.00  0.00     0.004 C 
ENDBRANCH  15  16
ENDBRANCH  14  15
ENDBRANCH  13  14
ENDBRANCH  12  13
ENDBRANCH  11  12
ENDBRANCH  10  11
ENDBRANCH   1  10
TORSDOF 13
ENDMDL
MODEL 8
REMARK VINA RESULT:    -3.639     16.877     18.621
REMARK INTER + INTRA:          -8.053
REMARK INTER:                  -6.006
REMARK INTRA:                  -2.047
REMARK UNBOUND:                -1.649
REMARK SMILES CCCCCCCCCCCCCCC(=O)[O-]
REMARK SMILES IDX 9 1 10 2 11 3 12 4 13 5 14 6 15 7 16 8 17 9 8 10 7 11 6 12
REMARK SMILES IDX 5 13 4 14 3 15 2 16 1 17
REMARK H PARENT
REMARK Flexibility Score: inf
ROOT
ATOM      1  C   UNL     1      22.644   2.361  29.762  1.00  0.00     0.000 C 
ENDROOT
BRANCH   1   2
ATOM      2  C   UNL     1      23.722   1.873  28.781  1.00  0.00     0.000 C 
BRANCH   2   3
ATOM      3  C   UNL     1      24.202   2.983  27.830  1.00  0.00     0.000 C 
BRANCH   3   4
ATOM      4  C   UNL     1      25.095   4.018  28.533  1.00  0.00     0.000 C 
BRANCH   4   5
ATOM      5  C   UNL     1      24.518   5.442  28.458  1.00  0.00     0.006 C 
BRANCH   5   6
ATOM      6  C   UNL     1      23.339   5.539  27.480  1.00  0.00     0.053 C 
BRANCH   6   7
ATOM      7  C   UNL     1      23.560   6.606  26.451  1.00  0.00     0.041 C 
ATOM      8  O   UNL     1      23.339   7.813  26.731  1.00  0.00    -0.550 OA
ATOM      9  O   UNL     1      23.978   6.261  25.172  1.00  0.00    -0.550 OA
ENDBRANCH   6   7
ENDBRANCH   5   6
ENDBRANCH   4   5
ENDBRANCH   3   4
ENDBRANCH   2   3
ENDBRANCH   1   2
BRANCH   1  10
ATOM     10  C   UNL     1      22.483   1.431  30.974  1.00  0.00     0.000 C 
BRANCH  10  11
ATOM     11  C   UNL     1      22.724   2.192  32.286  1.00  0.00    -0.000 C 
BRANCH  11  12
ATOM     12  C   UNL     1      23.969   3.095  32.228  1.00  0.00    -0.000 C 
BRANCH  12  13
ATOM     13  C   UNL     1      23.746   4.453  32.915  1.00  0.00    -0.000 C 
BRANCH  13  14
ATOM     14  C   UNL     1      23.316   5.551  31.929  1.00  0.00    -0.000 C 
BRANCH  14  15
ATOM     15  C   UNL     1      21.825   5.901  32.045  1.00  0.00    -0.000 C 
BRANCH  15  16
ATOM     16  C   UNL     1      21.064   5.481  30.782  1.00  0.00    -0.003 C 
ATOM     17  C   UNL     1      19.812   4.682  31.130  1.00  0.00     0.004 C 
ENDBRANCH  15  16
ENDBRANCH  14  15
ENDBRANCH  13  14
ENDBRANCH  12  13
ENDBRANCH  11  12
ENDBRANCH  10  11
ENDBRANCH   1  10
TORSDOF 13
ENDMDL
MODEL 9
REMARK VINA RESULT:    -3.626      2.565      5.148
REMARK INTER + INTRA:          -8.031
REMARK INTER:                  -6.672
REMARK INTRA:                  -1.359
REMARK UNBOUND:                -1.649
REMARK SMILES CCCCCCCCCCCCCCC(=O)[O-]
REMARK SMILES IDX 9 1 10 2 11 3 12 4 13 5 14 6 15 7 16 8 17 9 8 10 7 11 6 12
REMARK SMILES IDX 5 13 4 14 3 15 2 16 1 17
REMARK H PARENT
REMARK Flexibility Score: inf
ROOT
ATOM      1  C   UNL     1       9.935  15.857  25.409  1.00  0.00     0.000 C 
ENDROOT
BRANCH   1   2
ATOM      2  C   UNL     1      10.632  16.514  24.208  1.00  0.00     0.000 C 
BRANCH   2   3
ATOM      3  C   UNL     1       9.646  16.902  23.091  1.00  0.00     0.000 C 
BRANCH   3   4
ATOM      4  C   UNL     1      10.247  17.908  22.097  1.00  0.00     0.000 C 
BRANCH   4   5
ATOM      5  C   UNL     1       9.465  19.232  22.053  1.00  0.00     0.006 C 
BRANCH   5   6
ATOM      6  C   UNL     1       9.179  19.783  23.456  1.00  0.00     0.053 C 
BRANCH   6   7
ATOM      7  C   UNL     1      10.394  20.424  24.058  1.00  0.00     0.041 C 
ATOM      8  O   UNL     1      10.473  20.588  25.303  1.00  0.00    -0.550 OA
ATOM      9  O   UNL     1      11.421  20.871  23.237  1.00  0.00    -0.550 OA
ENDBRANCH   6   7
ENDBRANCH   5   6
ENDBRANCH   4   5
ENDBRANCH   3   4
ENDBRANCH   2   3
ENDBRANCH   1   2
BRANCH   1  10
ATOM     10  C   UNL     1       8.621  15.162  25.023  1.00  0.00     0.000 C 
BRANCH  10  11
ATOM     11  C   UNL     1       8.636  13.686  25.448  1.00  0.00    -0.000 C 
BRANCH  11  12
ATOM     12  C   UNL     1       8.737  12.725  24.250  1.00  0.00    -0.000 C 
BRANCH  12  13
ATOM     13  C   UNL     1      10.155  12.664  23.660  1.00  0.00    -0.000 C 
BRANCH  13  14
ATOM     14  C   UNL     1      10.153  12.615  22.123  1.00  0.00    -0.000 C 
BRANCH  14  15
ATOM     15  C   UNL     1      10.204  14.011  21.485  1.00  0.00    -0.000 C 
BRANCH  15  16
ATOM     16  C   UNL     1      10.267  13.912  19.956  1.00  0.00    -0.003 C 
ATOM     17  C   UNL     1      10.967  15.126  19.353  1.00  0.00     0.004 C 
ENDBRANCH  15  16
ENDBRANCH  14  15
ENDBRANCH  13  14
ENDBRANCH  12  13
ENDBRANCH  11  12
ENDBRANCH  10  11
ENDBRANCH   1  10
TORSDOF 13
ENDMDL
