MODEL 1
REMARK VINA RESULT:    -3.129      0.000      0.000
REMARK INTER + INTRA:          -8.002
REMARK INTER:                  -5.690
REMARK INTRA:                  -2.312
REMARK UNBOUND:                -2.312
REMARK SMILES CCCCCCCCCCCCCCCC(=O)[O-]
REMARK SMILES IDX 9 1 10 2 11 3 12 4 13 5 14 6 15 7 16 8 17 9 18 10 8 11 7 12
REMARK SMILES IDX 6 13 5 14 4 15 3 16 2 17 1 18
REMARK H PARENT
REMARK Flexibility Score: inf
ROOT
ATOM      1  C   UNL     1      24.132  41.878   4.255  1.00  0.00     0.000 C 
ENDROOT
BRANCH   1   2
ATOM      2  C   UNL     1      24.236  40.365   4.539  1.00  0.00     0.000 C 
BRANCH   2   3
ATOM      3  C   UNL     1      24.250  39.465   3.291  1.00  0.00     0.000 C 
BRANCH   3   4
ATOM      4  C   UNL     1      24.311  40.262   1.980  1.00  0.00     0.000 C 
BRANCH   4   5
ATOM      5  C   UNL     1      24.214  39.327   0.766  1.00  0.00     0.000 C 
BRANCH   5   6
ATOM      6  C   UNL     1      25.261  39.648  -0.313  1.00  0.00     0.006 C 
BRANCH   6   7
ATOM      7  C   UNL     1      26.694  39.638   0.232  1.00  0.00     0.053 C 
BRANCH   7   8
ATOM      8  C   UNL     1      27.533  38.654  -0.521  1.00  0.00     0.041 C 
ATOM      9  O   UNL     1      28.608  38.225  -0.024  1.00  0.00    -0.550 OA
ATOM     10  O   UNL     1      27.154  38.249  -1.794  1.00  0.00    -0.550 OA
ENDBRANCH   7   8
ENDBRANCH   6   7
ENDBRANCH   5   6
ENDBRANCH   4   5
ENDBRANCH   3   4
ENDBRANCH   2   3
ENDBRANCH   1   2
BRANCH   1  11
ATOM     11  C   UNL     1      24.440  42.793   5.454  1.00  0.00     0.000 C 
BRANCH  11  12
ATOM     12  C   UNL     1      25.711  43.632   5.253  1.00  0.00    -0.000 C 
BRANCH  12  13
ATOM     13  C   UNL     1      26.323  43.378   3.868  1.00  0.00    -0.000 C 
BRANCH  13  14
ATOM     14  C   UNL     1      27.703  42.699   3.935  1.00  0.00    -0.000 C 
BRANCH  14  15
ATOM     15  C   UNL     1      27.745  41.244   3.433  1.00  0.00    -0.000 C 
BRANCH  15  16
ATOM     16  C   UNL     1      27.858  40.219   4.574  1.00  0.00    -0.000 C 
BRANCH  16  17
ATOM     17  C   UNL     1      28.118  40.881   5.936  1.00  0.00    -0.003 C 
ATOM     18  C   UNL     1      27.052  40.536   6.977  1.00  0.00     0.004 C 
ENDBRANCH  16  17
ENDBRANCH  15  16
ENDBRANCH  14  15
ENDBRANCH  13  14
ENDBRANCH  12  13
ENDBRANCH  11  12
ENDBRANCH   1  11
TORSDOF 14
ENDMDL
MODEL 2
REMARK VINA RESULT:    -3.078      3.378      6.089
REMARK INTER + INTRA:          -7.909
REMARK INTER:                  -5.987
REMARK INTRA:                  -1.922
REMARK UNBOUND:                -2.312
REMARK SMILES CCCCCCCCCCCCCCCC(=O)[O-]
REMARK SMILES IDX 9 1 10 2 11 3 12 4 13 5 14 6 15 7 16 8 17 9 18 10 8 11 7 12
REMARK SMILES IDX 6 13 5 14 4 15 3 16 2 17 1 18
REMARK H PARENT
REMARK Flexibility Score: inf
ROOT
ATOM      1  C   UNL     1      25.307  39.997  -0.192  1.00  0.00     0.000 C 
ENDROOT
BRANCH   1   2
ATOM      2  C   UNL     1      24.558  38.897   0.588  1.00  0.00     0.000 C 
BRANCH   2   3
ATOM      3  C   UNL     1      24.224  39.244   2.049  1.00  0.00     0.000 C 
BRANCH   3   4
ATOM      4  C   UNL     1      24.207  40.756   2.316  1.00  0.00     0.000 C 
BRANCH   4   5
ATOM      5  C   UNL     1      24.330  41.049   3.818  1.00  0.00     0.000 C 
BRANCH   5   6
ATOM      6  C   UNL     1      25.060  42.370   4.106  1.00  0.00     0.006 C 
BRANCH   6   7
ATOM      7  C   UNL     1      25.686  42.407   5.506  1.00  0.00     0.053 C 
BRANCH   7   8
ATOM      8  C   UNL     1      25.813  43.820   5.983  1.00  0.00     0.041 C 
ATOM      9  O   UNL     1      24.916  44.328   6.707  1.00  0.00    -0.550 OA
ATOM     10  O   UNL     1      26.897  44.592   5.587  1.00  0.00    -0.550 OA
ENDBRANCH   7   8
ENDBRANCH   6   7
ENDBRANCH   5   6
ENDBRANCH   4   5
ENDBRANCH   3   4
ENDBRANCH   2   3
ENDBRANCH   1   2
BRANCH   1  11
ATOM     11  C   UNL     1      25.766  39.601  -1.607  1.00  0.00     0.000 C 
BRANCH  11  12
ATOM     12  C   UNL     1      27.293  39.496  -1.732  1.00  0.00    -0.000 C 
BRANCH  12  13
ATOM     13  C   UNL     1      27.750  38.031  -1.668  1.00  0.00    -0.000 C 
BRANCH  13  14
ATOM     14  C   UNL     1      28.344  37.644  -0.301  1.00  0.00    -0.000 C 
BRANCH  14  15
ATOM     15  C   UNL     1      28.716  38.828   0.611  1.00  0.00    -0.000 C 
BRANCH  15  16
ATOM     16  C   UNL     1      28.044  38.753   1.993  1.00  0.00    -0.000 C 
BRANCH  16  17
ATOM     17  C   UNL     1      27.793  40.142   2.602  1.00  0.00    -0.003 C 
ATOM     18  C   UNL     1      28.769  40.480   3.729  1.00  0.00     0.004 C 
ENDBRANCH  16  17
ENDBRANCH  15  16
ENDBRANCH  14  15
ENDBRANCH  13  14
ENDBRANCH  12  13
ENDBRANCH  11  12
ENDBRANCH   1  11
TORSDOF 14
ENDMDL
MODEL 3
REMARK VINA RESULT:    -3.063      3.657      5.933
REMARK INTER + INTRA:          -7.882
REMARK INTER:                  -5.709
REMARK INTRA:                  -2.173
REMARK UNBOUND:                -2.312
REMARK SMILES CCCCCCCCCCCCCCCC(=O)[O-]
REMARK SMILES IDX 9 1 10 2 11 3 12 4 13 5 14 6 15 7 16 8 17 9 18 10 8 11 7 12
REMARK SMILES IDX 6 13 5 14 4 15 3 16 2 17 1 18
REMARK H PARENT
REMARK Flexibility Score: inf
ROOT
ATOM      1  C   UNL     1      23.923  39.355   1.744  1.00  0.00     0.000 C 
ENDROOT
BRANCH   1   2
ATOM      2  C   UNL     1      24.246  40.738   2.347  1.00  0.00     0.000 C 
BRANCH   2   3
ATOM      3  C   UNL     1      24.111  40.832   3.877  1.00  0.00     0.000 C 
BRANCH   3   4
ATOM      4  C   UNL     1      25.157  41.760   4.513  1.00  0.00     0.000 C 
BRANCH   4   5
ATOM      5  C   UNL     1      26.126  42.302   3.452  1.00  0.00     0.000 C 
BRANCH   5   6
ATOM      6  C   UNL     1      26.855  43.574   3.912  1.00  0.00     0.006 C 
BRANCH   6   7
ATOM      7  C   UNL     1      27.072  43.615   5.430  1.00  0.00     0.053 C 
BRANCH   7   8
ATOM      8  C   UNL     1      26.304  44.748   6.037  1.00  0.00     0.041 C 
ATOM      9  O   UNL     1      25.907  45.701   5.316  1.00  0.00    -0.550 OA
ATOM     10  O   UNL     1      26.073  44.776   7.406  1.00  0.00    -0.550 OA
ENDBRANCH   7   8
ENDBRANCH   6   7
ENDBRANCH   5   6
ENDBRANCH   4   5
ENDBRANCH   3   4
ENDBRANCH   2   3
ENDBRANCH   1   2
BRANCH   1  11
ATOM     11  C   UNL     1      24.174  39.224   0.232  1.00  0.00     0.000 C 
BRANCH  11  12
ATOM     12  C   UNL     1      25.431  39.976  -0.232  1.00  0.00    -0.000 C 
BRANCH  12  13
ATOM     13  C   UNL     1      26.501  38.997  -0.735  1.00  0.00    -0.000 C 
BRANCH  13  14
ATOM     14  C   UNL     1      27.326  38.370   0.403  1.00  0.00    -0.000 C 
BRANCH  14  15
ATOM     15  C   UNL     1      27.948  39.372   1.393  1.00  0.00    -0.000 C 
BRANCH  15  16
ATOM     16  C   UNL     1      27.577  39.077   2.857  1.00  0.00    -0.000 C 
BRANCH  16  17
ATOM     17  C   UNL     1      26.904  37.706   3.028  1.00  0.00    -0.003 C 
ATOM     18  C   UNL     1      26.058  37.615   4.299  1.00  0.00     0.004 C 
ENDBRANCH  16  17
ENDBRANCH  15  16
ENDBRANCH  14  15
ENDBRANCH  13  14
ENDBRANCH  12  13
ENDBRANCH  11  12
ENDBRANCH   1  11
TORSDOF 14
ENDMDL
MODEL 4
REMARK VINA RESULT:    -3.050      1.854      5.139
REMARK INTER + INTRA:          -7.858
REMARK INTER:                  -6.212
REMARK INTRA:                  -1.646
REMARK UNBOUND:                -2.312
REMARK SMILES CCCCCCCCCCCCCCCC(=O)[O-]
REMARK SMILES IDX 9 1 10 2 11 3 12 4 13 5 14 6 15 7 16 8 17 9 18 10 8 11 7 12
REMARK SMILES IDX 6 13 5 14 4 15 3 16 2 17 1 18
REMARK H PARENT
REMARK Flexibility Score: inf
ROOT
ATOM      1  C   UNL     1      23.947  41.883   4.489  1.00  0.00     0.000 C 
ENDROOT
BRANCH   1   2
ATOM      2  C   UNL     1      24.501  42.787   5.611  1.00  0.00     0.000 C 
BRANCH   2   3
ATOM      3  C   UNL     1      25.599  43.772   5.173  1.00  0.00     0.000 C 
BRANCH   3   4
ATOM      4  C   UNL     1      26.287  43.358   3.864  1.00  0.00     0.000 C 
BRANCH   4   5
ATOM      5  C   UNL     1      27.731  42.905   4.123  1.00  0.00     0.000 C 
BRANCH   5   6
ATOM      6  C   UNL     1      27.833  41.404   4.435  1.00  0.00     0.006 C 
BRANCH   6   7
ATOM      7  C   UNL     1      28.317  40.582   3.233  1.00  0.00     0.053 C 
BRANCH   7   8
ATOM      8  C   UNL     1      29.785  40.313   3.343  1.00  0.00     0.041 C 
ATOM      9  O   UNL     1      30.539  41.137   3.927  1.00  0.00    -0.550 OA
ATOM     10  O   UNL     1      30.330  39.178   2.755  1.00  0.00    -0.550 OA
ENDBRANCH   7   8
ENDBRANCH   6   7
ENDBRANCH   5   6
ENDBRANCH   4   5
ENDBRANCH   3   4
ENDBRANCH   2   3
ENDBRANCH   1   2
BRANCH   1  11
ATOM     11  C   UNL     1      24.053  40.371   4.754  1.00  0.00     0.000 C 
BRANCH  11  12
ATOM     12  C   UNL     1      24.639  39.596   3.564  1.00  0.00    -0.000 C 
BRANCH  12  13
ATOM     13  C   UNL     1      24.511  40.406   2.266  1.00  0.00    -0.000 C 
BRANCH  13  14
ATOM     14  C   UNL     1      25.479  39.936   1.165  1.00  0.00    -0.000 C 
BRANCH  14  15
ATOM     15  C   UNL     1      24.825  39.624  -0.194  1.00  0.00    -0.000 C 
BRANCH  15  16
ATOM     16  C   UNL     1      25.795  39.791  -1.377  1.00  0.00    -0.000 C 
BRANCH  16  17
ATOM     17  C   UNL     1      26.878  38.702  -1.409  1.00  0.00    -0.003 C 
ATOM     18  C   UNL     1      28.278  39.265  -1.657  1.00  0.00     0.004 C 
ENDBRANCH  16  17
ENDBRANCH  15  16
ENDBRANCH  14  15
ENDBRANCH  13  14
ENDBRANCH  12  13
ENDBRANCH  11  12
ENDBRANCH   1  11
TORSDOF 14
ENDMDL
MODEL 5
REMARK VINA RESULT:    -3.045      3.784      6.942
REMARK INTER + INTRA:          -7.849
REMARK INTER:                  -6.397
REMARK INTRA:                  -1.452
REMARK UNBOUND:                -2.312
REMARK SMILES CCCCCCCCCCCCCCCC(=O)[O-]
REMARK SMILES IDX 9 1 10 2 11 3 12 4 13 5 14 6 15 7 16 8 17 9 18 10 8 11 7 12
REMARK SMILES IDX 6 13 5 14 4 15 3 16 2 17 1 18
REMARK H PARENT
REMARK Flexibility Score: inf
ROOT
ATOM      1  C   UNL     1      26.470  41.010   3.563  1.00  0.00     0.000 C 
ENDROOT
BRANCH   1   2
ATOM      2  C   UNL     1      27.343  42.267   3.756  1.00  0.00     0.000 C 
BRANCH   2   3
ATOM      3  C   UNL     1      26.566  43.591   3.864  1.00  0.00     0.000 C 
BRANCH   3   4
ATOM      4  C   UNL     1      26.784  44.305   5.206  1.00  0.00     0.000 C 
BRANCH   4   5
ATOM      5  C   UNL     1      25.463  44.874   5.744  1.00  0.00     0.000 C 
BRANCH   5   6
ATOM      6  C   UNL     1      24.423  43.782   6.036  1.00  0.00     0.006 C 
BRANCH   6   7
ATOM      7  C   UNL     1      23.959  43.783   7.498  1.00  0.00     0.053 C 
BRANCH   7   8
ATOM      8  C   UNL     1      25.083  43.388   8.403  1.00  0.00     0.041 C 
ATOM      9  O   UNL     1      25.756  42.350   8.162  1.00  0.00    -0.550 OA
ATOM     10  O   UNL     1      25.356  44.136   9.540  1.00  0.00    -0.550 OA
ENDBRANCH   7   8
ENDBRANCH   6   7
ENDBRANCH   5   6
ENDBRANCH   4   5
ENDBRANCH   3   4
ENDBRANCH   2   3
ENDBRANCH   1   2
BRANCH   1  11
ATOM     11  C   UNL     1      24.951  41.261   3.564  1.00  0.00     0.000 C 
BRANCH  11  12
ATOM     12  C   UNL     1      24.255  40.720   2.306  1.00  0.00    -0.000 C 
BRANCH  12  13
ATOM     13  C   UNL     1      24.254  39.185   2.297  1.00  0.00    -0.000 C 
BRANCH  13  14
ATOM     14  C   UNL     1      24.836  38.590   1.002  1.00  0.00    -0.000 C 
BRANCH  14  15
ATOM     15  C   UNL     1      24.908  39.560  -0.192  1.00  0.00    -0.000 C 
BRANCH  15  16
ATOM     16  C   UNL     1      26.328  39.695  -0.769  1.00  0.00    -0.000 C 
BRANCH  16  17
ATOM     17  C   UNL     1      27.418  39.382   0.269  1.00  0.00    -0.003 C 
ATOM     18  C   UNL     1      28.399  38.310  -0.207  1.00  0.00     0.004 C 
ENDBRANCH  16  17
ENDBRANCH  15  16
ENDBRANCH  14  15
ENDBRANCH  13  14
ENDBRANCH  12  13
ENDBRANCH  11  12
ENDBRANCH   1  11
TORSDOF 14
ENDMDL
MODEL 6
REMARK VINA RESULT:    -2.995      1.482      2.819
REMARK INTER + INTRA:          -7.758
REMARK INTER:                  -5.757
REMARK INTRA:                  -2.001
REMARK UNBOUND:                -2.312
REMARK SMILES CCCCCCCCCCCCCCCC(=O)[O-]
REMARK SMILES IDX 9 1 10 2 11 3 12 4 13 5 14 6 15 7 16 8 17 9 18 10 8 11 7 12
REMARK SMILES IDX 6 13 5 14 4 15 3 16 2 17 1 18
REMARK H PARENT
REMARK Flexibility Score: inf
ROOT
ATOM      1  C   UNL     1      27.096  42.859   3.975  1.00  0.00     0.000 C 
ENDROOT
BRANCH   1   2
ATOM      2  C   UNL     1      26.400  41.650   3.316  1.00  0.00     0.000 C 
BRANCH   2   3
ATOM      3  C   UNL     1      24.862  41.683   3.352  1.00  0.00     0.000 C 
BRANCH   3   4
ATOM      4  C   UNL     1      24.219  40.763   2.303  1.00  0.00     0.000 C 
BRANCH   4   5
ATOM      5  C   UNL     1      24.647  39.304   2.518  1.00  0.00     0.000 C 
BRANCH   5   6
ATOM      6  C   UNL     1      24.947  38.575   1.199  1.00  0.00     0.006 C 
BRANCH   6   7
ATOM      7  C   UNL     1      26.426  38.658   0.800  1.00  0.00     0.053 C 
BRANCH   7   8
ATOM      8  C   UNL     1      26.574  39.375  -0.505  1.00  0.00     0.041 C 
ATOM      9  O   UNL     1      27.687  39.392  -1.096  1.00  0.00    -0.550 OA
ATOM     10  O   UNL     1      25.497  40.067  -1.044  1.00  0.00    -0.550 OA
ENDBRANCH   7   8
ENDBRANCH   6   7
ENDBRANCH   5   6
ENDBRANCH   4   5
ENDBRANCH   3   4
ENDBRANCH   2   3
ENDBRANCH   1   2
BRANCH   1  11
ATOM     11  C   UNL     1      26.157  43.997   4.412  1.00  0.00     0.000 C 
BRANCH  11  12
ATOM     12  C   UNL     1      26.721  44.823   5.578  1.00  0.00    -0.000 C 
BRANCH  12  13
ATOM     13  C   UNL     1      25.834  44.690   6.824  1.00  0.00    -0.000 C 
BRANCH  13  14
ATOM     14  C   UNL     1      24.565  43.856   6.574  1.00  0.00    -0.000 C 
BRANCH  14  15
ATOM     15  C   UNL     1      24.397  42.626   7.485  1.00  0.00    -0.000 C 
BRANCH  15  16
ATOM     16  C   UNL     1      23.882  41.387   6.732  1.00  0.00    -0.000 C 
BRANCH  16  17
ATOM     17  C   UNL     1      24.906  40.242   6.712  1.00  0.00    -0.003 C 
ATOM     18  C   UNL     1      26.334  40.718   6.983  1.00  0.00     0.004 C 
ENDBRANCH  16  17
ENDBRANCH  15  16
ENDBRANCH  14  15
ENDBRANCH  13  14
ENDBRANCH  12  13
ENDBRANCH  11  12
ENDBRANCH   1  11
TORSDOF 14
ENDMDL
MODEL 7
REMARK VINA RESULT:    -2.960     16.510     18.958
REMARK INTER + INTRA:          -7.694
REMARK INTER:                  -5.947
REMARK INTRA:                  -1.747
REMARK UNBOUND:                -2.312
REMARK SMILES CCCCCCCCCCCCCCCC(=O)[O-]
REMARK SMILES IDX 9 1 10 2 11 3 12 4 13 5 14 6 15 7 16 8 17 9 18 10 8 11 7 12
REMARK SMILES IDX 6 13 5 14 4 15 3 16 2 17 1 18
REMARK H PARENT
REMARK Flexibility Score: inf
ROOT
ATOM      1  C   UNL     1      43.937  32.402   1.166  1.00  0.00     0.000 C 
ENDROOT
BRANCH   1   2
ATOM      2  C   UNL     1      43.706  33.032   2.556  1.00  0.00     0.000 C 
BRANCH   2   3
ATOM      3  C   UNL     1      43.351  32.036   3.673  1.00  0.00     0.000 C 
BRANCH   3   4
ATOM      4  C   UNL     1      42.178  31.116   3.304  1.00  0.00     0.000 C 
BRANCH   4   5
ATOM      5  C   UNL     1      42.098  29.919   4.263  1.00  0.00     0.000 C 
BRANCH   5   6
ATOM      6  C   UNL     1      42.452  30.296   5.710  1.00  0.00     0.006 C 
BRANCH   6   7
ATOM      7  C   UNL     1      43.180  29.168   6.454  1.00  0.00     0.053 C 
BRANCH   7   8
ATOM      8  C   UNL     1      42.283  27.980   6.606  1.00  0.00     0.041 C 
ATOM      9  O   UNL     1      42.568  26.893   6.037  1.00  0.00    -0.550 OA
ATOM     10  O   UNL     1      41.105  28.088   7.334  1.00  0.00    -0.550 OA
ENDBRANCH   7   8
ENDBRANCH   6   7
ENDBRANCH   5   6
ENDBRANCH   4   5
ENDBRANCH   3   4
ENDBRANCH   2   3
ENDBRANCH   1   2
BRANCH   1  11
ATOM     11  C   UNL     1      43.422  33.234  -0.023  1.00  0.00     0.000 C 
BRANCH  11  12
ATOM     12  C   UNL     1      42.388  32.482  -0.874  1.00  0.00    -0.000 C 
BRANCH  12  13
ATOM     13  C   UNL     1      41.208  33.395  -1.237  1.00  0.00    -0.000 C 
BRANCH  13  14
ATOM     14  C   UNL     1      40.648  34.165  -0.028  1.00  0.00    -0.000 C 
BRANCH  14  15
ATOM     15  C   UNL     1      40.069  33.287   1.098  1.00  0.00    -0.000 C 
BRANCH  15  16
ATOM     16  C   UNL     1      40.052  33.997   2.463  1.00  0.00    -0.000 C 
BRANCH  16  17
ATOM     17  C   UNL     1      38.960  33.453   3.396  1.00  0.00    -0.003 C 
ATOM     18  C   UNL     1      39.500  33.044   4.767  1.00  0.00     0.004 C 
ENDBRANCH  16  17
ENDBRANCH  15  16
ENDBRANCH  14  15
ENDBRANCH  13  14
ENDBRANCH  12  13
ENDBRANCH  11  12
ENDBRANCH   1  11
TORSDOF 14
ENDMDL
MODEL 8
REMARK VINA RESULT:    -2.955      3.863      6.944
REMARK INTER + INTRA:          -7.686
REMARK INTER:                  -6.159
REMARK INTRA:                  -1.527
REMARK UNBOUND:                -2.312
REMARK SMILES CCCCCCCCCCCCCCCC(=O)[O-]
REMARK SMILES IDX 9 1 10 2 11 3 12 4 13 5 14 6 15 7 16 8 17 9 18 10 8 11 7 12
REMARK SMILES IDX 6 13 5 14 4 15 3 16 2 17 1 18
REMARK H PARENT
REMARK Flexibility Score: inf
ROOT
ATOM      1  C   UNL     1      27.848  42.792   4.437  1.00  0.00     0.000 C 
ENDROOT
BRANCH   1   2
ATOM      2  C   UNL     1      27.629  43.550   5.763  1.00  0.00     0.000 C 
BRANCH   2   3
ATOM      3  C   UNL     1      26.766  44.819   5.655  1.00  0.00     0.000 C 
BRANCH   3   4
ATOM      4  C   UNL     1      25.273  44.550   5.899  1.00  0.00     0.000 C 
BRANCH   4   5
ATOM      5  C   UNL     1      25.060  43.817   7.231  1.00  0.00     0.000 C 
BRANCH   5   6
ATOM      6  C   UNL     1      24.277  42.505   7.065  1.00  0.00     0.006 C 
BRANCH   6   7
ATOM      7  C   UNL     1      25.125  41.266   7.382  1.00  0.00     0.053 C 
BRANCH   7   8
ATOM      8  C   UNL     1      24.944  40.862   8.811  1.00  0.00     0.041 C 
ATOM      9  O   UNL     1      24.177  39.909   9.108  1.00  0.00    -0.550 OA
ATOM     10  O   UNL     1      25.584  41.571   9.820  1.00  0.00    -0.550 OA
ENDBRANCH   7   8
ENDBRANCH   6   7
ENDBRANCH   5   6
ENDBRANCH   4   5
ENDBRANCH   3   4
ENDBRANCH   2   3
ENDBRANCH   1   2
BRANCH   1  11
ATOM     11  C   UNL     1      26.864  41.638   4.172  1.00  0.00     0.000 C 
BRANCH  11  12
ATOM     12  C   UNL     1      25.707  42.041   3.247  1.00  0.00    -0.000 C 
BRANCH  12  13
ATOM     13  C   UNL     1      24.511  41.094   3.420  1.00  0.00    -0.000 C 
BRANCH  13  14
ATOM     14  C   UNL     1      24.165  40.318   2.137  1.00  0.00    -0.000 C 
BRANCH  14  15
ATOM     15  C   UNL     1      25.346  40.079   1.177  1.00  0.00    -0.000 C 
BRANCH  15  16
ATOM     16  C   UNL     1      24.901  39.563  -0.203  1.00  0.00    -0.000 C 
BRANCH  16  17
ATOM     17  C   UNL     1      25.882  39.951  -1.321  1.00  0.00    -0.003 C 
ATOM     18  C   UNL     1      27.136  39.078  -1.339  1.00  0.00     0.004 C 
ENDBRANCH  16  17
ENDBRANCH  15  16
ENDBRANCH  14  15
ENDBRANCH  13  14
ENDBRANCH  12  13
ENDBRANCH  11  12
ENDBRANCH   1  11
TORSDOF 14
ENDMDL
MODEL 9
REMARK VINA RESULT:    -2.896     16.815     18.581
REMARK INTER + INTRA:          -7.578
REMARK INTER:                  -5.436
REMARK INTRA:                  -2.142
REMARK UNBOUND:                -2.312
REMARK SMILES CCCCCCCCCCCCCCCC(=O)[O-]
REMARK SMILES IDX 9 1 10 2 11 3 12 4 13 5 14 6 15 7 16 8 17 9 18 10 8 11 7 12
REMARK SMILES IDX 6 13 5 14 4 15 3 16 2 17 1 18
REMARK H PARENT
REMARK Flexibility Score: inf
ROOT
ATOM      1  C   UNL     1      40.495  31.379   4.174  1.00  0.00     0.000 C 
ENDROOT
BRANCH   1   2
ATOM      2  C   UNL     1      41.636  31.742   3.200  1.00  0.00     0.000 C 
BRANCH   2   3
ATOM      3  C   UNL     1      42.620  32.807   3.715  1.00  0.00     0.000 C 
BRANCH   3   4
ATOM      4  C   UNL     1      43.585  33.304   2.630  1.00  0.00     0.000 C 
BRANCH   4   5
ATOM      5  C   UNL     1      43.582  32.359   1.420  1.00  0.00     0.000 C 
BRANCH   5   6
ATOM      6  C   UNL     1      43.396  33.103   0.088  1.00  0.00     0.006 C 
BRANCH   6   7
ATOM      7  C   UNL     1      42.333  32.455  -0.808  1.00  0.00     0.053 C 
BRANCH   7   8
ATOM      8  C   UNL     1      41.077  33.269  -0.799  1.00  0.00     0.041 C 
ATOM      9  O   UNL     1      40.738  33.923  -1.821  1.00  0.00    -0.550 OA
ATOM     10  O   UNL     1      40.308  33.347   0.354  1.00  0.00    -0.550 OA
ENDBRANCH   7   8
ENDBRANCH   6   7
ENDBRANCH   5   6
ENDBRANCH   4   5
ENDBRANCH   3   4
ENDBRANCH   2   3
ENDBRANCH   1   2
BRANCH   1  11
ATOM     11  C   UNL     1      40.478  29.914   4.646  1.00  0.00     0.000 C 
BRANCH  11  12
ATOM     12  C   UNL     1      41.858  29.244   4.564  1.00  0.00    -0.000 C 
BRANCH  12  13
ATOM     13  C   UNL     1      42.563  29.272   5.928  1.00  0.00    -0.000 C 
BRANCH  13  14
ATOM     14  C   UNL     1      43.912  30.012   5.894  1.00  0.00    -0.000 C 
BRANCH  14  15
ATOM     15  C   UNL     1      44.018  31.227   6.835  1.00  0.00    -0.000 C 
BRANCH  15  16
ATOM     16  C   UNL     1      42.770  31.414   7.714  1.00  0.00    -0.000 C 
BRANCH  16  17
ATOM     17  C   UNL     1      41.970  32.672   7.340  1.00  0.00    -0.003 C 
ATOM     18  C   UNL     1      40.497  32.578   7.740  1.00  0.00     0.004 C 
ENDBRANCH  16  17
ENDBRANCH  15  16
ENDBRANCH  14  15
ENDBRANCH  13  14
ENDBRANCH  12  13
ENDBRANCH  11  12
ENDBRANCH   1  11
TORSDOF 14
ENDMDL
