MODEL 1
REMARK VINA RESULT:    -2.953      0.000      0.000
REMARK INTER + INTRA:          -2.899
REMARK INTER:                  -3.643
REMARK INTRA:                   0.744
REMARK UNBOUND:                 0.744
REMARK SMILES CC1=CC=CC(C)(C)CC1=O
REMARK SMILES IDX 1 1 2 2 3 3 10 4 11 5 9 6 4 8 5 9 6 10 7 11 8 12
REMARK H PARENT
REMARK Flexibility Score: 80.00
ROOT
ATOM      1  C   UNL     1       4.744  10.124   0.744  1.00  0.00     0.048 C 
ATOM      2  C   UNL     1       5.796   9.297   0.045  1.00  0.00    -0.008 C 
ATOM      3  C   UNL     1       6.855   8.885   0.774  1.00  0.00     0.007 C 
ENDROOT
BRANCH   2   4
ATOM      4  C   UNL     1       5.617   9.065  -1.410  1.00  0.00     0.159 C 
ATOM      5  O   UNL     1       4.756   9.745  -2.033  1.00  0.00    -0.295 OA
BRANCH   4   6
ATOM      6  C   UNL     1       6.397   8.050  -2.188  1.00  0.00     0.091 CG0
ATOM      7  G   UNL     1       7.919   8.316  -2.181  1.00  0.00     0.000 G0
ENDBRANCH   4   6
ENDBRANCH   2   4
BRANCH   3   8
ATOM      8  C   UNL     1       8.041   8.095   0.368  1.00  0.00    -0.003 C 
ATOM      9  C   UNL     1       8.513   7.852  -0.862  1.00  0.00    -0.020 C 
BRANCH   9  10
ATOM     10  C   UNL     1       7.909   8.322  -2.164  1.00  0.00    -0.010 CG0
ATOM     11  C   UNL     1       8.254   9.811  -2.399  1.00  0.00     0.016 C 
ATOM     12  C   UNL     1       8.534   7.500  -3.313  1.00  0.00     0.016 C 
ATOM     13  G   UNL     1       6.386   8.057  -2.157  1.00  0.00     0.000 G0
ENDBRANCH   9  10
ENDBRANCH   3   8
TORSDOF 0
ENDMDL
MODEL 2
REMARK VINA RESULT:    -2.900     10.124     11.884
REMARK INTER + INTRA:          -2.834
REMARK INTER:                  -3.575
REMARK INTRA:                   0.741
REMARK UNBOUND:                 0.744
REMARK SMILES CC1=CC=CC(C)(C)CC1=O
REMARK SMILES IDX 1 1 2 2 3 3 10 4 11 5 9 6 4 8 5 9 6 10 7 11 8 12
REMARK H PARENT
REMARK Flexibility Score: 80.00
ROOT
ATOM      1  C   UNL     1       9.193   0.670  -6.082  1.00  0.00     0.048 C 
ATOM      2  C   UNL     1       8.294  -0.245  -6.878  1.00  0.00    -0.008 C 
ATOM      3  C   UNL     1       8.739  -0.668  -8.081  1.00  0.00     0.007 C 
ENDROOT
BRANCH   2   4
ATOM      4  C   UNL     1       6.959  -0.548  -6.305  1.00  0.00     0.159 C 
ATOM      5  O   UNL     1       6.562   0.112  -5.306  1.00  0.00    -0.295 OA
BRANCH   4   6
ATOM      6  C   UNL     1       6.051  -1.612  -6.841  1.00  0.00     0.091 CG0
ATOM      7  G   UNL     1       5.642  -1.379  -8.314  1.00  0.00     0.000 G0
ENDBRANCH   4   6
ENDBRANCH   2   4
BRANCH   3   8
ATOM      8  C   UNL     1       8.083  -1.536  -9.087  1.00  0.00    -0.003 C 
ATOM      9  C   UNL     1       6.787  -1.850  -9.216  1.00  0.00    -0.020 C 
BRANCH   9  10
ATOM     10  C   UNL     1       5.661  -1.396  -8.318  1.00  0.00    -0.010 CG0
ATOM     11  C   UNL     1       5.280   0.067  -8.646  1.00  0.00     0.016 C 
ATOM     12  C   UNL     1       4.428  -2.284  -8.600  1.00  0.00     0.016 C 
ATOM     13  G   UNL     1       6.064  -1.588  -6.839  1.00  0.00     0.000 G0
ENDBRANCH   9  10
ENDBRANCH   3   8
TORSDOF 0
ENDMDL
MODEL 3
REMARK VINA RESULT:    -2.875      9.577     11.191
REMARK INTER + INTRA:          -2.804
REMARK INTER:                  -3.564
REMARK INTRA:                   0.760
REMARK UNBOUND:                 0.744
REMARK SMILES CC1=CC=CC(C)(C)CC1=O
REMARK SMILES IDX 1 1 2 2 3 3 10 4 11 5 9 6 4 8 5 9 6 10 7 11 8 12
REMARK H PARENT
REMARK Flexibility Score: 80.00
ROOT
ATOM      1  C   UNL     1       9.129   1.957  -6.817  1.00  0.00     0.048 C 
ATOM      2  C   UNL     1       8.005   0.950  -6.869  1.00  0.00    -0.008 C 
ATOM      3  C   UNL     1       7.965   0.006  -5.905  1.00  0.00     0.007 C 
ENDROOT
BRANCH   2   4
ATOM      4  C   UNL     1       7.075   1.035  -8.023  1.00  0.00     0.159 C 
ATOM      5  O   UNL     1       7.385   1.770  -9.002  1.00  0.00    -0.295 OA
BRANCH   4   6
ATOM      6  C   UNL     1       5.771   0.302  -8.089  1.00  0.00     0.091 CG0
ATOM      7  G   UNL     1       5.931  -1.234  -8.024  1.00  0.00     0.000 G0
ENDBRANCH   4   6
ENDBRANCH   2   4
BRANCH   3   8
ATOM      8  C   UNL     1       7.015  -1.113  -5.708  1.00  0.00    -0.003 C 
ATOM      9  C   UNL     1       6.164  -1.663  -6.585  1.00  0.00    -0.020 C 
BRANCH   9  10
ATOM     10  C   UNL     1       5.951  -1.235  -8.017  1.00  0.00    -0.010 CG0
ATOM     11  C   UNL     1       7.118  -1.738  -8.899  1.00  0.00     0.016 C 
ATOM     12  C   UNL     1       4.649  -1.890  -8.530  1.00  0.00     0.016 C 
ATOM     13  G   UNL     1       5.775   0.299  -8.082  1.00  0.00     0.000 G0
ENDBRANCH   9  10
ENDBRANCH   3   8
TORSDOF 0
ENDMDL
MODEL 4
REMARK VINA RESULT:    -2.839      9.932     10.847
REMARK INTER + INTRA:          -2.759
REMARK INTER:                  -3.508
REMARK INTRA:                   0.749
REMARK UNBOUND:                 0.744
REMARK SMILES CC1=CC=CC(C)(C)CC1=O
REMARK SMILES IDX 1 1 2 2 3 3 10 4 11 5 9 6 4 8 5 9 6 10 7 11 8 12
REMARK H PARENT
REMARK Flexibility Score: 80.00
ROOT
ATOM      1  C   UNL     1       6.389  -2.222  -4.990  1.00  0.00     0.048 C 
ATOM      2  C   UNL     1       6.874  -1.214  -6.005  1.00  0.00    -0.008 C 
ATOM      3  C   UNL     1       7.875  -0.386  -5.637  1.00  0.00     0.007 C 
ENDROOT
BRANCH   2   4
ATOM      4  C   UNL     1       6.157  -1.165  -7.304  1.00  0.00     0.159 C 
ATOM      5  O   UNL     1       5.073  -1.800  -7.426  1.00  0.00    -0.295 OA
BRANCH   4   6
ATOM      6  C   UNL     1       6.657  -0.409  -8.497  1.00  0.00     0.091 CG0
ATOM      7  G   UNL     1       6.823   1.105  -8.232  1.00  0.00     0.000 G0
ENDBRANCH   4   6
ENDBRANCH   2   4
BRANCH   3   8
ATOM      8  C   UNL     1       8.534   0.705  -6.392  1.00  0.00    -0.003 C 
ATOM      9  C   UNL     1       8.107   1.355  -7.483  1.00  0.00    -0.020 C 
BRANCH   9  10
ATOM     10  C   UNL     1       6.823   1.098  -8.235  1.00  0.00    -0.010 CG0
ATOM     11  C   UNL     1       5.628   1.707  -7.465  1.00  0.00     0.016 C 
ATOM     12  C   UNL     1       6.916   1.803  -9.607  1.00  0.00     0.016 C 
ATOM     13  G   UNL     1       6.660  -0.419  -8.484  1.00  0.00     0.000 G0
ENDBRANCH   9  10
ENDBRANCH   3   8
TORSDOF 0
ENDMDL
MODEL 5
REMARK VINA RESULT:    -2.836      1.400      2.376
REMARK INTER + INTRA:          -2.755
REMARK INTER:                  -3.492
REMARK INTRA:                   0.737
REMARK UNBOUND:                 0.744
REMARK SMILES CC1=CC=CC(C)(C)CC1=O
REMARK SMILES IDX 1 1 2 2 3 3 10 4 11 5 9 6 4 8 5 9 6 10 7 11 8 12
REMARK H PARENT
REMARK Flexibility Score: 80.00
ROOT
ATOM      1  C   UNL     1       4.420  10.105  -2.939  1.00  0.00     0.048 C 
ATOM      2  C   UNL     1       5.252   9.466  -1.854  1.00  0.00    -0.008 C 
ATOM      3  C   UNL     1       5.004   9.832  -0.578  1.00  0.00     0.007 C 
ENDROOT
BRANCH   2   4
ATOM      4  C   UNL     1       6.328   8.539  -2.284  1.00  0.00     0.159 C 
ATOM      5  O   UNL     1       6.623   8.476  -3.510  1.00  0.00    -0.295 OA
BRANCH   4   6
ATOM      6  C   UNL     1       7.083   7.653  -1.341  1.00  0.00     0.091 CG0
ATOM      7  G   UNL     1       7.825   8.436  -0.233  1.00  0.00     0.000 G0
ENDBRANCH   4   6
ENDBRANCH   2   4
BRANCH   3   8
ATOM      8  C   UNL     1       5.662   9.405   0.679  1.00  0.00    -0.003 C 
ATOM      9  C   UNL     1       6.855   8.822   0.853  1.00  0.00    -0.020 C 
BRANCH   9  10
ATOM     10  C   UNL     1       7.827   8.428  -0.234  1.00  0.00    -0.010 CG0
ATOM     11  C   UNL     1       8.579   9.678  -0.749  1.00  0.00     0.016 C 
ATOM     12  C   UNL     1       8.869   7.462   0.375  1.00  0.00     0.016 C 
ATOM     13  G   UNL     1       7.076   7.680  -1.358  1.00  0.00     0.000 G0
ENDBRANCH   9  10
ENDBRANCH   3   8
TORSDOF 0
ENDMDL
MODEL 6
REMARK VINA RESULT:    -2.771      9.397     11.025
REMARK INTER + INTRA:          -2.675
REMARK INTER:                  -3.429
REMARK INTRA:                   0.755
REMARK UNBOUND:                 0.744
REMARK SMILES CC1=CC=CC(C)(C)CC1=O
REMARK SMILES IDX 1 1 2 2 3 3 10 4 11 5 9 6 4 8 5 9 6 10 7 11 8 12
REMARK H PARENT
REMARK Flexibility Score: 80.00
ROOT
ATOM      1  C   UNL     1       4.456  -2.061  -8.752  1.00  0.00     0.048 C 
ATOM      2  C   UNL     1       5.596  -1.308  -8.109  1.00  0.00    -0.008 C 
ATOM      3  C   UNL     1       5.920  -1.627  -6.838  1.00  0.00     0.007 C 
ENDROOT
BRANCH   2   4
ATOM      4  C   UNL     1       6.223  -0.222  -8.904  1.00  0.00     0.159 C 
ATOM      5  O   UNL     1       5.653   0.163  -9.963  1.00  0.00    -0.295 OA
BRANCH   4   6
ATOM      6  C   UNL     1       7.511   0.441  -8.526  1.00  0.00     0.091 CG0
ATOM      7  G   UNL     1       7.461   1.128  -7.143  1.00  0.00     0.000 G0
ENDBRANCH   4   6
ENDBRANCH   2   4
BRANCH   3   8
ATOM      8  C   UNL     1       6.957  -1.056  -5.947  1.00  0.00    -0.003 C 
ATOM      9  C   UNL     1       7.608   0.110  -6.048  1.00  0.00    -0.020 C 
BRANCH   9  10
ATOM     10  C   UNL     1       7.448   1.134  -7.146  1.00  0.00    -0.010 CG0
ATOM     11  C   UNL     1       6.140   1.933  -6.938  1.00  0.00     0.016 C 
ATOM     12  C   UNL     1       8.630   2.125  -7.061  1.00  0.00     0.016 C 
ATOM     13  G   UNL     1       7.506   0.435  -8.523  1.00  0.00     0.000 G0
ENDBRANCH   9  10
ENDBRANCH   3   8
TORSDOF 0
ENDMDL
MODEL 7
REMARK VINA RESULT:    -2.669      9.343     10.483
REMARK INTER + INTRA:          -2.549
REMARK INTER:                  -3.315
REMARK INTRA:                   0.766
REMARK UNBOUND:                 0.744
REMARK SMILES CC1=CC=CC(C)(C)CC1=O
REMARK SMILES IDX 1 1 2 2 3 3 10 4 11 5 9 6 4 8 5 9 6 10 7 11 8 12
REMARK H PARENT
REMARK Flexibility Score: 80.00
ROOT
ATOM      1  C   UNL     1       6.751  -1.376  -5.183  1.00  0.00     0.048 C 
ATOM      2  C   UNL     1       6.805  -0.639  -6.500  1.00  0.00    -0.008 C 
ATOM      3  C   UNL     1       7.624  -1.126  -7.456  1.00  0.00     0.007 C 
ENDROOT
BRANCH   2   4
ATOM      4  C   UNL     1       6.006   0.607  -6.610  1.00  0.00     0.159 C 
ATOM      5  O   UNL     1       5.496   1.097  -5.565  1.00  0.00    -0.295 OA
BRANCH   4   6
ATOM      6  C   UNL     1       5.756   1.317  -7.905  1.00  0.00     0.091 CG0
ATOM      7  G   UNL     1       7.054   1.777  -8.608  1.00  0.00     0.000 G0
ENDBRANCH   4   6
ENDBRANCH   2   4
BRANCH   3   8
ATOM      8  C   UNL     1       7.905  -0.615  -8.818  1.00  0.00    -0.003 C 
ATOM      9  C   UNL     1       7.688   0.606  -9.324  1.00  0.00    -0.020 C 
BRANCH   9  10
ATOM     10  C   UNL     1       7.060   1.776  -8.605  1.00  0.00    -0.010 CG0
ATOM     11  C   UNL     1       8.078   2.402  -7.624  1.00  0.00     0.016 C 
ATOM     12  C   UNL     1       6.688   2.847  -9.655  1.00  0.00     0.016 C 
ATOM     13  G   UNL     1       5.760   1.320  -7.903  1.00  0.00     0.000 G0
ENDBRANCH   9  10
ENDBRANCH   3   8
TORSDOF 0
ENDMDL
MODEL 8
REMARK VINA RESULT:    -2.631      8.975     10.383
REMARK INTER + INTRA:          -2.503
REMARK INTER:                  -3.248
REMARK INTRA:                   0.746
REMARK UNBOUND:                 0.744
REMARK SMILES CC1=CC=CC(C)(C)CC1=O
REMARK SMILES IDX 1 1 2 2 3 3 10 4 11 5 9 6 4 8 5 9 6 10 7 11 8 12
REMARK H PARENT
REMARK Flexibility Score: 80.00
ROOT
ATOM      1  C   UNL     1       4.878   2.245  -5.644  1.00  0.00     0.048 C 
ATOM      2  C   UNL     1       5.690   1.148  -6.289  1.00  0.00    -0.008 C 
ATOM      3  C   UNL     1       6.128   0.145  -5.499  1.00  0.00     0.007 C 
ENDROOT
BRANCH   2   4
ATOM      4  C   UNL     1       6.006   1.299  -7.732  1.00  0.00     0.159 C 
ATOM      5  O   UNL     1       5.756   2.400  -8.297  1.00  0.00    -0.295 OA
BRANCH   4   6
ATOM      6  C   UNL     1       6.596   0.207  -8.569  1.00  0.00     0.091 CG0
ATOM      7  G   UNL     1       7.962  -0.292  -8.044  1.00  0.00     0.000 G0
ENDBRANCH   4   6
ENDBRANCH   2   4
BRANCH   3   8
ATOM      8  C   UNL     1       6.955  -1.039  -5.832  1.00  0.00    -0.003 C 
ATOM      9  C   UNL     1       7.744  -1.245  -6.894  1.00  0.00    -0.020 C 
BRANCH   9  10
ATOM     10  C   UNL     1       7.960  -0.297  -8.049  1.00  0.00    -0.010 CG0
ATOM     11  C   UNL     1       8.914   0.844  -7.625  1.00  0.00     0.016 C 
ATOM     12  C   UNL     1       8.634  -1.079  -9.199  1.00  0.00     0.016 C 
ATOM     13  G   UNL     1       6.597   0.225  -8.557  1.00  0.00     0.000 G0
ENDBRANCH   9  10
ENDBRANCH   3   8
TORSDOF 0
ENDMDL
MODEL 9
REMARK VINA RESULT:    -2.452      9.290     10.461
REMARK INTER + INTRA:          -2.281
REMARK INTER:                  -3.049
REMARK INTRA:                   0.768
REMARK UNBOUND:                 0.744
REMARK SMILES CC1=CC=CC(C)(C)CC1=O
REMARK SMILES IDX 1 1 2 2 3 3 10 4 11 5 9 6 4 8 5 9 6 10 7 11 8 12
REMARK H PARENT
REMARK Flexibility Score: 80.00
ROOT
ATOM      1  C   UNL     1       6.645  -1.490  -5.936  1.00  0.00     0.048 C 
ATOM      2  C   UNL     1       6.512  -0.126  -6.570  1.00  0.00    -0.008 C 
ATOM      3  C   UNL     1       5.651   0.746  -6.003  1.00  0.00     0.007 C 
ENDROOT
BRANCH   2   4
ATOM      4  C   UNL     1       7.286   0.121  -7.812  1.00  0.00     0.159 C 
ATOM      5  O   UNL     1       7.843  -0.855  -8.386  1.00  0.00    -0.295 OA
BRANCH   4   6
ATOM      6  C   UNL     1       7.459   1.478  -8.423  1.00  0.00     0.091 CG0
ATOM      7  G   UNL     1       6.121   2.140  -8.823  1.00  0.00     0.000 G0
ENDBRANCH   4   6
ENDBRANCH   2   4
BRANCH   3   8
ATOM      8  C   UNL     1       5.291   2.126  -6.405  1.00  0.00    -0.003 C 
ATOM      9  C   UNL     1       5.468   2.735  -7.585  1.00  0.00    -0.020 C 
BRANCH   9  10
ATOM     10  C   UNL     1       6.122   2.144  -8.811  1.00  0.00    -0.010 CG0
ATOM     11  C   UNL     1       5.154   1.155  -9.502  1.00  0.00     0.016 C 
ATOM     12  C   UNL     1       6.421   3.291  -9.802  1.00  0.00     0.016 C 
ATOM     13  G   UNL     1       7.465   1.486  -8.419  1.00  0.00     0.000 G0
ENDBRANCH   9  10
ENDBRANCH   3   8
TORSDOF 0
ENDMDL
