MODEL 1
REMARK VINA RESULT:    -3.228      0.000      0.000
REMARK INTER + INTRA:          -8.312
REMARK INTER:                  -6.059
REMARK INTRA:                  -2.253
REMARK UNBOUND:                -2.253
REMARK SMILES O=C([O-])CCCCCCCCCCCCCCC(=O)[O-]
REMARK SMILES IDX 10 1 9 2 8 3 7 4 6 5 5 6 4 7 2 8 1 9 3 10 11 11 12 12 13 13
REMARK SMILES IDX 14 14 15 15 16 16 17 17 18 18 19 19 20 20
REMARK H PARENT
REMARK Flexibility Score: inf
ROOT
ATOM      1  C   UNL     1      38.008   1.134  -8.820  1.00  0.00     0.000 C 
ENDROOT
BRANCH   1   2
ATOM      2  C   UNL     1      36.561   1.068  -9.343  1.00  0.00     0.000 C 
BRANCH   2   3
ATOM      3  C   UNL     1      35.581   1.879  -8.477  1.00  0.00     0.000 C 
BRANCH   3   4
ATOM      4  C   UNL     1      36.182   3.172  -7.893  1.00  0.00     0.000 C 
BRANCH   4   5
ATOM      5  C   UNL     1      35.667   4.440  -8.598  1.00  0.00     0.000 C 
BRANCH   5   6
ATOM      6  C   UNL     1      36.145   5.734  -7.907  1.00  0.00     0.006 C 
BRANCH   6   7
ATOM      7  C   UNL     1      36.434   5.558  -6.408  1.00  0.00     0.053 C 
BRANCH   7   8
ATOM      8  C   UNL     1      35.283   5.985  -5.553  1.00  0.00     0.041 C 
ATOM      9  O   UNL     1      34.998   5.343  -4.508  1.00  0.00    -0.550 OA
ATOM     10  O   UNL     1      34.507   7.075  -5.925  1.00  0.00    -0.550 OA
ENDBRANCH   7   8
ENDBRANCH   6   7
ENDBRANCH   5   6
ENDBRANCH   4   5
ENDBRANCH   3   4
ENDBRANCH   2   3
ENDBRANCH   1   2
BRANCH   1  11
ATOM     11  C   UNL     1      39.037   1.206  -9.967  1.00  0.00     0.000 C 
BRANCH  11  12
ATOM     12  C   UNL     1      38.895   2.465 -10.844  1.00  0.00     0.000 C 
BRANCH  12  13
ATOM     13  C   UNL     1      38.849   3.792 -10.067  1.00  0.00     0.000 C 
BRANCH  13  14
ATOM     14  C   UNL     1      40.114   4.036  -9.232  1.00  0.00     0.000 C 
BRANCH  14  15
ATOM     15  C   UNL     1      39.766   4.694  -7.891  1.00  0.00     0.000 C 
BRANCH  15  16
ATOM     16  C   UNL     1      39.781   3.665  -6.751  1.00  0.00     0.006 C 
BRANCH  16  17
ATOM     17  C   UNL     1      40.724   2.490  -7.044  1.00  0.00     0.053 C 
BRANCH  17  18
ATOM     18  C   UNL     1      40.973   1.658  -5.824  1.00  0.00     0.041 C 
ATOM     19  O   UNL     1      40.025   1.028  -5.283  1.00  0.00    -0.550 OA
ATOM     20  O   UNL     1      42.243   1.605  -5.263  1.00  0.00    -0.550 OA
ENDBRANCH  17  18
ENDBRANCH  16  17
ENDBRANCH  15  16
ENDBRANCH  14  15
ENDBRANCH  13  14
ENDBRANCH  12  13
ENDBRANCH  11  12
ENDBRANCH   1  11
TORSDOF 15
ENDMDL
MODEL 2
REMARK VINA RESULT:    -3.114      2.640      5.738
REMARK INTER + INTRA:          -8.098
REMARK INTER:                  -6.243
REMARK INTRA:                  -1.856
REMARK UNBOUND:                -2.253
REMARK SMILES O=C([O-])CCCCCCCCCCCCCCC(=O)[O-]
REMARK SMILES IDX 10 1 9 2 8 3 7 4 6 5 5 6 4 7 2 8 1 9 3 10 11 11 12 12 13 13
REMARK SMILES IDX 14 14 15 15 16 16 17 17 18 18 19 19 20 20
REMARK H PARENT
REMARK Flexibility Score: inf
ROOT
ATOM      1  C   UNL     1      39.626   1.428  -6.888  1.00  0.00     0.000 C 
ENDROOT
BRANCH   1   2
ATOM      2  C   UNL     1      39.898   1.084  -8.364  1.00  0.00     0.000 C 
BRANCH   2   3
ATOM      3  C   UNL     1      38.655   1.264  -9.254  1.00  0.00     0.000 C 
BRANCH   3   4
ATOM      4  C   UNL     1      37.349   1.493  -8.469  1.00  0.00     0.000 C 
BRANCH   4   5
ATOM      5  C   UNL     1      36.481   0.225  -8.375  1.00  0.00     0.000 C 
BRANCH   5   6
ATOM      6  C   UNL     1      36.294  -0.254  -6.920  1.00  0.00     0.006 C 
BRANCH   6   7
ATOM      7  C   UNL     1      35.958  -1.748  -6.804  1.00  0.00     0.053 C 
BRANCH   7   8
ATOM      8  C   UNL     1      35.530  -2.131  -5.423  1.00  0.00     0.041 C 
ATOM      9  O   UNL     1      36.226  -2.929  -4.742  1.00  0.00    -0.550 OA
ATOM     10  O   UNL     1      34.347  -1.629  -4.896  1.00  0.00    -0.550 OA
ENDBRANCH   7   8
ENDBRANCH   6   7
ENDBRANCH   5   6
ENDBRANCH   4   5
ENDBRANCH   3   4
ENDBRANCH   2   3
ENDBRANCH   1   2
BRANCH   1  11
ATOM     11  C   UNL     1      40.362   2.708  -6.444  1.00  0.00     0.000 C 
BRANCH  11  12
ATOM     12  C   UNL     1      39.503   3.983  -6.553  1.00  0.00     0.000 C 
BRANCH  12  13
ATOM     13  C   UNL     1      39.616   4.726  -7.895  1.00  0.00     0.000 C 
BRANCH  13  14
ATOM     14  C   UNL     1      38.265   5.251  -8.400  1.00  0.00     0.000 C 
BRANCH  14  15
ATOM     15  C   UNL     1      37.224   5.252  -7.273  1.00  0.00     0.000 C 
BRANCH  15  16
ATOM     16  C   UNL     1      35.815   4.982  -7.823  1.00  0.00     0.006 C 
BRANCH  16  17
ATOM     17  C   UNL     1      34.954   4.176  -6.841  1.00  0.00     0.053 C 
BRANCH  17  18
ATOM     18  C   UNL     1      34.363   5.047  -5.776  1.00  0.00     0.041 C 
ATOM     19  O   UNL     1      33.893   6.178  -6.071  1.00  0.00    -0.550 OA
ATOM     20  O   UNL     1      34.362   4.625  -4.452  1.00  0.00    -0.550 OA
ENDBRANCH  17  18
ENDBRANCH  16  17
ENDBRANCH  15  16
ENDBRANCH  14  15
ENDBRANCH  13  14
ENDBRANCH  12  13
ENDBRANCH  11  12
ENDBRANCH   1  11
TORSDOF 15
ENDMDL
MODEL 3
REMARK VINA RESULT:    -3.112      3.522      5.194
REMARK INTER + INTRA:          -8.094
REMARK INTER:                  -6.574
REMARK INTRA:                  -1.520
REMARK UNBOUND:                -2.253
REMARK SMILES O=C([O-])CCCCCCCCCCCCCCC(=O)[O-]
REMARK SMILES IDX 10 1 9 2 8 3 7 4 6 5 5 6 4 7 2 8 1 9 3 10 11 11 12 12 13 13
REMARK SMILES IDX 14 14 15 15 16 16 17 17 18 18 19 19 20 20
REMARK H PARENT
REMARK Flexibility Score: inf
ROOT
ATOM      1  C   UNL     1      35.960   1.887  -7.959  1.00  0.00     0.000 C 
ENDROOT
BRANCH   1   2
ATOM      2  C   UNL     1      36.425   0.855  -9.003  1.00  0.00     0.000 C 
BRANCH   2   3
ATOM      3  C   UNL     1      36.730  -0.520  -8.382  1.00  0.00     0.000 C 
BRANCH   3   4
ATOM      4  C   UNL     1      36.442  -0.603  -6.870  1.00  0.00     0.000 C 
BRANCH   4   5
ATOM      5  C   UNL     1      35.755  -1.921  -6.467  1.00  0.00     0.000 C 
BRANCH   5   6
ATOM      6  C   UNL     1      34.774  -1.736  -5.290  1.00  0.00     0.006 C 
BRANCH   6   7
ATOM      7  C   UNL     1      34.587  -3.005  -4.444  1.00  0.00     0.053 C 
BRANCH   7   8
ATOM      8  C   UNL     1      35.286  -2.919  -3.124  1.00  0.00     0.041 C 
ATOM      9  O   UNL     1      34.737  -3.371  -2.085  1.00  0.00    -0.550 OA
ATOM     10  O   UNL     1      36.533  -2.313  -3.036  1.00  0.00    -0.550 OA
ENDBRANCH   7   8
ENDBRANCH   6   7
ENDBRANCH   5   6
ENDBRANCH   4   5
ENDBRANCH   3   4
ENDBRANCH   2   3
ENDBRANCH   1   2
BRANCH   1  11
ATOM     11  C   UNL     1      36.015   3.329  -8.503  1.00  0.00     0.000 C 
BRANCH  11  12
ATOM     12  C   UNL     1      36.810   4.297  -7.606  1.00  0.00     0.000 C 
BRANCH  12  13
ATOM     13  C   UNL     1      38.121   4.817  -8.219  1.00  0.00     0.000 C 
BRANCH  13  14
ATOM     14  C   UNL     1      39.172   3.712  -8.399  1.00  0.00     0.000 C 
BRANCH  14  15
ATOM     15  C   UNL     1      39.677   3.212  -7.039  1.00  0.00     0.000 C 
BRANCH  15  16
ATOM     16  C   UNL     1      39.478   1.695  -6.901  1.00  0.00     0.006 C 
BRANCH  16  17
ATOM     17  C   UNL     1      40.806   0.929  -6.973  1.00  0.00     0.053 C 
BRANCH  17  18
ATOM     18  C   UNL     1      41.407   0.728  -5.616  1.00  0.00     0.041 C 
ATOM     19  O   UNL     1      40.965  -0.173  -4.854  1.00  0.00    -0.550 OA
ATOM     20  O   UNL     1      42.431   1.559  -5.178  1.00  0.00    -0.550 OA
ENDBRANCH  17  18
ENDBRANCH  16  17
ENDBRANCH  15  16
ENDBRANCH  14  15
ENDBRANCH  13  14
ENDBRANCH  12  13
ENDBRANCH  11  12
ENDBRANCH   1  11
TORSDOF 15
ENDMDL
MODEL 4
REMARK VINA RESULT:    -3.090     10.275     11.909
REMARK INTER + INTRA:          -8.052
REMARK INTER:                  -6.284
REMARK INTRA:                  -1.768
REMARK UNBOUND:                -2.253
REMARK SMILES O=C([O-])CCCCCCCCCCCCCCC(=O)[O-]
REMARK SMILES IDX 10 1 9 2 8 3 7 4 6 5 5 6 4 7 2 8 1 9 3 10 11 11 12 12 13 13
REMARK SMILES IDX 14 14 15 15 16 16 17 17 18 18 19 19 20 20
REMARK H PARENT
REMARK Flexibility Score: inf
ROOT
ATOM      1  C   UNL     1      40.527   1.724   2.460  1.00  0.00     0.000 C 
ENDROOT
BRANCH   1   2
ATOM      2  C   UNL     1      39.770   3.038   2.729  1.00  0.00     0.000 C 
BRANCH   2   3
ATOM      3  C   UNL     1      39.916   3.519   4.183  1.00  0.00     0.000 C 
BRANCH   3   4
ATOM      4  C   UNL     1      38.607   4.039   4.807  1.00  0.00     0.000 C 
BRANCH   4   5
ATOM      5  C   UNL     1      37.479   2.991   4.785  1.00  0.00     0.000 C 
BRANCH   5   6
ATOM      6  C   UNL     1      36.078   3.635   4.742  1.00  0.00     0.006 C 
BRANCH   6   7
ATOM      7  C   UNL     1      36.110   5.163   4.582  1.00  0.00     0.053 C 
BRANCH   7   8
ATOM      8  C   UNL     1      34.882   5.692   3.911  1.00  0.00     0.041 C 
ATOM      9  O   UNL     1      33.855   4.971   3.810  1.00  0.00    -0.550 OA
ATOM     10  O   UNL     1      34.881   6.971   3.371  1.00  0.00    -0.550 OA
ENDBRANCH   7   8
ENDBRANCH   6   7
ENDBRANCH   5   6
ENDBRANCH   4   5
ENDBRANCH   3   4
ENDBRANCH   2   3
ENDBRANCH   1   2
BRANCH   1  11
ATOM     11  C   UNL     1      39.626   0.658   1.803  1.00  0.00     0.000 C 
BRANCH  11  12
ATOM     12  C   UNL     1      38.176   1.130   1.578  1.00  0.00     0.000 C 
BRANCH  12  13
ATOM     13  C   UNL     1      37.103   0.268   2.265  1.00  0.00     0.000 C 
BRANCH  13  14
ATOM     14  C   UNL     1      35.678   0.786   2.021  1.00  0.00     0.000 C 
BRANCH  14  15
ATOM     15  C   UNL     1      34.823   0.650   3.287  1.00  0.00     0.000 C 
BRANCH  15  16
ATOM     16  C   UNL     1      33.440   1.288   3.089  1.00  0.00     0.006 C 
BRANCH  16  17
ATOM     17  C   UNL     1      33.348   2.076   1.775  1.00  0.00     0.053 C 
BRANCH  17  18
ATOM     18  C   UNL     1      31.927   2.291   1.353  1.00  0.00     0.041 C 
ATOM     19  O   UNL     1      31.145   1.310   1.240  1.00  0.00    -0.550 OA
ATOM     20  O   UNL     1      31.476   3.570   1.051  1.00  0.00    -0.550 OA
ENDBRANCH  17  18
ENDBRANCH  16  17
ENDBRANCH  15  16
ENDBRANCH  14  15
ENDBRANCH  13  14
ENDBRANCH  12  13
ENDBRANCH  11  12
ENDBRANCH   1  11
TORSDOF 15
ENDMDL
MODEL 5
REMARK VINA RESULT:    -3.082      8.760     11.098
REMARK INTER + INTRA:          -8.038
REMARK INTER:                  -6.192
REMARK INTRA:                  -1.846
REMARK UNBOUND:                -2.253
REMARK SMILES O=C([O-])CCCCCCCCCCCCCCC(=O)[O-]
REMARK SMILES IDX 10 1 9 2 8 3 7 4 6 5 5 6 4 7 2 8 1 9 3 10 11 11 12 12 13 13
REMARK SMILES IDX 14 14 15 15 16 16 17 17 18 18 19 19 20 20
REMARK H PARENT
REMARK Flexibility Score: inf
ROOT
ATOM      1  C   UNL     1      40.142   3.092   2.905  1.00  0.00     0.000 C 
ENDROOT
BRANCH   1   2
ATOM      2  C   UNL     1      39.115   2.456   3.859  1.00  0.00     0.000 C 
BRANCH   2   3
ATOM      3  C   UNL     1      37.871   1.925   3.123  1.00  0.00     0.000 C 
BRANCH   3   4
ATOM      4  C   UNL     1      36.848   1.229   4.041  1.00  0.00     0.000 C 
BRANCH   4   5
ATOM      5  C   UNL     1      35.637   0.674   3.270  1.00  0.00     0.000 C 
BRANCH   5   6
ATOM      6  C   UNL     1      34.915   1.761   2.447  1.00  0.00     0.006 C 
BRANCH   6   7
ATOM      7  C   UNL     1      33.470   1.392   2.077  1.00  0.00     0.053 C 
BRANCH   7   8
ATOM      8  C   UNL     1      32.786   2.473   1.302  1.00  0.00     0.041 C 
ATOM      9  O   UNL     1      33.349   2.989   0.302  1.00  0.00    -0.550 OA
ATOM     10  O   UNL     1      31.537   2.931   1.701  1.00  0.00    -0.550 OA
ENDBRANCH   7   8
ENDBRANCH   6   7
ENDBRANCH   5   6
ENDBRANCH   4   5
ENDBRANCH   3   4
ENDBRANCH   2   3
ENDBRANCH   1   2
BRANCH   1  11
ATOM     11  C   UNL     1      41.580   2.620   3.201  1.00  0.00     0.000 C 
BRANCH  11  12
ATOM     12  C   UNL     1      41.727   1.907   4.560  1.00  0.00     0.000 C 
BRANCH  12  13
ATOM     13  C   UNL     1      42.333   0.495   4.484  1.00  0.00     0.000 C 
BRANCH  13  14
ATOM     14  C   UNL     1      41.920  -0.262   3.214  1.00  0.00     0.000 C 
BRANCH  14  15
ATOM     15  C   UNL     1      40.541  -0.910   3.388  1.00  0.00     0.000 C 
BRANCH  15  16
ATOM     16  C   UNL     1      39.937  -1.296   2.029  1.00  0.00     0.006 C 
BRANCH  16  17
ATOM     17  C   UNL     1      40.039  -0.156   1.006  1.00  0.00     0.053 C 
BRANCH  17  18
ATOM     18  C   UNL     1      38.934  -0.215  -0.004  1.00  0.00     0.041 C 
ATOM     19  O   UNL     1      39.200  -0.186  -1.235  1.00  0.00    -0.550 OA
ATOM     20  O   UNL     1      37.610  -0.265   0.413  1.00  0.00    -0.550 OA
ENDBRANCH  17  18
ENDBRANCH  16  17
ENDBRANCH  15  16
ENDBRANCH  14  15
ENDBRANCH  13  14
ENDBRANCH  12  13
ENDBRANCH  11  12
ENDBRANCH   1  11
TORSDOF 15
ENDMDL
MODEL 6
REMARK VINA RESULT:    -3.074      1.332      4.923
REMARK INTER + INTRA:          -8.023
REMARK INTER:                  -5.895
REMARK INTRA:                  -2.128
REMARK UNBOUND:                -2.253
REMARK SMILES O=C([O-])CCCCCCCCCCCCCCC(=O)[O-]
REMARK SMILES IDX 10 1 9 2 8 3 7 4 6 5 5 6 4 7 2 8 1 9 3 10 11 11 12 12 13 13
REMARK SMILES IDX 14 14 15 15 16 16 17 17 18 18 19 19 20 20
REMARK H PARENT
REMARK Flexibility Score: inf
ROOT
ATOM      1  C   UNL     1      36.712   1.753 -10.568  1.00  0.00     0.000 C 
ENDROOT
BRANCH   1   2
ATOM      2  C   UNL     1      35.599   1.595  -9.516  1.00  0.00     0.000 C 
BRANCH   2   3
ATOM      3  C   UNL     1      36.128   1.700  -8.074  1.00  0.00     0.000 C 
BRANCH   3   4
ATOM      4  C   UNL     1      36.462   0.342  -7.428  1.00  0.00     0.000 C 
BRANCH   4   5
ATOM      5  C   UNL     1      37.971   0.035  -7.435  1.00  0.00     0.000 C 
BRANCH   5   6
ATOM      6  C   UNL     1      38.831   1.313  -7.523  1.00  0.00     0.006 C 
BRANCH   6   7
ATOM      7  C   UNL     1      40.313   1.079  -7.191  1.00  0.00     0.053 C 
BRANCH   7   8
ATOM      8  C   UNL     1      40.786   1.939  -6.062  1.00  0.00     0.041 C 
ATOM      9  O   UNL     1      40.103   2.928  -5.689  1.00  0.00    -0.550 OA
ATOM     10  O   UNL     1      41.998   1.666  -5.440  1.00  0.00    -0.550 OA
ENDBRANCH   7   8
ENDBRANCH   6   7
ENDBRANCH   5   6
ENDBRANCH   4   5
ENDBRANCH   3   4
ENDBRANCH   2   3
ENDBRANCH   1   2
BRANCH   1  11
ATOM     11  C   UNL     1      37.187   3.215 -10.697  1.00  0.00     0.000 C 
BRANCH  11  12
ATOM     12  C   UNL     1      38.720   3.369 -10.673  1.00  0.00     0.000 C 
BRANCH  12  13
ATOM     13  C   UNL     1      39.224   4.736 -10.178  1.00  0.00     0.000 C 
BRANCH  13  14
ATOM     14  C   UNL     1      39.285   4.827  -8.647  1.00  0.00     0.000 C 
BRANCH  14  15
ATOM     15  C   UNL     1      38.097   5.629  -8.100  1.00  0.00     0.000 C 
BRANCH  15  16
ATOM     16  C   UNL     1      37.479   4.935  -6.877  1.00  0.00     0.006 C 
BRANCH  16  17
ATOM     17  C   UNL     1      35.980   5.231  -6.738  1.00  0.00     0.053 C 
BRANCH  17  18
ATOM     18  C   UNL     1      35.682   6.035  -5.510  1.00  0.00     0.041 C 
ATOM     19  O   UNL     1      34.844   5.616  -4.667  1.00  0.00    -0.550 OA
ATOM     20  O   UNL     1      36.303   7.262  -5.313  1.00  0.00    -0.550 OA
ENDBRANCH  17  18
ENDBRANCH  16  17
ENDBRANCH  15  16
ENDBRANCH  14  15
ENDBRANCH  13  14
ENDBRANCH  12  13
ENDBRANCH  11  12
ENDBRANCH   1  11
TORSDOF 15
ENDMDL
MODEL 7
REMARK VINA RESULT:    -3.064     10.214     12.401
REMARK INTER + INTRA:          -8.004
REMARK INTER:                  -6.113
REMARK INTRA:                  -1.891
REMARK UNBOUND:                -2.253
REMARK SMILES O=C([O-])CCCCCCCCCCCCCCC(=O)[O-]
REMARK SMILES IDX 10 1 9 2 8 3 7 4 6 5 5 6 4 7 2 8 1 9 3 10 11 11 12 12 13 13
REMARK SMILES IDX 14 14 15 15 16 16 17 17 18 18 19 19 20 20
REMARK H PARENT
REMARK Flexibility Score: inf
ROOT
ATOM      1  C   UNL     1      35.484   8.564   4.209  1.00  0.00     0.000 C 
ENDROOT
BRANCH   1   2
ATOM      2  C   UNL     1      34.348   7.543   4.405  1.00  0.00     0.000 C 
BRANCH   2   3
ATOM      3  C   UNL     1      34.669   6.173   3.781  1.00  0.00     0.000 C 
BRANCH   3   4
ATOM      4  C   UNL     1      34.369   4.977   4.705  1.00  0.00     0.000 C 
BRANCH   4   5
ATOM      5  C   UNL     1      34.714   3.624   4.058  1.00  0.00     0.000 C 
BRANCH   5   6
ATOM      6  C   UNL     1      33.483   2.943   3.424  1.00  0.00     0.006 C 
BRANCH   6   7
ATOM      7  C   UNL     1      33.714   2.481   1.977  1.00  0.00     0.053 C 
BRANCH   7   8
ATOM      8  C   UNL     1      32.689   3.026   1.034  1.00  0.00     0.041 C 
ATOM      9  O   UNL     1      31.480   3.092   1.380  1.00  0.00    -0.550 OA
ATOM     10  O   UNL     1      33.064   3.435  -0.240  1.00  0.00    -0.550 OA
ENDBRANCH   7   8
ENDBRANCH   6   7
ENDBRANCH   5   6
ENDBRANCH   4   5
ENDBRANCH   3   4
ENDBRANCH   2   3
ENDBRANCH   1   2
BRANCH   1  11
ATOM     11  C   UNL     1      36.819   7.884   3.842  1.00  0.00     0.000 C 
BRANCH  11  12
ATOM     12  C   UNL     1      38.003   8.339   4.719  1.00  0.00     0.000 C 
BRANCH  12  13
ATOM     13  C   UNL     1      38.633   7.230   5.579  1.00  0.00     0.000 C 
BRANCH  13  14
ATOM     14  C   UNL     1      37.586   6.295   6.202  1.00  0.00     0.000 C 
BRANCH  14  15
ATOM     15  C   UNL     1      37.936   4.826   5.932  1.00  0.00     0.000 C 
BRANCH  15  16
ATOM     16  C   UNL     1      38.358   4.620   4.469  1.00  0.00     0.006 C 
BRANCH  16  17
ATOM     17  C   UNL     1      38.486   3.134   4.107  1.00  0.00     0.053 C 
BRANCH  17  18
ATOM     18  C   UNL     1      39.826   2.817   3.520  1.00  0.00     0.041 C 
ATOM     19  O   UNL     1      40.861   2.873   4.237  1.00  0.00    -0.550 OA
ATOM     20  O   UNL     1      39.939   2.495   2.173  1.00  0.00    -0.550 OA
ENDBRANCH  17  18
ENDBRANCH  16  17
ENDBRANCH  15  16
ENDBRANCH  14  15
ENDBRANCH  13  14
ENDBRANCH  12  13
ENDBRANCH  11  12
ENDBRANCH   1  11
TORSDOF 15
ENDMDL
MODEL 8
REMARK VINA RESULT:    -3.043      4.785      7.179
REMARK INTER + INTRA:          -7.965
REMARK INTER:                  -6.804
REMARK INTRA:                  -1.160
REMARK UNBOUND:                -2.253
REMARK SMILES O=C([O-])CCCCCCCCCCCCCCC(=O)[O-]
REMARK SMILES IDX 10 1 9 2 8 3 7 4 6 5 5 6 4 7 2 8 1 9 3 10 11 11 12 12 13 13
REMARK SMILES IDX 14 14 15 15 16 16 17 17 18 18 19 19 20 20
REMARK H PARENT
REMARK Flexibility Score: inf
ROOT
ATOM      1  C   UNL     1      37.040   0.715  -8.605  1.00  0.00     0.000 C 
ENDROOT
BRANCH   1   2
ATOM      2  C   UNL     1      35.963   1.745  -8.218  1.00  0.00     0.000 C 
BRANCH   2   3
ATOM      3  C   UNL     1      36.492   3.190  -8.236  1.00  0.00     0.000 C 
BRANCH   3   4
ATOM      4  C   UNL     1      38.026   3.296  -8.335  1.00  0.00     0.000 C 
BRANCH   4   5
ATOM      5  C   UNL     1      38.622   4.276  -7.308  1.00  0.00     0.000 C 
BRANCH   5   6
ATOM      6  C   UNL     1      39.788   3.654  -6.509  1.00  0.00     0.006 C 
BRANCH   6   7
ATOM      7  C   UNL     1      40.117   2.213  -6.927  1.00  0.00     0.053 C 
BRANCH   7   8
ATOM      8  C   UNL     1      40.750   1.430  -5.821  1.00  0.00     0.041 C 
ATOM      9  O   UNL     1      40.123   0.487  -5.272  1.00  0.00    -0.550 OA
ATOM     10  O   UNL     1      42.024   1.761  -5.376  1.00  0.00    -0.550 OA
ENDBRANCH   7   8
ENDBRANCH   6   7
ENDBRANCH   5   6
ENDBRANCH   4   5
ENDBRANCH   3   4
ENDBRANCH   2   3
ENDBRANCH   1   2
BRANCH   1  11
ATOM     11  C   UNL     1      37.345  -0.267  -7.455  1.00  0.00     0.000 C 
BRANCH  11  12
ATOM     12  C   UNL     1      37.184  -1.748  -7.851  1.00  0.00     0.000 C 
BRANCH  12  13
ATOM     13  C   UNL     1      35.927  -2.434  -7.287  1.00  0.00     0.000 C 
BRANCH  13  14
ATOM     14  C   UNL     1      35.950  -2.549  -5.755  1.00  0.00     0.000 C 
BRANCH  14  15
ATOM     15  C   UNL     1      34.777  -1.782  -5.133  1.00  0.00     0.000 C 
BRANCH  15  16
ATOM     16  C   UNL     1      33.604  -2.724  -4.823  1.00  0.00     0.006 C 
BRANCH  16  17
ATOM     17  C   UNL     1      34.037  -4.196  -4.790  1.00  0.00     0.053 C 
BRANCH  17  18
ATOM     18  C   UNL     1      33.023  -5.059  -4.105  1.00  0.00     0.041 C 
ATOM     19  O   UNL     1      32.474  -4.669  -3.041  1.00  0.00    -0.550 OA
ATOM     20  O   UNL     1      32.709  -6.310  -4.623  1.00  0.00    -0.550 OA
ENDBRANCH  17  18
ENDBRANCH  16  17
ENDBRANCH  15  16
ENDBRANCH  14  15
ENDBRANCH  13  14
ENDBRANCH  12  13
ENDBRANCH  11  12
ENDBRANCH   1  11
TORSDOF 15
ENDMDL
MODEL 9
REMARK VINA RESULT:    -2.994     10.819     12.730
REMARK INTER + INTRA:          -7.872
REMARK INTER:                  -5.834
REMARK INTRA:                  -2.038
REMARK UNBOUND:                -2.253
REMARK SMILES O=C([O-])CCCCCCCCCCCCCCC(=O)[O-]
REMARK SMILES IDX 10 1 9 2 8 3 7 4 6 5 5 6 4 7 2 8 1 9 3 10 11 11 12 12 13 13
REMARK SMILES IDX 14 14 15 15 16 16 17 17 18 18 19 19 20 20
REMARK H PARENT
REMARK Flexibility Score: inf
ROOT
ATOM      1  C   UNL     1      41.574   1.738   3.757  1.00  0.00     0.000 C 
ENDROOT
BRANCH   1   2
ATOM      2  C   UNL     1      42.022   2.321   5.110  1.00  0.00     0.000 C 
BRANCH   2   3
ATOM      3  C   UNL     1      41.109   3.462   5.594  1.00  0.00     0.000 C 
BRANCH   3   4
ATOM      4  C   UNL     1      39.950   2.999   6.497  1.00  0.00     0.000 C 
BRANCH   4   5
ATOM      5  C   UNL     1      38.706   3.898   6.376  1.00  0.00     0.000 C 
BRANCH   5   6
ATOM      6  C   UNL     1      38.966   5.150   5.512  1.00  0.00     0.006 C 
BRANCH   6   7
ATOM      7  C   UNL     1      37.940   5.342   4.385  1.00  0.00     0.053 C 
BRANCH   7   8
ATOM      8  C   UNL     1      37.753   6.782   4.023  1.00  0.00     0.041 C 
ATOM      9  O   UNL     1      38.600   7.641   4.384  1.00  0.00    -0.550 OA
ATOM     10  O   UNL     1      36.628   7.180   3.312  1.00  0.00    -0.550 OA
ENDBRANCH   7   8
ENDBRANCH   6   7
ENDBRANCH   5   6
ENDBRANCH   4   5
ENDBRANCH   3   4
ENDBRANCH   2   3
ENDBRANCH   1   2
BRANCH   1  11
ATOM     11  C   UNL     1      40.815   2.772   2.901  1.00  0.00     0.000 C 
BRANCH  11  12
ATOM     12  C   UNL     1      39.338   2.406   2.657  1.00  0.00     0.000 C 
BRANCH  12  13
ATOM     13  C   UNL     1      38.867   1.120   3.359  1.00  0.00     0.000 C 
BRANCH  13  14
ATOM     14  C   UNL     1      37.538   1.303   4.104  1.00  0.00     0.000 C 
BRANCH  14  15
ATOM     15  C   UNL     1      36.360   1.335   3.122  1.00  0.00     0.000 C 
BRANCH  15  16
ATOM     16  C   UNL     1      35.179   2.128   3.702  1.00  0.00     0.006 C 
BRANCH  16  17
ATOM     17  C   UNL     1      33.985   2.175   2.739  1.00  0.00     0.053 C 
BRANCH  17  18
ATOM     18  C   UNL     1      33.474   3.571   2.554  1.00  0.00     0.041 C 
ATOM     19  O   UNL     1      33.792   4.475   3.371  1.00  0.00    -0.550 OA
ATOM     20  O   UNL     1      32.619   3.866   1.500  1.00  0.00    -0.550 OA
ENDBRANCH  17  18
ENDBRANCH  16  17
ENDBRANCH  15  16
ENDBRANCH  14  15
ENDBRANCH  13  14
ENDBRANCH  12  13
ENDBRANCH  11  12
ENDBRANCH   1  11
TORSDOF 15
ENDMDL
