MODEL 1
REMARK VINA RESULT:    -3.775      0.000      0.000
REMARK INTER + INTRA:          -5.463
REMARK INTER:                  -5.320
REMARK INTRA:                  -0.143
REMARK UNBOUND:                -0.143
REMARK SMILES CC1=CCC(=C(C)C)C(=O)CC(C)=CCC1
REMARK SMILES IDX 12 1 14 2 13 3 15 4 16 5 2 6 1 7 3 8 11 10 9 11 10 12 5 13
REMARK SMILES IDX 6 14 7 15 8 16 4 17
REMARK H PARENT
REMARK Flexibility Score: 60.00
ROOT
ATOM      1  C   UNL     1      12.004 116.494  18.058  1.00  0.00    -0.070 C 
ATOM      2  C   UNL     1      11.273 117.406  17.377  1.00  0.00    -0.027 C 
ATOM      3  C   UNL     1      13.449 116.310  17.671  1.00  0.00     0.039 C 
ENDROOT
BRANCH   2   4
ATOM      4  C   UNL     1       9.788 117.614  17.531  1.00  0.00     0.032 C 
BRANCH   4   5
ATOM      5  C   UNL     1       9.518 118.643  18.635  1.00  0.00     0.034 C 
BRANCH   5   6
ATOM      6  C   UNL     1       8.368 118.241  19.535  1.00  0.00    -0.077 C 
ATOM      7  C   UNL     1       6.971 118.244  18.967  1.00  0.00     0.039 C 
ATOM      8  C   UNL     1       8.529 117.805  20.810  1.00  0.00    -0.023 CG0
ATOM      9  G   UNL     1       9.815 117.766  21.616  1.00  0.00     0.000 G0
ENDBRANCH   5   6
ENDBRANCH   4   5
ENDBRANCH   2   4
BRANCH   1  10
ATOM     10  C   UNL     1      11.449 115.666  19.200  1.00  0.00     0.111 C 
BRANCH  10  11
ATOM     11  C   UNL     1      11.677 116.327  20.538  1.00  0.00     0.163 C 
ATOM     12  O   UNL     1      12.823 116.805  20.755  1.00  0.00    -0.294 OA
BRANCH  11  13
ATOM     13  C   UNL     1      10.618 116.459  21.595  1.00  0.00    -0.002 C 
ATOM     14  C   UNL     1      10.496 115.515  22.578  1.00  0.00    -0.069 C 
ATOM     15  C   UNL     1      11.207 114.183  22.487  1.00  0.00     0.039 C 
ATOM     16  C   UNL     1       9.608 115.723  23.784  1.00  0.00     0.039 C 
BRANCH  13  17
ATOM     17  C   UNL     1       9.818 117.755  21.642  1.00  0.00     0.066 CG0
ATOM     18  G   UNL     1       8.549 117.797  20.808  1.00  0.00     0.000 G0
ENDBRANCH  13  17
ENDBRANCH  11  13
ENDBRANCH  10  11
ENDBRANCH   1  10
TORSDOF 0
ENDMDL
MODEL 2
REMARK VINA RESULT:    -3.755      5.725      8.276
REMARK INTER + INTRA:          -5.435
REMARK INTER:                  -5.560
REMARK INTRA:                   0.125
REMARK UNBOUND:                -0.143
REMARK SMILES CC1=CCC(=C(C)C)C(=O)CC(C)=CCC1
REMARK SMILES IDX 12 1 14 2 13 3 15 4 16 5 2 6 1 7 3 8 11 10 9 11 10 12 5 13
REMARK SMILES IDX 6 14 7 15 8 16 4 17
REMARK H PARENT
REMARK Flexibility Score: 60.00
ROOT
ATOM      1  C   UNL     1      13.240 109.591  21.487  1.00  0.00    -0.070 C 
ATOM      2  C   UNL     1      13.620 108.538  20.727  1.00  0.00    -0.027 C 
ATOM      3  C   UNL     1      11.820 109.625  21.993  1.00  0.00     0.039 C 
ENDROOT
BRANCH   2   4
ATOM      4  C   UNL     1      14.947 108.416  20.021  1.00  0.00     0.032 C 
BRANCH   4   5
ATOM      5  C   UNL     1      14.745 108.552  18.508  1.00  0.00     0.034 C 
BRANCH   5   6
ATOM      6  C   UNL     1      15.283 109.861  17.966  1.00  0.00    -0.077 C 
ATOM      7  C   UNL     1      16.666 109.882  17.365  1.00  0.00     0.039 C 
ATOM      8  C   UNL     1      14.560 111.009  17.924  1.00  0.00    -0.023 CG0
ATOM      9  G   UNL     1      13.181 111.253  18.512  1.00  0.00     0.000 G0
ENDBRANCH   5   6
ENDBRANCH   4   5
ENDBRANCH   2   4
BRANCH   1  10
ATOM     10  C   UNL     1      14.172 110.722  21.870  1.00  0.00     0.111 C 
BRANCH  10  11
ATOM     11  C   UNL     1      14.210 111.803  20.817  1.00  0.00     0.163 C 
ATOM     12  O   UNL     1      15.235 112.536  20.781  1.00  0.00    -0.294 OA
BRANCH  11  13
ATOM     13  C   UNL     1      13.115 112.029  19.814  1.00  0.00    -0.002 C 
ATOM     14  C   UNL     1      12.186 113.015  20.009  1.00  0.00    -0.069 C 
ATOM     15  C   UNL     1      12.045 113.715  21.343  1.00  0.00     0.039 C 
ATOM     16  C   UNL     1      11.217 113.428  18.926  1.00  0.00     0.039 C 
BRANCH  13  17
ATOM     17  C   UNL     1      13.182 111.257  18.502  1.00  0.00     0.066 CG0
ATOM     18  G   UNL     1      14.569 110.998  17.939  1.00  0.00     0.000 G0
ENDBRANCH  13  17
ENDBRANCH  11  13
ENDBRANCH  10  11
ENDBRANCH   1  10
TORSDOF 0
ENDMDL
MODEL 3
REMARK VINA RESULT:    -3.746      3.191      4.559
REMARK INTER + INTRA:          -5.421
REMARK INTER:                  -5.499
REMARK INTRA:                   0.077
REMARK UNBOUND:                -0.143
REMARK SMILES CC1=CCC(=C(C)C)C(=O)CC(C)=CCC1
REMARK SMILES IDX 12 1 14 2 13 3 15 4 16 5 2 6 1 7 3 8 11 10 9 11 10 12 5 13
REMARK SMILES IDX 6 14 7 15 8 16 4 17
REMARK H PARENT
REMARK Flexibility Score: 60.00
ROOT
ATOM      1  C   UNL     1      11.669 113.273  18.199  1.00  0.00    -0.070 C 
ATOM      2  C   UNL     1      11.594 114.623  18.210  1.00  0.00    -0.027 C 
ATOM      3  C   UNL     1      12.301 112.607  17.003  1.00  0.00     0.039 C 
ENDROOT
BRANCH   2   4
ATOM      4  C   UNL     1      10.868 115.440  19.248  1.00  0.00     0.032 C 
BRANCH   4   5
ATOM      5  C   UNL     1      11.835 115.831  20.372  1.00  0.00     0.034 C 
BRANCH   5   6
ATOM      6  C   UNL     1      11.298 115.485  21.746  1.00  0.00    -0.077 C 
ATOM      7  C   UNL     1      10.193 116.332  22.324  1.00  0.00     0.039 C 
ATOM      8  C   UNL     1      11.706 114.407  22.462  1.00  0.00    -0.023 CG0
ATOM      9  G   UNL     1      12.833 113.447  22.122  1.00  0.00     0.000 G0
ENDBRANCH   5   6
ENDBRANCH   4   5
ENDBRANCH   2   4
BRANCH   1  10
ATOM     10  C   UNL     1      11.170 112.401  19.334  1.00  0.00     0.111 C 
BRANCH  10  11
ATOM     11  C   UNL     1      12.306 111.846  20.159  1.00  0.00     0.163 C 
ATOM     12  O   UNL     1      13.194 111.191  19.549  1.00  0.00    -0.294 OA
BRANCH  11  13
ATOM     13  C   UNL     1      12.440 112.052  21.641  1.00  0.00    -0.002 C 
ATOM     14  C   UNL     1      12.372 110.988  22.499  1.00  0.00    -0.069 C 
ATOM     15  C   UNL     1      11.885 109.632  22.040  1.00  0.00     0.039 C 
ATOM     16  C   UNL     1      12.731 111.115  23.963  1.00  0.00     0.039 C 
BRANCH  13  17
ATOM     17  C   UNL     1      12.831 113.440  22.134  1.00  0.00     0.066 CG0
ATOM     18  G   UNL     1      11.692 114.396  22.438  1.00  0.00     0.000 G0
ENDBRANCH  13  17
ENDBRANCH  11  13
ENDBRANCH  10  11
ENDBRANCH   1  10
TORSDOF 0
ENDMDL
MODEL 4
REMARK VINA RESULT:    -3.612      9.337     11.413
REMARK INTER + INTRA:          -5.233
REMARK INTER:                  -5.531
REMARK INTRA:                   0.298
REMARK UNBOUND:                -0.143
REMARK SMILES CC1=CCC(=C(C)C)C(=O)CC(C)=CCC1
REMARK SMILES IDX 12 1 14 2 13 3 15 4 16 5 2 6 1 7 3 8 11 10 9 11 10 12 5 13
REMARK SMILES IDX 6 14 7 15 8 16 4 17
REMARK H PARENT
REMARK Flexibility Score: 60.00
ROOT
ATOM      1  C   UNL     1      16.808 121.563  13.360  1.00  0.00    -0.070 C 
ATOM      2  C   UNL     1      15.667 121.373  14.060  1.00  0.00    -0.027 C 
ATOM      3  C   UNL     1      17.453 120.363  12.714  1.00  0.00     0.039 C 
ENDROOT
BRANCH   2   4
ATOM      4  C   UNL     1      14.974 122.426  14.887  1.00  0.00     0.032 C 
BRANCH   4   5
ATOM      5  C   UNL     1      15.490 122.379  16.330  1.00  0.00     0.034 C 
BRANCH   5   6
ATOM      6  C   UNL     1      15.781 123.757  16.887  1.00  0.00    -0.077 C 
ATOM      7  C   UNL     1      14.631 124.588  17.399  1.00  0.00     0.039 C 
ATOM      8  C   UNL     1      17.033 124.263  17.021  1.00  0.00    -0.023 CG0
ATOM      9  G   UNL     1      18.333 123.649  16.533  1.00  0.00     0.000 G0
ENDBRANCH   5   6
ENDBRANCH   4   5
ENDBRANCH   2   4
BRANCH   1  10
ATOM     10  C   UNL     1      17.458 122.920  13.177  1.00  0.00     0.111 C 
BRANCH  10  11
ATOM     11  C   UNL     1      18.694 123.073  14.030  1.00  0.00     0.163 C 
ATOM     12  O   UNL     1      19.673 122.324  13.764  1.00  0.00    -0.294 OA
BRANCH  11  13
ATOM     13  C   UNL     1      18.820 124.071  15.145  1.00  0.00    -0.002 C 
ATOM     14  C   UNL     1      19.195 125.361  14.885  1.00  0.00    -0.069 C 
ATOM     15  C   UNL     1      19.765 125.762  13.542  1.00  0.00     0.039 C 
ATOM     16  C   UNL     1      19.110 126.448  15.932  1.00  0.00     0.039 C 
BRANCH  13  17
ATOM     17  C   UNL     1      18.345 123.652  16.532  1.00  0.00     0.066 CG0
ATOM     18  G   UNL     1      17.054 124.283  17.024  1.00  0.00     0.000 G0
ENDBRANCH  13  17
ENDBRANCH  11  13
ENDBRANCH  10  11
ENDBRANCH   1  10
TORSDOF 0
ENDMDL
MODEL 5
REMARK VINA RESULT:    -3.481      2.763      4.886
REMARK INTER + INTRA:          -5.048
REMARK INTER:                  -4.908
REMARK INTRA:                  -0.140
REMARK UNBOUND:                -0.143
REMARK SMILES CC1=CCC(=C(C)C)C(=O)CC(C)=CCC1
REMARK SMILES IDX 12 1 14 2 13 3 15 4 16 5 2 6 1 7 3 8 11 10 9 11 10 12 5 13
REMARK SMILES IDX 6 14 7 15 8 16 4 17
REMARK H PARENT
REMARK Flexibility Score: 60.00
ROOT
ATOM      1  C   UNL     1       8.519 117.922  19.004  1.00  0.00    -0.070 C 
ATOM      2  C   UNL     1       9.338 116.861  19.179  1.00  0.00    -0.027 C 
ATOM      3  C   UNL     1       7.189 117.690  18.333  1.00  0.00     0.039 C 
ENDROOT
BRANCH   2   4
ATOM      4  C   UNL     1      10.753 116.935  19.694  1.00  0.00     0.032 C 
BRANCH   4   5
ATOM      5  C   UNL     1      10.765 116.730  21.213  1.00  0.00     0.034 C 
BRANCH   5   6
ATOM      6  C   UNL     1      11.710 117.680  21.920  1.00  0.00    -0.077 C 
ATOM      7  C   UNL     1      13.195 117.452  21.792  1.00  0.00     0.039 C 
ATOM      8  C   UNL     1      11.298 118.776  22.607  1.00  0.00    -0.023 CG0
ATOM      9  G   UNL     1       9.869 119.183  22.921  1.00  0.00     0.000 G0
ENDBRANCH   5   6
ENDBRANCH   4   5
ENDBRANCH   2   4
BRANCH   1  10
ATOM     10  C   UNL     1       8.862 119.324  19.467  1.00  0.00     0.111 C 
BRANCH  10  11
ATOM     11  C   UNL     1       8.351 119.598  20.861  1.00  0.00     0.163 C 
ATOM     12  O   UNL     1       7.147 119.311  21.099  1.00  0.00    -0.294 OA
BRANCH  11  13
ATOM     13  C   UNL     1       9.199 120.164  21.964  1.00  0.00    -0.002 C 
ATOM     14  C   UNL     1       9.231 121.513  22.194  1.00  0.00    -0.069 C 
ATOM     15  C   UNL     1       8.661 122.498  21.198  1.00  0.00     0.039 C 
ATOM     16  C   UNL     1       9.879 122.100  23.427  1.00  0.00     0.039 C 
BRANCH  13  17
ATOM     17  C   UNL     1       9.867 119.184  22.922  1.00  0.00     0.066 CG0
ATOM     18  G   UNL     1      11.297 118.791  22.598  1.00  0.00     0.000 G0
ENDBRANCH  13  17
ENDBRANCH  11  13
ENDBRANCH  10  11
ENDBRANCH   1  10
TORSDOF 0
ENDMDL
MODEL 6
REMARK VINA RESULT:    -3.480      1.408      4.115
REMARK INTER + INTRA:          -5.048
REMARK INTER:                  -4.893
REMARK INTRA:                  -0.155
REMARK UNBOUND:                -0.143
REMARK SMILES CC1=CCC(=C(C)C)C(=O)CC(C)=CCC1
REMARK SMILES IDX 12 1 14 2 13 3 15 4 16 5 2 6 1 7 3 8 11 10 9 11 10 12 5 13
REMARK SMILES IDX 6 14 7 15 8 16 4 17
REMARK H PARENT
REMARK Flexibility Score: 60.00
ROOT
ATOM      1  C   UNL     1      10.675 115.588  22.523  1.00  0.00    -0.070 C 
ATOM      2  C   UNL     1       9.587 116.159  23.090  1.00  0.00    -0.027 C 
ATOM      3  C   UNL     1      11.089 114.220  23.003  1.00  0.00     0.039 C 
ENDROOT
BRANCH   2   4
ATOM      4  C   UNL     1       9.122 117.571  22.838  1.00  0.00     0.032 C 
BRANCH   4   5
ATOM      5  C   UNL     1       8.080 117.583  21.714  1.00  0.00     0.034 C 
BRANCH   5   6
ATOM      6  C   UNL     1       8.282 118.731  20.747  1.00  0.00    -0.077 C 
ATOM      7  C   UNL     1       7.918 120.125  21.192  1.00  0.00     0.039 C 
ATOM      8  C   UNL     1       8.844 118.589  19.519  1.00  0.00    -0.023 CG0
ATOM      9  G   UNL     1       9.237 117.294  18.830  1.00  0.00     0.000 G0
ENDBRANCH   5   6
ENDBRANCH   4   5
ENDBRANCH   2   4
BRANCH   1  10
ATOM     10  C   UNL     1      11.481 116.245  21.421  1.00  0.00     0.111 C 
BRANCH  10  11
ATOM     11  C   UNL     1      10.982 115.857  20.050  1.00  0.00     0.163 C 
ATOM     12  O   UNL     1      10.800 114.628  19.831  1.00  0.00    -0.294 OA
BRANCH  11  13
ATOM     13  C   UNL     1      10.676 116.846  18.963  1.00  0.00    -0.002 C 
ATOM     14  C   UNL     1      11.634 117.194  18.049  1.00  0.00    -0.069 C 
ATOM     15  C   UNL     1      13.089 116.834  18.254  1.00  0.00     0.039 C 
ATOM     16  C   UNL     1      11.307 117.998  16.812  1.00  0.00     0.039 C 
BRANCH  13  17
ATOM     17  C   UNL     1       9.231 117.302  18.802  1.00  0.00     0.066 CG0
ATOM     18  G   UNL     1       8.844 118.588  19.511  1.00  0.00     0.000 G0
ENDBRANCH  13  17
ENDBRANCH  11  13
ENDBRANCH  10  11
ENDBRANCH   1  10
TORSDOF 0
ENDMDL
MODEL 7
REMARK VINA RESULT:    -3.458      1.930      3.945
REMARK INTER + INTRA:          -5.016
REMARK INTER:                  -4.889
REMARK INTRA:                  -0.127
REMARK UNBOUND:                -0.143
REMARK SMILES CC1=CCC(=C(C)C)C(=O)CC(C)=CCC1
REMARK SMILES IDX 12 1 14 2 13 3 15 4 16 5 2 6 1 7 3 8 11 10 9 11 10 12 5 13
REMARK SMILES IDX 6 14 7 15 8 16 4 17
REMARK H PARENT
REMARK Flexibility Score: 60.00
ROOT
ATOM      1  C   UNL     1      10.670 117.430  17.951  1.00  0.00    -0.070 C 
ATOM      2  C   UNL     1      11.210 116.215  18.196  1.00  0.00    -0.027 C 
ATOM      3  C   UNL     1      10.144 117.706  16.565  1.00  0.00     0.039 C 
ENDROOT
BRANCH   2   4
ATOM      4  C   UNL     1      11.911 115.822  19.472  1.00  0.00     0.032 C 
BRANCH   4   5
ATOM      5  C   UNL     1      10.901 115.218  20.456  1.00  0.00     0.034 C 
BRANCH   5   6
ATOM      6  C   UNL     1      11.123 115.691  21.878  1.00  0.00    -0.077 C 
ATOM      7  C   UNL     1      12.334 115.192  22.625  1.00  0.00     0.039 C 
ATOM      8  C   UNL     1      10.330 116.600  22.499  1.00  0.00    -0.023 CG0
ATOM      9  G   UNL     1       9.034 117.199  21.983  1.00  0.00     0.000 G0
ENDBRANCH   5   6
ENDBRANCH   4   5
ENDBRANCH   2   4
BRANCH   1  10
ATOM     10  C   UNL     1      10.551 118.517  19.001  1.00  0.00     0.111 C 
BRANCH  10  11
ATOM     11  C   UNL     1       9.234 118.448  19.736  1.00  0.00     0.163 C 
ATOM     12  O   UNL     1       8.192 118.315  19.037  1.00  0.00    -0.294 OA
BRANCH  11  13
ATOM     13  C   UNL     1       9.108 118.506  21.231  1.00  0.00    -0.002 C 
ATOM     14  C   UNL     1       8.914 119.702  21.866  1.00  0.00    -0.069 C 
ATOM     15  C   UNL     1       9.101 121.019  21.146  1.00  0.00     0.039 C 
ATOM     16  C   UNL     1       8.553 119.782  23.332  1.00  0.00     0.039 C 
BRANCH  13  17
ATOM     17  C   UNL     1       9.021 117.186  21.989  1.00  0.00     0.066 CG0
ATOM     18  G   UNL     1      10.332 116.604  22.487  1.00  0.00     0.000 G0
ENDBRANCH  13  17
ENDBRANCH  11  13
ENDBRANCH  10  11
ENDBRANCH   1  10
TORSDOF 0
ENDMDL
MODEL 8
REMARK VINA RESULT:    -3.379      9.640     11.577
REMARK INTER + INTRA:          -4.905
REMARK INTER:                  -5.067
REMARK INTRA:                   0.162
REMARK UNBOUND:                -0.143
REMARK SMILES CC1=CCC(=C(C)C)C(=O)CC(C)=CCC1
REMARK SMILES IDX 12 1 14 2 13 3 15 4 16 5 2 6 1 7 3 8 11 10 9 11 10 12 5 13
REMARK SMILES IDX 6 14 7 15 8 16 4 17
REMARK H PARENT
REMARK Flexibility Score: 60.00
ROOT
ATOM      1  C   UNL     1      15.262 122.662  14.727  1.00  0.00    -0.070 C 
ATOM      2  C   UNL     1      15.400 121.637  13.854  1.00  0.00    -0.027 C 
ATOM      3  C   UNL     1      14.528 123.895  14.263  1.00  0.00     0.039 C 
ENDROOT
BRANCH   2   4
ATOM      4  C   UNL     1      16.224 120.399  14.099  1.00  0.00     0.032 C 
BRANCH   4   5
ATOM      5  C   UNL     1      17.447 120.397  13.174  1.00  0.00     0.034 C 
BRANCH   5   6
ATOM      6  C   UNL     1      18.747 120.577  13.931  1.00  0.00    -0.077 C 
ATOM      7  C   UNL     1      19.541 119.350  14.307  1.00  0.00     0.039 C 
ATOM      8  C   UNL     1      19.280 121.788  14.231  1.00  0.00    -0.023 CG0
ATOM      9  G   UNL     1      18.651 123.152  14.011  1.00  0.00     0.000 G0
ENDBRANCH   5   6
ENDBRANCH   4   5
ENDBRANCH   2   4
BRANCH   1  10
ATOM     10  C   UNL     1      15.788 122.624  16.147  1.00  0.00     0.111 C 
BRANCH  10  11
ATOM     11  C   UNL     1      17.273 122.889  16.205  1.00  0.00     0.163 C 
ATOM     12  O   UNL     1      17.928 122.295  17.104  1.00  0.00    -0.294 OA
BRANCH  11  13
ATOM     13  C   UNL     1      17.998 123.790  15.248  1.00  0.00    -0.002 C 
ATOM     14  C   UNL     1      18.199 125.109  15.551  1.00  0.00    -0.069 C 
ATOM     15  C   UNL     1      17.472 125.776  16.698  1.00  0.00     0.039 C 
ATOM     16  C   UNL     1      19.117 125.989  14.734  1.00  0.00     0.039 C 
BRANCH  13  17
ATOM     17  C   UNL     1      18.654 123.153  14.028  1.00  0.00     0.066 CG0
ATOM     18  G   UNL     1      19.291 121.790  14.237  1.00  0.00     0.000 G0
ENDBRANCH  13  17
ENDBRANCH  11  13
ENDBRANCH  10  11
ENDBRANCH   1  10
TORSDOF 0
ENDMDL
MODEL 9
REMARK VINA RESULT:    -3.303      2.074      3.903
REMARK INTER + INTRA:          -4.798
REMARK INTER:                  -5.142
REMARK INTRA:                   0.344
REMARK UNBOUND:                -0.143
REMARK SMILES CC1=CCC(=C(C)C)C(=O)CC(C)=CCC1
REMARK SMILES IDX 12 1 14 2 13 3 15 4 16 5 2 6 1 7 3 8 11 10 9 11 10 12 5 13
REMARK SMILES IDX 6 14 7 15 8 16 4 17
REMARK H PARENT
REMARK Flexibility Score: 60.00
ROOT
ATOM      1  C   UNL     1       8.147 118.089  18.428  1.00  0.00    -0.070 C 
ATOM      2  C   UNL     1       9.206 117.635  17.720  1.00  0.00    -0.027 C 
ATOM      3  C   UNL     1       6.781 117.548  18.090  1.00  0.00     0.039 C 
ENDROOT
BRANCH   2   4
ATOM      4  C   UNL     1      10.611 118.172  17.824  1.00  0.00     0.032 C 
BRANCH   4   5
ATOM      5  C   UNL     1      11.587 117.024  18.109  1.00  0.00     0.034 C 
BRANCH   5   6
ATOM      6  C   UNL     1      11.121 116.134  19.244  1.00  0.00    -0.077 C 
ATOM      7  C   UNL     1      10.864 114.676  18.960  1.00  0.00     0.039 C 
ATOM      8  C   UNL     1      10.990 116.560  20.526  1.00  0.00    -0.023 CG0
ATOM      9  G   UNL     1      11.134 117.979  21.046  1.00  0.00     0.000 G0
ENDBRANCH   5   6
ENDBRANCH   4   5
ENDBRANCH   2   4
BRANCH   1  10
ATOM     10  C   UNL     1       8.268 119.097  19.554  1.00  0.00     0.111 C 
BRANCH  10  11
ATOM     11  C   UNL     1       8.586 118.434  20.872  1.00  0.00     0.163 C 
ATOM     12  O   UNL     1       7.715 117.657  21.350  1.00  0.00    -0.294 OA
BRANCH  11  13
ATOM     13  C   UNL     1       9.875 118.633  21.617  1.00  0.00    -0.002 C 
ATOM     14  C   UNL     1       9.882 119.237  22.845  1.00  0.00    -0.069 C 
ATOM     15  C   UNL     1       8.669 119.973  23.370  1.00  0.00     0.039 C 
ATOM     16  C   UNL     1      11.111 119.249  23.725  1.00  0.00     0.039 C 
BRANCH  13  17
ATOM     17  C   UNL     1      11.132 117.984  21.049  1.00  0.00     0.066 CG0
ATOM     18  G   UNL     1      10.985 116.565  20.531  1.00  0.00     0.000 G0
ENDBRANCH  13  17
ENDBRANCH  11  13
ENDBRANCH  10  11
ENDBRANCH   1  10
TORSDOF 0
ENDMDL
