MODEL 1
REMARK VINA RESULT:    -4.845      0.000      0.000
REMARK INTER + INTRA:          -6.130
REMARK INTER:                  -5.836
REMARK INTRA:                  -0.294
REMARK UNBOUND:                -0.294
REMARK SMILES NC(=O)C[C@@H]([NH3+])C(=O)[O-]
REMARK SMILES IDX 4 1 5 2 6 3 7 7 8 8 9 9 2 10 3 11 1 12
REMARK H PARENT 6 4 6 5 6 6 1 13 1 14
REMARK Flexibility Score: inf
ROOT
ATOM      1  C   UNL     1      36.284  25.803  35.336  1.00  0.00     0.171 C 
ENDROOT
BRANCH   1   2
ATOM      2  C   UNL     1      37.529  26.659  35.031  1.00  0.00     0.237 C 
BRANCH   2   3
ATOM      3  N   UNL     1      37.295  27.566  33.900  1.00  0.00    -0.350 N 
ATOM      4  H   UNL     1      36.279  27.590  33.647  1.00  0.00     0.345 HD
ATOM      5  H   UNL     1      37.608  28.533  34.149  1.00  0.00     0.345 HD
ATOM      6  H   UNL     1      37.848  27.256  33.070  1.00  0.00     0.345 HD
ENDBRANCH   2   3
BRANCH   2   7
ATOM      7  C   UNL     1      37.912  27.447  36.255  1.00  0.00     0.100 C 
ATOM      8  O   UNL     1      39.124  27.684  36.501  1.00  0.00    -0.544 OA
ATOM      9  O   UNL     1      36.933  27.904  37.129  1.00  0.00    -0.544 OA
ENDBRANCH   2   7
ENDBRANCH   1   2
BRANCH   1  10
ATOM     10  C   UNL     1      35.556  25.416  34.081  1.00  0.00     0.223 C 
ATOM     11  O   UNL     1      36.178  24.839  33.150  1.00  0.00    -0.275 OA
ATOM     12  N   UNL     1      34.171  25.726  33.921  1.00  0.00    -0.369 N 
ATOM     13  H   UNL     1      33.645  26.224  34.672  1.00  0.00     0.159 HD
ATOM     14  H   UNL     1      33.672  25.465  33.042  1.00  0.00     0.159 HD
ENDBRANCH   1  10
TORSDOF 4
ENDMDL
MODEL 2
REMARK VINA RESULT:    -4.649      1.300      1.300
REMARK INTER + INTRA:          -5.895
REMARK INTER:                  -5.665
REMARK INTRA:                  -0.230
REMARK UNBOUND:                -0.294
REMARK SMILES NC(=O)C[C@@H]([NH3+])C(=O)[O-]
REMARK SMILES IDX 4 1 5 2 6 3 7 7 8 8 9 9 2 10 3 11 1 12
REMARK H PARENT 6 4 6 5 6 6 1 13 1 14
REMARK Flexibility Score: inf
ROOT
ATOM      1  C   UNL     1      36.501  25.656  34.877  1.00  0.00     0.171 C 
ENDROOT
BRANCH   1   2
ATOM      2  C   UNL     1      37.579  26.757  34.877  1.00  0.00     0.237 C 
BRANCH   2   3
ATOM      3  N   UNL     1      37.308  27.776  33.855  1.00  0.00    -0.350 N 
ATOM      4  H   UNL     1      37.671  28.711  34.156  1.00  0.00     0.345 HD
ATOM      5  H   UNL     1      37.765  27.506  32.953  1.00  0.00     0.345 HD
ATOM      6  H   UNL     1      36.280  27.847  33.682  1.00  0.00     0.345 HD
ENDBRANCH   2   3
BRANCH   2   7
ATOM      7  C   UNL     1      37.647  27.398  36.239  1.00  0.00     0.100 C 
ATOM      8  O   UNL     1      38.737  27.861  36.667  1.00  0.00    -0.544 OA
ATOM      9  O   UNL     1      36.511  27.467  37.037  1.00  0.00    -0.544 OA
ENDBRANCH   2   7
ENDBRANCH   1   2
BRANCH   1  10
ATOM     10  C   UNL     1      36.173  25.201  33.484  1.00  0.00     0.223 C 
ATOM     11  O   UNL     1      35.068  25.516  32.967  1.00  0.00    -0.275 OA
ATOM     12  N   UNL     1      37.089  24.387  32.752  1.00  0.00    -0.369 N 
ATOM     13  H   UNL     1      38.000  24.097  33.173  1.00  0.00     0.159 HD
ATOM     14  H   UNL     1      36.853  24.064  31.788  1.00  0.00     0.159 HD
ENDBRANCH   1  10
TORSDOF 4
ENDMDL
MODEL 3
REMARK VINA RESULT:    -4.648      2.228      3.050
REMARK INTER + INTRA:          -5.893
REMARK INTER:                  -5.467
REMARK INTRA:                  -0.426
REMARK UNBOUND:                -0.294
REMARK SMILES NC(=O)C[C@@H]([NH3+])C(=O)[O-]
REMARK SMILES IDX 4 1 5 2 6 3 7 7 8 8 9 9 2 10 3 11 1 12
REMARK H PARENT 6 4 6 5 6 6 1 13 1 14
REMARK Flexibility Score: inf
ROOT
ATOM      1  C   UNL     1      38.920  25.994  34.047  1.00  0.00     0.171 C 
ENDROOT
BRANCH   1   2
ATOM      2  C   UNL     1      37.770  26.884  34.559  1.00  0.00     0.237 C 
BRANCH   2   3
ATOM      3  N   UNL     1      37.248  27.752  33.495  1.00  0.00    -0.350 N 
ATOM      4  H   UNL     1      37.621  27.460  32.561  1.00  0.00     0.345 HD
ATOM      5  H   UNL     1      36.203  27.702  33.477  1.00  0.00     0.345 HD
ATOM      6  H   UNL     1      37.518  28.744  33.677  1.00  0.00     0.345 HD
ENDBRANCH   2   3
BRANCH   2   7
ATOM      7  C   UNL     1      36.667  26.018  35.107  1.00  0.00     0.100 C 
ATOM      8  O   UNL     1      36.502  25.917  36.351  1.00  0.00    -0.544 OA
ATOM      9  O   UNL     1      35.835  25.314  34.245  1.00  0.00    -0.544 OA
ENDBRANCH   2   7
ENDBRANCH   1   2
BRANCH   1  10
ATOM     10  C   UNL     1      38.689  25.547  32.633  1.00  0.00     0.223 C 
ATOM     11  O   UNL     1      39.125  26.244  31.678  1.00  0.00    -0.275 OA
ATOM     12  N   UNL     1      37.950  24.356  32.360  1.00  0.00    -0.369 N 
ATOM     13  H   UNL     1      37.562  23.778  33.138  1.00  0.00     0.159 HD
ATOM     14  H   UNL     1      37.783  24.055  31.375  1.00  0.00     0.159 HD
ENDBRANCH   1  10
TORSDOF 4
ENDMDL
MODEL 4
REMARK VINA RESULT:    -4.573      1.578      2.043
REMARK INTER + INTRA:          -5.803
REMARK INTER:                  -5.668
REMARK INTRA:                  -0.135
REMARK UNBOUND:                -0.294
REMARK SMILES NC(=O)C[C@@H]([NH3+])C(=O)[O-]
REMARK SMILES IDX 4 1 5 2 6 3 7 7 8 8 9 9 2 10 3 11 1 12
REMARK H PARENT 6 4 6 5 6 6 1 13 1 14
REMARK Flexibility Score: inf
ROOT
ATOM      1  C   UNL     1      36.801  26.036  35.639  1.00  0.00     0.171 C 
ENDROOT
BRANCH   1   2
ATOM      2  C   UNL     1      36.725  27.392  36.370  1.00  0.00     0.237 C 
BRANCH   2   3
ATOM      3  N   UNL     1      35.735  27.363  37.454  1.00  0.00    -0.350 N 
ATOM      4  H   UNL     1      36.061  26.751  38.239  1.00  0.00     0.345 HD
ATOM      5  H   UNL     1      35.578  28.332  37.818  1.00  0.00     0.345 HD
ATOM      6  H   UNL     1      34.821  27.004  37.097  1.00  0.00     0.345 HD
ENDBRANCH   2   3
BRANCH   2   7
ATOM      7  C   UNL     1      38.082  27.745  36.919  1.00  0.00     0.100 C 
ATOM      8  O   UNL     1      39.124  27.356  36.330  1.00  0.00    -0.544 OA
ATOM      9  O   UNL     1      38.193  28.490  38.088  1.00  0.00    -0.544 OA
ENDBRANCH   2   7
ENDBRANCH   1   2
BRANCH   1  10
ATOM     10  C   UNL     1      36.864  26.212  34.149  1.00  0.00     0.223 C 
ATOM     11  O   UNL     1      36.569  25.249  33.393  1.00  0.00    -0.275 OA
ATOM     12  N   UNL     1      37.288  27.452  33.583  1.00  0.00    -0.369 N 
ATOM     13  H   UNL     1      37.559  28.254  34.194  1.00  0.00     0.159 HD
ATOM     14  H   UNL     1      37.341  27.566  32.547  1.00  0.00     0.159 HD
ENDBRANCH   1  10
TORSDOF 4
ENDMDL
MODEL 5
REMARK VINA RESULT:    -4.505      1.929      3.716
REMARK INTER + INTRA:          -5.721
REMARK INTER:                  -5.465
REMARK INTRA:                  -0.256
REMARK UNBOUND:                -0.294
REMARK SMILES NC(=O)C[C@@H]([NH3+])C(=O)[O-]
REMARK SMILES IDX 4 1 5 2 6 3 7 7 8 8 9 9 2 10 3 11 1 12
REMARK H PARENT 6 4 6 5 6 6 1 13 1 14
REMARK Flexibility Score: inf
ROOT
ATOM      1  C   UNL     1      36.896  26.297  35.752  1.00  0.00     0.171 C 
ENDROOT
BRANCH   1   2
ATOM      2  C   UNL     1      37.647  26.636  34.450  1.00  0.00     0.237 C 
BRANCH   2   3
ATOM      3  N   UNL     1      39.101  26.518  34.621  1.00  0.00    -0.350 N 
ATOM      4  H   UNL     1      39.463  27.271  35.251  1.00  0.00     0.345 HD
ATOM      5  H   UNL     1      39.336  25.585  35.032  1.00  0.00     0.345 HD
ATOM      6  H   UNL     1      39.578  26.588  33.694  1.00  0.00     0.345 HD
ENDBRANCH   2   3
BRANCH   2   7
ATOM      7  C   UNL     1      37.181  25.724  33.346  1.00  0.00     0.100 C 
ATOM      8  O   UNL     1      38.014  25.226  32.543  1.00  0.00    -0.544 OA
ATOM      9  O   UNL     1      35.829  25.439  33.196  1.00  0.00    -0.544 OA
ENDBRANCH   2   7
ENDBRANCH   1   2
BRANCH   1  10
ATOM     10  C   UNL     1      36.942  27.434  36.732  1.00  0.00     0.223 C 
ATOM     11  O   UNL     1      38.008  28.089  36.879  1.00  0.00    -0.275 OA
ATOM     12  N   UNL     1      35.798  27.758  37.522  1.00  0.00    -0.369 N 
ATOM     13  H   UNL     1      34.913  27.211  37.429  1.00  0.00     0.159 HD
ATOM     14  H   UNL     1      35.838  28.542  38.209  1.00  0.00     0.159 HD
ENDBRANCH   1  10
TORSDOF 4
ENDMDL
MODEL 6
REMARK VINA RESULT:    -4.328     19.731     20.892
REMARK INTER + INTRA:          -5.508
REMARK INTER:                  -5.145
REMARK INTRA:                  -0.363
REMARK UNBOUND:                -0.294
REMARK SMILES NC(=O)C[C@@H]([NH3+])C(=O)[O-]
REMARK SMILES IDX 4 1 5 2 6 3 7 7 8 8 9 9 2 10 3 11 1 12
REMARK H PARENT 6 4 6 5 6 6 1 13 1 14
REMARK Flexibility Score: inf
ROOT
ATOM      1  C   UNL     1      20.383  12.959  36.339  1.00  0.00     0.171 C 
ENDROOT
BRANCH   1   2
ATOM      2  C   UNL     1      21.134  12.119  37.392  1.00  0.00     0.237 C 
BRANCH   2   3
ATOM      3  N   UNL     1      22.590  12.257  37.251  1.00  0.00    -0.350 N 
ATOM      4  H   UNL     1      22.962  11.575  36.549  1.00  0.00     0.345 HD
ATOM      5  H   UNL     1      22.827  13.229  36.944  1.00  0.00     0.345 HD
ATOM      6  H   UNL     1      23.056  12.091  38.171  1.00  0.00     0.345 HD
ENDBRANCH   2   3
BRANCH   2   7
ATOM      7  C   UNL     1      20.707  12.541  38.773  1.00  0.00     0.100 C 
ATOM      8  O   UNL     1      21.054  11.864  39.777  1.00  0.00    -0.544 OA
ATOM      9  O   UNL     1      19.913  13.668  38.947  1.00  0.00    -0.544 OA
ENDBRANCH   2   7
ENDBRANCH   1   2
BRANCH   1  10
ATOM     10  C   UNL     1      21.294  13.941  35.661  1.00  0.00     0.223 C 
ATOM     11  O   UNL     1      21.779  14.901  36.318  1.00  0.00    -0.275 OA
ATOM     12  N   UNL     1      21.588  13.816  34.269  1.00  0.00    -0.369 N 
ATOM     13  H   UNL     1      21.177  13.040  33.704  1.00  0.00     0.159 HD
ATOM     14  H   UNL     1      22.213  14.507  33.799  1.00  0.00     0.159 HD
ENDBRANCH   1  10
TORSDOF 4
ENDMDL
MODEL 7
REMARK VINA RESULT:    -4.321     16.245     17.180
REMARK INTER + INTRA:          -5.499
REMARK INTER:                  -5.238
REMARK INTRA:                  -0.261
REMARK UNBOUND:                -0.294
REMARK SMILES NC(=O)C[C@@H]([NH3+])C(=O)[O-]
REMARK SMILES IDX 4 1 5 2 6 3 7 7 8 8 9 9 2 10 3 11 1 12
REMARK H PARENT 6 4 6 5 6 6 1 13 1 14
REMARK Flexibility Score: inf
ROOT
ATOM      1  C   UNL     1      20.827  29.302  40.438  1.00  0.00     0.171 C 
ENDROOT
BRANCH   1   2
ATOM      2  C   UNL     1      21.800  28.126  40.222  1.00  0.00     0.237 C 
BRANCH   2   3
ATOM      3  N   UNL     1      21.491  27.000  41.113  1.00  0.00    -0.350 N 
ATOM      4  H   UNL     1      22.133  26.994  41.940  1.00  0.00     0.345 HD
ATOM      5  H   UNL     1      20.502  27.073  41.448  1.00  0.00     0.345 HD
ATOM      6  H   UNL     1      21.587  26.097  40.597  1.00  0.00     0.345 HD
ENDBRANCH   2   3
BRANCH   2   7
ATOM      7  C   UNL     1      21.740  27.678  38.785  1.00  0.00     0.100 C 
ATOM      8  O   UNL     1      21.879  28.515  37.855  1.00  0.00    -0.544 OA
ATOM      9  O   UNL     1      21.513  26.342  38.477  1.00  0.00    -0.544 OA
ENDBRANCH   2   7
ENDBRANCH   1   2
BRANCH   1  10
ATOM     10  C   UNL     1      19.486  28.830  40.923  1.00  0.00     0.223 C 
ATOM     11  O   UNL     1      18.875  27.928  40.291  1.00  0.00    -0.275 OA
ATOM     12  N   UNL     1      18.883  29.420  42.075  1.00  0.00    -0.369 N 
ATOM     13  H   UNL     1      19.365  30.185  42.597  1.00  0.00     0.159 HD
ATOM     14  H   UNL     1      17.947  29.097  42.402  1.00  0.00     0.159 HD
ENDBRANCH   1  10
TORSDOF 4
ENDMDL
