MODEL 1
REMARK VINA RESULT:    -3.989      0.000      0.000
REMARK INTER + INTRA:          -4.320
REMARK INTER:                  -4.222
REMARK INTRA:                  -0.097
REMARK UNBOUND:                -0.097
REMARK SMILES C=C(C)[C@H]1CC=C(C)C(=O)C1
REMARK SMILES IDX 8 1 7 2 6 3 5 4 4 5 11 6 9 7 10 8 2 9 1 10 3 11
REMARK H PARENT
REMARK Flexibility Score: inf
ROOT
ATOM      1  C   UNL     1      -8.916  -5.956   0.125  1.00  0.00     0.048 C 
ATOM      2  C   UNL     1      -8.518  -5.999  -1.325  1.00  0.00    -0.012 C 
ATOM      3  C   UNL     1      -9.123  -6.863  -2.159  1.00  0.00    -0.019 C 
ATOM      4  C   UNL     1      -8.750  -6.959  -3.614  1.00  0.00     0.036 C 
ATOM      5  C   UNL     1      -8.310  -5.591  -4.167  1.00  0.00     0.025 C 
ATOM      6  C   UNL     1      -7.169  -5.011  -3.311  1.00  0.00     0.089 C 
ATOM      7  C   UNL     1      -7.549  -5.008  -1.856  1.00  0.00     0.158 C 
ATOM      8  O   UNL     1      -7.007  -4.174  -1.082  1.00  0.00    -0.295 OA
ENDROOT
BRANCH   5   9
ATOM      9  C   UNL     1      -7.912  -5.685  -5.634  1.00  0.00    -0.077 C 
ATOM     10  C   UNL     1      -7.154  -6.708  -6.061  1.00  0.00     0.008 C 
ATOM     11  C   UNL     1      -8.352  -4.647  -6.636  1.00  0.00     0.039 C 
ENDBRANCH   5   9
TORSDOF 1
ENDMDL
MODEL 2
REMARK VINA RESULT:    -3.727     22.054     23.357
REMARK INTER + INTRA:          -4.042
REMARK INTER:                  -3.944
REMARK INTRA:                  -0.098
REMARK UNBOUND:                -0.097
REMARK SMILES C=C(C)[C@H]1CC=C(C)C(=O)C1
REMARK SMILES IDX 8 1 7 2 6 3 5 4 4 5 11 6 9 7 10 8 2 9 1 10 3 11
REMARK H PARENT
REMARK Flexibility Score: inf
ROOT
ATOM      1  C   UNL     1       3.240 -19.918 -18.404  1.00  0.00     0.048 C 
ATOM      2  C   UNL     1       1.837 -20.299 -18.789  1.00  0.00    -0.012 C 
ATOM      3  C   UNL     1       1.273 -21.399 -18.259  1.00  0.00    -0.019 C 
ATOM      4  C   UNL     1      -0.121 -21.834 -18.624  1.00  0.00     0.036 C 
ATOM      5  C   UNL     1      -1.021 -20.622 -18.928  1.00  0.00     0.025 C 
ATOM      6  C   UNL     1      -0.382 -19.742 -20.017  1.00  0.00     0.089 C 
ATOM      7  C   UNL     1       1.037 -19.396 -19.654  1.00  0.00     0.158 C 
ATOM      8  O   UNL     1       1.552 -18.347 -20.123  1.00  0.00    -0.295 OA
ENDROOT
BRANCH   5   9
ATOM      9  C   UNL     1      -2.427 -21.055 -19.317  1.00  0.00    -0.077 C 
ATOM     10  C   UNL     1      -2.606 -22.124 -20.110  1.00  0.00     0.008 C 
ATOM     11  C   UNL     1      -3.644 -20.308 -18.831  1.00  0.00     0.039 C 
ENDBRANCH   5   9
TORSDOF 1
ENDMDL
MODEL 3
REMARK VINA RESULT:    -3.646      1.361      2.244
REMARK INTER + INTRA:          -3.956
REMARK INTER:                  -3.860
REMARK INTRA:                  -0.096
REMARK UNBOUND:                -0.097
REMARK SMILES C=C(C)[C@H]1CC=C(C)C(=O)C1
REMARK SMILES IDX 8 1 7 2 6 3 5 4 4 5 11 6 9 7 10 8 2 9 1 10 3 11
REMARK H PARENT
REMARK Flexibility Score: inf
ROOT
ATOM      1  C   UNL     1      -7.634  -4.638   0.121  1.00  0.00     0.048 C 
ATOM      2  C   UNL     1      -7.864  -4.903  -1.342  1.00  0.00    -0.012 C 
ATOM      3  C   UNL     1      -7.292  -4.108  -2.263  1.00  0.00    -0.019 C 
ATOM      4  C   UNL     1      -7.505  -4.318  -3.739  1.00  0.00     0.036 C 
ATOM      5  C   UNL     1      -7.684  -5.812  -4.067  1.00  0.00     0.025 C 
ATOM      6  C   UNL     1      -8.824  -6.412  -3.224  1.00  0.00     0.089 C 
ATOM      7  C   UNL     1      -8.618  -6.109  -1.765  1.00  0.00     0.158 C 
ATOM      8  O   UNL     1      -9.125  -6.875  -0.902  1.00  0.00    -0.295 OA
ENDROOT
BRANCH   5   9
ATOM      9  C   UNL     1      -7.919  -6.031  -5.555  1.00  0.00    -0.077 C 
ATOM     10  C   UNL     1      -9.046  -5.581  -6.132  1.00  0.00     0.008 C 
ATOM     11  C   UNL     1      -6.908  -6.750  -6.414  1.00  0.00     0.039 C 
ENDBRANCH   5   9
TORSDOF 1
ENDMDL
MODEL 4
REMARK VINA RESULT:    -3.497      1.974      4.629
REMARK INTER + INTRA:          -3.798
REMARK INTER:                  -3.704
REMARK INTRA:                  -0.094
REMARK UNBOUND:                -0.097
REMARK SMILES C=C(C)[C@H]1CC=C(C)C(=O)C1
REMARK SMILES IDX 8 1 7 2 6 3 5 4 4 5 11 6 9 7 10 8 2 9 1 10 3 11
REMARK H PARENT
REMARK Flexibility Score: inf
ROOT
ATOM      1  C   UNL     1      -8.373  -3.788  -7.980  1.00  0.00     0.048 C 
ATOM      2  C   UNL     1      -8.397  -4.132  -6.516  1.00  0.00    -0.012 C 
ATOM      3  C   UNL     1      -8.525  -5.414  -6.132  1.00  0.00    -0.019 C 
ATOM      4  C   UNL     1      -8.573  -5.810  -4.680  1.00  0.00     0.036 C 
ATOM      5  C   UNL     1      -7.711  -4.868  -3.819  1.00  0.00     0.025 C 
ATOM      6  C   UNL     1      -8.137  -3.404  -4.037  1.00  0.00     0.089 C 
ATOM      7  C   UNL     1      -8.156  -3.072  -5.504  1.00  0.00     0.158 C 
ATOM      8  O   UNL     1      -8.000  -1.875  -5.865  1.00  0.00    -0.295 OA
ENDROOT
BRANCH   5   9
ATOM      9  C   UNL     1      -7.770  -5.250  -2.346  1.00  0.00    -0.077 C 
ATOM     10  C   UNL     1      -6.938  -4.667  -1.467  1.00  0.00     0.008 C 
ATOM     11  C   UNL     1      -8.750  -6.277  -1.838  1.00  0.00     0.039 C 
ENDBRANCH   5   9
TORSDOF 1
ENDMDL
MODEL 5
REMARK VINA RESULT:    -3.484      2.113      4.835
REMARK INTER + INTRA:          -3.784
REMARK INTER:                  -3.687
REMARK INTRA:                  -0.098
REMARK UNBOUND:                -0.097
REMARK SMILES C=C(C)[C@H]1CC=C(C)C(=O)C1
REMARK SMILES IDX 8 1 7 2 6 3 5 4 4 5 11 6 9 7 10 8 2 9 1 10 3 11
REMARK H PARENT
REMARK Flexibility Score: inf
ROOT
ATOM      1  C   UNL     1      -8.650  -4.103  -7.711  1.00  0.00     0.048 C 
ATOM      2  C   UNL     1      -8.271  -4.354  -6.276  1.00  0.00    -0.012 C 
ATOM      3  C   UNL     1      -8.360  -3.358  -5.378  1.00  0.00    -0.019 C 
ATOM      4  C   UNL     1      -7.977  -3.550  -3.935  1.00  0.00     0.036 C 
ATOM      5  C   UNL     1      -8.271  -4.987  -3.468  1.00  0.00     0.025 C 
ATOM      6  C   UNL     1      -7.577  -6.002  -4.395  1.00  0.00     0.089 C 
ATOM      7  C   UNL     1      -7.920  -5.726  -5.833  1.00  0.00     0.158 C 
ATOM      8  O   UNL     1      -7.871  -6.669  -6.668  1.00  0.00    -0.295 OA
ENDROOT
BRANCH   5   9
ATOM      9  C   UNL     1      -7.868  -5.195  -2.015  1.00  0.00    -0.077 C 
ATOM     10  C   UNL     1      -6.799  -4.553  -1.515  1.00  0.00     0.008 C 
ATOM     11  C   UNL     1      -8.646  -6.114  -1.106  1.00  0.00     0.039 C 
ENDBRANCH   5   9
TORSDOF 1
ENDMDL
MODEL 6
REMARK VINA RESULT:    -3.401     23.070     24.193
REMARK INTER + INTRA:          -3.697
REMARK INTER:                  -3.607
REMARK INTRA:                  -0.090
REMARK UNBOUND:                -0.097
REMARK SMILES C=C(C)[C@H]1CC=C(C)C(=O)C1
REMARK SMILES IDX 8 1 7 2 6 3 5 4 4 5 11 6 9 7 10 8 2 9 1 10 3 11
REMARK H PARENT
REMARK Flexibility Score: inf
ROOT
ATOM      1  C   UNL     1       4.267 -19.398 -20.125  1.00  0.00     0.048 C 
ATOM      2  C   UNL     1       2.865 -19.805 -19.762  1.00  0.00    -0.012 C 
ATOM      3  C   UNL     1       1.925 -18.864 -19.564  1.00  0.00    -0.019 C 
ATOM      4  C   UNL     1       0.512 -19.216 -19.182  1.00  0.00     0.036 C 
ATOM      5  C   UNL     1       0.087 -20.558 -19.805  1.00  0.00     0.025 C 
ATOM      6  C   UNL     1       1.086 -21.666 -19.423  1.00  0.00     0.089 C 
ATOM      7  C   UNL     1       2.493 -21.242 -19.745  1.00  0.00     0.158 C 
ATOM      8  O   UNL     1       3.365 -22.125 -19.966  1.00  0.00    -0.295 OA
ENDROOT
BRANCH   5   9
ATOM      9  C   UNL     1      -1.335 -20.932 -19.407  1.00  0.00    -0.077 C 
ATOM     10  C   UNL     1      -2.378 -20.306 -19.976  1.00  0.00     0.008 C 
ATOM     11  C   UNL     1      -1.609 -22.000 -18.378  1.00  0.00     0.039 C 
ENDBRANCH   5   9
TORSDOF 1
ENDMDL
MODEL 7
REMARK VINA RESULT:    -3.396     23.046     23.619
REMARK INTER + INTRA:          -3.692
REMARK INTER:                  -3.604
REMARK INTRA:                  -0.087
REMARK UNBOUND:                -0.097
REMARK SMILES C=C(C)[C@H]1CC=C(C)C(=O)C1
REMARK SMILES IDX 8 1 7 2 6 3 5 4 4 5 11 6 9 7 10 8 2 9 1 10 3 11
REMARK H PARENT
REMARK Flexibility Score: inf
ROOT
ATOM      1  C   UNL     1      -2.788 -22.125 -18.500  1.00  0.00     0.048 C 
ATOM      2  C   UNL     1      -1.407 -21.535 -18.591  1.00  0.00    -0.012 C 
ATOM      3  C   UNL     1      -0.385 -22.122 -17.944  1.00  0.00    -0.019 C 
ATOM      4  C   UNL     1       1.012 -21.563 -17.987  1.00  0.00     0.036 C 
ATOM      5  C   UNL     1       1.295 -20.877 -19.336  1.00  0.00     0.025 C 
ATOM      6  C   UNL     1       0.229 -19.803 -19.623  1.00  0.00     0.089 C 
ATOM      7  C   UNL     1      -1.154 -20.381 -19.490  1.00  0.00     0.158 C 
ATOM      8  O   UNL     1      -2.104 -19.851 -20.125  1.00  0.00    -0.295 OA
ENDROOT
BRANCH   5   9
ATOM      9  C   UNL     1       2.699 -20.291 -19.380  1.00  0.00    -0.077 C 
ATOM     10  C   UNL     1       3.697 -20.980 -19.959  1.00  0.00     0.008 C 
ATOM     11  C   UNL     1       3.008 -18.940 -18.785  1.00  0.00     0.039 C 
ENDBRANCH   5   9
TORSDOF 1
ENDMDL
MODEL 8
REMARK VINA RESULT:    -3.361      1.646      4.339
REMARK INTER + INTRA:          -3.655
REMARK INTER:                  -3.556
REMARK INTRA:                  -0.099
REMARK UNBOUND:                -0.097
REMARK SMILES C=C(C)[C@H]1CC=C(C)C(=O)C1
REMARK SMILES IDX 8 1 7 2 6 3 5 4 4 5 11 6 9 7 10 8 2 9 1 10 3 11
REMARK H PARENT
REMARK Flexibility Score: inf
ROOT
ATOM      1  C   UNL     1      -8.021  -5.226  -6.697  1.00  0.00     0.048 C 
ATOM      2  C   UNL     1      -8.239  -5.272  -5.209  1.00  0.00    -0.012 C 
ATOM      3  C   UNL     1      -8.464  -6.451  -4.602  1.00  0.00    -0.019 C 
ATOM      4  C   UNL     1      -8.706  -6.551  -3.120  1.00  0.00     0.036 C 
ATOM      5  C   UNL     1      -7.922  -5.469  -2.355  1.00  0.00     0.025 C 
ATOM      6  C   UNL     1      -8.260  -4.072  -2.907  1.00  0.00     0.089 C 
ATOM      7  C   UNL     1      -8.085  -4.037  -4.400  1.00  0.00     0.158 C 
ATOM      8  O   UNL     1      -7.839  -2.937  -4.964  1.00  0.00    -0.295 OA
ENDROOT
BRANCH   5   9
ATOM      9  C   UNL     1      -8.177  -5.551  -0.856  1.00  0.00    -0.077 C 
ATOM     10  C   UNL     1      -9.124  -6.376  -0.379  1.00  0.00     0.008 C 
ATOM     11  C   UNL     1      -7.386  -4.720   0.124  1.00  0.00     0.039 C 
ENDBRANCH   5   9
TORSDOF 1
ENDMDL
MODEL 9
REMARK VINA RESULT:    -3.355     22.794     23.361
REMARK INTER + INTRA:          -3.649
REMARK INTER:                  -3.557
REMARK INTRA:                  -0.091
REMARK UNBOUND:                -0.097
REMARK SMILES C=C(C)[C@H]1CC=C(C)C(=O)C1
REMARK SMILES IDX 8 1 7 2 6 3 5 4 4 5 11 6 9 7 10 8 2 9 1 10 3 11
REMARK H PARENT
REMARK Flexibility Score: inf
ROOT
ATOM      1  C   UNL     1      -2.794 -20.739 -19.386  1.00  0.00     0.048 C 
ATOM      2  C   UNL     1      -1.300 -20.580 -19.318  1.00  0.00    -0.012 C 
ATOM      3  C   UNL     1      -0.686 -19.689 -20.116  1.00  0.00    -0.019 C 
ATOM      4  C   UNL     1       0.808 -19.502 -20.102  1.00  0.00     0.036 C 
ATOM      5  C   UNL     1       1.385 -19.747 -18.695  1.00  0.00     0.025 C 
ATOM      6  C   UNL     1       0.967 -21.137 -18.181  1.00  0.00     0.089 C 
ATOM      7  C   UNL     1      -0.523 -21.315 -18.289  1.00  0.00     0.158 C 
ATOM      8  O   UNL     1      -1.102 -22.124 -17.516  1.00  0.00    -0.295 OA
ENDROOT
BRANCH   5   9
ATOM      9  C   UNL     1       2.898 -19.580 -18.676  1.00  0.00    -0.077 C 
ATOM     10  C   UNL     1       3.528 -19.287 -17.527  1.00  0.00     0.008 C 
ATOM     11  C   UNL     1       3.723 -19.737 -19.929  1.00  0.00     0.039 C 
ENDBRANCH   5   9
TORSDOF 1
ENDMDL
