MODEL 1
REMARK VINA RESULT:    -6.054      0.000      0.000
REMARK INTER + INTRA:          -6.617
REMARK INTER:                  -6.585
REMARK INTRA:                  -0.032
REMARK UNBOUND:                -0.032
REMARK SMILES O=C([O-])c1ccc(O)cc1
REMARK SMILES IDX 4 1 5 2 10 3 6 4 9 5 7 6 2 7 1 8 3 9 8 10
REMARK H PARENT 8 11
REMARK Flexibility Score: inf
ROOT
ATOM      1  C   UNL     1     151.412 156.697 158.930  1.00  0.00    -0.003 A 
ATOM      2  C   UNL     1     151.056 157.624 157.932  1.00  0.00     0.014 A 
ATOM      3  C   UNL     1     150.628 156.616 160.095  1.00  0.00     0.014 A 
ATOM      4  C   UNL     1     149.941 158.452 158.100  1.00  0.00     0.047 A 
ATOM      5  C   UNL     1     149.514 157.446 160.258  1.00  0.00     0.047 A 
ATOM      6  C   UNL     1     149.168 158.365 159.261  1.00  0.00     0.115 A 
ENDROOT
BRANCH   1   7
ATOM      7  C   UNL     1     152.589 155.820 158.759  1.00  0.00     0.071 C 
ATOM      8  O   UNL     1     153.358 155.582 159.729  1.00  0.00    -0.545 OA
ATOM      9  O   UNL     1     152.867 155.244 157.524  1.00  0.00    -0.545 OA
ENDBRANCH   1   7
BRANCH   6  10
ATOM     10  O   UNL     1     148.060 159.195 159.414  1.00  0.00    -0.508 OA
ATOM     11  H   UNL     1     147.799 159.568 160.319  1.00  0.00     0.293 HD
ENDBRANCH   6  10
TORSDOF 2
ENDMDL
MODEL 2
REMARK VINA RESULT:    -5.777      1.828      2.913
REMARK INTER + INTRA:          -6.315
REMARK INTER:                  -6.280
REMARK INTRA:                  -0.036
REMARK UNBOUND:                -0.032
REMARK SMILES O=C([O-])c1ccc(O)cc1
REMARK SMILES IDX 4 1 5 2 10 3 6 4 9 5 7 6 2 7 1 8 3 9 8 10
REMARK H PARENT 8 11
REMARK Flexibility Score: inf
ROOT
ATOM      1  C   UNL     1     152.549 155.457 159.931  1.00  0.00    -0.003 A 
ATOM      2  C   UNL     1     151.427 156.071 160.519  1.00  0.00     0.014 A 
ATOM      3  C   UNL     1     152.883 155.779 158.603  1.00  0.00     0.014 A 
ATOM      4  C   UNL     1     150.658 156.985 159.791  1.00  0.00     0.047 A 
ATOM      5  C   UNL     1     152.112 156.694 157.880  1.00  0.00     0.047 A 
ATOM      6  C   UNL     1     150.998 157.299 158.473  1.00  0.00     0.115 A 
ENDROOT
BRANCH   1   7
ATOM      7  C   UNL     1     153.366 154.489 160.693  1.00  0.00     0.071 C 
ATOM      8  O   UNL     1     154.233 153.783 160.112  1.00  0.00    -0.545 OA
ATOM      9  O   UNL     1     153.190 154.344 162.065  1.00  0.00    -0.545 OA
ENDBRANCH   1   7
BRANCH   6  10
ATOM     10  O   UNL     1     150.222 158.212 157.761  1.00  0.00    -0.508 OA
ATOM     11  H   UNL     1     149.387 158.623 158.162  1.00  0.00     0.293 HD
ENDBRANCH   6  10
TORSDOF 2
ENDMDL
MODEL 3
REMARK VINA RESULT:    -5.716      1.289      4.183
REMARK INTER + INTRA:          -6.249
REMARK INTER:                  -6.214
REMARK INTRA:                  -0.035
REMARK UNBOUND:                -0.032
REMARK SMILES O=C([O-])c1ccc(O)cc1
REMARK SMILES IDX 4 1 5 2 10 3 6 4 9 5 7 6 2 7 1 8 3 9 8 10
REMARK H PARENT 8 11
REMARK Flexibility Score: inf
ROOT
ATOM      1  C   UNL     1     150.943 157.094 159.121  1.00  0.00    -0.003 A 
ATOM      2  C   UNL     1     151.790 156.818 158.031  1.00  0.00     0.014 A 
ATOM      3  C   UNL     1     151.183 156.454 160.350  1.00  0.00     0.014 A 
ATOM      4  C   UNL     1     152.853 155.920 158.171  1.00  0.00     0.047 A 
ATOM      5  C   UNL     1     152.248 155.558 160.485  1.00  0.00     0.047 A 
ATOM      6  C   UNL     1     153.085 155.289 159.396  1.00  0.00     0.115 A 
ENDROOT
BRANCH   1   7
ATOM      7  C   UNL     1     149.817 158.042 158.980  1.00  0.00     0.071 C 
ATOM      8  O   UNL     1     148.902 158.085 159.846  1.00  0.00    -0.545 OA
ATOM      9  O   UNL     1     149.750 158.900 157.888  1.00  0.00    -0.545 OA
ENDBRANCH   1   7
BRANCH   6  10
ATOM     10  O   UNL     1     154.149 154.397 159.520  1.00  0.00    -0.508 OA
ATOM     11  H   UNL     1     154.867 154.328 158.809  1.00  0.00     0.293 HD
ENDBRANCH   6  10
TORSDOF 2
ENDMDL
MODEL 4
REMARK VINA RESULT:    -5.711      1.129      4.400
REMARK INTER + INTRA:          -6.244
REMARK INTER:                  -6.208
REMARK INTRA:                  -0.036
REMARK UNBOUND:                -0.032
REMARK SMILES O=C([O-])c1ccc(O)cc1
REMARK SMILES IDX 4 1 5 2 10 3 6 4 9 5 7 6 2 7 1 8 3 9 8 10
REMARK H PARENT 8 11
REMARK Flexibility Score: inf
ROOT
ATOM      1  C   UNL     1     150.670 157.311 159.072  1.00  0.00    -0.003 A 
ATOM      2  C   UNL     1     150.937 156.584 160.247  1.00  0.00     0.014 A 
ATOM      3  C   UNL     1     151.530 157.162 157.969  1.00  0.00     0.014 A 
ATOM      4  C   UNL     1     152.041 155.728 160.315  1.00  0.00     0.047 A 
ATOM      5  C   UNL     1     152.632 156.305 158.041  1.00  0.00     0.047 A 
ATOM      6  C   UNL     1     152.890 155.586 159.214  1.00  0.00     0.115 A 
ENDROOT
BRANCH   1   7
ATOM      7  C   UNL     1     149.505 158.218 158.993  1.00  0.00     0.071 C 
ATOM      8  O   UNL     1     148.743 158.370 159.986  1.00  0.00    -0.545 OA
ATOM      9  O   UNL     1     149.231 158.916 157.823  1.00  0.00    -0.545 OA
ENDBRANCH   1   7
BRANCH   6  10
ATOM     10  O   UNL     1     153.986 154.729 159.297  1.00  0.00    -0.508 OA
ATOM     11  H   UNL     1     154.548 154.669 160.137  1.00  0.00     0.293 HD
ENDBRANCH   6  10
TORSDOF 2
ENDMDL
MODEL 5
REMARK VINA RESULT:    -5.526      2.588      4.488
REMARK INTER + INTRA:          -6.043
REMARK INTER:                  -6.007
REMARK INTRA:                  -0.036
REMARK UNBOUND:                -0.032
REMARK SMILES O=C([O-])c1ccc(O)cc1
REMARK SMILES IDX 4 1 5 2 10 3 6 4 9 5 7 6 2 7 1 8 3 9 8 10
REMARK H PARENT 8 11
REMARK Flexibility Score: inf
ROOT
ATOM      1  C   UNL     1     152.499 155.594 159.188  1.00  0.00    -0.003 A 
ATOM      2  C   UNL     1     151.948 156.150 160.358  1.00  0.00     0.014 A 
ATOM      3  C   UNL     1     153.389 154.511 159.302  1.00  0.00     0.014 A 
ATOM      4  C   UNL     1     152.283 155.632 161.613  1.00  0.00     0.047 A 
ATOM      5  C   UNL     1     153.720 153.996 160.559  1.00  0.00     0.047 A 
ATOM      6  C   UNL     1     153.167 154.555 161.717  1.00  0.00     0.115 A 
ENDROOT
BRANCH   1   7
ATOM      7  C   UNL     1     152.149 156.137 157.857  1.00  0.00     0.071 C 
ATOM      8  O   UNL     1     152.519 155.547 156.807  1.00  0.00    -0.545 OA
ATOM      9  O   UNL     1     151.409 157.308 157.746  1.00  0.00    -0.545 OA
ENDBRANCH   1   7
BRANCH   6  10
ATOM     10  O   UNL     1     153.491 154.049 162.974  1.00  0.00    -0.508 OA
ATOM     11  H   UNL     1     152.899 154.214 163.779  1.00  0.00     0.293 HD
ENDBRANCH   6  10
TORSDOF 2
ENDMDL
MODEL 6
REMARK VINA RESULT:    -5.453     14.444     15.242
REMARK INTER + INTRA:          -5.963
REMARK INTER:                  -5.932
REMARK INTRA:                  -0.031
REMARK UNBOUND:                -0.032
REMARK SMILES O=C([O-])c1ccc(O)cc1
REMARK SMILES IDX 4 1 5 2 10 3 6 4 9 5 7 6 2 7 1 8 3 9 8 10
REMARK H PARENT 8 11
REMARK Flexibility Score: inf
ROOT
ATOM      1  C   UNL     1     150.520 169.742 151.441  1.00  0.00    -0.003 A 
ATOM      2  C   UNL     1     149.324 170.367 151.041  1.00  0.00     0.014 A 
ATOM      3  C   UNL     1     151.119 168.803 150.583  1.00  0.00     0.014 A 
ATOM      4  C   UNL     1     148.741 170.055 149.808  1.00  0.00     0.047 A 
ATOM      5  C   UNL     1     150.533 168.495 149.351  1.00  0.00     0.047 A 
ATOM      6  C   UNL     1     149.343 169.121 148.961  1.00  0.00     0.115 A 
ENDROOT
BRANCH   1   7
ATOM      7  C   UNL     1     151.141 170.067 152.744  1.00  0.00     0.071 C 
ATOM      8  O   UNL     1     150.445 170.105 153.794  1.00  0.00    -0.545 OA
ATOM      9  O   UNL     1     152.502 170.334 152.828  1.00  0.00    -0.545 OA
ENDBRANCH   1   7
BRANCH   6  10
ATOM     10  O   UNL     1     148.751 168.821 147.736  1.00  0.00    -0.508 OA
ATOM     11  H   UNL     1     148.044 168.101 147.651  1.00  0.00     0.293 HD
ENDBRANCH   6  10
TORSDOF 2
ENDMDL
MODEL 7
REMARK VINA RESULT:    -5.428     14.421     15.205
REMARK INTER + INTRA:          -5.936
REMARK INTER:                  -5.904
REMARK INTRA:                  -0.032
REMARK UNBOUND:                -0.032
REMARK SMILES O=C([O-])c1ccc(O)cc1
REMARK SMILES IDX 4 1 5 2 10 3 6 4 9 5 7 6 2 7 1 8 3 9 8 10
REMARK H PARENT 8 11
REMARK Flexibility Score: inf
ROOT
ATOM      1  C   UNL     1     150.571 169.683 151.417  1.00  0.00    -0.003 A 
ATOM      2  C   UNL     1     151.157 168.761 150.529  1.00  0.00     0.014 A 
ATOM      3  C   UNL     1     149.368 170.314 151.049  1.00  0.00     0.014 A 
ATOM      4  C   UNL     1     150.551 168.479 149.301  1.00  0.00     0.047 A 
ATOM      5  C   UNL     1     148.767 170.028 149.820  1.00  0.00     0.047 A 
ATOM      6  C   UNL     1     149.356 169.110 148.943  1.00  0.00     0.115 A 
ENDROOT
BRANCH   1   7
ATOM      7  C   UNL     1     151.206 169.987 152.718  1.00  0.00     0.071 C 
ATOM      8  O   UNL     1     150.507 170.104 153.760  1.00  0.00    -0.545 OA
ATOM      9  O   UNL     1     152.584 170.148 152.809  1.00  0.00    -0.545 OA
ENDBRANCH   1   7
BRANCH   6  10
ATOM     10  O   UNL     1     148.765 168.818 147.716  1.00  0.00    -0.508 OA
ATOM     11  H   UNL     1     149.322 168.652 146.886  1.00  0.00     0.293 HD
ENDBRANCH   6  10
TORSDOF 2
ENDMDL
MODEL 8
REMARK VINA RESULT:    -5.364     14.822     15.666
REMARK INTER + INTRA:          -5.866
REMARK INTER:                  -5.831
REMARK INTRA:                  -0.035
REMARK UNBOUND:                -0.032
REMARK SMILES O=C([O-])c1ccc(O)cc1
REMARK SMILES IDX 4 1 5 2 10 3 6 4 9 5 7 6 2 7 1 8 3 9 8 10
REMARK H PARENT 8 11
REMARK Flexibility Score: inf
ROOT
ATOM      1  C   UNL     1     149.122 169.889 151.111  1.00  0.00    -0.003 A 
ATOM      2  C   UNL     1     150.395 169.293 151.175  1.00  0.00     0.014 A 
ATOM      3  C   UNL     1     148.414 169.854 149.895  1.00  0.00     0.014 A 
ATOM      4  C   UNL     1     150.947 168.677 150.047  1.00  0.00     0.047 A 
ATOM      5  C   UNL     1     148.970 169.237 148.770  1.00  0.00     0.047 A 
ATOM      6  C   UNL     1     150.237 168.647 148.844  1.00  0.00     0.115 A 
ENDROOT
BRANCH   1   7
ATOM      7  C   UNL     1     148.533 170.541 152.300  1.00  0.00     0.071 C 
ATOM      8  O   UNL     1     149.267 170.929 153.248  1.00  0.00    -0.545 OA
ATOM      9  O   UNL     1     147.159 170.736 152.389  1.00  0.00    -0.545 OA
ENDBRANCH   1   7
BRANCH   6  10
ATOM     10  O   UNL     1     150.800 168.030 147.728  1.00  0.00    -0.508 OA
ATOM     11  H   UNL     1     150.444 167.150 147.375  1.00  0.00     0.293 HD
ENDBRANCH   6  10
TORSDOF 2
ENDMDL
MODEL 9
REMARK VINA RESULT:    -5.312     14.588     15.267
REMARK INTER + INTRA:          -5.810
REMARK INTER:                  -5.774
REMARK INTRA:                  -0.036
REMARK UNBOUND:                -0.032
REMARK SMILES O=C([O-])c1ccc(O)cc1
REMARK SMILES IDX 4 1 5 2 10 3 6 4 9 5 7 6 2 7 1 8 3 9 8 10
REMARK H PARENT 8 11
REMARK Flexibility Score: inf
ROOT
ATOM      1  C   UNL     1     150.059 169.361 150.193  1.00  0.00    -0.003 A 
ATOM      2  C   UNL     1     148.960 170.234 150.303  1.00  0.00     0.014 A 
ATOM      3  C   UNL     1     150.950 169.249 151.275  1.00  0.00     0.014 A 
ATOM      4  C   UNL     1     148.760 170.978 151.470  1.00  0.00     0.047 A 
ATOM      5  C   UNL     1     150.746 169.994 152.441  1.00  0.00     0.047 A 
ATOM      6  C   UNL     1     149.650 170.860 152.541  1.00  0.00     0.115 A 
ENDROOT
BRANCH   1   7
ATOM      7  C   UNL     1     150.276 168.572 148.961  1.00  0.00     0.071 C 
ATOM      8  O   UNL     1     149.518 168.718 147.965  1.00  0.00    -0.545 OA
ATOM      9  O   UNL     1     151.320 167.657 148.885  1.00  0.00    -0.545 OA
ENDBRANCH   1   7
BRANCH   6  10
ATOM     10  O   UNL     1     149.438 171.606 153.698  1.00  0.00    -0.508 OA
ATOM     11  H   UNL     1     150.208 172.026 154.205  1.00  0.00     0.293 HD
ENDBRANCH   6  10
TORSDOF 2
ENDMDL
