MODEL 1
REMARK VINA RESULT:    -4.255      0.000      0.000
REMARK INTER + INTRA:          -5.345
REMARK INTER:                  -5.251
REMARK INTRA:                  -0.094
REMARK UNBOUND:                -0.094
REMARK SMILES CCCCCC(=O)[O-]
REMARK SMILES IDX 4 1 5 2 6 3 7 4 8 5 3 6 2 7 1 8
REMARK H PARENT
REMARK Flexibility Score: inf
ROOT
ATOM      1  C   UNL     1      28.324  57.046  -8.533  1.00  0.00     0.006 C 
ENDROOT
BRANCH   1   2
ATOM      2  C   UNL     1      28.739  58.507  -8.296  1.00  0.00     0.053 C 
BRANCH   2   3
ATOM      3  C   UNL     1      28.250  59.412  -9.386  1.00  0.00     0.041 C 
ATOM      4  O   UNL     1      29.042  60.215  -9.944  1.00  0.00    -0.550 OA
ATOM      5  O   UNL     1      26.912  59.391  -9.759  1.00  0.00    -0.550 OA
ENDBRANCH   2   3
ENDBRANCH   1   2
BRANCH   1   6
ATOM      6  C   UNL     1      28.365  56.157  -7.273  1.00  0.00     0.000 C 
BRANCH   6   7
ATOM      7  C   UNL     1      29.172  56.735  -6.098  1.00  0.00    -0.003 C 
ATOM      8  C   UNL     1      28.672  56.258  -4.735  1.00  0.00     0.004 C 
ENDBRANCH   6   7
ENDBRANCH   1   6
TORSDOF 4
ENDMDL
MODEL 2
REMARK VINA RESULT:    -3.981     18.752     19.725
REMARK INTER + INTRA:          -5.006
REMARK INTER:                  -4.931
REMARK INTRA:                  -0.075
REMARK UNBOUND:                -0.094
REMARK SMILES CCCCCC(=O)[O-]
REMARK SMILES IDX 4 1 5 2 6 3 7 4 8 5 3 6 2 7 1 8
REMARK H PARENT
REMARK Flexibility Score: inf
ROOT
ATOM      1  C   UNL     1      38.771  65.180   6.875  1.00  0.00     0.006 C 
ENDROOT
BRANCH   1   2
ATOM      2  C   UNL     1      37.519  66.071   6.831  1.00  0.00     0.053 C 
BRANCH   2   3
ATOM      3  C   UNL     1      37.539  67.010   5.664  1.00  0.00     0.041 C 
ATOM      4  O   UNL     1      38.197  66.722   4.631  1.00  0.00    -0.550 OA
ATOM      5  O   UNL     1      36.858  68.220   5.733  1.00  0.00    -0.550 OA
ENDBRANCH   2   3
ENDBRANCH   1   2
BRANCH   1   6
ATOM      6  C   UNL     1      39.098  64.603   8.267  1.00  0.00     0.000 C 
BRANCH   6   7
ATOM      7  C   UNL     1      40.497  63.976   8.396  1.00  0.00    -0.003 C 
ATOM      8  C   UNL     1      41.575  64.759   7.648  1.00  0.00     0.004 C 
ENDBRANCH   6   7
ENDBRANCH   1   6
TORSDOF 4
ENDMDL
MODEL 3
REMARK VINA RESULT:    -3.956      3.035      4.635
REMARK INTER + INTRA:          -4.975
REMARK INTER:                  -4.889
REMARK INTRA:                  -0.086
REMARK UNBOUND:                -0.094
REMARK SMILES CCCCCC(=O)[O-]
REMARK SMILES IDX 4 1 5 2 6 3 7 4 8 5 3 6 2 7 1 8
REMARK H PARENT
REMARK Flexibility Score: inf
ROOT
ATOM      1  C   UNL     1      28.439  56.796  -8.098  1.00  0.00     0.006 C 
ENDROOT
BRANCH   1   2
ATOM      2  C   UNL     1      29.209  57.667  -7.092  1.00  0.00     0.053 C 
BRANCH   2   3
ATOM      3  C   UNL     1      29.456  56.948  -5.801  1.00  0.00     0.041 C 
ATOM      4  O   UNL     1      28.550  56.241  -5.287  1.00  0.00    -0.550 OA
ATOM      5  O   UNL     1      30.675  57.087  -5.150  1.00  0.00    -0.550 OA
ENDBRANCH   2   3
ENDBRANCH   1   2
BRANCH   1   6
ATOM      6  C   UNL     1      28.023  57.527  -9.391  1.00  0.00     0.000 C 
BRANCH   6   7
ATOM      7  C   UNL     1      28.232  59.051  -9.369  1.00  0.00    -0.003 C 
ATOM      8  C   UNL     1      27.506  59.771 -10.504  1.00  0.00     0.004 C 
ENDBRANCH   6   7
ENDBRANCH   1   6
TORSDOF 4
ENDMDL
MODEL 4
REMARK VINA RESULT:    -3.886     18.836     20.102
REMARK INTER + INTRA:          -4.889
REMARK INTER:                  -4.816
REMARK INTRA:                  -0.073
REMARK UNBOUND:                -0.094
REMARK SMILES CCCCCC(=O)[O-]
REMARK SMILES IDX 4 1 5 2 6 3 7 4 8 5 3 6 2 7 1 8
REMARK H PARENT
REMARK Flexibility Score: inf
ROOT
ATOM      1  C   UNL     1      38.598  65.401   6.738  1.00  0.00     0.006 C 
ENDROOT
BRANCH   1   2
ATOM      2  C   UNL     1      38.960  64.952   8.163  1.00  0.00     0.053 C 
BRANCH   2   3
ATOM      3  C   UNL     1      39.818  63.723   8.163  1.00  0.00     0.041 C 
ATOM      4  O   UNL     1      40.901  63.708   8.803  1.00  0.00    -0.550 OA
ATOM      5  O   UNL     1      39.435  62.608   7.428  1.00  0.00    -0.550 OA
ENDBRANCH   2   3
ENDBRANCH   1   2
BRANCH   1   6
ATOM      6  C   UNL     1      37.305  66.235   6.639  1.00  0.00     0.000 C 
BRANCH   6   7
ATOM      7  C   UNL     1      37.346  67.372   5.602  1.00  0.00    -0.003 C 
ATOM      8  C   UNL     1      38.151  67.015   4.354  1.00  0.00     0.004 C 
ENDBRANCH   6   7
ENDBRANCH   1   6
TORSDOF 4
ENDMDL
MODEL 5
REMARK VINA RESULT:    -3.797     18.859     19.671
REMARK INTER + INTRA:          -4.779
REMARK INTER:                  -4.704
REMARK INTRA:                  -0.075
REMARK UNBOUND:                -0.094
REMARK SMILES CCCCCC(=O)[O-]
REMARK SMILES IDX 4 1 5 2 6 3 7 4 8 5 3 6 2 7 1 8
REMARK H PARENT
REMARK Flexibility Score: inf
ROOT
ATOM      1  C   UNL     1      38.986  64.939   8.074  1.00  0.00     0.006 C 
ENDROOT
BRANCH   1   2
ATOM      2  C   UNL     1      39.075  65.139   6.552  1.00  0.00     0.053 C 
BRANCH   2   3
ATOM      3  C   UNL     1      38.073  66.136   6.057  1.00  0.00     0.041 C 
ATOM      4  O   UNL     1      37.101  66.471   6.783  1.00  0.00    -0.550 OA
ATOM      5  O   UNL     1      38.195  66.669   4.780  1.00  0.00    -0.550 OA
ENDBRANCH   2   3
ENDBRANCH   1   2
BRANCH   1   6
ATOM      6  C   UNL     1      39.828  63.766   8.616  1.00  0.00     0.000 C 
BRANCH   6   7
ATOM      7  C   UNL     1      39.728  62.466   7.799  1.00  0.00    -0.003 C 
ATOM      8  C   UNL     1      40.409  61.279   8.479  1.00  0.00     0.004 C 
ENDBRANCH   6   7
ENDBRANCH   1   6
TORSDOF 4
ENDMDL
MODEL 6
REMARK VINA RESULT:    -3.745     19.866     20.295
REMARK INTER + INTRA:          -4.714
REMARK INTER:                  -4.585
REMARK INTRA:                  -0.130
REMARK UNBOUND:                -0.094
REMARK SMILES CCCCCC(=O)[O-]
REMARK SMILES IDX 4 1 5 2 6 3 7 4 8 5 3 6 2 7 1 8
REMARK H PARENT
REMARK Flexibility Score: inf
ROOT
ATOM      1  C   UNL     1      40.859  63.810   8.387  1.00  0.00     0.006 C 
ENDROOT
BRANCH   1   2
ATOM      2  C   UNL     1      39.365  64.171   8.371  1.00  0.00     0.053 C 
BRANCH   2   3
ATOM      3  C   UNL     1      39.011  65.044   7.207  1.00  0.00     0.041 C 
ATOM      4  O   UNL     1      39.763  65.091   6.199  1.00  0.00    -0.550 OA
ATOM      5  O   UNL     1      37.868  65.833   7.251  1.00  0.00    -0.550 OA
ENDBRANCH   2   3
ENDBRANCH   1   2
BRANCH   1   6
ATOM      6  C   UNL     1      41.166  62.337   8.047  1.00  0.00     0.000 C 
BRANCH   6   7
ATOM      7  C   UNL     1      40.032  61.348   8.371  1.00  0.00    -0.003 C 
ATOM      8  C   UNL     1      40.493  59.891   8.376  1.00  0.00     0.004 C 
ENDBRANCH   6   7
ENDBRANCH   1   6
TORSDOF 4
ENDMDL
MODEL 7
REMARK VINA RESULT:    -3.730      3.221      4.309
REMARK INTER + INTRA:          -4.697
REMARK INTER:                  -4.560
REMARK INTRA:                  -0.137
REMARK UNBOUND:                -0.094
REMARK SMILES CCCCCC(=O)[O-]
REMARK SMILES IDX 4 1 5 2 6 3 7 4 8 5 3 6 2 7 1 8
REMARK H PARENT
REMARK Flexibility Score: inf
ROOT
ATOM      1  C   UNL     1      30.017  56.859  -4.746  1.00  0.00     0.006 C 
ENDROOT
BRANCH   1   2
ATOM      2  C   UNL     1      31.109  57.698  -5.430  1.00  0.00     0.053 C 
BRANCH   2   3
ATOM      3  C   UNL     1      31.074  59.130  -4.990  1.00  0.00     0.041 C 
ATOM      4  O   UNL     1      31.317  59.430  -3.792  1.00  0.00    -0.550 OA
ATOM      5  O   UNL     1      30.738  60.128  -5.897  1.00  0.00    -0.550 OA
ENDBRANCH   2   3
ENDBRANCH   1   2
BRANCH   1   6
ATOM      6  C   UNL     1      28.835  56.479  -5.661  1.00  0.00     0.000 C 
BRANCH   6   7
ATOM      7  C   UNL     1      28.923  57.028  -7.095  1.00  0.00    -0.003 C 
ATOM      8  C   UNL     1      28.230  56.134  -8.122  1.00  0.00     0.004 C 
ENDBRANCH   6   7
ENDBRANCH   1   6
TORSDOF 4
ENDMDL
MODEL 8
REMARK VINA RESULT:    -3.684     19.761     20.710
REMARK INTER + INTRA:          -4.639
REMARK INTER:                  -4.588
REMARK INTRA:                  -0.051
REMARK UNBOUND:                -0.094
REMARK SMILES CCCCCC(=O)[O-]
REMARK SMILES IDX 4 1 5 2 6 3 7 4 8 5 3 6 2 7 1 8
REMARK H PARENT
REMARK Flexibility Score: inf
ROOT
ATOM      1  C   UNL     1      39.348  63.546   8.572  1.00  0.00     0.006 C 
ENDROOT
BRANCH   1   2
ATOM      2  C   UNL     1      40.838  63.226   8.375  1.00  0.00     0.053 C 
BRANCH   2   3
ATOM      3  C   UNL     1      41.067  61.771   8.101  1.00  0.00     0.041 C 
ATOM      4  O   UNL     1      41.916  61.414   7.242  1.00  0.00    -0.550 OA
ATOM      5  O   UNL     1      40.318  60.810   8.770  1.00  0.00    -0.550 OA
ENDBRANCH   2   3
ENDBRANCH   1   2
BRANCH   1   6
ATOM      6  C   UNL     1      38.960  65.005   8.257  1.00  0.00     0.000 C 
BRANCH   6   7
ATOM      7  C   UNL     1      38.626  65.283   6.781  1.00  0.00    -0.003 C 
ATOM      8  C   UNL     1      37.447  66.238   6.604  1.00  0.00     0.004 C 
ENDBRANCH   6   7
ENDBRANCH   1   6
TORSDOF 4
ENDMDL
MODEL 9
REMARK VINA RESULT:    -3.584     19.116     20.304
REMARK INTER + INTRA:          -4.517
REMARK INTER:                  -4.317
REMARK INTRA:                  -0.199
REMARK UNBOUND:                -0.094
REMARK SMILES CCCCCC(=O)[O-]
REMARK SMILES IDX 4 1 5 2 6 3 7 4 8 5 3 6 2 7 1 8
REMARK H PARENT
REMARK Flexibility Score: inf
ROOT
ATOM      1  C   UNL     1      41.142  62.346   7.864  1.00  0.00     0.006 C 
ENDROOT
BRANCH   1   2
ATOM      2  C   UNL     1      40.589  61.017   8.403  1.00  0.00     0.053 C 
BRANCH   2   3
ATOM      3  C   UNL     1      39.499  60.469   7.534  1.00  0.00     0.041 C 
ATOM      4  O   UNL     1      39.087  61.128   6.545  1.00  0.00    -0.550 OA
ATOM      5  O   UNL     1      38.915  59.246   7.840  1.00  0.00    -0.550 OA
ENDBRANCH   2   3
ENDBRANCH   1   2
BRANCH   1   6
ATOM      6  C   UNL     1      40.802  63.578   8.728  1.00  0.00     0.000 C 
BRANCH   6   7
ATOM      7  C   UNL     1      39.315  63.971   8.738  1.00  0.00    -0.003 C 
ATOM      8  C   UNL     1      38.912  64.819   7.532  1.00  0.00     0.004 C 
ENDBRANCH   6   7
ENDBRANCH   1   6
TORSDOF 4
ENDMDL
