MODEL 1
REMARK VINA RESULT:    -5.918      0.000      0.000
REMARK INTER + INTRA:          -9.248
REMARK INTER:                  -8.512
REMARK INTRA:                  -0.736
REMARK UNBOUND:                -0.736
REMARK SMILES CC(C)=CCCC(C)=CCCC(C)=CCO
REMARK SMILES IDX 10 1 9 2 7 3 8 4 6 5 5 6 4 7 1 8 2 9 3 10 11 11 12 12 14 13
REMARK SMILES IDX 13 14 15 15 16 16
REMARK H PARENT 16 17
REMARK Flexibility Score: inf
ROOT
ATOM      1  C   UNL     1      26.506  33.809  -0.312  1.00  0.00     0.032 C 
ENDROOT
BRANCH   1   2
ATOM      2  C   UNL     1      25.573  33.176  -1.315  1.00  0.00    -0.028 C 
ATOM      3  C   UNL     1      25.665  31.896  -1.743  1.00  0.00    -0.077 C 
ATOM      4  C   UNL     1      26.772  30.978  -1.281  1.00  0.00     0.039 C 
BRANCH   3   5
ATOM      5  C   UNL     1      24.639  31.375  -2.730  1.00  0.00     0.034 C 
BRANCH   5   6
ATOM      6  C   UNL     1      24.443  32.334  -3.912  1.00  0.00     0.032 C 
BRANCH   6   7
ATOM      7  C   UNL     1      25.693  32.450  -4.753  1.00  0.00    -0.028 C 
ATOM      8  C   UNL     1      27.127  33.254  -6.577  1.00  0.00     0.039 C 
ATOM      9  C   UNL     1      25.837  33.291  -5.801  1.00  0.00    -0.080 C 
ATOM     10  C   UNL     1      24.756  34.268  -6.199  1.00  0.00     0.039 C 
ENDBRANCH   6   7
ENDBRANCH   5   6
ENDBRANCH   3   5
ENDBRANCH   1   2
BRANCH   1  11
ATOM     11  C   UNL     1      25.728  34.690   0.674  1.00  0.00     0.034 C 
BRANCH  11  12
ATOM     12  C   UNL     1      25.691  34.055   2.046  1.00  0.00    -0.075 C 
ATOM     13  C   UNL     1      24.796  33.070   2.292  1.00  0.00    -0.000 C 
ATOM     14  C   UNL     1      26.662  34.524   3.104  1.00  0.00     0.039 C 
BRANCH  13  15
ATOM     15  C   UNL     1      24.670  32.364   3.614  1.00  0.00     0.183 C 
BRANCH  15  16
ATOM     16  O   UNL     1      23.877  31.220   3.468  1.00  0.00    -0.392 OA
ATOM     17  H   UNL     1      22.940  31.515   3.615  1.00  0.00     0.210 HD
ENDBRANCH  15  16
ENDBRANCH  13  15
ENDBRANCH  11  12
ENDBRANCH   1  11
TORSDOF 8
ENDMDL
MODEL 2
REMARK VINA RESULT:    -5.817      2.084      2.499
REMARK INTER + INTRA:          -9.103
REMARK INTER:                  -8.131
REMARK INTRA:                  -0.973
REMARK UNBOUND:                -0.736
REMARK SMILES CC(C)=CCCC(C)=CCCC(C)=CCO
REMARK SMILES IDX 10 1 9 2 7 3 8 4 6 5 5 6 4 7 1 8 2 9 3 10 11 11 12 12 14 13
REMARK SMILES IDX 13 14 15 15 16 16
REMARK H PARENT 16 17
REMARK Flexibility Score: inf
ROOT
ATOM      1  C   UNL     1      25.705  34.029  -0.423  1.00  0.00     0.032 C 
ENDROOT
BRANCH   1   2
ATOM      2  C   UNL     1      26.156  32.981  -1.410  1.00  0.00    -0.028 C 
ATOM      3  C   UNL     1      25.833  31.669  -1.334  1.00  0.00    -0.077 C 
ATOM      4  C   UNL     1      25.012  31.115  -0.193  1.00  0.00     0.039 C 
BRANCH   3   5
ATOM      5  C   UNL     1      26.325  30.726  -2.413  1.00  0.00     0.034 C 
BRANCH   5   6
ATOM      6  C   UNL     1      25.551  30.905  -3.726  1.00  0.00     0.032 C 
BRANCH   6   7
ATOM      7  C   UNL     1      26.409  31.529  -4.802  1.00  0.00    -0.028 C 
ATOM      8  C   UNL     1      27.065  33.170  -6.507  1.00  0.00     0.039 C 
ATOM      9  C   UNL     1      26.140  32.703  -5.414  1.00  0.00    -0.080 C 
ATOM     10  C   UNL     1      24.959  33.559  -5.021  1.00  0.00     0.039 C 
ENDBRANCH   6   7
ENDBRANCH   5   6
ENDBRANCH   3   5
ENDBRANCH   1   2
BRANCH   1  11
ATOM     11  C   UNL     1      26.858  34.439   0.500  1.00  0.00     0.034 C 
BRANCH  11  12
ATOM     12  C   UNL     1      26.350  34.738   1.893  1.00  0.00    -0.075 C 
ATOM     13  C   UNL     1      26.750  35.874   2.510  1.00  0.00    -0.000 C 
ATOM     14  C   UNL     1      25.398  33.772   2.556  1.00  0.00     0.039 C 
BRANCH  13  15
ATOM     15  C   UNL     1      26.307  36.279   3.889  1.00  0.00     0.183 C 
BRANCH  15  16
ATOM     16  O   UNL     1      26.790  37.558   4.187  1.00  0.00    -0.392 OA
ATOM     17  H   UNL     1      26.971  37.994   3.314  1.00  0.00     0.210 HD
ENDBRANCH  15  16
ENDBRANCH  13  15
ENDBRANCH  11  12
ENDBRANCH   1  11
TORSDOF 8
ENDMDL
MODEL 3
REMARK VINA RESULT:    -5.655      2.789      7.279
REMARK INTER + INTRA:          -8.870
REMARK INTER:                  -7.992
REMARK INTRA:                  -0.878
REMARK UNBOUND:                -0.736
REMARK SMILES CC(C)=CCCC(C)=CCCC(C)=CCO
REMARK SMILES IDX 10 1 9 2 7 3 8 4 6 5 5 6 4 7 1 8 2 9 3 10 11 11 12 12 14 13
REMARK SMILES IDX 13 14 15 15 16 16
REMARK H PARENT 16 17
REMARK Flexibility Score: inf
ROOT
ATOM      1  C   UNL     1      24.633  31.563  -3.386  1.00  0.00     0.032 C 
ENDROOT
BRANCH   1   2
ATOM      2  C   UNL     1      24.997  32.662  -2.418  1.00  0.00    -0.028 C 
ATOM      3  C   UNL     1      25.920  32.541  -1.436  1.00  0.00    -0.077 C 
ATOM      4  C   UNL     1      26.649  31.243  -1.181  1.00  0.00     0.039 C 
BRANCH   3   5
ATOM      5  C   UNL     1      26.214  33.737  -0.553  1.00  0.00     0.034 C 
BRANCH   5   6
ATOM      6  C   UNL     1      24.975  34.189   0.232  1.00  0.00     0.032 C 
BRANCH   6   7
ATOM      7  C   UNL     1      24.603  33.200   1.311  1.00  0.00    -0.028 C 
ATOM      8  C   UNL     1      24.672  32.123   3.518  1.00  0.00     0.039 C 
ATOM      9  C   UNL     1      25.101  33.210   2.567  1.00  0.00    -0.080 C 
ATOM     10  C   UNL     1      26.054  34.282   3.042  1.00  0.00     0.039 C 
ENDBRANCH   6   7
ENDBRANCH   5   6
ENDBRANCH   3   5
ENDBRANCH   1   2
BRANCH   1  11
ATOM     11  C   UNL     1      23.875  32.129  -4.592  1.00  0.00     0.034 C 
BRANCH  11  12
ATOM     12  C   UNL     1      24.828  32.796  -5.559  1.00  0.00    -0.075 C 
ATOM     13  C   UNL     1      25.934  32.128  -5.961  1.00  0.00    -0.000 C 
ATOM     14  C   UNL     1      24.516  34.184  -6.066  1.00  0.00     0.039 C 
BRANCH  13  15
ATOM     15  C   UNL     1      26.948  32.687  -6.921  1.00  0.00     0.183 C 
BRANCH  15  16
ATOM     16  O   UNL     1      27.971  33.327  -6.213  1.00  0.00    -0.392 OA
ATOM     17  H   UNL     1      27.976  32.919  -5.307  1.00  0.00     0.210 HD
ENDBRANCH  15  16
ENDBRANCH  13  15
ENDBRANCH  11  12
ENDBRANCH   1  11
TORSDOF 8
ENDMDL
MODEL 4
REMARK VINA RESULT:    -5.602      1.711      3.143
REMARK INTER + INTRA:          -8.794
REMARK INTER:                  -7.859
REMARK INTRA:                  -0.935
REMARK UNBOUND:                -0.736
REMARK SMILES CC(C)=CCCC(C)=CCCC(C)=CCO
REMARK SMILES IDX 10 1 9 2 7 3 8 4 6 5 5 6 4 7 1 8 2 9 3 10 11 11 12 12 14 13
REMARK SMILES IDX 13 14 15 15 16 16
REMARK H PARENT 16 17
REMARK Flexibility Score: inf
ROOT
ATOM      1  C   UNL     1      26.530  33.518  -0.287  1.00  0.00     0.032 C 
ENDROOT
BRANCH   1   2
ATOM      2  C   UNL     1      25.718  32.367  -0.827  1.00  0.00    -0.028 C 
ATOM      3  C   UNL     1      25.196  32.318  -2.074  1.00  0.00    -0.077 C 
ATOM      4  C   UNL     1      25.340  33.466  -3.045  1.00  0.00     0.039 C 
BRANCH   3   5
ATOM      5  C   UNL     1      24.427  31.084  -2.502  1.00  0.00     0.034 C 
BRANCH   5   6
ATOM      6  C   UNL     1      25.116  29.792  -2.043  1.00  0.00     0.032 C 
BRANCH   6   7
ATOM      7  C   UNL     1      26.280  29.429  -2.935  1.00  0.00    -0.028 C 
ATOM      8  C   UNL     1      28.613  28.937  -3.526  1.00  0.00     0.039 C 
ATOM      9  C   UNL     1      27.548  29.245  -2.506  1.00  0.00    -0.080 C 
ATOM     10  C   UNL     1      27.919  29.323  -1.044  1.00  0.00     0.039 C 
ENDBRANCH   6   7
ENDBRANCH   5   6
ENDBRANCH   3   5
ENDBRANCH   1   2
BRANCH   1  11
ATOM     11  C   UNL     1      25.663  34.434   0.584  1.00  0.00     0.034 C 
BRANCH  11  12
ATOM     12  C   UNL     1      25.670  33.970   2.023  1.00  0.00    -0.075 C 
ATOM     13  C   UNL     1      24.817  32.991   2.405  1.00  0.00    -0.000 C 
ATOM     14  C   UNL     1      26.638  34.599   2.997  1.00  0.00     0.039 C 
BRANCH  13  15
ATOM     15  C   UNL     1      24.738  32.447   3.804  1.00  0.00     0.183 C 
BRANCH  15  16
ATOM     16  O   UNL     1      24.325  31.110   3.772  1.00  0.00    -0.392 OA
ATOM     17  H   UNL     1      24.602  30.716   4.640  1.00  0.00     0.210 HD
ENDBRANCH  15  16
ENDBRANCH  13  15
ENDBRANCH  11  12
ENDBRANCH   1  11
TORSDOF 8
ENDMDL
MODEL 5
REMARK VINA RESULT:    -5.373      9.839     11.568
REMARK INTER + INTRA:          -8.464
REMARK INTER:                  -8.369
REMARK INTRA:                  -0.094
REMARK UNBOUND:                -0.736
REMARK SMILES CC(C)=CCCC(C)=CCCC(C)=CCO
REMARK SMILES IDX 10 1 9 2 7 3 8 4 6 5 5 6 4 7 1 8 2 9 3 10 11 11 12 12 14 13
REMARK SMILES IDX 13 14 15 15 16 16
REMARK H PARENT 16 17
REMARK Flexibility Score: inf
ROOT
ATOM      1  C   UNL     1      36.115  33.233   3.375  1.00  0.00     0.032 C 
ENDROOT
BRANCH   1   2
ATOM      2  C   UNL     1      35.509  32.077   2.619  1.00  0.00    -0.028 C 
ATOM      3  C   UNL     1      36.204  31.245   1.809  1.00  0.00    -0.077 C 
ATOM      4  C   UNL     1      37.678  31.438   1.543  1.00  0.00     0.039 C 
BRANCH   3   5
ATOM      5  C   UNL     1      35.477  30.099   1.134  1.00  0.00     0.034 C 
BRANCH   5   6
ATOM      6  C   UNL     1      35.359  28.875   2.053  1.00  0.00     0.032 C 
BRANCH   6   7
ATOM      7  C   UNL     1      34.695  29.222   3.365  1.00  0.00    -0.028 C 
ATOM      8  C   UNL     1      32.846  29.672   4.918  1.00  0.00     0.039 C 
ATOM      9  C   UNL     1      33.359  29.258   3.564  1.00  0.00    -0.080 C 
ATOM     10  C   UNL     1      32.377  28.880   2.479  1.00  0.00     0.039 C 
ENDBRANCH   6   7
ENDBRANCH   5   6
ENDBRANCH   3   5
ENDBRANCH   1   2
BRANCH   1  11
ATOM     11  C   UNL     1      35.023  34.179   3.888  1.00  0.00     0.034 C 
BRANCH  11  12
ATOM     12  C   UNL     1      35.342  35.613   3.527  1.00  0.00    -0.075 C 
ATOM     13  C   UNL     1      34.344  36.527   3.510  1.00  0.00    -0.000 C 
ATOM     14  C   UNL     1      36.768  35.994   3.208  1.00  0.00     0.039 C 
BRANCH  13  15
ATOM     15  C   UNL     1      34.543  37.978   3.172  1.00  0.00     0.183 C 
BRANCH  15  16
ATOM     16  O   UNL     1      35.140  38.095   1.911  1.00  0.00    -0.392 OA
ATOM     17  H   UNL     1      34.719  38.884   1.479  1.00  0.00     0.210 HD
ENDBRANCH  15  16
ENDBRANCH  13  15
ENDBRANCH  11  12
ENDBRANCH   1  11
TORSDOF 8
ENDMDL
MODEL 6
REMARK VINA RESULT:    -5.309      2.808      3.591
REMARK INTER + INTRA:          -8.373
REMARK INTER:                  -7.384
REMARK INTRA:                  -0.989
REMARK UNBOUND:                -0.736
REMARK SMILES CC(C)=CCCC(C)=CCCC(C)=CCO
REMARK SMILES IDX 10 1 9 2 7 3 8 4 6 5 5 6 4 7 1 8 2 9 3 10 11 11 12 12 14 13
REMARK SMILES IDX 13 14 15 15 16 16
REMARK H PARENT 16 17
REMARK Flexibility Score: inf
ROOT
ATOM      1  C   UNL     1      26.517  33.758  -0.197  1.00  0.00     0.032 C 
ENDROOT
BRANCH   1   2
ATOM      2  C   UNL     1      25.920  32.972  -1.338  1.00  0.00    -0.028 C 
ATOM      3  C   UNL     1      25.195  31.839  -1.189  1.00  0.00    -0.077 C 
ATOM      4  C   UNL     1      24.958  31.216   0.167  1.00  0.00     0.039 C 
BRANCH   3   5
ATOM      5  C   UNL     1      24.622  31.165  -2.419  1.00  0.00     0.034 C 
BRANCH   5   6
ATOM      6  C   UNL     1      24.991  29.676  -2.480  1.00  0.00     0.032 C 
BRANCH   6   7
ATOM      7  C   UNL     1      26.224  29.437  -3.320  1.00  0.00    -0.028 C 
ATOM      8  C   UNL     1      28.613  29.123  -3.797  1.00  0.00     0.039 C 
ATOM      9  C   UNL     1      27.475  29.305  -2.827  1.00  0.00    -0.080 C 
ATOM     10  C   UNL     1      27.757  29.318  -1.343  1.00  0.00     0.039 C 
ENDBRANCH   6   7
ENDBRANCH   5   6
ENDBRANCH   3   5
ENDBRANCH   1   2
BRANCH   1  11
ATOM     11  C   UNL     1      25.438  34.573   0.526  1.00  0.00     0.034 C 
BRANCH  11  12
ATOM     12  C   UNL     1      25.748  34.683   2.002  1.00  0.00    -0.075 C 
ATOM     13  C   UNL     1      26.363  35.795   2.465  1.00  0.00    -0.000 C 
ATOM     14  C   UNL     1      25.349  33.558   2.926  1.00  0.00     0.039 C 
BRANCH  13  15
ATOM     15  C   UNL     1      26.716  36.018   3.910  1.00  0.00     0.183 C 
BRANCH  15  16
ATOM     16  O   UNL     1      25.794  36.893   4.495  1.00  0.00    -0.392 OA
ATOM     17  H   UNL     1      25.747  36.642   5.454  1.00  0.00     0.210 HD
ENDBRANCH  15  16
ENDBRANCH  13  15
ENDBRANCH  11  12
ENDBRANCH   1  11
TORSDOF 8
ENDMDL
MODEL 7
REMARK VINA RESULT:    -5.255      1.570      2.503
REMARK INTER + INTRA:          -8.295
REMARK INTER:                  -7.610
REMARK INTRA:                  -0.685
REMARK UNBOUND:                -0.736
REMARK SMILES CC(C)=CCCC(C)=CCCC(C)=CCO
REMARK SMILES IDX 10 1 9 2 7 3 8 4 6 5 5 6 4 7 1 8 2 9 3 10 11 11 12 12 14 13
REMARK SMILES IDX 13 14 15 15 16 16
REMARK H PARENT 16 17
REMARK Flexibility Score: inf
ROOT
ATOM      1  C   UNL     1      25.490  31.388   0.050  1.00  0.00     0.032 C 
ENDROOT
BRANCH   1   2
ATOM      2  C   UNL     1      24.999  31.342  -1.376  1.00  0.00    -0.028 C 
ATOM      3  C   UNL     1      24.960  32.410  -2.206  1.00  0.00    -0.077 C 
ATOM      4  C   UNL     1      25.367  33.791  -1.748  1.00  0.00     0.039 C 
BRANCH   3   5
ATOM      5  C   UNL     1      24.475  32.219  -3.629  1.00  0.00     0.034 C 
BRANCH   5   6
ATOM      6  C   UNL     1      25.563  32.563  -4.656  1.00  0.00     0.032 C 
BRANCH   6   7
ATOM      7  C   UNL     1      25.000  33.318  -5.838  1.00  0.00    -0.028 C 
ATOM      8  C   UNL     1      25.025  34.496  -7.992  1.00  0.00     0.039 C 
ATOM      9  C   UNL     1      25.717  33.704  -6.915  1.00  0.00    -0.080 C 
ATOM     10  C   UNL     1      27.178  33.349  -7.074  1.00  0.00     0.039 C 
ENDBRANCH   6   7
ENDBRANCH   5   6
ENDBRANCH   3   5
ENDBRANCH   1   2
BRANCH   1  11
ATOM     11  C   UNL     1      24.323  31.607   1.020  1.00  0.00     0.034 C 
BRANCH  11  12
ATOM     12  C   UNL     1      24.768  32.409   2.222  1.00  0.00    -0.075 C 
ATOM     13  C   UNL     1      25.344  33.619   2.032  1.00  0.00    -0.000 C 
ATOM     14  C   UNL     1      24.547  31.848   3.607  1.00  0.00     0.039 C 
BRANCH  13  15
ATOM     15  C   UNL     1      25.820  34.505   3.149  1.00  0.00     0.183 C 
BRANCH  15  16
ATOM     16  O   UNL     1      27.218  34.486   3.208  1.00  0.00    -0.392 OA
ATOM     17  H   UNL     1      27.463  33.636   3.659  1.00  0.00     0.210 HD
ENDBRANCH  15  16
ENDBRANCH  13  15
ENDBRANCH  11  12
ENDBRANCH   1  11
TORSDOF 8
ENDMDL
