MODEL 1
REMARK VINA RESULT:    -5.787      0.000      0.000
REMARK INTER + INTRA:         -18.228
REMARK INTER:                 -15.259
REMARK INTRA:                  -2.968
REMARK UNBOUND:                -2.968
REMARK SMILES CCCCCCCCCCCCCCCCCCCCCCCCCCCCCC(=O)[O-]
REMARK SMILES IDX 16 1 17 2 18 3 19 4 20 5 21 6 22 7 23 8 24 9 25 10 26 11
REMARK SMILES IDX 27 12 28 13 29 14 30 15 31 16 32 17 15 18 14 19 13 20 12 21
REMARK SMILES IDX 11 22 10 23 9 24 8 25 7 26 6 27 5 28 4 29 3 30 2 31 1 32
REMARK H PARENT
REMARK Flexibility Score: inf
ROOT
ATOM      1  C   UNL     1      87.114  64.488   6.970  1.00  0.00     0.000 C 
ENDROOT
BRANCH   1   2
ATOM      2  C   UNL     1      85.596  64.202   6.981  1.00  0.00     0.000 C 
BRANCH   2   3
ATOM      3  C   UNL     1      85.113  63.256   8.093  1.00  0.00     0.000 C 
BRANCH   3   4
ATOM      4  C   UNL     1      85.373  61.777   7.780  1.00  0.00     0.000 C 
BRANCH   4   5
ATOM      5  C   UNL     1      85.123  60.912   9.022  1.00  0.00     0.000 C 
BRANCH   5   6
ATOM      6  C   UNL     1      84.320  61.674  10.089  1.00  0.00     0.000 C 
BRANCH   6   7
ATOM      7  C   UNL     1      82.907  61.103  10.287  1.00  0.00     0.000 C 
BRANCH   7   8
ATOM      8  C   UNL     1      82.886  59.875  11.210  1.00  0.00     0.000 C 
BRANCH   8   9
ATOM      9  C   UNL     1      81.829  58.857  10.755  1.00  0.00     0.000 C 
BRANCH   9  10
ATOM     10  C   UNL     1      80.512  59.523  10.315  1.00  0.00     0.000 C 
BRANCH  10  11
ATOM     11  C   UNL     1      79.295  58.580  10.291  1.00  0.00     0.000 C 
BRANCH  11  12
ATOM     12  C   UNL     1      79.687  57.104  10.478  1.00  0.00     0.000 C 
BRANCH  12  13
ATOM     13  C   UNL     1      78.677  56.139   9.834  1.00  0.00     0.006 C 
BRANCH  13  14
ATOM     14  C   UNL     1      77.719  56.838   8.860  1.00  0.00     0.053 C 
BRANCH  14  15
ATOM     15  C   UNL     1      77.783  56.197   7.509  1.00  0.00     0.041 C 
ATOM     16  O   UNL     1      77.845  54.944   7.404  1.00  0.00    -0.550 OA
ATOM     17  O   UNL     1      77.741  56.982   6.363  1.00  0.00    -0.550 OA
ENDBRANCH  14  15
ENDBRANCH  13  14
ENDBRANCH  12  13
ENDBRANCH  11  12
ENDBRANCH  10  11
ENDBRANCH   9  10
ENDBRANCH   8   9
ENDBRANCH   7   8
ENDBRANCH   6   7
ENDBRANCH   5   6
ENDBRANCH   4   5
ENDBRANCH   3   4
ENDBRANCH   2   3
ENDBRANCH   1   2
BRANCH   1  18
ATOM     18  C   UNL     1      87.519  65.928   7.342  1.00  0.00     0.000 C 
BRANCH  18  19
ATOM     19  C   UNL     1      88.621  66.031   8.414  1.00  0.00     0.000 C 
BRANCH  19  20
ATOM     20  C   UNL     1      89.078  64.662   8.972  1.00  0.00     0.000 C 
BRANCH  20  21
ATOM     21  C   UNL     1      90.406  64.722   9.750  1.00  0.00     0.000 C 
BRANCH  21  22
ATOM     22  C   UNL     1      91.655  64.509   8.862  1.00  0.00     0.000 C 
BRANCH  22  23
ATOM     23  C   UNL     1      92.053  63.030   8.703  1.00  0.00     0.000 C 
BRANCH  23  24
ATOM     24  C   UNL     1      92.038  62.563   7.240  1.00  0.00    -0.000 C 
BRANCH  24  25
ATOM     25  C   UNL     1      91.155  61.324   7.010  1.00  0.00    -0.000 C 
BRANCH  25  26
ATOM     26  C   UNL     1      89.639  61.606   7.065  1.00  0.00    -0.000 C 
BRANCH  26  27
ATOM     27  C   UNL     1      88.844  60.473   7.737  1.00  0.00    -0.000 C 
BRANCH  27  28
ATOM     28  C   UNL     1      89.049  59.143   6.991  1.00  0.00    -0.000 C 
BRANCH  28  29
ATOM     29  C   UNL     1      87.730  58.383   6.773  1.00  0.00    -0.000 C 
BRANCH  29  30
ATOM     30  C   UNL     1      87.293  57.587   8.017  1.00  0.00    -0.000 C 
BRANCH  30  31
ATOM     31  C   UNL     1      88.489  57.031   8.806  1.00  0.00    -0.003 C 
ATOM     32  C   UNL     1      88.443  57.401  10.289  1.00  0.00     0.004 C 
ENDBRANCH  30  31
ENDBRANCH  29  30
ENDBRANCH  28  29
ENDBRANCH  27  28
ENDBRANCH  26  27
ENDBRANCH  25  26
ENDBRANCH  24  25
ENDBRANCH  23  24
ENDBRANCH  22  23
ENDBRANCH  21  22
ENDBRANCH  20  21
ENDBRANCH  19  20
ENDBRANCH  18  19
ENDBRANCH   1  18
TORSDOF 28
ENDMDL
MODEL 2
REMARK VINA RESULT:    -5.784      5.540     10.221
REMARK INTER + INTRA:         -18.221
REMARK INTER:                 -14.976
REMARK INTRA:                  -3.245
REMARK UNBOUND:                -2.968
REMARK SMILES CCCCCCCCCCCCCCCCCCCCCCCCCCCCCC(=O)[O-]
REMARK SMILES IDX 16 1 17 2 18 3 19 4 20 5 21 6 22 7 23 8 24 9 25 10 26 11
REMARK SMILES IDX 27 12 28 13 29 14 30 15 31 16 32 17 15 18 14 19 13 20 12 21
REMARK SMILES IDX 11 22 10 23 9 24 8 25 7 26 6 27 5 28 4 29 3 30 2 31 1 32
REMARK H PARENT
REMARK Flexibility Score: inf
ROOT
ATOM      1  C   UNL     1      79.953  57.698  10.450  1.00  0.00     0.000 C 
ENDROOT
BRANCH   1   2
ATOM      2  C   UNL     1      79.627  59.205  10.365  1.00  0.00     0.000 C 
BRANCH   2   3
ATOM      3  C   UNL     1      80.846  60.137  10.269  1.00  0.00     0.000 C 
BRANCH   3   4
ATOM      4  C   UNL     1      82.008  59.704  11.172  1.00  0.00     0.000 C 
BRANCH   4   5
ATOM      5  C   UNL     1      83.211  59.263  10.329  1.00  0.00     0.000 C 
BRANCH   5   6
ATOM      6  C   UNL     1      84.101  60.458   9.948  1.00  0.00     0.000 C 
BRANCH   6   7
ATOM      7  C   UNL     1      85.101  60.828  11.056  1.00  0.00     0.000 C 
BRANCH   7   8
ATOM      8  C   UNL     1      85.686  59.596  11.765  1.00  0.00     0.000 C 
BRANCH   8   9
ATOM      9  C   UNL     1      85.884  59.862  13.265  1.00  0.00     0.000 C 
BRANCH   9  10
ATOM     10  C   UNL     1      84.801  60.788  13.853  1.00  0.00     0.000 C 
BRANCH  10  11
ATOM     11  C   UNL     1      84.671  60.726  15.386  1.00  0.00     0.000 C 
BRANCH  11  12
ATOM     12  C   UNL     1      85.227  61.984  16.078  1.00  0.00     0.000 C 
BRANCH  12  13
ATOM     13  C   UNL     1      85.093  63.244  15.206  1.00  0.00     0.006 C 
BRANCH  13  14
ATOM     14  C   UNL     1      85.337  64.541  15.990  1.00  0.00     0.053 C 
BRANCH  14  15
ATOM     15  C   UNL     1      84.236  65.523  15.737  1.00  0.00     0.041 C 
ATOM     16  O   UNL     1      83.464  65.864  16.670  1.00  0.00    -0.550 OA
ATOM     17  O   UNL     1      84.083  66.088  14.476  1.00  0.00    -0.550 OA
ENDBRANCH  14  15
ENDBRANCH  13  14
ENDBRANCH  12  13
ENDBRANCH  11  12
ENDBRANCH  10  11
ENDBRANCH   9  10
ENDBRANCH   8   9
ENDBRANCH   7   8
ENDBRANCH   6   7
ENDBRANCH   5   6
ENDBRANCH   4   5
ENDBRANCH   3   4
ENDBRANCH   2   3
ENDBRANCH   1   2
BRANCH   1  18
ATOM     18  C   UNL     1      78.762  56.780  10.790  1.00  0.00     0.000 C 
BRANCH  18  19
ATOM     19  C   UNL     1      77.663  56.725   9.710  1.00  0.00     0.000 C 
BRANCH  19  20
ATOM     20  C   UNL     1      78.211  56.611   8.268  1.00  0.00     0.000 C 
BRANCH  20  21
ATOM     21  C   UNL     1      77.788  55.319   7.544  1.00  0.00     0.000 C 
BRANCH  21  22
ATOM     22  C   UNL     1      78.504  54.051   8.067  1.00  0.00     0.000 C 
BRANCH  22  23
ATOM     23  C   UNL     1      80.025  54.062   7.830  1.00  0.00     0.000 C 
BRANCH  23  24
ATOM     24  C   UNL     1      80.800  53.271   8.894  1.00  0.00    -0.000 C 
BRANCH  24  25
ATOM     25  C   UNL     1      81.012  54.058  10.198  1.00  0.00    -0.000 C 
BRANCH  25  26
ATOM     26  C   UNL     1      82.326  54.866  10.246  1.00  0.00    -0.000 C 
BRANCH  26  27
ATOM     27  C   UNL     1      83.307  54.479   9.126  1.00  0.00    -0.000 C 
BRANCH  27  28
ATOM     28  C   UNL     1      84.309  55.615   8.859  1.00  0.00    -0.000 C 
BRANCH  28  29
ATOM     29  C   UNL     1      84.704  56.363  10.143  1.00  0.00    -0.000 C 
BRANCH  29  30
ATOM     30  C   UNL     1      85.888  55.702  10.873  1.00  0.00    -0.000 C 
BRANCH  30  31
ATOM     31  C   UNL     1      87.212  55.867  10.111  1.00  0.00    -0.003 C 
ATOM     32  C   UNL     1      88.028  57.067  10.597  1.00  0.00     0.004 C 
ENDBRANCH  30  31
ENDBRANCH  29  30
ENDBRANCH  28  29
ENDBRANCH  27  28
ENDBRANCH  26  27
ENDBRANCH  25  26
ENDBRANCH  24  25
ENDBRANCH  23  24
ENDBRANCH  22  23
ENDBRANCH  21  22
ENDBRANCH  20  21
ENDBRANCH  19  20
ENDBRANCH  18  19
ENDBRANCH   1  18
TORSDOF 28
ENDMDL
MODEL 3
REMARK VINA RESULT:    -5.644      3.476      8.475
REMARK INTER + INTRA:         -17.851
REMARK INTER:                 -12.047
REMARK INTRA:                  -5.804
REMARK UNBOUND:                -2.968
REMARK SMILES CCCCCCCCCCCCCCCCCCCCCCCCCCCCCC(=O)[O-]
REMARK SMILES IDX 16 1 17 2 18 3 19 4 20 5 21 6 22 7 23 8 24 9 25 10 26 11
REMARK SMILES IDX 27 12 28 13 29 14 30 15 31 16 32 17 15 18 14 19 13 20 12 21
REMARK SMILES IDX 11 22 10 23 9 24 8 25 7 26 6 27 5 28 4 29 3 30 2 31 1 32
REMARK H PARENT
REMARK Flexibility Score: inf
ROOT
ATOM      1  C   UNL     1      89.149  60.371   5.894  1.00  0.00     0.000 C 
ENDROOT
BRANCH   1   2
ATOM      2  C   UNL     1      90.164  60.899   6.931  1.00  0.00     0.000 C 
BRANCH   2   3
ATOM      3  C   UNL     1      91.474  61.452   6.345  1.00  0.00     0.000 C 
BRANCH   3   4
ATOM      4  C   UNL     1      92.213  62.393   7.305  1.00  0.00     0.000 C 
BRANCH   4   5
ATOM      5  C   UNL     1      91.315  62.767   8.491  1.00  0.00     0.000 C 
BRANCH   5   6
ATOM      6  C   UNL     1      91.698  64.134   9.081  1.00  0.00     0.000 C 
BRANCH   6   7
ATOM      7  C   UNL     1      90.591  64.729   9.966  1.00  0.00     0.000 C 
BRANCH   7   8
ATOM      8  C   UNL     1      89.989  66.016   9.380  1.00  0.00     0.000 C 
BRANCH   8   9
ATOM      9  C   UNL     1      90.651  66.377   8.041  1.00  0.00     0.000 C 
BRANCH   9  10
ATOM     10  C   UNL     1      89.677  66.286   6.851  1.00  0.00     0.000 C 
BRANCH  10  11
ATOM     11  C   UNL     1      89.921  65.089   5.915  1.00  0.00     0.000 C 
BRANCH  11  12
ATOM     12  C   UNL     1      88.738  64.104   5.892  1.00  0.00     0.000 C 
BRANCH  12  13
ATOM     13  C   UNL     1      87.650  64.466   6.918  1.00  0.00     0.006 C 
BRANCH  13  14
ATOM     14  C   UNL     1      87.531  63.438   8.051  1.00  0.00     0.053 C 
BRANCH  14  15
ATOM     15  C   UNL     1      86.096  63.099   8.304  1.00  0.00     0.041 C 
ATOM     16  O   UNL     1      85.352  62.737   7.355  1.00  0.00    -0.550 OA
ATOM     17  O   UNL     1      85.585  63.149   9.597  1.00  0.00    -0.550 OA
ENDBRANCH  14  15
ENDBRANCH  13  14
ENDBRANCH  12  13
ENDBRANCH  11  12
ENDBRANCH  10  11
ENDBRANCH   9  10
ENDBRANCH   8   9
ENDBRANCH   7   8
ENDBRANCH   6   7
ENDBRANCH   5   6
ENDBRANCH   4   5
ENDBRANCH   3   4
ENDBRANCH   2   3
ENDBRANCH   1   2
BRANCH   1  18
ATOM     18  C   UNL     1      87.736  60.079   6.439  1.00  0.00     0.000 C 
BRANCH  18  19
ATOM     19  C   UNL     1      86.626  60.053   5.371  1.00  0.00     0.000 C 
BRANCH  19  20
ATOM     20  C   UNL     1      85.917  58.684   5.243  1.00  0.00     0.000 C 
BRANCH  20  21
ATOM     21  C   UNL     1      85.921  57.859   6.543  1.00  0.00     0.000 C 
BRANCH  21  22
ATOM     22  C   UNL     1      86.709  56.533   6.434  1.00  0.00     0.000 C 
BRANCH  22  23
ATOM     23  C   UNL     1      87.411  56.123   7.742  1.00  0.00     0.000 C 
BRANCH  23  24
ATOM     24  C   UNL     1      88.732  56.870   7.970  1.00  0.00    -0.000 C 
BRANCH  24  25
ATOM     25  C   UNL     1      88.665  57.877   9.130  1.00  0.00    -0.000 C 
BRANCH  25  26
ATOM     26  C   UNL     1      87.960  57.344  10.395  1.00  0.00    -0.000 C 
BRANCH  26  27
ATOM     27  C   UNL     1      86.649  58.086  10.707  1.00  0.00    -0.000 C 
BRANCH  27  28
ATOM     28  C   UNL     1      86.531  59.368   9.865  1.00  0.00    -0.000 C 
BRANCH  28  29
ATOM     29  C   UNL     1      85.076  59.689   9.485  1.00  0.00    -0.000 C 
BRANCH  29  30
ATOM     30  C   UNL     1      84.109  58.539   9.824  1.00  0.00    -0.000 C 
BRANCH  30  31
ATOM     31  C   UNL     1      82.925  59.005  10.685  1.00  0.00    -0.003 C 
ATOM     32  C   UNL     1      82.646  60.503  10.547  1.00  0.00     0.004 C 
ENDBRANCH  30  31
ENDBRANCH  29  30
ENDBRANCH  28  29
ENDBRANCH  27  28
ENDBRANCH  26  27
ENDBRANCH  25  26
ENDBRANCH  24  25
ENDBRANCH  23  24
ENDBRANCH  22  23
ENDBRANCH  21  22
ENDBRANCH  20  21
ENDBRANCH  19  20
ENDBRANCH  18  19
ENDBRANCH   1  18
TORSDOF 28
ENDMDL
MODEL 4
REMARK VINA RESULT:    -5.641      4.957      9.342
REMARK INTER + INTRA:         -17.843
REMARK INTER:                 -12.180
REMARK INTRA:                  -5.663
REMARK UNBOUND:                -2.968
REMARK SMILES CCCCCCCCCCCCCCCCCCCCCCCCCCCCCC(=O)[O-]
REMARK SMILES IDX 16 1 17 2 18 3 19 4 20 5 21 6 22 7 23 8 24 9 25 10 26 11
REMARK SMILES IDX 27 12 28 13 29 14 30 15 31 16 32 17 15 18 14 19 13 20 12 21
REMARK SMILES IDX 11 22 10 23 9 24 8 25 7 26 6 27 5 28 4 29 3 30 2 31 1 32
REMARK H PARENT
REMARK Flexibility Score: inf
ROOT
ATOM      1  C   UNL     1      87.152  59.537   5.489  1.00  0.00     0.000 C 
ENDROOT
BRANCH   1   2
ATOM      2  C   UNL     1      88.617  60.018   5.572  1.00  0.00     0.000 C 
BRANCH   2   3
ATOM      3  C   UNL     1      89.296  59.826   6.938  1.00  0.00     0.000 C 
BRANCH   3   4
ATOM      4  C   UNL     1      90.150  61.029   7.360  1.00  0.00     0.000 C 
BRANCH   4   5
ATOM      5  C   UNL     1      91.373  61.169   6.445  1.00  0.00     0.000 C 
BRANCH   5   6
ATOM      6  C   UNL     1      92.274  62.337   6.881  1.00  0.00     0.000 C 
BRANCH   6   7
ATOM      7  C   UNL     1      92.167  63.550   5.942  1.00  0.00     0.000 C 
BRANCH   7   8
ATOM      8  C   UNL     1      91.439  63.222   4.629  1.00  0.00     0.000 C 
BRANCH   8   9
ATOM      9  C   UNL     1      90.212  64.128   4.435  1.00  0.00     0.000 C 
BRANCH   9  10
ATOM     10  C   UNL     1      88.886  63.408   4.744  1.00  0.00     0.000 C 
BRANCH  10  11
ATOM     11  C   UNL     1      88.166  63.911   6.009  1.00  0.00     0.000 C 
BRANCH  11  12
ATOM     12  C   UNL     1      88.925  65.052   6.708  1.00  0.00     0.000 C 
BRANCH  12  13
ATOM     13  C   UNL     1      88.761  65.021   8.237  1.00  0.00     0.006 C 
BRANCH  13  14
ATOM     14  C   UNL     1      89.897  64.271   8.946  1.00  0.00     0.053 C 
BRANCH  14  15
ATOM     15  C   UNL     1      91.003  65.214   9.305  1.00  0.00     0.041 C 
ATOM     16  O   UNL     1      92.183  64.791   9.423  1.00  0.00    -0.550 OA
ATOM     17  O   UNL     1      90.737  66.567   9.477  1.00  0.00    -0.550 OA
ENDBRANCH  14  15
ENDBRANCH  13  14
ENDBRANCH  12  13
ENDBRANCH  11  12
ENDBRANCH  10  11
ENDBRANCH   9  10
ENDBRANCH   8   9
ENDBRANCH   7   8
ENDBRANCH   6   7
ENDBRANCH   5   6
ENDBRANCH   4   5
ENDBRANCH   3   4
ENDBRANCH   2   3
ENDBRANCH   1   2
BRANCH   1  18
ATOM     18  C   UNL     1      86.359  59.601   6.809  1.00  0.00     0.000 C 
BRANCH  18  19
ATOM     19  C   UNL     1      85.768  60.986   7.138  1.00  0.00     0.000 C 
BRANCH  19  20
ATOM     20  C   UNL     1      86.341  61.618   8.428  1.00  0.00     0.000 C 
BRANCH  20  21
ATOM     21  C   UNL     1      85.799  63.030   8.721  1.00  0.00     0.000 C 
BRANCH  21  22
ATOM     22  C   UNL     1      84.967  63.118  10.022  1.00  0.00     0.000 C 
BRANCH  22  23
ATOM     23  C   UNL     1      83.447  63.043   9.788  1.00  0.00     0.000 C 
BRANCH  23  24
ATOM     24  C   UNL     1      82.895  61.615   9.904  1.00  0.00    -0.000 C 
BRANCH  24  25
ATOM     25  C   UNL     1      83.468  60.840  11.102  1.00  0.00    -0.000 C 
BRANCH  25  26
ATOM     26  C   UNL     1      83.442  59.306  10.938  1.00  0.00    -0.000 C 
BRANCH  26  27
ATOM     27  C   UNL     1      83.963  58.842   9.567  1.00  0.00    -0.000 C 
BRANCH  27  28
ATOM     28  C   UNL     1      84.781  57.547   9.701  1.00  0.00    -0.000 C 
BRANCH  28  29
ATOM     29  C   UNL     1      85.765  57.594  10.881  1.00  0.00    -0.000 C 
BRANCH  29  30
ATOM     30  C   UNL     1      87.078  58.317  10.529  1.00  0.00    -0.000 C 
BRANCH  30  31
ATOM     31  C   UNL     1      88.261  57.347  10.385  1.00  0.00    -0.003 C 
ATOM     32  C   UNL     1      88.573  57.006   8.926  1.00  0.00     0.004 C 
ENDBRANCH  30  31
ENDBRANCH  29  30
ENDBRANCH  28  29
ENDBRANCH  27  28
ENDBRANCH  26  27
ENDBRANCH  25  26
ENDBRANCH  24  25
ENDBRANCH  23  24
ENDBRANCH  22  23
ENDBRANCH  21  22
ENDBRANCH  20  21
ENDBRANCH  19  20
ENDBRANCH  18  19
ENDBRANCH   1  18
TORSDOF 28
ENDMDL
MODEL 5
REMARK VINA RESULT:    -5.595      4.266      8.148
REMARK INTER + INTRA:         -17.722
REMARK INTER:                 -12.205
REMARK INTRA:                  -5.518
REMARK UNBOUND:                -2.968
REMARK SMILES CCCCCCCCCCCCCCCCCCCCCCCCCCCCCC(=O)[O-]
REMARK SMILES IDX 16 1 17 2 18 3 19 4 20 5 21 6 22 7 23 8 24 9 25 10 26 11
REMARK SMILES IDX 27 12 28 13 29 14 30 15 31 16 32 17 15 18 14 19 13 20 12 21
REMARK SMILES IDX 11 22 10 23 9 24 8 25 7 26 6 27 5 28 4 29 3 30 2 31 1 32
REMARK H PARENT
REMARK Flexibility Score: inf
ROOT
ATOM      1  C   UNL     1      90.713  64.313   9.963  1.00  0.00     0.000 C 
ENDROOT
BRANCH   1   2
ATOM      2  C   UNL     1      91.981  64.820   9.242  1.00  0.00     0.000 C 
BRANCH   2   3
ATOM      3  C   UNL     1      91.966  66.308   8.853  1.00  0.00     0.000 C 
BRANCH   3   4
ATOM      4  C   UNL     1      91.779  66.534   7.346  1.00  0.00     0.000 C 
BRANCH   4   5
ATOM      5  C   UNL     1      91.960  65.219   6.578  1.00  0.00     0.000 C 
BRANCH   5   6
ATOM      6  C   UNL     1      90.760  64.932   5.660  1.00  0.00     0.000 C 
BRANCH   6   7
ATOM      7  C   UNL     1      90.723  63.475   5.171  1.00  0.00     0.000 C 
BRANCH   7   8
ATOM      8  C   UNL     1      92.065  62.750   5.362  1.00  0.00     0.000 C 
BRANCH   8   9
ATOM      9  C   UNL     1      91.889  61.463   6.183  1.00  0.00     0.000 C 
BRANCH   9  10
ATOM     10  C   UNL     1      90.930  61.645   7.375  1.00  0.00     0.000 C 
BRANCH  10  11
ATOM     11  C   UNL     1      89.828  60.574   7.478  1.00  0.00     0.000 C 
BRANCH  11  12
ATOM     12  C   UNL     1      88.486  61.049   6.894  1.00  0.00     0.000 C 
BRANCH  12  13
ATOM     13  C   UNL     1      88.028  60.197   5.698  1.00  0.00     0.006 C 
BRANCH  13  14
ATOM     14  C   UNL     1      88.289  60.875   4.346  1.00  0.00     0.053 C 
BRANCH  14  15
ATOM     15  C   UNL     1      89.217  60.046   3.514  1.00  0.00     0.041 C 
ATOM     16  O   UNL     1      90.338  60.502   3.168  1.00  0.00    -0.550 OA
ATOM     17  O   UNL     1      88.858  58.754   3.148  1.00  0.00    -0.550 OA
ENDBRANCH  14  15
ENDBRANCH  13  14
ENDBRANCH  12  13
ENDBRANCH  11  12
ENDBRANCH  10  11
ENDBRANCH   9  10
ENDBRANCH   8   9
ENDBRANCH   7   8
ENDBRANCH   6   7
ENDBRANCH   5   6
ENDBRANCH   4   5
ENDBRANCH   3   4
ENDBRANCH   2   3
ENDBRANCH   1   2
BRANCH   1  18
ATOM     18  C   UNL     1      89.397  65.006   9.553  1.00  0.00     0.000 C 
BRANCH  18  19
ATOM     19  C   UNL     1      88.532  64.208   8.559  1.00  0.00     0.000 C 
BRANCH  19  20
ATOM     20  C   UNL     1      87.572  65.086   7.723  1.00  0.00     0.000 C 
BRANCH  20  21
ATOM     21  C   UNL     1      86.742  64.293   6.695  1.00  0.00     0.000 C 
BRANCH  21  22
ATOM     22  C   UNL     1      85.299  63.993   7.164  1.00  0.00     0.000 C 
BRANCH  22  23
ATOM     23  C   UNL     1      85.188  62.740   8.053  1.00  0.00     0.000 C 
BRANCH  23  24
ATOM     24  C   UNL     1      85.139  63.074   9.551  1.00  0.00    -0.000 C 
BRANCH  24  25
ATOM     25  C   UNL     1      84.707  61.883  10.423  1.00  0.00    -0.000 C 
BRANCH  25  26
ATOM     26  C   UNL     1      84.200  60.663   9.626  1.00  0.00    -0.000 C 
BRANCH  26  27
ATOM     27  C   UNL     1      84.930  59.361   9.996  1.00  0.00    -0.000 C 
BRANCH  27  28
ATOM     28  C   UNL     1      86.398  59.407   9.540  1.00  0.00    -0.000 C 
BRANCH  28  29
ATOM     29  C   UNL     1      86.749  58.261   8.576  1.00  0.00    -0.000 C 
BRANCH  29  30
ATOM     30  C   UNL     1      88.125  57.637   8.875  1.00  0.00    -0.000 C 
BRANCH  30  31
ATOM     31  C   UNL     1      88.272  57.222  10.347  1.00  0.00    -0.003 C 
ATOM     32  C   UNL     1      87.424  56.000  10.705  1.00  0.00     0.004 C 
ENDBRANCH  30  31
ENDBRANCH  29  30
ENDBRANCH  28  29
ENDBRANCH  27  28
ENDBRANCH  26  27
ENDBRANCH  25  26
ENDBRANCH  24  25
ENDBRANCH  23  24
ENDBRANCH  22  23
ENDBRANCH  21  22
ENDBRANCH  20  21
ENDBRANCH  19  20
ENDBRANCH  18  19
ENDBRANCH   1  18
TORSDOF 28
ENDMDL
MODEL 6
REMARK VINA RESULT:    -5.580      1.252      2.082
REMARK INTER + INTRA:         -17.682
REMARK INTER:                 -13.757
REMARK INTRA:                  -3.925
REMARK UNBOUND:                -2.968
REMARK SMILES CCCCCCCCCCCCCCCCCCCCCCCCCCCCCC(=O)[O-]
REMARK SMILES IDX 16 1 17 2 18 3 19 4 20 5 21 6 22 7 23 8 24 9 25 10 26 11
REMARK SMILES IDX 27 12 28 13 29 14 30 15 31 16 32 17 15 18 14 19 13 20 12 21
REMARK SMILES IDX 11 22 10 23 9 24 8 25 7 26 6 27 5 28 4 29 3 30 2 31 1 32
REMARK H PARENT
REMARK Flexibility Score: inf
ROOT
ATOM      1  C   UNL     1      88.464  65.153   7.913  1.00  0.00     0.000 C 
ENDROOT
BRANCH   1   2
ATOM      2  C   UNL     1      88.041  63.830   7.237  1.00  0.00     0.000 C 
BRANCH   2   3
ATOM      3  C   UNL     1      86.636  63.832   6.612  1.00  0.00     0.000 C 
BRANCH   3   4
ATOM      4  C   UNL     1      85.711  62.761   7.205  1.00  0.00     0.000 C 
BRANCH   4   5
ATOM      5  C   UNL     1      84.825  63.363   8.303  1.00  0.00     0.000 C 
BRANCH   5   6
ATOM      6  C   UNL     1      84.203  62.271   9.189  1.00  0.00     0.000 C 
BRANCH   6   7
ATOM      7  C   UNL     1      85.124  61.852  10.347  1.00  0.00     0.000 C 
BRANCH   7   8
ATOM      8  C   UNL     1      84.713  60.511  10.976  1.00  0.00     0.000 C 
BRANCH   8   9
ATOM      9  C   UNL     1      83.822  59.701  10.022  1.00  0.00     0.000 C 
BRANCH   9  10
ATOM     10  C   UNL     1      82.505  59.247  10.679  1.00  0.00     0.000 C 
BRANCH  10  11
ATOM     11  C   UNL     1      81.289  60.135  10.355  1.00  0.00     0.000 C 
BRANCH  11  12
ATOM     12  C   UNL     1      79.965  59.351  10.366  1.00  0.00     0.000 C 
BRANCH  12  13
ATOM     13  C   UNL     1      80.174  57.840  10.561  1.00  0.00     0.006 C 
BRANCH  13  14
ATOM     14  C   UNL     1      78.860  57.076  10.775  1.00  0.00     0.053 C 
BRANCH  14  15
ATOM     15  C   UNL     1      78.461  56.359   9.523  1.00  0.00     0.041 C 
ATOM     16  O   UNL     1      79.104  55.347   9.140  1.00  0.00    -0.550 OA
ATOM     17  O   UNL     1      77.355  56.787   8.797  1.00  0.00    -0.550 OA
ENDBRANCH  14  15
ENDBRANCH  13  14
ENDBRANCH  12  13
ENDBRANCH  11  12
ENDBRANCH  10  11
ENDBRANCH   9  10
ENDBRANCH   8   9
ENDBRANCH   7   8
ENDBRANCH   6   7
ENDBRANCH   5   6
ENDBRANCH   4   5
ENDBRANCH   3   4
ENDBRANCH   2   3
ENDBRANCH   1   2
BRANCH   1  18
ATOM     18  C   UNL     1      89.202  65.003   9.259  1.00  0.00     0.000 C 
BRANCH  18  19
ATOM     19  C   UNL     1      90.515  65.801   9.365  1.00  0.00     0.000 C 
BRANCH  19  20
ATOM     20  C   UNL     1      91.784  64.949   9.131  1.00  0.00     0.000 C 
BRANCH  20  21
ATOM     21  C   UNL     1      91.505  63.438   9.022  1.00  0.00     0.000 C 
BRANCH  21  22
ATOM     22  C   UNL     1      91.922  62.828   7.663  1.00  0.00     0.000 C 
BRANCH  22  23
ATOM     23  C   UNL     1      91.794  63.807   6.482  1.00  0.00     0.000 C 
BRANCH  23  24
ATOM     24  C   UNL     1      91.148  63.169   5.244  1.00  0.00    -0.000 C 
BRANCH  24  25
ATOM     25  C   UNL     1      90.996  61.643   5.360  1.00  0.00    -0.000 C 
BRANCH  25  26
ATOM     26  C   UNL     1      89.541  61.162   5.544  1.00  0.00    -0.000 C 
BRANCH  26  27
ATOM     27  C   UNL     1      89.439  59.866   6.367  1.00  0.00    -0.000 C 
BRANCH  27  28
ATOM     28  C   UNL     1      88.982  60.164   7.804  1.00  0.00    -0.000 C 
BRANCH  28  29
ATOM     29  C   UNL     1      87.524  59.747   8.055  1.00  0.00    -0.000 C 
BRANCH  29  30
ATOM     30  C   UNL     1      87.397  58.662   9.142  1.00  0.00    -0.000 C 
BRANCH  30  31
ATOM     31  C   UNL     1      88.680  57.829   9.289  1.00  0.00    -0.003 C 
ATOM     32  C   UNL     1      88.753  56.674   8.289  1.00  0.00     0.004 C 
ENDBRANCH  30  31
ENDBRANCH  29  30
ENDBRANCH  28  29
ENDBRANCH  27  28
ENDBRANCH  26  27
ENDBRANCH  25  26
ENDBRANCH  24  25
ENDBRANCH  23  24
ENDBRANCH  22  23
ENDBRANCH  21  22
ENDBRANCH  20  21
ENDBRANCH  19  20
ENDBRANCH  18  19
ENDBRANCH   1  18
TORSDOF 28
ENDMDL
MODEL 7
REMARK VINA RESULT:    -5.563      7.283     10.214
REMARK INTER + INTRA:         -17.638
REMARK INTER:                 -12.571
REMARK INTRA:                  -5.067
REMARK UNBOUND:                -2.968
REMARK SMILES CCCCCCCCCCCCCCCCCCCCCCCCCCCCCC(=O)[O-]
REMARK SMILES IDX 16 1 17 2 18 3 19 4 20 5 21 6 22 7 23 8 24 9 25 10 26 11
REMARK SMILES IDX 27 12 28 13 29 14 30 15 31 16 32 17 15 18 14 19 13 20 12 21
REMARK SMILES IDX 11 22 10 23 9 24 8 25 7 26 6 27 5 28 4 29 3 30 2 31 1 32
REMARK H PARENT
REMARK Flexibility Score: inf
ROOT
ATOM      1  C   UNL     1      79.733  55.250  11.703  1.00  0.00     0.000 C 
ENDROOT
BRANCH   1   2
ATOM      2  C   UNL     1      78.796  56.442  11.413  1.00  0.00     0.000 C 
BRANCH   2   3
ATOM      3  C   UNL     1      78.933  57.059  10.010  1.00  0.00     0.000 C 
BRANCH   3   4
ATOM      4  C   UNL     1      77.709  56.808   9.120  1.00  0.00     0.000 C 
BRANCH   4   5
ATOM      5  C   UNL     1      78.097  55.968   7.896  1.00  0.00     0.000 C 
BRANCH   5   6
ATOM      6  C   UNL     1      78.184  54.472   8.243  1.00  0.00     0.000 C 
BRANCH   6   7
ATOM      7  C   UNL     1      79.486  53.824   7.743  1.00  0.00     0.000 C 
BRANCH   7   8
ATOM      8  C   UNL     1      79.300  52.352   7.341  1.00  0.00     0.000 C 
BRANCH   8   9
ATOM      9  C   UNL     1      80.065  51.418   8.291  1.00  0.00     0.000 C 
BRANCH   9  10
ATOM     10  C   UNL     1      80.903  50.364   7.542  1.00  0.00     0.000 C 
BRANCH  10  11
ATOM     11  C   UNL     1      81.791  49.491   8.448  1.00  0.00     0.000 C 
BRANCH  11  12
ATOM     12  C   UNL     1      81.109  49.138   9.782  1.00  0.00     0.000 C 
BRANCH  12  13
ATOM     13  C   UNL     1      82.077  49.204  10.975  1.00  0.00     0.006 C 
BRANCH  13  14
ATOM     14  C   UNL     1      81.773  50.366  11.930  1.00  0.00     0.053 C 
BRANCH  14  15
ATOM     15  C   UNL     1      82.314  50.080  13.295  1.00  0.00     0.041 C 
ATOM     16  O   UNL     1      83.280  50.748  13.748  1.00  0.00    -0.550 OA
ATOM     17  O   UNL     1      81.728  49.096  14.085  1.00  0.00    -0.550 OA
ENDBRANCH  14  15
ENDBRANCH  13  14
ENDBRANCH  12  13
ENDBRANCH  11  12
ENDBRANCH  10  11
ENDBRANCH   9  10
ENDBRANCH   8   9
ENDBRANCH   7   8
ENDBRANCH   6   7
ENDBRANCH   5   6
ENDBRANCH   4   5
ENDBRANCH   3   4
ENDBRANCH   2   3
ENDBRANCH   1   2
BRANCH   1  18
ATOM     18  C   UNL     1      80.993  55.167  10.818  1.00  0.00     0.000 C 
BRANCH  18  19
ATOM     19  C   UNL     1      81.663  53.779  10.780  1.00  0.00     0.000 C 
BRANCH  19  20
ATOM     20  C   UNL     1      83.177  53.826  10.470  1.00  0.00     0.000 C 
BRANCH  20  21
ATOM     21  C   UNL     1      83.568  53.090   9.175  1.00  0.00     0.000 C 
BRANCH  21  22
ATOM     22  C   UNL     1      84.441  51.836   9.413  1.00  0.00     0.000 C 
BRANCH  22  23
ATOM     23  C   UNL     1      85.019  51.748  10.838  1.00  0.00     0.000 C 
BRANCH  23  24
ATOM     24  C   UNL     1      85.608  50.368  11.159  1.00  0.00    -0.000 C 
BRANCH  24  25
ATOM     25  C   UNL     1      87.129  50.397  11.389  1.00  0.00    -0.000 C 
BRANCH  25  26
ATOM     26  C   UNL     1      87.967  50.361  10.094  1.00  0.00    -0.000 C 
BRANCH  26  27
ATOM     27  C   UNL     1      88.875  51.594   9.935  1.00  0.00    -0.000 C 
BRANCH  27  28
ATOM     28  C   UNL     1      88.997  51.996   8.455  1.00  0.00    -0.000 C 
BRANCH  28  29
ATOM     29  C   UNL     1      87.810  52.850   7.979  1.00  0.00    -0.000 C 
BRANCH  29  30
ATOM     30  C   UNL     1      87.968  54.338   8.344  1.00  0.00    -0.000 C 
BRANCH  30  31
ATOM     31  C   UNL     1      86.862  54.829   9.291  1.00  0.00    -0.003 C 
ATOM     32  C   UNL     1      87.247  54.704  10.766  1.00  0.00     0.004 C 
ENDBRANCH  30  31
ENDBRANCH  29  30
ENDBRANCH  28  29
ENDBRANCH  27  28
ENDBRANCH  26  27
ENDBRANCH  25  26
ENDBRANCH  24  25
ENDBRANCH  23  24
ENDBRANCH  22  23
ENDBRANCH  21  22
ENDBRANCH  20  21
ENDBRANCH  19  20
ENDBRANCH  18  19
ENDBRANCH   1  18
TORSDOF 28
ENDMDL
MODEL 8
REMARK VINA RESULT:    -5.512      4.631      9.102
REMARK INTER + INTRA:         -17.502
REMARK INTER:                 -12.408
REMARK INTRA:                  -5.094
REMARK UNBOUND:                -2.968
REMARK SMILES CCCCCCCCCCCCCCCCCCCCCCCCCCCCCC(=O)[O-]
REMARK SMILES IDX 16 1 17 2 18 3 19 4 20 5 21 6 22 7 23 8 24 9 25 10 26 11
REMARK SMILES IDX 27 12 28 13 29 14 30 15 31 16 32 17 15 18 14 19 13 20 12 21
REMARK SMILES IDX 11 22 10 23 9 24 8 25 7 26 6 27 5 28 4 29 3 30 2 31 1 32
REMARK H PARENT
REMARK Flexibility Score: inf
ROOT
ATOM      1  C   UNL     1      86.619  58.522  10.222  1.00  0.00     0.000 C 
ENDROOT
BRANCH   1   2
ATOM      2  C   UNL     1      87.519  57.268  10.272  1.00  0.00     0.000 C 
BRANCH   2   3
ATOM      3  C   UNL     1      88.901  57.425   9.615  1.00  0.00     0.000 C 
BRANCH   3   4
ATOM      4  C   UNL     1      88.906  57.051   8.126  1.00  0.00     0.000 C 
BRANCH   4   5
ATOM      5  C   UNL     1      87.999  55.841   7.872  1.00  0.00     0.000 C 
BRANCH   5   6
ATOM      6  C   UNL     1      87.008  56.108   6.727  1.00  0.00     0.000 C 
BRANCH   6   7
ATOM      7  C   UNL     1      87.711  56.471   5.408  1.00  0.00     0.000 C 
BRANCH   7   8
ATOM      8  C   UNL     1      87.370  57.890   4.925  1.00  0.00     0.000 C 
BRANCH   8   9
ATOM      9  C   UNL     1      86.048  58.381   5.536  1.00  0.00     0.000 C 
BRANCH   9  10
ATOM     10  C   UNL     1      86.119  59.845   6.009  1.00  0.00     0.000 C 
BRANCH  10  11
ATOM     11  C   UNL     1      87.535  60.449   6.011  1.00  0.00     0.000 C 
BRANCH  11  12
ATOM     12  C   UNL     1      88.124  60.573   7.427  1.00  0.00     0.000 C 
BRANCH  12  13
ATOM     13  C   UNL     1      89.661  60.628   7.425  1.00  0.00     0.006 C 
BRANCH  13  14
ATOM     14  C   UNL     1      90.209  62.025   7.105  1.00  0.00     0.053 C 
BRANCH  14  15
ATOM     15  C   UNL     1      91.705  62.005   7.059  1.00  0.00     0.041 C 
ATOM     16  O   UNL     1      92.376  62.406   8.046  1.00  0.00    -0.550 OA
ATOM     17  O   UNL     1      92.361  61.510   5.937  1.00  0.00    -0.550 OA
ENDBRANCH  14  15
ENDBRANCH  13  14
ENDBRANCH  12  13
ENDBRANCH  11  12
ENDBRANCH  10  11
ENDBRANCH   9  10
ENDBRANCH   8   9
ENDBRANCH   7   8
ENDBRANCH   6   7
ENDBRANCH   5   6
ENDBRANCH   4   5
ENDBRANCH   3   4
ENDBRANCH   2   3
ENDBRANCH   1   2
BRANCH   1  18
ATOM     18  C   UNL     1      85.485  58.482   9.178  1.00  0.00     0.000 C 
BRANCH  18  19
ATOM     19  C   UNL     1      84.064  58.443   9.773  1.00  0.00     0.000 C 
BRANCH  19  20
ATOM     20  C   UNL     1      83.872  59.375  10.992  1.00  0.00     0.000 C 
BRANCH  20  21
ATOM     21  C   UNL     1      82.681  60.342  10.852  1.00  0.00     0.000 C 
BRANCH  21  22
ATOM     22  C   UNL     1      83.011  61.621  10.048  1.00  0.00     0.000 C 
BRANCH  22  23
ATOM     23  C   UNL     1      84.448  62.130  10.262  1.00  0.00     0.000 C 
BRANCH  23  24
ATOM     24  C   UNL     1      85.249  62.224   8.956  1.00  0.00    -0.000 C 
BRANCH  24  25
ATOM     25  C   UNL     1      84.777  63.365   8.038  1.00  0.00    -0.000 C 
BRANCH  25  26
ATOM     26  C   UNL     1      85.715  63.651   6.847  1.00  0.00    -0.000 C 
BRANCH  26  27
ATOM     27  C   UNL     1      87.078  64.219   7.282  1.00  0.00    -0.000 C 
BRANCH  27  28
ATOM     28  C   UNL     1      87.104  65.750   7.138  1.00  0.00    -0.000 C 
BRANCH  28  29
ATOM     29  C   UNL     1      88.305  66.386   7.858  1.00  0.00    -0.000 C 
BRANCH  29  30
ATOM     30  C   UNL     1      89.635  65.685   7.522  1.00  0.00    -0.000 C 
BRANCH  30  31
ATOM     31  C   UNL     1      90.381  65.212   8.779  1.00  0.00    -0.003 C 
ATOM     32  C   UNL     1      91.714  65.934   8.983  1.00  0.00     0.004 C 
ENDBRANCH  30  31
ENDBRANCH  29  30
ENDBRANCH  28  29
ENDBRANCH  27  28
ENDBRANCH  26  27
ENDBRANCH  25  26
ENDBRANCH  24  25
ENDBRANCH  23  24
ENDBRANCH  22  23
ENDBRANCH  21  22
ENDBRANCH  20  21
ENDBRANCH  19  20
ENDBRANCH  18  19
ENDBRANCH   1  18
TORSDOF 28
ENDMDL
MODEL 9
REMARK VINA RESULT:    -5.497      2.600      6.067
REMARK INTER + INTRA:         -17.464
REMARK INTER:                 -13.203
REMARK INTRA:                  -4.261
REMARK UNBOUND:                -2.968
REMARK SMILES CCCCCCCCCCCCCCCCCCCCCCCCCCCCCC(=O)[O-]
REMARK SMILES IDX 16 1 17 2 18 3 19 4 20 5 21 6 22 7 23 8 24 9 25 10 26 11
REMARK SMILES IDX 27 12 28 13 29 14 30 15 31 16 32 17 15 18 14 19 13 20 12 21
REMARK SMILES IDX 11 22 10 23 9 24 8 25 7 26 6 27 5 28 4 29 3 30 2 31 1 32
REMARK H PARENT
REMARK Flexibility Score: inf
ROOT
ATOM      1  C   UNL     1      84.425  58.623   9.769  1.00  0.00     0.000 C 
ENDROOT
BRANCH   1   2
ATOM      2  C   UNL     1      84.000  60.020  10.273  1.00  0.00     0.000 C 
BRANCH   2   3
ATOM      3  C   UNL     1      82.754  60.042  11.173  1.00  0.00     0.000 C 
BRANCH   3   4
ATOM      4  C   UNL     1      81.671  59.051  10.727  1.00  0.00     0.000 C 
BRANCH   4   5
ATOM      5  C   UNL     1      80.410  59.798  10.275  1.00  0.00     0.000 C 
BRANCH   5   6
ATOM      6  C   UNL     1      79.250  58.829   9.992  1.00  0.00     0.000 C 
BRANCH   6   7
ATOM      7  C   UNL     1      79.487  57.432  10.589  1.00  0.00     0.000 C 
BRANCH   7   8
ATOM      8  C   UNL     1      78.382  56.432  10.215  1.00  0.00     0.000 C 
BRANCH   8   9
ATOM      9  C   UNL     1      77.646  56.872   8.939  1.00  0.00     0.000 C 
BRANCH   9  10
ATOM     10  C   UNL     1      77.952  55.964   7.732  1.00  0.00     0.000 C 
BRANCH  10  11
ATOM     11  C   UNL     1      78.461  54.559   8.102  1.00  0.00     0.000 C 
BRANCH  11  12
ATOM     12  C   UNL     1      79.927  54.333   7.691  1.00  0.00     0.000 C 
BRANCH  12  13
ATOM     13  C   UNL     1      80.754  53.661   8.800  1.00  0.00     0.006 C 
BRANCH  13  14
ATOM     14  C   UNL     1      81.576  54.663   9.623  1.00  0.00     0.053 C 
BRANCH  14  15
ATOM     15  C   UNL     1      83.041  54.448   9.399  1.00  0.00     0.041 C 
ATOM     16  O   UNL     1      83.868  54.721  10.308  1.00  0.00    -0.550 OA
ATOM     17  O   UNL     1      83.491  53.915   8.197  1.00  0.00    -0.550 OA
ENDBRANCH  14  15
ENDBRANCH  13  14
ENDBRANCH  12  13
ENDBRANCH  11  12
ENDBRANCH  10  11
ENDBRANCH   9  10
ENDBRANCH   8   9
ENDBRANCH   7   8
ENDBRANCH   6   7
ENDBRANCH   5   6
ENDBRANCH   4   5
ENDBRANCH   3   4
ENDBRANCH   2   3
ENDBRANCH   1   2
BRANCH   1  18
ATOM     18  C   UNL     1      85.483  57.902  10.628  1.00  0.00     0.000 C 
BRANCH  18  19
ATOM     19  C   UNL     1      86.943  58.194  10.231  1.00  0.00     0.000 C 
BRANCH  19  20
ATOM     20  C   UNL     1      87.954  57.149  10.760  1.00  0.00     0.000 C 
BRANCH  20  21
ATOM     21  C   UNL     1      87.518  55.691  10.525  1.00  0.00     0.000 C 
BRANCH  21  22
ATOM     22  C   UNL     1      87.217  55.364   9.044  1.00  0.00     0.000 C 
BRANCH  22  23
ATOM     23  C   UNL     1      88.331  55.804   8.076  1.00  0.00     0.000 C 
BRANCH  23  24
ATOM     24  C   UNL     1      87.801  56.615   6.885  1.00  0.00    -0.000 C 
BRANCH  24  25
ATOM     25  C   UNL     1      86.271  56.771   6.893  1.00  0.00    -0.000 C 
BRANCH  25  26
ATOM     26  C   UNL     1      85.760  58.056   6.208  1.00  0.00    -0.000 C 
BRANCH  26  27
ATOM     27  C   UNL     1      86.811  59.179   6.181  1.00  0.00    -0.000 C 
BRANCH  27  28
ATOM     28  C   UNL     1      86.404  60.333   7.112  1.00  0.00    -0.000 C 
BRANCH  28  29
ATOM     29  C   UNL     1      87.587  60.869   7.935  1.00  0.00    -0.000 C 
BRANCH  29  30
ATOM     30  C   UNL     1      88.870  60.041   7.735  1.00  0.00    -0.000 C 
BRANCH  30  31
ATOM     31  C   UNL     1      90.023  60.879   7.161  1.00  0.00    -0.003 C 
ATOM     32  C   UNL     1      90.007  62.326   7.656  1.00  0.00     0.004 C 
ENDBRANCH  30  31
ENDBRANCH  29  30
ENDBRANCH  28  29
ENDBRANCH  27  28
ENDBRANCH  26  27
ENDBRANCH  25  26
ENDBRANCH  24  25
ENDBRANCH  23  24
ENDBRANCH  22  23
ENDBRANCH  21  22
ENDBRANCH  20  21
ENDBRANCH  19  20
ENDBRANCH  18  19
ENDBRANCH   1  18
TORSDOF 28
ENDMDL
