MODEL 1
REMARK VINA RESULT:    -0.490      0.000      0.000
REMARK INTER + INTRA:          -0.560
REMARK INTER:                  -0.533
REMARK INTRA:                  -0.027
REMARK UNBOUND:                -0.027
REMARK SMILES COc1ccccc1O
REMARK SMILES IDX 3 1 4 2 5 3 6 4 7 5 8 6 2 7 1 8 9 9
REMARK H PARENT 9 10
REMARK Flexibility Score: inf
ROOT
ATOM      1  C   UNL     1       0.955 -22.534 -17.634  1.00  0.00     0.160 A 
ATOM      2  C   UNL     1       1.035 -22.724 -19.028  1.00  0.00     0.050 A 
ATOM      3  C   UNL     1       1.113 -24.015 -19.560  1.00  0.00     0.004 A 
ATOM      4  C   UNL     1       1.111 -25.125 -18.712  1.00  0.00     0.004 A 
ATOM      5  C   UNL     1       1.033 -24.946 -17.329  1.00  0.00     0.050 A 
ATOM      6  C   UNL     1       0.954 -23.655 -16.788  1.00  0.00     0.157 A 
ENDROOT
BRANCH   1   7
ATOM      7  O   UNL     1       0.875 -21.258 -17.055  1.00  0.00    -0.493 OA
ATOM      8  C   UNL     1       0.880 -20.039 -17.792  1.00  0.00     0.278 C 
ENDBRANCH   1   7
BRANCH   6   9
ATOM      9  O   UNL     1       0.875 -23.476 -15.407  1.00  0.00    -0.504 OA
ATOM     10  H   UNL     1       0.245 -24.027 -14.836  1.00  0.00     0.293 HD
ENDBRANCH   6   9
TORSDOF 2
ENDMDL
MODEL 2
REMARK VINA RESULT:     0.916      1.443      2.415
REMARK INTER + INTRA:           0.970
REMARK INTER:                   0.997
REMARK INTRA:                  -0.027
REMARK UNBOUND:                -0.027
REMARK SMILES COc1ccccc1O
REMARK SMILES IDX 3 1 4 2 5 3 6 4 7 5 8 6 2 7 1 8 9 9
REMARK H PARENT 9 10
REMARK Flexibility Score: inf
ROOT
ATOM      1  C   UNL     1       1.027 -22.508 -17.461  1.00  0.00     0.160 A 
ATOM      2  C   UNL     1       0.875 -22.780 -16.087  1.00  0.00     0.050 A 
ATOM      3  C   UNL     1       1.031 -24.084 -15.605  1.00  0.00     0.004 A 
ATOM      4  C   UNL     1       1.339 -25.125 -16.484  1.00  0.00     0.004 A 
ATOM      5  C   UNL     1       1.490 -24.864 -17.848  1.00  0.00     0.050 A 
ATOM      6  C   UNL     1       1.337 -23.560 -18.339  1.00  0.00     0.157 A 
ENDROOT
BRANCH   1   7
ATOM      7  O   UNL     1       0.880 -21.216 -17.990  1.00  0.00    -0.493 OA
ATOM      8  C   UNL     1       0.891 -20.023 -17.211  1.00  0.00     0.278 C 
ENDBRANCH   1   7
BRANCH   6   9
ATOM      9  O   UNL     1       1.488 -23.299 -19.700  1.00  0.00    -0.504 OA
ATOM     10  H   UNL     1       0.860 -23.696 -20.390  1.00  0.00     0.293 HD
ENDBRANCH   6   9
TORSDOF 2
ENDMDL
MODEL 3
REMARK VINA RESULT:     2.254      1.787      3.422
REMARK INTER + INTRA:           2.425
REMARK INTER:                   2.453
REMARK INTRA:                  -0.028
REMARK UNBOUND:                -0.027
REMARK SMILES COc1ccccc1O
REMARK SMILES IDX 3 1 4 2 5 3 6 4 7 5 8 6 2 7 1 8 9 9
REMARK H PARENT 9 10
REMARK Flexibility Score: inf
ROOT
ATOM      1  C   UNL     1       1.113 -23.607 -16.981  1.00  0.00     0.160 A 
ATOM      2  C   UNL     1       1.010 -22.298 -16.470  1.00  0.00     0.050 A 
ATOM      3  C   UNL     1       0.892 -21.209 -17.339  1.00  0.00     0.004 A 
ATOM      4  C   UNL     1       0.875 -21.412 -18.721  1.00  0.00     0.004 A 
ATOM      5  C   UNL     1       0.977 -22.706 -19.237  1.00  0.00     0.050 A 
ATOM      6  C   UNL     1       1.095 -23.804 -18.372  1.00  0.00     0.157 A 
ENDROOT
BRANCH   1   7
ATOM      7  O   UNL     1       1.232 -24.729 -16.147  1.00  0.00    -0.493 OA
ATOM      8  C   UNL     1       0.887 -24.745 -14.766  1.00  0.00     0.278 C 
ENDBRANCH   1   7
BRANCH   6   9
ATOM      9  O   UNL     1       1.196 -25.096 -18.886  1.00  0.00    -0.504 OA
ATOM     10  H   UNL     1       1.261 -25.905 -18.279  1.00  0.00     0.293 HD
ENDBRANCH   6   9
TORSDOF 2
ENDMDL
MODEL 4
REMARK VINA RESULT:     2.317      2.707      3.418
REMARK INTER + INTRA:           2.493
REMARK INTER:                   2.521
REMARK INTRA:                  -0.027
REMARK UNBOUND:                -0.027
REMARK SMILES COc1ccccc1O
REMARK SMILES IDX 3 1 4 2 5 3 6 4 7 5 8 6 2 7 1 8 9 9
REMARK H PARENT 9 10
REMARK Flexibility Score: inf
ROOT
ATOM      1  C   UNL     1       2.101 -25.119 -17.049  1.00  0.00     0.160 A 
ATOM      2  C   UNL     1       0.917 -25.119 -17.813  1.00  0.00     0.050 A 
ATOM      3  C   UNL     1       0.980 -25.121 -19.210  1.00  0.00     0.004 A 
ATOM      4  C   UNL     1       2.218 -25.125 -19.857  1.00  0.00     0.004 A 
ATOM      5  C   UNL     1       3.396 -25.125 -19.107  1.00  0.00     0.050 A 
ATOM      6  C   UNL     1       3.342 -25.123 -17.706  1.00  0.00     0.157 A 
ENDROOT
BRANCH   1   7
ATOM      7  O   UNL     1       2.086 -25.117 -15.645  1.00  0.00    -0.493 OA
ATOM      8  C   UNL     1       0.940 -24.821 -14.854  1.00  0.00     0.278 C 
ENDBRANCH   1   7
BRANCH   6   9
ATOM      9  O   UNL     1       4.518 -25.123 -16.957  1.00  0.00    -0.504 OA
ATOM     10  H   UNL     1       5.334 -24.597 -17.250  1.00  0.00     0.293 HD
ENDBRANCH   6   9
TORSDOF 2
ENDMDL
