MODEL 1
REMARK VINA RESULT:    61.417      0.000      0.000
REMARK INTER + INTRA:          81.072
REMARK INTER:                  81.164
REMARK INTRA:                  -0.093
REMARK UNBOUND:                -0.093
REMARK SMILES C=C(CC[C@H](C)[C@@H]1CC[C@]2(C)[C@@H]3CC[C@@H]4C(C)(C)[C@@H](O)CC[C@@]45C[C@@]35CC[C@]12C)C(C)C
REMARK SMILES IDX 4 1 3 2 2 3 1 4 30 5 31 6 32 7 5 8 6 9 7 10 8 11 28 12 9 13
REMARK SMILES IDX 10 14 27 15 29 16 11 17 12 18 26 19 25 20 13 21 23 22 24 23
REMARK SMILES IDX 14 24 15 25 22 26 16 27 21 28 19 29 17 30 18 31 20 32
REMARK H PARENT 20 33
REMARK Flexibility Score: inf
ROOT
ATOM      1  C   UNL     1     -22.175  27.631  -6.513  1.00  0.00     0.008 C 
ENDROOT
BRANCH   1   2
ATOM      2  C   UNL     1     -21.814  26.181  -6.122  1.00  0.00     0.031 C 
BRANCH   2   3
ATOM      3  C   UNL     1     -20.660  26.141  -5.137  1.00  0.00    -0.075 C 
ATOM      4  C   UNL     1     -20.800  26.748  -3.944  1.00  0.00     0.008 C 
BRANCH   3   5
ATOM      5  C   UNL     1     -19.367  25.406  -5.464  1.00  0.00     0.008 C 
ATOM      6  C   UNL     1     -19.528  23.888  -5.297  1.00  0.00     0.012 C 
ATOM      7  C   UNL     1     -18.875  25.758  -6.874  1.00  0.00     0.012 C 
ENDBRANCH   3   5
ENDBRANCH   2   3
ENDBRANCH   1   2
BRANCH   1   8
ATOM      8  C   UNL     1     -21.834  27.994  -7.992  1.00  0.00    -0.010 C 
ATOM      9  C   UNL     1     -20.359  28.429  -8.098  1.00  0.00     0.008 C 
BRANCH   8  10
ATOM     10  C   UNL     1     -22.809  29.117  -8.515  1.00  0.00    -0.002 C 
ATOM     11  C   UNL     1     -22.600  30.462  -7.787  1.00  0.00     0.005 C 
ATOM     12  C   UNL     1     -24.365  28.886  -8.454  1.00  0.00    -0.024 C 
ATOM     13  C   UNL     1     -23.965  31.133  -7.636  1.00  0.00     0.008 C 
ATOM     14  C   UNL     1     -24.950  30.356  -8.522  1.00  0.00    -0.024 C 
ATOM     15  C   UNL     1     -24.729  28.204  -7.096  1.00  0.00     0.008 C 
ATOM     16  C   UNL     1     -24.880  28.019  -9.640  1.00  0.00     0.012 C 
ATOM     17  C   UNL     1     -24.855  30.929  -9.979  1.00  0.00     0.012 C 
ATOM     18  C   UNL     1     -26.461  30.480  -8.031  1.00  0.00     0.002 C 
ATOM     19  C   UNL     1     -26.218  28.201  -6.808  1.00  0.00     0.008 C 
ATOM     20  C   UNL     1     -26.757  29.640  -6.760  1.00  0.00    -0.020 C 
ATOM     21  C   UNL     1     -26.996  31.939  -7.941  1.00  0.00     0.005 C 
ATOM     22  C   UNL     1     -27.199  30.341  -5.441  1.00  0.00    -0.020 C 
ATOM     23  C   UNL     1     -28.225  29.602  -6.316  1.00  0.00     0.015 C 
ATOM     24  C   UNL     1     -26.742  32.616  -6.595  1.00  0.00     0.005 C 
ATOM     25  C   UNL     1     -27.449  31.889  -5.434  1.00  0.00     0.004 C 
ATOM     26  C   UNL     1     -26.796  29.611  -4.129  1.00  0.00     0.010 C 
ATOM     27  C   UNL     1     -27.181  32.553  -4.037  1.00  0.00    -0.006 C 
ATOM     28  C   UNL     1     -27.218  30.279  -2.805  1.00  0.00     0.033 C 
ATOM     29  C   UNL     1     -27.844  31.681  -2.929  1.00  0.00     0.120 C 
ATOM     30  C   UNL     1     -25.663  32.713  -3.743  1.00  0.00     0.014 C 
ATOM     31  C   UNL     1     -27.820  33.966  -3.979  1.00  0.00     0.014 C 
BRANCH  29  32
ATOM     32  O   UNL     1     -29.242  31.600  -3.097  1.00  0.00    -0.393 OA
ATOM     33  H   UNL     1     -29.665  31.542  -2.202  1.00  0.00     0.210 HD
ENDBRANCH  29  32
ENDBRANCH   8  10
ENDBRANCH   1   8
TORSDOF 6
ENDMDL
MODEL 2
REMARK VINA RESULT:    62.325      4.099      9.721
REMARK INTER + INTRA:          82.272
REMARK INTER:                  82.743
REMARK INTRA:                  -0.472
REMARK UNBOUND:                -0.093
REMARK SMILES C=C(CC[C@H](C)[C@@H]1CC[C@]2(C)[C@@H]3CC[C@@H]4C(C)(C)[C@@H](O)CC[C@@]45C[C@@]35CC[C@]12C)C(C)C
REMARK SMILES IDX 4 1 3 2 2 3 1 4 30 5 31 6 32 7 5 8 6 9 7 10 8 11 28 12 9 13
REMARK SMILES IDX 10 14 27 15 29 16 11 17 12 18 26 19 25 20 13 21 23 22 24 23
REMARK SMILES IDX 14 24 15 25 22 26 16 27 21 28 19 29 17 30 18 31 20 32
REMARK H PARENT 20 33
REMARK Flexibility Score: inf
ROOT
ATOM      1  C   UNL     1     -32.183  29.697  -2.363  1.00  0.00     0.008 C 
ENDROOT
BRANCH   1   2
ATOM      2  C   UNL     1     -33.665  29.269  -2.280  1.00  0.00     0.031 C 
BRANCH   2   3
ATOM      3  C   UNL     1     -34.568  30.247  -3.009  1.00  0.00    -0.075 C 
ATOM      4  C   UNL     1     -34.213  30.672  -4.236  1.00  0.00     0.008 C 
BRANCH   3   5
ATOM      5  C   UNL     1     -35.874  30.729  -2.390  1.00  0.00     0.008 C 
ATOM      6  C   UNL     1     -37.037  29.787  -2.734  1.00  0.00     0.012 C 
ATOM      7  C   UNL     1     -35.732  30.903  -0.872  1.00  0.00     0.012 C 
ENDBRANCH   3   5
ENDBRANCH   2   3
ENDBRANCH   1   2
BRANCH   1   8
ATOM      8  C   UNL     1     -31.693  30.532  -1.140  1.00  0.00    -0.010 C 
ATOM      9  C   UNL     1     -32.885  30.861  -0.219  1.00  0.00     0.008 C 
BRANCH   8  10
ATOM     10  C   UNL     1     -30.961  31.840  -1.630  1.00  0.00    -0.002 C 
ATOM     11  C   UNL     1     -31.321  32.202  -3.088  1.00  0.00     0.005 C 
ATOM     12  C   UNL     1     -29.389  31.910  -1.597  1.00  0.00    -0.024 C 
ATOM     13  C   UNL     1     -30.076  32.790  -3.749  1.00  0.00     0.008 C 
ATOM     14  C   UNL     1     -29.057  33.062  -2.631  1.00  0.00    -0.024 C 
ATOM     15  C   UNL     1     -28.804  30.543  -2.078  1.00  0.00     0.008 C 
ATOM     16  C   UNL     1     -28.845  32.251  -0.178  1.00  0.00     0.012 C 
ATOM     17  C   UNL     1     -29.369  34.472  -2.017  1.00  0.00     0.012 C 
ATOM     18  C   UNL     1     -27.550  33.061  -3.147  1.00  0.00     0.002 C 
ATOM     19  C   UNL     1     -27.315  30.596  -2.360  1.00  0.00     0.008 C 
ATOM     20  C   UNL     1     -27.013  31.636  -3.452  1.00  0.00    -0.020 C 
ATOM     21  C   UNL     1     -27.252  34.084  -4.281  1.00  0.00     0.005 C 
ATOM     22  C   UNL     1     -26.579  31.254  -4.898  1.00  0.00    -0.020 C 
ATOM     23  C   UNL     1     -25.526  31.551  -3.817  1.00  0.00     0.015 C 
ATOM     24  C   UNL     1     -27.496  33.545  -5.691  1.00  0.00     0.005 C 
ATOM     25  C   UNL     1     -26.583  32.348  -6.022  1.00  0.00     0.004 C 
ATOM     26  C   UNL     1     -26.744  29.753  -5.270  1.00  0.00     0.010 C 
ATOM     27  C   UNL     1     -26.834  31.760  -7.456  1.00  0.00    -0.006 C 
ATOM     28  C   UNL     1     -26.324  29.341  -6.695  1.00  0.00     0.033 C 
ATOM     29  C   UNL     1     -25.945  30.494  -7.644  1.00  0.00     0.120 C 
ATOM     30  C   UNL     1     -28.326  31.396  -7.690  1.00  0.00     0.014 C 
ATOM     31  C   UNL     1     -26.429  32.793  -8.540  1.00  0.00     0.014 C 
BRANCH  29  32
ATOM     32  O   UNL     1     -24.572  30.802  -7.547  1.00  0.00    -0.393 OA
ATOM     33  H   UNL     1     -24.373  31.070  -6.613  1.00  0.00     0.210 HD
ENDBRANCH  29  32
ENDBRANCH   8  10
ENDBRANCH   1   8
TORSDOF 6
ENDMDL
MODEL 3
REMARK VINA RESULT:    64.355      3.497      7.763
REMARK INTER + INTRA:          84.954
REMARK INTER:                  85.549
REMARK INTRA:                  -0.595
REMARK UNBOUND:                -0.093
REMARK SMILES C=C(CC[C@H](C)[C@@H]1CC[C@]2(C)[C@@H]3CC[C@@H]4C(C)(C)[C@@H](O)CC[C@@]45C[C@@]35CC[C@]12C)C(C)C
REMARK SMILES IDX 4 1 3 2 2 3 1 4 30 5 31 6 32 7 5 8 6 9 7 10 8 11 28 12 9 13
REMARK SMILES IDX 10 14 27 15 29 16 11 17 12 18 26 19 25 20 13 21 23 22 24 23
REMARK SMILES IDX 14 24 15 25 22 26 16 27 21 28 19 29 17 30 18 31 20 32
REMARK H PARENT 20 33
REMARK Flexibility Score: inf
ROOT
ATOM      1  C   UNL     1     -27.532  32.394  -3.535  1.00  0.00     0.008 C 
ENDROOT
BRANCH   1   2
ATOM      2  C   UNL     1     -28.908  33.081  -3.393  1.00  0.00     0.031 C 
BRANCH   2   3
ATOM      3  C   UNL     1     -29.666  32.563  -2.185  1.00  0.00    -0.075 C 
ATOM      4  C   UNL     1     -30.643  31.656  -2.368  1.00  0.00     0.008 C 
BRANCH   3   5
ATOM      5  C   UNL     1     -29.323  33.031  -0.776  1.00  0.00     0.008 C 
ATOM      6  C   UNL     1     -30.009  34.365  -0.448  1.00  0.00     0.012 C 
ATOM      7  C   UNL     1     -29.675  31.957   0.262  1.00  0.00     0.012 C 
ENDBRANCH   3   5
ENDBRANCH   2   3
ENDBRANCH   1   2
BRANCH   1   8
ATOM      8  C   UNL     1     -27.613  30.877  -3.893  1.00  0.00    -0.010 C 
ATOM      9  C   UNL     1     -27.676  30.037  -2.602  1.00  0.00     0.008 C 
BRANCH   8  10
ATOM     10  C   UNL     1     -26.388  30.465  -4.796  1.00  0.00    -0.002 C 
ATOM     11  C   UNL     1     -25.159  31.370  -4.567  1.00  0.00     0.005 C 
ATOM     12  C   UNL     1     -26.552  30.432  -6.361  1.00  0.00    -0.024 C 
ATOM     13  C   UNL     1     -24.449  31.551  -5.908  1.00  0.00     0.008 C 
ATOM     14  C   UNL     1     -25.059  30.532  -6.882  1.00  0.00    -0.024 C 
ATOM     15  C   UNL     1     -27.385  31.673  -6.816  1.00  0.00     0.008 C 
ATOM     16  C   UNL     1     -27.235  29.122  -6.855  1.00  0.00     0.012 C 
ATOM     17  C   UNL     1     -24.309  29.166  -6.695  1.00  0.00     0.012 C 
ATOM     18  C   UNL     1     -24.929  30.971  -8.408  1.00  0.00     0.002 C 
ATOM     19  C   UNL     1     -27.356  31.896  -8.316  1.00  0.00     0.008 C 
ATOM     20  C   UNL     1     -25.911  32.109  -8.797  1.00  0.00    -0.020 C 
ATOM     21  C   UNL     1     -23.471  31.228  -8.886  1.00  0.00     0.005 C 
ATOM     22  C   UNL     1     -25.365  33.489  -9.272  1.00  0.00    -0.020 C 
ATOM     23  C   UNL     1     -25.937  32.483 -10.285  1.00  0.00     0.015 C 
ATOM     24  C   UNL     1     -22.984  32.661  -8.668  1.00  0.00     0.005 C 
ATOM     25  C   UNL     1     -23.820  33.686  -9.458  1.00  0.00     0.004 C 
ATOM     26  C   UNL     1     -26.275  34.709  -8.961  1.00  0.00     0.010 C 
ATOM     27  C   UNL     1     -23.354  35.168  -9.229  1.00  0.00    -0.006 C 
ATOM     28  C   UNL     1     -25.764  36.091  -9.417  1.00  0.00     0.033 C 
ATOM     29  C   UNL     1     -24.330  36.125  -9.979  1.00  0.00     0.120 C 
ATOM     30  C   UNL     1     -23.305  35.543  -7.722  1.00  0.00     0.014 C 
ATOM     31  C   UNL     1     -21.933  35.383  -9.811  1.00  0.00     0.014 C 
BRANCH  29  32
ATOM     32  O   UNL     1     -24.323  35.890 -11.370  1.00  0.00    -0.393 OA
ATOM     33  H   UNL     1     -24.879  36.583 -11.810  1.00  0.00     0.210 HD
ENDBRANCH  29  32
ENDBRANCH   8  10
ENDBRANCH   1   8
TORSDOF 6
ENDMDL
