MODEL 1
REMARK VINA RESULT:    -4.624      0.000      0.000
REMARK INTER + INTRA:          -4.992
REMARK INTER:                  -4.894
REMARK INTRA:                  -0.098
REMARK UNBOUND:                -0.098
REMARK SMILES C=C(C)[C@H]1CC=C(C)C(=O)C1
REMARK SMILES IDX 8 1 7 2 6 3 5 4 4 5 11 6 9 7 10 8 2 9 1 10 3 11
REMARK H PARENT
REMARK Flexibility Score: inf
ROOT
ATOM      1  C   UNL     1      28.469  27.404  25.536  1.00  0.00     0.048 C 
ATOM      2  C   UNL     1      28.701  28.801  25.031  1.00  0.00    -0.012 C 
ATOM      3  C   UNL     1      28.805  29.035  23.711  1.00  0.00    -0.019 C 
ATOM      4  C   UNL     1      29.117  30.403  23.164  1.00  0.00     0.036 C 
ATOM      5  C   UNL     1      28.570  31.509  24.085  1.00  0.00     0.025 C 
ATOM      6  C   UNL     1      29.096  31.321  25.519  1.00  0.00     0.089 C 
ATOM      7  C   UNL     1      28.842  29.919  25.999  1.00  0.00     0.158 C 
ATOM      8  O   UNL     1      28.793  29.692  27.237  1.00  0.00    -0.295 OA
ENDROOT
BRANCH   5   9
ATOM      9  C   UNL     1      28.901  32.896  23.549  1.00  0.00    -0.077 C 
ATOM     10  C   UNL     1      29.001  33.937  24.390  1.00  0.00     0.008 C 
ATOM     11  C   UNL     1      29.124  33.137  22.075  1.00  0.00     0.039 C 
ENDBRANCH   5   9
TORSDOF 1
ENDMDL
MODEL 2
REMARK VINA RESULT:    -3.690      1.894      5.146
REMARK INTER + INTRA:          -4.004
REMARK INTER:                  -3.906
REMARK INTRA:                  -0.098
REMARK UNBOUND:                -0.098
REMARK SMILES C=C(C)[C@H]1CC=C(C)C(=O)C1
REMARK SMILES IDX 8 1 7 2 6 3 5 4 4 5 11 6 9 7 10 8 2 9 1 10 3 11
REMARK H PARENT
REMARK Flexibility Score: inf
ROOT
ATOM      1  C   UNL     1      29.095  32.110  24.746  1.00  0.00     0.048 C 
ATOM      2  C   UNL     1      28.968  30.638  25.029  1.00  0.00    -0.012 C 
ATOM      3  C   UNL     1      28.867  30.200  26.296  1.00  0.00    -0.019 C 
ATOM      4  C   UNL     1      28.819  28.732  26.633  1.00  0.00     0.036 C 
ATOM      5  C   UNL     1      28.161  27.923  25.500  1.00  0.00     0.025 C 
ATOM      6  C   UNL     1      28.877  28.191  24.164  1.00  0.00     0.089 C 
ATOM      7  C   UNL     1      28.981  29.669  23.904  1.00  0.00     0.158 C 
ATOM      8  O   UNL     1      29.125  30.076  22.721  1.00  0.00    -0.295 OA
ENDROOT
BRANCH   5   9
ATOM      9  C   UNL     1      28.128  26.435  25.824  1.00  0.00    -0.077 C 
ATOM     10  C   UNL     1      29.124  25.879  26.533  1.00  0.00     0.008 C 
ATOM     11  C   UNL     1      26.991  25.555  25.366  1.00  0.00     0.039 C 
ENDBRANCH   5   9
TORSDOF 1
ENDMDL
MODEL 3
REMARK VINA RESULT:    -3.176      2.894      6.048
REMARK INTER + INTRA:          -3.460
REMARK INTER:                  -3.364
REMARK INTRA:                  -0.097
REMARK UNBOUND:                -0.098
REMARK SMILES C=C(C)[C@H]1CC=C(C)C(=O)C1
REMARK SMILES IDX 8 1 7 2 6 3 5 4 4 5 11 6 9 7 10 8 2 9 1 10 3 11
REMARK H PARENT
REMARK Flexibility Score: inf
ROOT
ATOM      1  C   UNL     1      28.759  30.370  26.270  1.00  0.00     0.048 C 
ATOM      2  C   UNL     1      28.470  28.912  26.038  1.00  0.00    -0.012 C 
ATOM      3  C   UNL     1      29.125  27.973  26.743  1.00  0.00    -0.019 C 
ATOM      4  C   UNL     1      28.928  26.501  26.489  1.00  0.00     0.036 C 
ATOM      5  C   UNL     1      27.501  26.209  25.987  1.00  0.00     0.025 C 
ATOM      6  C   UNL     1      27.186  27.063  24.745  1.00  0.00     0.089 C 
ATOM      7  C   UNL     1      27.477  28.514  25.009  1.00  0.00     0.158 C 
ATOM      8  O   UNL     1      26.899  29.393  24.316  1.00  0.00    -0.295 OA
ENDROOT
BRANCH   5   9
ATOM      9  C   UNL     1      27.301  24.726  25.708  1.00  0.00    -0.077 C 
ATOM     10  C   UNL     1      28.213  24.046  24.995  1.00  0.00     0.008 C 
ATOM     11  C   UNL     1      26.088  23.986  26.218  1.00  0.00     0.039 C 
ENDBRANCH   5   9
TORSDOF 1
ENDMDL
MODEL 4
REMARK VINA RESULT:    -3.098      1.532      4.906
REMARK INTER + INTRA:          -3.378
REMARK INTER:                  -3.281
REMARK INTRA:                  -0.096
REMARK UNBOUND:                -0.098
REMARK SMILES C=C(C)[C@H]1CC=C(C)C(=O)C1
REMARK SMILES IDX 8 1 7 2 6 3 5 4 4 5 11 6 9 7 10 8 2 9 1 10 3 11
REMARK H PARENT
REMARK Flexibility Score: inf
ROOT
ATOM      1  C   UNL     1      29.124  31.805  24.997  1.00  0.00     0.048 C 
ATOM      2  C   UNL     1      28.756  30.358  25.175  1.00  0.00    -0.012 C 
ATOM      3  C   UNL     1      28.363  29.626  24.118  1.00  0.00    -0.019 C 
ATOM      4  C   UNL     1      27.908  28.197  24.260  1.00  0.00     0.036 C 
ATOM      5  C   UNL     1      28.618  27.502  25.437  1.00  0.00     0.025 C 
ATOM      6  C   UNL     1      28.420  28.308  26.733  1.00  0.00     0.089 C 
ATOM      7  C   UNL     1      28.803  29.747  26.527  1.00  0.00     0.158 C 
ATOM      8  O   UNL     1      29.125  30.447  27.525  1.00  0.00    -0.295 OA
ENDROOT
BRANCH   5   9
ATOM      9  C   UNL     1      28.147  26.063  25.600  1.00  0.00    -0.077 C 
ATOM     10  C   UNL     1      26.849  25.800  25.821  1.00  0.00     0.008 C 
ATOM     11  C   UNL     1      29.112  24.905  25.517  1.00  0.00     0.039 C 
ENDBRANCH   5   9
TORSDOF 1
ENDMDL
MODEL 5
REMARK VINA RESULT:    -3.079      5.974      8.005
REMARK INTER + INTRA:          -3.357
REMARK INTER:                  -3.259
REMARK INTRA:                  -0.098
REMARK UNBOUND:                -0.098
REMARK SMILES C=C(C)[C@H]1CC=C(C)C(=O)C1
REMARK SMILES IDX 8 1 7 2 6 3 5 4 4 5 11 6 9 7 10 8 2 9 1 10 3 11
REMARK H PARENT
REMARK Flexibility Score: inf
ROOT
ATOM      1  C   UNL     1      23.039  22.875  27.207  1.00  0.00     0.048 C 
ATOM      2  C   UNL     1      24.413  23.169  26.670  1.00  0.00    -0.012 C 
ATOM      3  C   UNL     1      24.618  23.242  25.343  1.00  0.00    -0.019 C 
ATOM      4  C   UNL     1      25.990  23.455  24.757  1.00  0.00     0.036 C 
ATOM      5  C   UNL     1      26.878  24.283  25.704  1.00  0.00     0.025 C 
ATOM      6  C   UNL     1      26.934  23.626  27.096  1.00  0.00     0.089 C 
ATOM      7  C   UNL     1      25.547  23.352  27.610  1.00  0.00     0.158 C 
ATOM      8  O   UNL     1      25.364  23.235  28.851  1.00  0.00    -0.295 OA
ENDROOT
BRANCH   5   9
ATOM      9  C   UNL     1      28.273  24.483  25.128  1.00  0.00    -0.077 C 
ATOM     10  C   UNL     1      28.773  23.596  24.253  1.00  0.00     0.008 C 
ATOM     11  C   UNL     1      29.122  25.669  25.516  1.00  0.00     0.039 C 
ENDBRANCH   5   9
TORSDOF 1
ENDMDL
MODEL 6
REMARK VINA RESULT:    -3.037      3.120      5.003
REMARK INTER + INTRA:          -3.313
REMARK INTER:                  -3.226
REMARK INTRA:                  -0.087
REMARK UNBOUND:                -0.098
REMARK SMILES C=C(C)[C@H]1CC=C(C)C(=O)C1
REMARK SMILES IDX 8 1 7 2 6 3 5 4 4 5 11 6 9 7 10 8 2 9 1 10 3 11
REMARK H PARENT
REMARK Flexibility Score: inf
ROOT
ATOM      1  C   UNL     1      27.296  22.878  25.647  1.00  0.00     0.048 C 
ATOM      2  C   UNL     1      27.590  24.351  25.730  1.00  0.00    -0.012 C 
ATOM      3  C   UNL     1      28.750  24.837  25.255  1.00  0.00    -0.019 C 
ATOM      4  C   UNL     1      29.123  26.291  25.389  1.00  0.00     0.036 C 
ATOM      5  C   UNL     1      27.871  27.188  25.385  1.00  0.00     0.025 C 
ATOM      6  C   UNL     1      26.884  26.736  26.477  1.00  0.00     0.089 C 
ATOM      7  C   UNL     1      26.604  25.263  26.363  1.00  0.00     0.158 C 
ATOM      8  O   UNL     1      25.538  24.801  26.851  1.00  0.00    -0.295 OA
ENDROOT
BRANCH   5   9
ATOM      9  C   UNL     1      28.239  28.657  25.542  1.00  0.00    -0.077 C 
ATOM     10  C   UNL     1      27.934  29.535  24.572  1.00  0.00     0.008 C 
ATOM     11  C   UNL     1      28.946  29.165  26.776  1.00  0.00     0.039 C 
ENDBRANCH   5   9
TORSDOF 1
ENDMDL
