MODEL 1
REMARK VINA RESULT:    -6.772      0.000      0.000
REMARK INTER + INTRA:          -8.586
REMARK INTER:                  -8.355
REMARK INTRA:                  -0.231
REMARK UNBOUND:                -0.231
REMARK SMILES O=c1c(O)c(-c2cc(O)c(O)c(O)c2)oc2cc(O)cc(O)c12
REMARK SMILES IDX 5 1 3 2 2 3 1 4 23 5 21 6 20 7 18 8 17 9 16 10 15 11 6 12
REMARK SMILES IDX 7 13 8 14 14 15 10 16 12 17 9 18 11 20 13 22 4 24 22 26
REMARK SMILES IDX 19 28
REMARK H PARENT 9 19 11 21 13 23 4 25 22 27 19 29
REMARK Flexibility Score: inf
ROOT
ATOM      1  C   UNL     1      16.590 -13.437   3.179  1.00  0.00     0.180 A 
ATOM      2  C   UNL     1      16.307 -12.125   3.593  1.00  0.00     0.208 A 
ATOM      3  C   UNL     1      16.253 -11.841   4.967  1.00  0.00     0.238 A 
ATOM      4  O   UNL     1      16.054 -10.652   5.331  1.00  0.00    -0.285 OA
ATOM      5  C   UNL     1      16.466 -12.876   5.909  1.00  0.00     0.111 A 
ATOM      6  C   UNL     1      16.394 -12.709   7.325  1.00  0.00     0.134 A 
ATOM      7  C   UNL     1      16.752 -13.772   8.164  1.00  0.00     0.093 A 
ATOM      8  C   UNL     1      17.114 -15.015   7.637  1.00  0.00     0.123 A 
ATOM      9  C   UNL     1      17.129 -15.204   6.258  1.00  0.00     0.094 A 
ATOM     10  C   UNL     1      16.813 -14.151   5.394  1.00  0.00     0.146 A 
ATOM     11  O   UNL     1      16.850 -14.372   4.086  1.00  0.00    -0.452 OA
ENDROOT
BRANCH   1  12
ATOM     12  C   UNL     1      16.640 -13.819   1.749  1.00  0.00     0.029 A 
ATOM     13  C   UNL     1      15.680 -14.679   1.189  1.00  0.00     0.062 A 
ATOM     14  C   UNL     1      15.754 -15.050  -0.158  1.00  0.00     0.162 A 
ATOM     15  C   UNL     1      17.698 -13.363   0.948  1.00  0.00     0.062 A 
ATOM     16  C   UNL     1      16.803 -14.570  -0.962  1.00  0.00     0.200 A 
ATOM     17  C   UNL     1      17.780 -13.727  -0.403  1.00  0.00     0.162 A 
BRANCH  14  18
ATOM     18  O   UNL     1      14.779 -15.899  -0.679  1.00  0.00    -0.504 OA
ATOM     19  H   UNL     1      13.999 -16.231  -0.124  1.00  0.00     0.293 HD
ENDBRANCH  14  18
BRANCH  16  20
ATOM     20  O   UNL     1      16.868 -14.940  -2.305  1.00  0.00    -0.502 OA
ATOM     21  H   UNL     1      16.566 -15.851  -2.631  1.00  0.00     0.293 HD
ENDBRANCH  16  20
BRANCH  17  22
ATOM     22  O   UNL     1      18.828 -13.255  -1.191  1.00  0.00    -0.504 OA
ATOM     23  H   UNL     1      19.753 -13.101  -0.809  1.00  0.00     0.293 HD
ENDBRANCH  17  22
ENDBRANCH   1  12
BRANCH   2  24
ATOM     24  O   UNL     1      16.122 -11.113   2.646  1.00  0.00    -0.502 OA
ATOM     25  H   UNL     1      16.809 -10.387   2.484  1.00  0.00     0.293 HD
ENDBRANCH   2  24
BRANCH   6  26
ATOM     26  O   UNL     1      15.957 -11.540   7.952  1.00  0.00    -0.507 OA
ATOM     27  H   UNL     1      15.403 -10.822   7.509  1.00  0.00     0.293 HD
ENDBRANCH   6  26
BRANCH   8  28
ATOM     28  O   UNL     1      17.452 -16.072   8.479  1.00  0.00    -0.508 OA
ATOM     29  H   UNL     1      16.745 -16.597   8.980  1.00  0.00     0.293 HD
ENDBRANCH   8  28
TORSDOF 7
ENDMDL
MODEL 2
REMARK VINA RESULT:    -6.703      0.211      1.767
REMARK INTER + INTRA:          -8.501
REMARK INTER:                  -8.249
REMARK INTRA:                  -0.252
REMARK UNBOUND:                -0.231
REMARK SMILES O=c1c(O)c(-c2cc(O)c(O)c(O)c2)oc2cc(O)cc(O)c12
REMARK SMILES IDX 5 1 3 2 2 3 1 4 23 5 21 6 20 7 18 8 17 9 16 10 15 11 6 12
REMARK SMILES IDX 7 13 8 14 14 15 10 16 12 17 9 18 11 20 13 22 4 24 22 26
REMARK SMILES IDX 19 28
REMARK H PARENT 9 19 11 21 13 23 4 25 22 27 19 29
REMARK Flexibility Score: inf
ROOT
ATOM      1  C   UNL     1      16.626 -13.622   3.063  1.00  0.00     0.180 A 
ATOM      2  C   UNL     1      16.289 -12.319   3.468  1.00  0.00     0.208 A 
ATOM      3  C   UNL     1      16.208 -12.033   4.840  1.00  0.00     0.238 A 
ATOM      4  O   UNL     1      15.959 -10.851   5.197  1.00  0.00    -0.285 OA
ATOM      5  C   UNL     1      16.449 -13.055   5.788  1.00  0.00     0.111 A 
ATOM      6  C   UNL     1      16.354 -12.887   7.203  1.00  0.00     0.134 A 
ATOM      7  C   UNL     1      16.742 -13.932   8.050  1.00  0.00     0.093 A 
ATOM      8  C   UNL     1      17.158 -15.162   7.533  1.00  0.00     0.123 A 
ATOM      9  C   UNL     1      17.195 -15.355   6.155  1.00  0.00     0.094 A 
ATOM     10  C   UNL     1      16.850 -14.319   5.283  1.00  0.00     0.146 A 
ATOM     11  O   UNL     1      16.910 -14.542   3.976  1.00  0.00    -0.452 OA
ENDROOT
BRANCH   1  12
ATOM     12  C   UNL     1      16.707 -14.007   1.635  1.00  0.00     0.029 A 
ATOM     13  C   UNL     1      17.742 -13.535   0.809  1.00  0.00     0.062 A 
ATOM     14  C   UNL     1      17.792 -13.889  -0.543  1.00  0.00     0.162 A 
ATOM     15  C   UNL     1      15.702 -14.812   1.077  1.00  0.00     0.062 A 
ATOM     16  C   UNL     1      16.795 -14.715  -1.091  1.00  0.00     0.200 A 
ATOM     17  C   UNL     1      15.745 -15.174  -0.276  1.00  0.00     0.162 A 
BRANCH  14  18
ATOM     18  O   UNL     1      18.838 -13.406  -1.329  1.00  0.00    -0.504 OA
ATOM     19  H   UNL     1      19.364 -12.577  -1.077  1.00  0.00     0.293 HD
ENDBRANCH  14  18
BRANCH  16  20
ATOM     20  O   UNL     1      16.854 -15.067  -2.439  1.00  0.00    -0.502 OA
ATOM     21  H   UNL     1      16.152 -15.650  -2.878  1.00  0.00     0.293 HD
ENDBRANCH  16  20
BRANCH  17  22
ATOM     22  O   UNL     1      14.748 -15.986  -0.814  1.00  0.00    -0.504 OA
ATOM     23  H   UNL     1      14.963 -16.729  -1.468  1.00  0.00     0.293 HD
ENDBRANCH  17  22
ENDBRANCH   1  12
BRANCH   2  24
ATOM     24  O   UNL     1      16.076 -11.319   2.515  1.00  0.00    -0.502 OA
ATOM     25  H   UNL     1      16.614 -10.462   2.497  1.00  0.00     0.293 HD
ENDBRANCH   2  24
BRANCH   6  26
ATOM     26  O   UNL     1      15.865 -11.732   7.820  1.00  0.00    -0.507 OA
ATOM     27  H   UNL     1      16.088 -10.790   7.537  1.00  0.00     0.293 HD
ENDBRANCH   6  26
BRANCH   8  28
ATOM     28  O   UNL     1      17.526 -16.203   8.383  1.00  0.00    -0.508 OA
ATOM     29  H   UNL     1      17.870 -16.025   9.319  1.00  0.00     0.293 HD
ENDBRANCH   8  28
TORSDOF 7
ENDMDL
MODEL 3
REMARK VINA RESULT:    -6.268      1.706      7.057
REMARK INTER + INTRA:          -7.964
REMARK INTER:                  -7.595
REMARK INTRA:                  -0.369
REMARK UNBOUND:                -0.231
REMARK SMILES O=c1c(O)c(-c2cc(O)c(O)c(O)c2)oc2cc(O)cc(O)c12
REMARK SMILES IDX 5 1 3 2 2 3 1 4 23 5 21 6 20 7 18 8 17 9 16 10 15 11 6 12
REMARK SMILES IDX 7 13 8 14 14 15 10 16 12 17 9 18 11 20 13 22 4 24 22 26
REMARK SMILES IDX 19 28
REMARK H PARENT 9 19 11 21 13 23 4 25 22 27 19 29
REMARK Flexibility Score: inf
ROOT
ATOM      1  C   UNL     1      16.878 -12.197   3.224  1.00  0.00     0.180 A 
ATOM      2  C   UNL     1      17.961 -11.622   2.537  1.00  0.00     0.208 A 
ATOM      3  C   UNL     1      18.291 -12.105   1.260  1.00  0.00     0.238 A 
ATOM      4  O   UNL     1      19.228 -11.549   0.628  1.00  0.00    -0.285 OA
ATOM      5  C   UNL     1      17.546 -13.166   0.694  1.00  0.00     0.111 A 
ATOM      6  C   UNL     1      17.819 -13.761  -0.574  1.00  0.00     0.134 A 
ATOM      7  C   UNL     1      16.935 -14.716  -1.093  1.00  0.00     0.093 A 
ATOM      8  C   UNL     1      15.826 -15.145  -0.360  1.00  0.00     0.123 A 
ATOM      9  C   UNL     1      15.587 -14.615   0.905  1.00  0.00     0.094 A 
ATOM     10  C   UNL     1      16.429 -13.633   1.434  1.00  0.00     0.146 A 
ATOM     11  O   UNL     1      16.157 -13.146   2.639  1.00  0.00    -0.452 OA
ENDROOT
BRANCH   1  12
ATOM     12  C   UNL     1      16.484 -11.759   4.583  1.00  0.00     0.029 A 
ATOM     13  C   UNL     1      17.049 -12.342   5.730  1.00  0.00     0.062 A 
ATOM     14  C   UNL     1      16.649 -11.934   7.007  1.00  0.00     0.162 A 
ATOM     15  C   UNL     1      15.487 -10.783   4.733  1.00  0.00     0.062 A 
ATOM     16  C   UNL     1      15.665 -10.939   7.151  1.00  0.00     0.200 A 
ATOM     17  C   UNL     1      15.081 -10.367   6.008  1.00  0.00     0.162 A 
BRANCH  14  18
ATOM     18  O   UNL     1      17.236 -12.531   8.121  1.00  0.00    -0.504 OA
ATOM     19  H   UNL     1      17.271 -13.537   8.239  1.00  0.00     0.293 HD
ENDBRANCH  14  18
BRANCH  16  20
ATOM     20  O   UNL     1      15.275 -10.534   8.427  1.00  0.00    -0.502 OA
ATOM     21  H   UNL     1      14.604  -9.791   8.578  1.00  0.00     0.293 HD
ENDBRANCH  16  20
BRANCH  17  22
ATOM     22  O   UNL     1      14.099  -9.387   6.142  1.00  0.00    -0.504 OA
ATOM     23  H   UNL     1      13.159  -9.524   5.791  1.00  0.00     0.293 HD
ENDBRANCH  17  22
ENDBRANCH   1  12
BRANCH   2  24
ATOM     24  O   UNL     1      18.670 -10.560   3.106  1.00  0.00    -0.502 OA
ATOM     25  H   UNL     1      19.681 -10.552   3.169  1.00  0.00     0.293 HD
ENDBRANCH   2  24
BRANCH   6  26
ATOM     26  O   UNL     1      18.946 -13.470  -1.347  1.00  0.00    -0.507 OA
ATOM     27  H   UNL     1      19.213 -13.965  -2.184  1.00  0.00     0.293 HD
ENDBRANCH   6  26
BRANCH   8  28
ATOM     28  O   UNL     1      14.962 -16.108  -0.876  1.00  0.00    -0.508 OA
ATOM     29  H   UNL     1      14.155 -15.852  -1.432  1.00  0.00     0.293 HD
ENDBRANCH   8  28
TORSDOF 7
ENDMDL
MODEL 4
REMARK VINA RESULT:    -6.258      1.625      7.032
REMARK INTER + INTRA:          -7.951
REMARK INTER:                  -7.594
REMARK INTRA:                  -0.358
REMARK UNBOUND:                -0.231
REMARK SMILES O=c1c(O)c(-c2cc(O)c(O)c(O)c2)oc2cc(O)cc(O)c12
REMARK SMILES IDX 5 1 3 2 2 3 1 4 23 5 21 6 20 7 18 8 17 9 16 10 15 11 6 12
REMARK SMILES IDX 7 13 8 14 14 15 10 16 12 17 9 18 11 20 13 22 4 24 22 26
REMARK SMILES IDX 19 28
REMARK H PARENT 9 19 11 21 13 23 4 25 22 27 19 29
REMARK Flexibility Score: inf
ROOT
ATOM      1  C   UNL     1      16.868 -12.283   3.206  1.00  0.00     0.180 A 
ATOM      2  C   UNL     1      17.952 -11.680   2.544  1.00  0.00     0.208 A 
ATOM      3  C   UNL     1      18.299 -12.128   1.259  1.00  0.00     0.238 A 
ATOM      4  O   UNL     1      19.236 -11.548   0.650  1.00  0.00    -0.285 OA
ATOM      5  C   UNL     1      17.570 -13.183   0.660  1.00  0.00     0.111 A 
ATOM      6  C   UNL     1      17.861 -13.743  -0.620  1.00  0.00     0.134 A 
ATOM      7  C   UNL     1      16.993 -14.694  -1.171  1.00  0.00     0.093 A 
ATOM      8  C   UNL     1      15.882 -15.153  -0.459  1.00  0.00     0.123 A 
ATOM      9  C   UNL     1      15.624 -14.656   0.816  1.00  0.00     0.094 A 
ATOM     10  C   UNL     1      16.451 -13.679   1.377  1.00  0.00     0.146 A 
ATOM     11  O   UNL     1      16.163 -13.224   2.590  1.00  0.00    -0.452 OA
ENDROOT
BRANCH   1  12
ATOM     12  C   UNL     1      16.457 -11.882   4.571  1.00  0.00     0.029 A 
ATOM     13  C   UNL     1      15.524 -10.851   4.779  1.00  0.00     0.062 A 
ATOM     14  C   UNL     1      15.163 -10.468   6.075  1.00  0.00     0.162 A 
ATOM     15  C   UNL     1      17.049 -12.502   5.681  1.00  0.00     0.062 A 
ATOM     16  C   UNL     1      15.743 -11.109   7.184  1.00  0.00     0.200 A 
ATOM     17  C   UNL     1      16.692 -12.126   6.984  1.00  0.00     0.162 A 
BRANCH  14  18
ATOM     18  O   UNL     1      14.230  -9.446   6.241  1.00  0.00    -0.504 OA
ATOM     19  H   UNL     1      13.495  -9.494   6.937  1.00  0.00     0.293 HD
ENDBRANCH  14  18
BRANCH  16  20
ATOM     20  O   UNL     1      15.375 -10.724   8.473  1.00  0.00    -0.502 OA
ATOM     21  H   UNL     1      14.466 -10.327   8.681  1.00  0.00     0.293 HD
ENDBRANCH  16  20
BRANCH  17  22
ATOM     22  O   UNL     1      17.278 -12.759   8.078  1.00  0.00    -0.504 OA
ATOM     23  H   UNL     1      17.864 -13.579   7.968  1.00  0.00     0.293 HD
ENDBRANCH  17  22
ENDBRANCH   1  12
BRANCH   2  24
ATOM     24  O   UNL     1      18.645 -10.625   3.145  1.00  0.00    -0.502 OA
ATOM     25  H   UNL     1      19.634 -10.674   3.356  1.00  0.00     0.293 HD
ENDBRANCH   2  24
BRANCH   6  26
ATOM     26  O   UNL     1      18.994 -13.422  -1.374  1.00  0.00    -0.507 OA
ATOM     27  H   UNL     1      19.041 -13.452  -2.381  1.00  0.00     0.293 HD
ENDBRANCH   6  26
BRANCH   8  28
ATOM     28  O   UNL     1      15.032 -16.111  -1.007  1.00  0.00    -0.508 OA
ATOM     29  H   UNL     1      14.335 -15.867  -1.700  1.00  0.00     0.293 HD
ENDBRANCH   8  28
TORSDOF 7
ENDMDL
MODEL 5
REMARK VINA RESULT:    -5.727      2.396      7.244
REMARK INTER + INTRA:          -7.296
REMARK INTER:                  -6.992
REMARK INTRA:                  -0.304
REMARK UNBOUND:                -0.231
REMARK SMILES O=c1c(O)c(-c2cc(O)c(O)c(O)c2)oc2cc(O)cc(O)c12
REMARK SMILES IDX 5 1 3 2 2 3 1 4 23 5 21 6 20 7 18 8 17 9 16 10 15 11 6 12
REMARK SMILES IDX 7 13 8 14 14 15 10 16 12 17 9 18 11 20 13 22 4 24 22 26
REMARK SMILES IDX 19 28
REMARK H PARENT 9 19 11 21 13 23 4 25 22 27 19 29
REMARK Flexibility Score: inf
ROOT
ATOM      1  C   UNL     1      16.127 -12.356   2.849  1.00  0.00     0.180 A 
ATOM      2  C   UNL     1      16.228 -13.700   2.450  1.00  0.00     0.208 A 
ATOM      3  C   UNL     1      16.961 -14.014   1.295  1.00  0.00     0.238 A 
ATOM      4  O   UNL     1      17.093 -15.224   0.974  1.00  0.00    -0.285 OA
ATOM      5  C   UNL     1      17.569 -12.980   0.544  1.00  0.00     0.111 A 
ATOM      6  C   UNL     1      18.300 -13.180  -0.666  1.00  0.00     0.134 A 
ATOM      7  C   UNL     1      18.970 -12.100  -1.254  1.00  0.00     0.093 A 
ATOM      8  C   UNL     1      18.880 -10.815  -0.713  1.00  0.00     0.123 A 
ATOM      9  C   UNL     1      18.118 -10.600   0.433  1.00  0.00     0.094 A 
ATOM     10  C   UNL     1      17.469 -11.664   1.064  1.00  0.00     0.146 A 
ATOM     11  O   UNL     1      16.763 -11.416   2.160  1.00  0.00    -0.452 OA
ENDROOT
BRANCH   1  12
ATOM     12  C   UNL     1      15.352 -11.944   4.042  1.00  0.00     0.029 A 
ATOM     13  C   UNL     1      13.946 -11.936   4.032  1.00  0.00     0.062 A 
ATOM     14  C   UNL     1      13.229 -11.521   5.159  1.00  0.00     0.162 A 
ATOM     15  C   UNL     1      16.029 -11.498   5.186  1.00  0.00     0.062 A 
ATOM     16  C   UNL     1      13.913 -11.097   6.311  1.00  0.00     0.200 A 
ATOM     17  C   UNL     1      15.319 -11.082   6.321  1.00  0.00     0.162 A 
BRANCH  14  18
ATOM     18  O   UNL     1      11.835 -11.533   5.114  1.00  0.00    -0.504 OA
ATOM     19  H   UNL     1      11.283 -12.176   5.668  1.00  0.00     0.293 HD
ENDBRANCH  14  18
BRANCH  16  20
ATOM     20  O   UNL     1      13.191 -10.689   7.433  1.00  0.00    -0.502 OA
ATOM     21  H   UNL     1      13.172  -9.725   7.743  1.00  0.00     0.293 HD
ENDBRANCH  16  20
BRANCH  17  22
ATOM     22  O   UNL     1      16.005 -10.654   7.456  1.00  0.00    -0.504 OA
ATOM     23  H   UNL     1      16.946 -10.970   7.659  1.00  0.00     0.293 HD
ENDBRANCH  17  22
ENDBRANCH   1  12
BRANCH   2  24
ATOM     24  O   UNL     1      15.638 -14.708   3.219  1.00  0.00    -0.502 OA
ATOM     25  H   UNL     1      14.742 -15.117   2.985  1.00  0.00     0.293 HD
ENDBRANCH   2  24
BRANCH   6  26
ATOM     26  O   UNL     1      18.378 -14.403  -1.338  1.00  0.00    -0.507 OA
ATOM     27  H   UNL     1      19.070 -14.633  -2.034  1.00  0.00     0.293 HD
ENDBRANCH   6  26
BRANCH   8  28
ATOM     28  O   UNL     1      19.535  -9.743  -1.314  1.00  0.00    -0.508 OA
ATOM     29  H   UNL     1      19.028  -9.034  -1.831  1.00  0.00     0.293 HD
ENDBRANCH   8  28
TORSDOF 7
ENDMDL
MODEL 6
REMARK VINA RESULT:    -5.685      1.717      7.348
REMARK INTER + INTRA:          -7.245
REMARK INTER:                  -6.888
REMARK INTRA:                  -0.357
REMARK UNBOUND:                -0.231
REMARK SMILES O=c1c(O)c(-c2cc(O)c(O)c(O)c2)oc2cc(O)cc(O)c12
REMARK SMILES IDX 5 1 3 2 2 3 1 4 23 5 21 6 20 7 18 8 17 9 16 10 15 11 6 12
REMARK SMILES IDX 7 13 8 14 14 15 10 16 12 17 9 18 11 20 13 22 4 24 22 26
REMARK SMILES IDX 19 28
REMARK H PARENT 9 19 11 21 13 23 4 25 22 27 19 29
REMARK Flexibility Score: inf
ROOT
ATOM      1  C   UNL     1      16.660 -12.642   2.834  1.00  0.00     0.180 A 
ATOM      2  C   UNL     1      16.143 -13.779   2.190  1.00  0.00     0.208 A 
ATOM      3  C   UNL     1      16.575 -14.080   0.888  1.00  0.00     0.238 A 
ATOM      4  O   UNL     1      16.149 -15.129   0.338  1.00  0.00    -0.285 OA
ATOM      5  C   UNL     1      17.503 -13.231   0.241  1.00  0.00     0.111 A 
ATOM      6  C   UNL     1      17.977 -13.417  -1.093  1.00  0.00     0.134 A 
ATOM      7  C   UNL     1      18.995 -12.590  -1.586  1.00  0.00     0.093 A 
ATOM      8  C   UNL     1      19.508 -11.543  -0.816  1.00  0.00     0.123 A 
ATOM      9  C   UNL     1      19.009 -11.316   0.464  1.00  0.00     0.094 A 
ATOM     10  C   UNL     1      18.020 -12.148   0.997  1.00  0.00     0.146 A 
ATOM     11  O   UNL     1      17.580 -11.903   2.225  1.00  0.00    -0.452 OA
ENDROOT
BRANCH   1  12
ATOM     12  C   UNL     1      16.237 -12.247   4.197  1.00  0.00     0.029 A 
ATOM     13  C   UNL     1      16.919 -12.708   5.336  1.00  0.00     0.062 A 
ATOM     14  C   UNL     1      16.492 -12.345   6.618  1.00  0.00     0.162 A 
ATOM     15  C   UNL     1      15.099 -11.443   4.361  1.00  0.00     0.062 A 
ATOM     16  C   UNL     1      15.365 -11.520   6.776  1.00  0.00     0.200 A 
ATOM     17  C   UNL     1      14.665 -11.072   5.642  1.00  0.00     0.162 A 
BRANCH  14  18
ATOM     18  O   UNL     1      17.198 -12.817   7.723  1.00  0.00    -0.504 OA
ATOM     19  H   UNL     1      17.586 -13.753   7.757  1.00  0.00     0.293 HD
ENDBRANCH  14  18
BRANCH  16  20
ATOM     20  O   UNL     1      14.948 -11.158   8.057  1.00  0.00    -0.502 OA
ATOM     21  H   UNL     1      14.224 -10.468   8.215  1.00  0.00     0.293 HD
ENDBRANCH  16  20
BRANCH  17  22
ATOM     22  O   UNL     1      13.541 -10.261   5.790  1.00  0.00    -0.504 OA
ATOM     23  H   UNL     1      13.229  -9.946   6.701  1.00  0.00     0.293 HD
ENDBRANCH  17  22
ENDBRANCH   1  12
BRANCH   2  24
ATOM     24  O   UNL     1      15.243 -14.616   2.857  1.00  0.00    -0.502 OA
ATOM     25  H   UNL     1      14.339 -14.296   3.179  1.00  0.00     0.293 HD
ENDBRANCH   2  24
BRANCH   6  26
ATOM     26  O   UNL     1      17.469 -14.373  -1.976  1.00  0.00    -0.507 OA
ATOM     27  H   UNL     1      16.940 -15.187  -1.700  1.00  0.00     0.293 HD
ENDBRANCH   6  26
BRANCH   8  28
ATOM     28  O   UNL     1      20.508 -10.714  -1.320  1.00  0.00    -0.508 OA
ATOM     29  H   UNL     1      20.830 -10.794  -2.277  1.00  0.00     0.293 HD
ENDBRANCH   8  28
TORSDOF 7
ENDMDL
MODEL 7
REMARK VINA RESULT:    -5.661      3.392      5.672
REMARK INTER + INTRA:          -7.216
REMARK INTER:                  -6.852
REMARK INTRA:                  -0.364
REMARK UNBOUND:                -0.231
REMARK SMILES O=c1c(O)c(-c2cc(O)c(O)c(O)c2)oc2cc(O)cc(O)c12
REMARK SMILES IDX 5 1 3 2 2 3 1 4 23 5 21 6 20 7 18 8 17 9 16 10 15 11 6 12
REMARK SMILES IDX 7 13 8 14 14 15 10 16 12 17 9 18 11 20 13 22 4 24 22 26
REMARK SMILES IDX 19 28
REMARK H PARENT 9 19 11 21 13 23 4 25 22 27 19 29
REMARK Flexibility Score: inf
ROOT
ATOM      1  C   UNL     1      18.118 -11.566   0.781  1.00  0.00     0.180 A 
ATOM      2  C   UNL     1      17.999 -12.885   0.311  1.00  0.00     0.208 A 
ATOM      3  C   UNL     1      17.189 -13.790   1.016  1.00  0.00     0.238 A 
ATOM      4  O   UNL     1      17.044 -14.954   0.559  1.00  0.00    -0.285 OA
ATOM      5  C   UNL     1      16.523 -13.369   2.192  1.00  0.00     0.111 A 
ATOM      6  C   UNL     1      15.711 -14.212   3.008  1.00  0.00     0.134 A 
ATOM      7  C   UNL     1      14.993 -13.657   4.075  1.00  0.00     0.093 A 
ATOM      8  C   UNL     1      15.112 -12.302   4.395  1.00  0.00     0.123 A 
ATOM      9  C   UNL     1      15.949 -11.484   3.641  1.00  0.00     0.094 A 
ATOM     10  C   UNL     1      16.649 -12.001   2.547  1.00  0.00     0.146 A 
ATOM     11  O   UNL     1      17.428 -11.184   1.849  1.00  0.00    -0.452 OA
ENDROOT
BRANCH   1  12
ATOM     12  C   UNL     1      18.972 -10.562   0.106  1.00  0.00     0.029 A 
ATOM     13  C   UNL     1      20.315 -10.378   0.476  1.00  0.00     0.062 A 
ATOM     14  C   UNL     1      21.102  -9.408  -0.155  1.00  0.00     0.162 A 
ATOM     15  C   UNL     1      18.417  -9.737  -0.885  1.00  0.00     0.062 A 
ATOM     16  C   UNL     1      20.547  -8.600  -1.163  1.00  0.00     0.200 A 
ATOM     17  C   UNL     1      19.198  -8.765  -1.525  1.00  0.00     0.162 A 
BRANCH  14  18
ATOM     18  O   UNL     1      22.432  -9.259   0.236  1.00  0.00    -0.504 OA
ATOM     19  H   UNL     1      22.931  -8.384   0.128  1.00  0.00     0.293 HD
ENDBRANCH  14  18
BRANCH  16  20
ATOM     20  O   UNL     1      21.339  -7.640  -1.791  1.00  0.00    -0.502 OA
ATOM     21  H   UNL     1      21.883  -7.845  -2.621  1.00  0.00     0.293 HD
ENDBRANCH  16  20
BRANCH  17  22
ATOM     22  O   UNL     1      18.639  -7.962  -2.516  1.00  0.00    -0.504 OA
ATOM     23  H   UNL     1      17.921  -8.310  -3.141  1.00  0.00     0.293 HD
ENDBRANCH  17  22
ENDBRANCH   1  12
BRANCH   2  24
ATOM     24  O   UNL     1      18.649 -13.273  -0.865  1.00  0.00    -0.502 OA
ATOM     25  H   UNL     1      18.944 -14.227  -1.034  1.00  0.00     0.293 HD
ENDBRANCH   2  24
BRANCH   6  26
ATOM     26  O   UNL     1      15.595 -15.594   2.830  1.00  0.00    -0.507 OA
ATOM     27  H   UNL     1      14.761 -16.065   2.516  1.00  0.00     0.293 HD
ENDBRANCH   6  26
BRANCH   8  28
ATOM     28  O   UNL     1      14.408 -11.761   5.468  1.00  0.00    -0.508 OA
ATOM     29  H   UNL     1      14.850 -11.604   6.367  1.00  0.00     0.293 HD
ENDBRANCH   8  28
TORSDOF 7
ENDMDL
MODEL 8
REMARK VINA RESULT:    -5.464      2.463      3.793
REMARK INTER + INTRA:          -6.973
REMARK INTER:                  -6.623
REMARK INTRA:                  -0.350
REMARK UNBOUND:                -0.231
REMARK SMILES O=c1c(O)c(-c2cc(O)c(O)c(O)c2)oc2cc(O)cc(O)c12
REMARK SMILES IDX 5 1 3 2 2 3 1 4 23 5 21 6 20 7 18 8 17 9 16 10 15 11 6 12
REMARK SMILES IDX 7 13 8 14 14 15 10 16 12 17 9 18 11 20 13 22 4 24 22 26
REMARK SMILES IDX 19 28
REMARK H PARENT 9 19 11 21 13 23 4 25 22 27 19 29
REMARK Flexibility Score: inf
ROOT
ATOM      1  C   UNL     1      17.249 -12.027   2.858  1.00  0.00     0.180 A 
ATOM      2  C   UNL     1      16.361 -13.116   2.837  1.00  0.00     0.208 A 
ATOM      3  C   UNL     1      16.084 -13.792   4.036  1.00  0.00     0.238 A 
ATOM      4  O   UNL     1      15.247 -14.732   4.020  1.00  0.00    -0.285 OA
ATOM      5  C   UNL     1      16.710 -13.381   5.237  1.00  0.00     0.111 A 
ATOM      6  C   UNL     1      16.534 -14.020   6.502  1.00  0.00     0.134 A 
ATOM      7  C   UNL     1      17.100 -13.448   7.648  1.00  0.00     0.093 A 
ATOM      8  C   UNL     1      17.890 -12.299   7.565  1.00  0.00     0.123 A 
ATOM      9  C   UNL     1      18.117 -11.704   6.327  1.00  0.00     0.094 A 
ATOM     10  C   UNL     1      17.535 -12.229   5.170  1.00  0.00     0.146 A 
ATOM     11  O   UNL     1      17.769 -11.624   4.012  1.00  0.00    -0.452 OA
ENDROOT
BRANCH   1  12
ATOM     12  C   UNL     1      17.609 -11.279   1.632  1.00  0.00     0.029 A 
ATOM     13  C   UNL     1      18.585 -11.762   0.743  1.00  0.00     0.062 A 
ATOM     14  C   UNL     1      18.932 -11.033  -0.400  1.00  0.00     0.162 A 
ATOM     15  C   UNL     1      17.009 -10.037   1.377  1.00  0.00     0.062 A 
ATOM     16  C   UNL     1      18.310  -9.800  -0.661  1.00  0.00     0.200 A 
ATOM     17  C   UNL     1      17.348  -9.300   0.234  1.00  0.00     0.162 A 
BRANCH  14  18
ATOM     18  O   UNL     1      19.900 -11.548  -1.261  1.00  0.00    -0.504 OA
ATOM     19  H   UNL     1      20.833 -11.157  -1.319  1.00  0.00     0.293 HD
ENDBRANCH  14  18
BRANCH  16  20
ATOM     20  O   UNL     1      18.658  -9.081  -1.805  1.00  0.00    -0.502 OA
ATOM     21  H   UNL     1      18.140  -9.160  -2.672  1.00  0.00     0.293 HD
ENDBRANCH  16  20
BRANCH  17  22
ATOM     22  O   UNL     1      16.734  -8.074  -0.014  1.00  0.00    -0.504 OA
ATOM     23  H   UNL     1      16.291  -7.542   0.726  1.00  0.00     0.293 HD
ENDBRANCH  17  22
ENDBRANCH   1  12
BRANCH   2  24
ATOM     24  O   UNL     1      15.737 -13.491   1.644  1.00  0.00    -0.502 OA
ATOM     25  H   UNL     1      15.708 -12.887   0.832  1.00  0.00     0.293 HD
ENDBRANCH   2  24
BRANCH   6  26
ATOM     26  O   UNL     1      15.841 -15.220   6.680  1.00  0.00    -0.507 OA
ATOM     27  H   UNL     1      15.866 -15.779   7.519  1.00  0.00     0.293 HD
ENDBRANCH   6  26
BRANCH   8  28
ATOM     28  O   UNL     1      18.463 -11.746   8.708  1.00  0.00    -0.508 OA
ATOM     29  H   UNL     1      17.967 -11.068   9.275  1.00  0.00     0.293 HD
ENDBRANCH   8  28
TORSDOF 7
ENDMDL
MODEL 9
REMARK VINA RESULT:    -5.454      4.594      7.517
REMARK INTER + INTRA:          -6.960
REMARK INTER:                  -6.853
REMARK INTRA:                  -0.107
REMARK UNBOUND:                -0.231
REMARK SMILES O=c1c(O)c(-c2cc(O)c(O)c(O)c2)oc2cc(O)cc(O)c12
REMARK SMILES IDX 5 1 3 2 2 3 1 4 23 5 21 6 20 7 18 8 17 9 16 10 15 11 6 12
REMARK SMILES IDX 7 13 8 14 14 15 10 16 12 17 9 18 11 20 13 22 4 24 22 26
REMARK SMILES IDX 19 28
REMARK H PARENT 9 19 11 21 13 23 4 25 22 27 19 29
REMARK Flexibility Score: inf
ROOT
ATOM      1  C   UNL     1      19.953 -15.694   8.004  1.00  0.00     0.180 A 
ATOM      2  C   UNL     1      20.541 -15.283   9.213  1.00  0.00     0.208 A 
ATOM      3  C   UNL     1      21.583 -16.050   9.759  1.00  0.00     0.238 A 
ATOM      4  O   UNL     1      22.142 -15.647  10.812  1.00  0.00    -0.285 OA
ATOM      5  C   UNL     1      22.011 -17.227   9.099  1.00  0.00     0.111 A 
ATOM      6  C   UNL     1      23.030 -18.102   9.584  1.00  0.00     0.134 A 
ATOM      7  C   UNL     1      23.464 -19.166   8.783  1.00  0.00     0.093 A 
ATOM      8  C   UNL     1      22.870 -19.425   7.545  1.00  0.00     0.123 A 
ATOM      9  C   UNL     1      21.834 -18.613   7.092  1.00  0.00     0.094 A 
ATOM     10  C   UNL     1      21.405 -17.521   7.851  1.00  0.00     0.146 A 
ATOM     11  O   UNL     1      20.422 -16.766   7.376  1.00  0.00    -0.452 OA
ENDROOT
BRANCH   1  12
ATOM     12  C   UNL     1      18.835 -14.951   7.379  1.00  0.00     0.029 A 
ATOM     13  C   UNL     1      17.608 -15.579   7.099  1.00  0.00     0.062 A 
ATOM     14  C   UNL     1      16.569 -14.870   6.486  1.00  0.00     0.162 A 
ATOM     15  C   UNL     1      19.017 -13.611   7.006  1.00  0.00     0.062 A 
ATOM     16  C   UNL     1      16.751 -13.521   6.135  1.00  0.00     0.200 A 
ATOM     17  C   UNL     1      17.981 -12.893   6.394  1.00  0.00     0.162 A 
BRANCH  14  18
ATOM     18  O   UNL     1      15.365 -15.524   6.230  1.00  0.00    -0.504 OA
ATOM     19  H   UNL     1      14.564 -15.441   6.845  1.00  0.00     0.293 HD
ENDBRANCH  14  18
BRANCH  16  20
ATOM     20  O   UNL     1      15.708 -12.819   5.529  1.00  0.00    -0.502 OA
ATOM     21  H   UNL     1      14.768 -12.813   5.907  1.00  0.00     0.293 HD
ENDBRANCH  16  20
BRANCH  17  22
ATOM     22  O   UNL     1      18.172 -11.558   6.040  1.00  0.00    -0.504 OA
ATOM     23  H   UNL     1      18.754 -10.939   6.593  1.00  0.00     0.293 HD
ENDBRANCH  17  22
ENDBRANCH   1  12
BRANCH   2  24
ATOM     24  O   UNL     1      20.117 -14.105   9.836  1.00  0.00    -0.502 OA
ATOM     25  H   UNL     1      20.486 -13.799  10.728  1.00  0.00     0.293 HD
ENDBRANCH   2  24
BRANCH   6  26
ATOM     26  O   UNL     1      23.624 -17.986  10.843  1.00  0.00    -0.507 OA
ATOM     27  H   UNL     1      24.532 -18.351  11.086  1.00  0.00     0.293 HD
ENDBRANCH   6  26
BRANCH   8  28
ATOM     28  O   UNL     1      23.296 -20.496   6.763  1.00  0.00    -0.508 OA
ATOM     29  H   UNL     1      23.266 -20.458   5.751  1.00  0.00     0.293 HD
ENDBRANCH   8  28
TORSDOF 7
ENDMDL
