MODEL 1
REMARK VINA RESULT:    -1.861      0.000      0.000
REMARK INTER + INTRA:          -1.916
REMARK INTER:                  -1.916
REMARK INTRA:                   0.000
REMARK UNBOUND:                 0.000
REMARK SMILES CC1(C)[C@H]2CC[C@]1(C)[C@@H](O)C2
REMARK SMILES IDX 1 1 2 2 4 3 5 4 6 5 7 6 9 7 11 8 8 9 3 10 10 11
REMARK H PARENT 10 12
REMARK Flexibility Score: inf
ROOT
ATOM      1  C   UNL     1     124.569 109.013 132.235  1.00  0.00     0.012 C 
ATOM      2  C   UNL     1     124.835 109.101 133.770  1.00  0.00    -0.025 C 
ATOM      3  C   UNL     1     125.777 108.008 134.301  1.00  0.00    -0.002 C 
ATOM      4  C   UNL     1     127.112 108.307 133.574  1.00  0.00     0.005 C 
ATOM      5  C   UNL     1     127.125 109.848 133.503  1.00  0.00     0.010 C 
ATOM      6  C   UNL     1     125.795 110.231 134.211  1.00  0.00    -0.001 C 
ATOM      7  C   UNL     1     126.038 109.951 135.729  1.00  0.00     0.121 C 
ATOM      8  C   UNL     1     125.993 108.406 135.784  1.00  0.00     0.036 C 
ATOM      9  C   UNL     1     125.342 111.663 133.887  1.00  0.00     0.015 C 
ATOM     10  C   UNL     1     123.427 109.096 134.441  1.00  0.00     0.012 C 
ENDROOT
BRANCH   7  11
ATOM     11  O   UNL     1     125.043 110.510 136.548  1.00  0.00    -0.393 OA
ATOM     12  H   UNL     1     125.495 111.174 137.133  1.00  0.00     0.210 HD
ENDBRANCH   7  11
TORSDOF 1
ENDMDL
MODEL 2
REMARK VINA RESULT:    -1.749      1.741      2.850
REMARK INTER + INTRA:          -1.800
REMARK INTER:                  -1.800
REMARK INTRA:                   0.000
REMARK UNBOUND:                 0.000
REMARK SMILES CC1(C)[C@H]2CC[C@]1(C)[C@@H](O)C2
REMARK SMILES IDX 1 1 2 2 4 3 5 4 6 5 7 6 9 7 11 8 8 9 3 10 10 11
REMARK H PARENT 10 12
REMARK Flexibility Score: inf
ROOT
ATOM      1  C   UNL     1     124.006 111.291 133.998  1.00  0.00     0.012 C 
ATOM      2  C   UNL     1     125.051 110.228 133.536  1.00  0.00    -0.025 C 
ATOM      3  C   UNL     1     126.116 110.782 132.576  1.00  0.00    -0.002 C 
ATOM      4  C   UNL     1     126.861 111.831 133.438  1.00  0.00     0.005 C 
ATOM      5  C   UNL     1     126.855 111.187 134.840  1.00  0.00     0.010 C 
ATOM      6  C   UNL     1     126.114 109.844 134.593  1.00  0.00    -0.001 C 
ATOM      7  C   UNL     1     127.125 108.951 133.806  1.00  0.00     0.121 C 
ATOM      8  C   UNL     1     127.096 109.592 132.399  1.00  0.00     0.036 C 
ATOM      9  C   UNL     1     125.577 109.216 135.889  1.00  0.00     0.015 C 
ATOM     10  C   UNL     1     124.219 109.052 132.940  1.00  0.00     0.012 C 
ENDROOT
BRANCH   7  11
ATOM     11  O   UNL     1     126.728 107.604 133.750  1.00  0.00    -0.393 OA
ATOM     12  H   UNL     1     127.300 107.166 133.066  1.00  0.00     0.210 HD
ENDBRANCH   7  11
TORSDOF 1
ENDMDL
MODEL 3
REMARK VINA RESULT:    -1.726      1.871      3.188
REMARK INTER + INTRA:          -1.777
REMARK INTER:                  -1.777
REMARK INTRA:                   0.000
REMARK UNBOUND:                 0.000
REMARK SMILES CC1(C)[C@H]2CC[C@]1(C)[C@@H](O)C2
REMARK SMILES IDX 1 1 2 2 4 3 5 4 6 5 7 6 9 7 11 8 8 9 3 10 10 11
REMARK H PARENT 10 12
REMARK Flexibility Score: inf
ROOT
ATOM      1  C   UNL     1     126.376 110.752 135.271  1.00  0.00     0.012 C 
ATOM      2  C   UNL     1     126.059 109.368 134.624  1.00  0.00    -0.025 C 
ATOM      3  C   UNL     1     126.003 108.209 135.632  1.00  0.00    -0.002 C 
ATOM      4  C   UNL     1     124.810 108.586 136.543  1.00  0.00     0.005 C 
ATOM      5  C   UNL     1     123.825 109.251 135.558  1.00  0.00     0.010 C 
ATOM      6  C   UNL     1     124.584 109.156 134.205  1.00  0.00    -0.001 C 
ATOM      7  C   UNL     1     124.519 107.649 133.798  1.00  0.00     0.121 C 
ATOM      8  C   UNL     1     125.531 107.006 134.775  1.00  0.00     0.036 C 
ATOM      9  C   UNL     1     124.039 110.130 133.150  1.00  0.00     0.015 C 
ATOM     10  C   UNL     1     127.125 109.174 133.503  1.00  0.00     0.012 C 
ENDROOT
BRANCH   7  11
ATOM     11  O   UNL     1     124.904 107.432 132.464  1.00  0.00    -0.393 OA
ATOM     12  H   UNL     1     124.768 108.291 131.984  1.00  0.00     0.210 HD
ENDBRANCH   7  11
TORSDOF 1
ENDMDL
MODEL 4
REMARK VINA RESULT:    -1.123      1.620      2.124
REMARK INTER + INTRA:          -1.156
REMARK INTER:                  -1.156
REMARK INTRA:                   0.000
REMARK UNBOUND:                 0.000
REMARK SMILES CC1(C)[C@H]2CC[C@]1(C)[C@@H](O)C2
REMARK SMILES IDX 1 1 2 2 4 3 5 4 6 5 7 6 9 7 11 8 8 9 3 10 10 11
REMARK H PARENT 10 12
REMARK Flexibility Score: inf
ROOT
ATOM      1  C   UNL     1     124.211 109.397 132.896  1.00  0.00     0.012 C 
ATOM      2  C   UNL     1     125.034 110.397 133.767  1.00  0.00    -0.025 C 
ATOM      3  C   UNL     1     125.454 109.831 135.133  1.00  0.00    -0.002 C 
ATOM      4  C   UNL     1     126.388 108.654 134.758  1.00  0.00     0.005 C 
ATOM      5  C   UNL     1     127.114 109.181 133.502  1.00  0.00     0.010 C 
ATOM      6  C   UNL     1     126.504 110.600 133.329  1.00  0.00    -0.001 C 
ATOM      7  C   UNL     1     127.125 111.461 134.475  1.00  0.00     0.121 C 
ATOM      8  C   UNL     1     126.367 110.940 135.719  1.00  0.00     0.036 C 
ATOM      9  C   UNL     1     126.712 111.167 131.916  1.00  0.00     0.015 C 
ATOM     10  C   UNL     1     124.162 111.687 133.863  1.00  0.00     0.012 C 
ENDROOT
BRANCH   7  11
ATOM     11  O   UNL     1     126.908 112.837 134.297  1.00  0.00    -0.393 OA
ATOM     12  H   UNL     1     127.751 113.215 133.934  1.00  0.00     0.210 HD
ENDBRANCH   7  11
TORSDOF 1
ENDMDL
MODEL 5
REMARK VINA RESULT:    -1.068      1.546      3.060
REMARK INTER + INTRA:          -1.099
REMARK INTER:                  -1.099
REMARK INTRA:                   0.000
REMARK UNBOUND:                 0.000
REMARK SMILES CC1(C)[C@H]2CC[C@]1(C)[C@@H](O)C2
REMARK SMILES IDX 1 1 2 2 4 3 5 4 6 5 7 6 9 7 11 8 8 9 3 10 10 11
REMARK H PARENT 10 12
REMARK Flexibility Score: inf
ROOT
ATOM      1  C   UNL     1     126.377 110.895 136.175  1.00  0.00     0.012 C 
ATOM      2  C   UNL     1     125.379 110.294 135.137  1.00  0.00    -0.025 C 
ATOM      3  C   UNL     1     125.394 111.006 133.775  1.00  0.00    -0.002 C 
ATOM      4  C   UNL     1     126.829 110.746 133.254  1.00  0.00     0.005 C 
ATOM      5  C   UNL     1     127.125 109.321 133.766  1.00  0.00     0.010 C 
ATOM      6  C   UNL     1     125.811 108.947 134.508  1.00  0.00    -0.001 C 
ATOM      7  C   UNL     1     124.756 108.700 133.383  1.00  0.00     0.121 C 
ATOM      8  C   UNL     1     124.452 110.138 132.902  1.00  0.00     0.036 C 
ATOM      9  C   UNL     1     125.994 107.776 135.485  1.00  0.00     0.015 C 
ATOM     10  C   UNL     1     123.986 110.307 135.838  1.00  0.00     0.012 C 
ENDROOT
BRANCH   7  11
ATOM     11  O   UNL     1     123.592 108.074 133.860  1.00  0.00    -0.393 OA
ATOM     12  H   UNL     1     123.095 107.749 133.064  1.00  0.00     0.210 HD
ENDBRANCH   7  11
TORSDOF 1
ENDMDL
MODEL 6
REMARK VINA RESULT:     0.651      2.050      3.261
REMARK INTER + INTRA:           0.670
REMARK INTER:                   0.670
REMARK INTRA:                   0.000
REMARK UNBOUND:                 0.000
REMARK SMILES CC1(C)[C@H]2CC[C@]1(C)[C@@H](O)C2
REMARK SMILES IDX 1 1 2 2 4 3 5 4 6 5 7 6 9 7 11 8 8 9 3 10 10 11
REMARK H PARENT 10 12
REMARK Flexibility Score: inf
ROOT
ATOM      1  C   UNL     1     125.704 109.993 135.660  1.00  0.00     0.012 C 
ATOM      2  C   UNL     1     126.131 109.417 134.274  1.00  0.00    -0.025 C 
ATOM      3  C   UNL     1     126.696 107.989 134.342  1.00  0.00    -0.002 C 
ATOM      4  C   UNL     1     125.493 107.154 134.848  1.00  0.00     0.005 C 
ATOM      5  C   UNL     1     124.290 107.843 134.170  1.00  0.00     0.010 C 
ATOM      6  C   UNL     1     124.967 108.979 133.353  1.00  0.00    -0.001 C 
ATOM      7  C   UNL     1     125.677 108.265 132.159  1.00  0.00     0.121 C 
ATOM      8  C   UNL     1     126.892 107.606 132.852  1.00  0.00     0.036 C 
ATOM      9  C   UNL     1     123.980 110.084 132.945  1.00  0.00     0.015 C 
ATOM     10  C   UNL     1     127.125 110.458 133.675  1.00  0.00     0.012 C 
ENDROOT
BRANCH   7  11
ATOM     11  O   UNL     1     126.095 109.162 131.163  1.00  0.00    -0.393 OA
ATOM     12  H   UNL     1     126.331 110.010 131.623  1.00  0.00     0.210 HD
ENDBRANCH   7  11
TORSDOF 1
ENDMDL
