MODEL 1
REMARK VINA RESULT:    -1.250      0.000      0.000
REMARK INTER + INTRA:          -1.536
REMARK INTER:                  -1.505
REMARK INTRA:                  -0.031
REMARK UNBOUND:                -0.031
REMARK SMILES Oc1cc(O)c2c(c1)O[C@H](c1ccc(O)c(O)c1)[C@@H](O)C2
REMARK SMILES IDX 21 1 19 2 10 3 9 4 7 5 8 6 2 7 3 8 4 9 6 10 20 11 11 13
REMARK SMILES IDX 18 14 12 15 16 16 13 17 14 18 17 19 15 21 5 23 1 25
REMARK H PARENT 20 12 17 20 15 22 5 24 1 26
REMARK Flexibility Score: inf
ROOT
ATOM      1  C   UNL     1      -5.828   9.110  -9.713  1.00  0.00     0.079 C 
ATOM      2  C   UNL     1      -6.429   9.008  -8.298  1.00  0.00     0.164 C 
ATOM      3  C   UNL     1      -7.653   8.071  -8.304  1.00  0.00     0.232 C 
ATOM      4  O   UNL     1      -8.610   8.538  -9.256  1.00  0.00    -0.482 OA
ATOM      5  C   UNL     1      -8.235   9.078 -10.491  1.00  0.00     0.131 A 
ATOM      6  C   UNL     1      -9.222   9.337 -11.445  1.00  0.00     0.093 A 
ATOM      7  C   UNL     1      -8.877   9.862 -12.694  1.00  0.00     0.122 A 
ATOM      8  C   UNL     1      -7.538  10.119 -12.992  1.00  0.00     0.092 A 
ATOM      9  C   UNL     1      -6.534   9.865 -12.051  1.00  0.00     0.126 A 
ATOM     10  C   UNL     1      -6.882   9.375 -10.769  1.00  0.00     0.039 A 
ENDROOT
BRANCH   2  11
ATOM     11  O   UNL     1      -5.457   8.576  -7.378  1.00  0.00    -0.389 OA
ATOM     12  H   UNL     1      -5.311   7.606  -7.527  1.00  0.00     0.211 HD
ENDBRANCH   2  11
BRANCH   3  13
ATOM     13  C   UNL     1      -8.291   7.996  -6.937  1.00  0.00    -0.001 A 
ATOM     14  C   UNL     1      -7.691   7.248  -5.908  1.00  0.00     0.057 A 
ATOM     15  C   UNL     1      -9.518   8.633  -6.693  1.00  0.00     0.012 A 
ATOM     16  C   UNL     1      -8.296   7.154  -4.650  1.00  0.00     0.157 A 
ATOM     17  C   UNL     1     -10.124   8.542  -5.438  1.00  0.00     0.050 A 
ATOM     18  C   UNL     1      -9.518   7.805  -4.411  1.00  0.00     0.157 A 
BRANCH  16  19
ATOM     19  O   UNL     1      -7.669   6.408  -3.651  1.00  0.00    -0.504 OA
ATOM     20  H   UNL     1      -8.024   5.509  -3.350  1.00  0.00     0.293 HD
ENDBRANCH  16  19
BRANCH  18  21
ATOM     21  O   UNL     1     -10.125   7.717  -3.160  1.00  0.00    -0.504 OA
ATOM     22  H   UNL     1     -11.037   7.291  -3.041  1.00  0.00     0.293 HD
ENDBRANCH  18  21
ENDBRANCH   3  13
BRANCH   9  23
ATOM     23  O   UNL     1      -5.209  10.102 -12.424  1.00  0.00    -0.507 OA
ATOM     24  H   UNL     1      -4.461  10.244 -11.758  1.00  0.00     0.293 HD
ENDBRANCH   9  23
BRANCH   7  25
ATOM     25  O   UNL     1      -9.856  10.124 -13.649  1.00  0.00    -0.508 OA
ATOM     26  H   UNL     1      -9.921  11.026 -14.108  1.00  0.00     0.293 HD
ENDBRANCH   7  25
TORSDOF 6
ENDMDL
MODEL 2
REMARK VINA RESULT:    -0.555     13.912     15.233
REMARK INTER + INTRA:          -0.700
REMARK INTER:                  -0.597
REMARK INTRA:                  -0.103
REMARK UNBOUND:                -0.031
REMARK SMILES Oc1cc(O)c2c(c1)O[C@H](c1ccc(O)c(O)c1)[C@@H](O)C2
REMARK SMILES IDX 21 1 19 2 10 3 9 4 7 5 8 6 2 7 3 8 4 9 6 10 20 11 11 13
REMARK SMILES IDX 18 14 12 15 16 16 13 17 14 18 17 19 15 21 5 23 1 25
REMARK H PARENT 20 12 17 20 15 22 5 24 1 26
REMARK Flexibility Score: inf
ROOT
ATOM      1  C   UNL     1      -8.299  -6.091  -9.879  1.00  0.00     0.079 C 
ATOM      2  C   UNL     1      -8.199  -4.684 -10.499  1.00  0.00     0.164 C 
ATOM      3  C   UNL     1      -9.317  -4.476 -11.539  1.00  0.00     0.232 C 
ATOM      4  O   UNL     1      -9.245  -5.500 -12.531  1.00  0.00    -0.482 OA
ATOM      5  C   UNL     1      -8.928  -6.826 -12.217  1.00  0.00     0.131 A 
ATOM      6  C   UNL     1      -9.062  -7.807 -13.203  1.00  0.00     0.093 A 
ATOM      7  C   UNL     1      -8.767  -9.143 -12.915  1.00  0.00     0.122 A 
ATOM      8  C   UNL     1      -8.346  -9.499 -11.633  1.00  0.00     0.092 A 
ATOM      9  C   UNL     1      -8.206  -8.532 -10.631  1.00  0.00     0.126 A 
ATOM     10  C   UNL     1      -8.461  -7.172 -10.928  1.00  0.00     0.039 A 
ENDROOT
BRANCH   2  11
ATOM     11  O   UNL     1      -8.241  -3.698  -9.496  1.00  0.00    -0.389 OA
ATOM     12  H   UNL     1      -7.356  -3.688  -9.046  1.00  0.00     0.211 HD
ENDBRANCH   2  11
BRANCH   3  13
ATOM     13  C   UNL     1      -9.207  -3.121 -12.197  1.00  0.00    -0.001 A 
ATOM     14  C   UNL     1      -9.704  -1.972 -11.556  1.00  0.00     0.057 A 
ATOM     15  C   UNL     1      -8.651  -3.002 -13.481  1.00  0.00     0.012 A 
ATOM     16  C   UNL     1      -9.628  -0.721 -12.178  1.00  0.00     0.157 A 
ATOM     17  C   UNL     1      -8.574  -1.754 -14.104  1.00  0.00     0.050 A 
ATOM     18  C   UNL     1      -9.059  -0.609 -13.458  1.00  0.00     0.157 A 
BRANCH  16  19
ATOM     19  O   UNL     1     -10.125   0.398 -11.510  1.00  0.00    -0.504 OA
ATOM     20  H   UNL     1     -11.061   0.749 -11.672  1.00  0.00     0.293 HD
ENDBRANCH  16  19
BRANCH  18  21
ATOM     21  O   UNL     1      -8.979   0.634 -14.082  1.00  0.00    -0.504 OA
ATOM     22  H   UNL     1      -9.643   1.373 -13.881  1.00  0.00     0.293 HD
ENDBRANCH  18  21
ENDBRANCH   3  13
BRANCH   9  23
ATOM     23  O   UNL     1      -7.824  -8.957  -9.356  1.00  0.00    -0.507 OA
ATOM     24  H   UNL     1      -7.099  -9.643  -9.194  1.00  0.00     0.293 HD
ENDBRANCH   9  23
BRANCH   7  25
ATOM     25  O   UNL     1      -8.896 -10.125 -13.894  1.00  0.00    -0.508 OA
ATOM     26  H   UNL     1      -9.515 -10.919 -13.769  1.00  0.00     0.293 HD
ENDBRANCH   7  25
TORSDOF 6
ENDMDL
MODEL 3
REMARK VINA RESULT:     0.882     16.485     19.674
REMARK INTER + INTRA:           1.033
REMARK INTER:                   1.149
REMARK INTRA:                  -0.116
REMARK UNBOUND:                -0.031
REMARK SMILES Oc1cc(O)c2c(c1)O[C@H](c1ccc(O)c(O)c1)[C@@H](O)C2
REMARK SMILES IDX 21 1 19 2 10 3 9 4 7 5 8 6 2 7 3 8 4 9 6 10 20 11 11 13
REMARK SMILES IDX 18 14 12 15 16 16 13 17 14 18 17 19 15 21 5 23 1 25
REMARK H PARENT 20 12 17 20 15 22 5 24 1 26
REMARK Flexibility Score: inf
ROOT
ATOM      1  C   UNL     1      -7.253  -7.364   4.817  1.00  0.00     0.079 C 
ATOM      2  C   UNL     1      -7.544  -5.854   4.906  1.00  0.00     0.164 C 
ATOM      3  C   UNL     1      -9.062  -5.596   4.839  1.00  0.00     0.232 C 
ATOM      4  O   UNL     1      -9.594  -6.170   3.645  1.00  0.00    -0.482 OA
ATOM      5  C   UNL     1      -9.150  -7.398   3.143  1.00  0.00     0.131 A 
ATOM      6  C   UNL     1      -9.843  -7.987   2.083  1.00  0.00     0.093 A 
ATOM      7  C   UNL     1      -9.433  -9.221   1.569  1.00  0.00     0.122 A 
ATOM      8  C   UNL     1      -8.330  -9.872   2.126  1.00  0.00     0.092 A 
ATOM      9  C   UNL     1      -7.623  -9.299   3.189  1.00  0.00     0.126 A 
ATOM     10  C   UNL     1      -8.007  -8.030   3.684  1.00  0.00     0.039 A 
ENDROOT
BRANCH   2  11
ATOM     11  O   UNL     1      -6.981  -5.310   6.075  1.00  0.00    -0.389 OA
ATOM     12  H   UNL     1      -6.980  -4.323   5.978  1.00  0.00     0.211 HD
ENDBRANCH   2  11
BRANCH   3  13
ATOM     13  C   UNL     1      -9.367  -4.117   4.872  1.00  0.00    -0.001 A 
ATOM     14  C   UNL     1      -9.581  -3.405   3.678  1.00  0.00     0.057 A 
ATOM     15  C   UNL     1      -9.392  -3.427   6.094  1.00  0.00     0.012 A 
ATOM     16  C   UNL     1      -9.835  -2.029   3.706  1.00  0.00     0.157 A 
ATOM     17  C   UNL     1      -9.646  -2.054   6.125  1.00  0.00     0.050 A 
ATOM     18  C   UNL     1      -9.871  -1.349   4.935  1.00  0.00     0.157 A 
BRANCH  16  19
ATOM     19  O   UNL     1     -10.049  -1.356   2.503  1.00  0.00    -0.504 OA
ATOM     20  H   UNL     1     -10.012  -1.830   1.608  1.00  0.00     0.293 HD
ENDBRANCH  16  19
BRANCH  18  21
ATOM     21  O   UNL     1     -10.125   0.021   4.969  1.00  0.00    -0.504 OA
ATOM     22  H   UNL     1      -9.947   0.573   5.800  1.00  0.00     0.293 HD
ENDBRANCH  18  21
ENDBRANCH   3  13
BRANCH   9  23
ATOM     23  O   UNL     1      -6.556 -10.019   3.731  1.00  0.00    -0.507 OA
ATOM     24  H   UNL     1      -6.451 -10.196   4.722  1.00  0.00     0.293 HD
ENDBRANCH   9  23
BRANCH   7  25
ATOM     25  O   UNL     1     -10.118  -9.813   0.511  1.00  0.00    -0.508 OA
ATOM     26  H   UNL     1     -10.491  -9.261  -0.254  1.00  0.00     0.293 HD
ENDBRANCH   7  25
TORSDOF 6
ENDMDL
MODEL 4
REMARK VINA RESULT:     0.972     14.280     15.709
REMARK INTER + INTRA:           1.141
REMARK INTER:                   0.717
REMARK INTRA:                   0.423
REMARK UNBOUND:                -0.031
REMARK SMILES Oc1cc(O)c2c(c1)O[C@H](c1ccc(O)c(O)c1)[C@@H](O)C2
REMARK SMILES IDX 21 1 19 2 10 3 9 4 7 5 8 6 2 7 3 8 4 9 6 10 20 11 11 13
REMARK SMILES IDX 18 14 12 15 16 16 13 17 14 18 17 19 15 21 5 23 1 25
REMARK H PARENT 20 12 17 20 15 22 5 24 1 26
REMARK Flexibility Score: inf
ROOT
ATOM      1  C   UNL     1      -7.898  -7.186 -13.011  1.00  0.00     0.079 C 
ATOM      2  C   UNL     1      -8.429  -5.740 -13.027  1.00  0.00     0.164 C 
ATOM      3  C   UNL     1      -8.106  -5.037 -11.694  1.00  0.00     0.232 C 
ATOM      4  O   UNL     1      -8.649  -5.791 -10.610  1.00  0.00    -0.482 OA
ATOM      5  C   UNL     1      -8.641  -7.190 -10.593  1.00  0.00     0.131 A 
ATOM      6  C   UNL     1      -9.015  -7.856  -9.422  1.00  0.00     0.093 A 
ATOM      7  C   UNL     1      -9.002  -9.253  -9.370  1.00  0.00     0.122 A 
ATOM      8  C   UNL     1      -8.603  -9.986 -10.489  1.00  0.00     0.092 A 
ATOM      9  C   UNL     1      -8.224  -9.338 -11.670  1.00  0.00     0.126 A 
ATOM     10  C   UNL     1      -8.277  -7.925 -11.744  1.00  0.00     0.039 A 
ENDROOT
BRANCH   2  11
ATOM     11  O   UNL     1      -7.901  -5.032 -14.122  1.00  0.00    -0.389 OA
ATOM     12  H   UNL     1      -6.934  -5.247 -14.182  1.00  0.00     0.211 HD
ENDBRANCH   2  11
BRANCH   3  13
ATOM     13  C   UNL     1      -8.662  -3.634 -11.667  1.00  0.00    -0.001 A 
ATOM     14  C   UNL     1      -8.873  -2.925 -12.863  1.00  0.00     0.057 A 
ATOM     15  C   UNL     1      -8.929  -3.003 -10.442  1.00  0.00     0.012 A 
ATOM     16  C   UNL     1      -9.361  -1.613 -12.838  1.00  0.00     0.157 A 
ATOM     17  C   UNL     1      -9.417  -1.694 -10.413  1.00  0.00     0.050 A 
ATOM     18  C   UNL     1      -9.637  -0.994 -11.607  1.00  0.00     0.157 A 
BRANCH  16  19
ATOM     19  O   UNL     1      -9.564  -0.943 -14.044  1.00  0.00    -0.504 OA
ATOM     20  H   UNL     1      -9.207  -0.009 -14.205  1.00  0.00     0.293 HD
ENDBRANCH  16  19
BRANCH  18  21
ATOM     21  O   UNL     1     -10.125   0.311 -11.574  1.00  0.00    -0.504 OA
ATOM     22  H   UNL     1     -10.056   0.924 -12.378  1.00  0.00     0.293 HD
ENDBRANCH  18  21
ENDBRANCH   3  13
BRANCH   9  23
ATOM     23  O   UNL     1      -7.794 -10.124 -12.741  1.00  0.00    -0.507 OA
ATOM     24  H   UNL     1      -8.104 -11.075 -12.893  1.00  0.00     0.293 HD
ENDBRANCH   9  23
BRANCH   7  25
ATOM     25  O   UNL     1      -9.375  -9.922  -8.207  1.00  0.00    -0.508 OA
ATOM     26  H   UNL     1     -10.122  -9.578  -7.614  1.00  0.00     0.293 HD
ENDBRANCH   7  25
TORSDOF 6
ENDMDL
