MODEL 1
REMARK VINA RESULT:    -4.298      0.000      0.000
REMARK INTER + INTRA:         -10.953
REMARK INTER:                  -8.068
REMARK INTRA:                  -2.886
REMARK UNBOUND:                -2.886
REMARK SMILES CCCCCC=CCC=CCCCCCCCC(=O)OC
REMARK SMILES IDX 11 1 10 2 9 3 8 4 7 5 6 6 5 7 4 8 3 9 2 10 1 11 12 12 13 13
REMARK SMILES IDX 14 14 15 15 16 16 17 17 18 18 19 19 20 20 21 21
REMARK H PARENT
REMARK Flexibility Score: inf
ROOT
ATOM      1  C   UNL     1      -6.738   7.549  -3.120  1.00  0.00     0.027 C 
ENDROOT
BRANCH   1   2
ATOM      2  C   UNL     1      -6.220   8.718  -2.315  1.00  0.00    -0.031 C 
ATOM      3  C   UNL     1      -6.967   9.694  -1.764  1.00  0.00    -0.027 C 
BRANCH   3   4
ATOM      4  C   UNL     1      -8.472   9.794  -1.818  1.00  0.00     0.054 C 
BRANCH   4   5
ATOM      5  C   UNL     1      -9.071   9.372  -0.503  1.00  0.00    -0.027 C 
ATOM      6  C   UNL     1      -9.920   8.339  -0.351  1.00  0.00    -0.031 C 
BRANCH   6   7
ATOM      7  C   UNL     1     -10.347   7.416  -1.463  1.00  0.00     0.027 C 
BRANCH   7   8
ATOM      8  C   UNL     1     -10.263   5.950  -1.015  1.00  0.00     0.004 C 
BRANCH   8   9
ATOM      9  C   UNL     1     -10.755   5.733   0.427  1.00  0.00     0.000 C 
BRANCH   9  10
ATOM     10  C   UNL     1      -9.796   4.929   1.323  1.00  0.00    -0.003 C 
ATOM     11  C   UNL     1      -9.147   3.750   0.597  1.00  0.00     0.004 C 
ENDBRANCH   9  10
ENDBRANCH   8   9
ENDBRANCH   7   8
ENDBRANCH   6   7
ENDBRANCH   4   5
ENDBRANCH   3   4
ENDBRANCH   1   2
BRANCH   1  12
ATOM     12  C   UNL     1      -6.956   6.304  -2.248  1.00  0.00     0.004 C 
BRANCH  12  13
ATOM     13  C   UNL     1      -5.685   5.888  -1.491  1.00  0.00     0.000 C 
BRANCH  13  14
ATOM     14  C   UNL     1      -5.975   5.539  -0.016  1.00  0.00     0.000 C 
BRANCH  14  15
ATOM     15  C   UNL     1      -6.798   6.612   0.720  1.00  0.00     0.001 C 
BRANCH  15  16
ATOM     16  C   UNL     1      -6.354   6.884   2.168  1.00  0.00     0.012 C 
BRANCH  16  17
ATOM     17  C   UNL     1      -6.848   5.813   3.149  1.00  0.00     0.123 C 
BRANCH  17  18
ATOM     18  C   UNL     1      -7.311   6.448   4.423  1.00  0.00     0.305 C 
ATOM     19  O   UNL     1      -8.547   6.598   4.636  1.00  0.00    -0.252 OA
BRANCH  18  20
ATOM     20  O   UNL     1      -6.368   6.842   5.376  1.00  0.00    -0.469 OA
ATOM     21  C   UNL     1      -5.789   5.931   6.302  1.00  0.00     0.282 C 
ENDBRANCH  18  20
ENDBRANCH  17  18
ENDBRANCH  16  17
ENDBRANCH  15  16
ENDBRANCH  14  15
ENDBRANCH  13  14
ENDBRANCH  12  13
ENDBRANCH   1  12
TORSDOF 15
ENDMDL
MODEL 2
REMARK VINA RESULT:    -4.275      3.273      6.872
REMARK INTER + INTRA:         -10.910
REMARK INTER:                  -8.414
REMARK INTRA:                  -2.496
REMARK UNBOUND:                -2.886
REMARK SMILES CCCCCC=CCC=CCCCCCCCC(=O)OC
REMARK SMILES IDX 11 1 10 2 9 3 8 4 7 5 6 6 5 7 4 8 3 9 2 10 1 11 12 12 13 13
REMARK SMILES IDX 14 14 15 15 16 16 17 17 18 18 19 19 20 20 21 21
REMARK H PARENT
REMARK Flexibility Score: inf
ROOT
ATOM      1  C   UNL     1      -9.156   4.224   1.182  1.00  0.00     0.027 C 
ENDROOT
BRANCH   1   2
ATOM      2  C   UNL     1      -8.279   4.435  -0.031  1.00  0.00    -0.031 C 
ATOM      3  C   UNL     1      -7.390   5.434  -0.200  1.00  0.00    -0.027 C 
BRANCH   3   4
ATOM      4  C   UNL     1      -7.076   6.519   0.799  1.00  0.00     0.054 C 
BRANCH   4   5
ATOM      5  C   UNL     1      -6.042   6.039   1.783  1.00  0.00    -0.027 C 
ATOM      6  C   UNL     1      -6.247   5.928   3.108  1.00  0.00    -0.031 C 
BRANCH   6   7
ATOM      7  C   UNL     1      -7.560   6.206   3.793  1.00  0.00     0.027 C 
BRANCH   7   8
ATOM      8  C   UNL     1      -7.979   5.018   4.671  1.00  0.00     0.004 C 
BRANCH   8   9
ATOM      9  C   UNL     1      -8.132   5.393   6.156  1.00  0.00     0.000 C 
BRANCH   9  10
ATOM     10  C   UNL     1      -6.817   5.758   6.869  1.00  0.00    -0.003 C 
ATOM     11  C   UNL     1      -6.793   7.198   7.380  1.00  0.00     0.004 C 
ENDBRANCH   9  10
ENDBRANCH   8   9
ENDBRANCH   7   8
ENDBRANCH   6   7
ENDBRANCH   4   5
ENDBRANCH   3   4
ENDBRANCH   1   2
BRANCH   1  12
ATOM     12  C   UNL     1     -10.527   4.895   1.021  1.00  0.00     0.004 C 
BRANCH  12  13
ATOM     13  C   UNL     1     -10.517   6.366   1.467  1.00  0.00     0.000 C 
BRANCH  13  14
ATOM     14  C   UNL     1     -11.039   7.312   0.365  1.00  0.00     0.000 C 
BRANCH  14  15
ATOM     15  C   UNL     1     -11.180   6.635  -1.011  1.00  0.00     0.001 C 
BRANCH  15  16
ATOM     16  C   UNL     1     -10.124   7.057  -2.047  1.00  0.00     0.012 C 
BRANCH  16  17
ATOM     17  C   UNL     1      -9.751   5.922  -3.009  1.00  0.00     0.123 C 
BRANCH  17  18
ATOM     18  C   UNL     1      -8.671   6.366  -3.946  1.00  0.00     0.305 C 
ATOM     19  O   UNL     1      -7.580   6.801  -3.484  1.00  0.00    -0.252 OA
BRANCH  18  20
ATOM     20  O   UNL     1      -8.876   6.266  -5.326  1.00  0.00    -0.469 OA
ATOM     21  C   UNL     1      -8.276   7.161  -6.254  1.00  0.00     0.282 C 
ENDBRANCH  18  20
ENDBRANCH  17  18
ENDBRANCH  16  17
ENDBRANCH  15  16
ENDBRANCH  14  15
ENDBRANCH  13  14
ENDBRANCH  12  13
ENDBRANCH   1  12
TORSDOF 15
ENDMDL
MODEL 3
REMARK VINA RESULT:    -4.255      3.904      6.885
REMARK INTER + INTRA:         -10.872
REMARK INTER:                  -8.638
REMARK INTRA:                  -2.235
REMARK UNBOUND:                -2.886
REMARK SMILES CCCCCC=CCC=CCCCCCCCC(=O)OC
REMARK SMILES IDX 11 1 10 2 9 3 8 4 7 5 6 6 5 7 4 8 3 9 2 10 1 11 12 12 13 13
REMARK SMILES IDX 14 14 15 15 16 16 17 17 18 18 19 19 20 20 21 21
REMARK H PARENT
REMARK Flexibility Score: inf
ROOT
ATOM      1  C   UNL     1      -7.740   8.590  -0.258  1.00  0.00     0.027 C 
ENDROOT
BRANCH   1   2
ATOM      2  C   UNL     1      -7.034   7.758  -1.304  1.00  0.00    -0.031 C 
ATOM      3  C   UNL     1      -6.517   6.527  -1.120  1.00  0.00    -0.027 C 
BRANCH   3   4
ATOM      4  C   UNL     1      -6.568   5.727   0.158  1.00  0.00     0.054 C 
BRANCH   4   5
ATOM      5  C   UNL     1      -7.730   4.771   0.129  1.00  0.00    -0.027 C 
ATOM      6  C   UNL     1      -8.701   4.724   1.059  1.00  0.00    -0.031 C 
BRANCH   6   7
ATOM      7  C   UNL     1      -8.801   5.665   2.233  1.00  0.00     0.027 C 
BRANCH   7   8
ATOM      8  C   UNL     1      -7.976   5.146   3.419  1.00  0.00     0.004 C 
BRANCH   8   9
ATOM      9  C   UNL     1      -6.795   6.066   3.776  1.00  0.00     0.000 C 
BRANCH   9  10
ATOM     10  C   UNL     1      -6.842   6.655   5.198  1.00  0.00    -0.003 C 
ATOM     11  C   UNL     1      -5.925   5.925   6.178  1.00  0.00     0.004 C 
ENDBRANCH   9  10
ENDBRANCH   8   9
ENDBRANCH   7   8
ENDBRANCH   6   7
ENDBRANCH   4   5
ENDBRANCH   3   4
ENDBRANCH   1   2
BRANCH   1  12
ATOM     12  C   UNL     1      -9.226   8.222  -0.141  1.00  0.00     0.004 C 
BRANCH  12  13
ATOM     13  C   UNL     1      -9.891   8.019  -1.512  1.00  0.00     0.000 C 
BRANCH  13  14
ATOM     14  C   UNL     1     -10.425   6.582  -1.693  1.00  0.00     0.000 C 
BRANCH  14  15
ATOM     15  C   UNL     1      -9.887   5.880  -2.954  1.00  0.00     0.001 C 
BRANCH  15  16
ATOM     16  C   UNL     1      -9.025   6.769  -3.866  1.00  0.00     0.012 C 
BRANCH  16  17
ATOM     17  C   UNL     1      -9.039   6.305  -5.329  1.00  0.00     0.123 C 
BRANCH  17  18
ATOM     18  C   UNL     1      -8.125   7.156  -6.154  1.00  0.00     0.305 C 
ATOM     19  O   UNL     1      -7.339   6.614  -6.979  1.00  0.00    -0.252 OA
BRANCH  18  20
ATOM     20  O   UNL     1      -8.174   8.547  -6.020  1.00  0.00    -0.469 OA
ATOM     21  C   UNL     1      -7.089   9.389  -6.387  1.00  0.00     0.282 C 
ENDBRANCH  18  20
ENDBRANCH  17  18
ENDBRANCH  16  17
ENDBRANCH  15  16
ENDBRANCH  14  15
ENDBRANCH  13  14
ENDBRANCH  12  13
ENDBRANCH   1  12
TORSDOF 15
ENDMDL
MODEL 4
REMARK VINA RESULT:    -4.225      1.446      3.713
REMARK INTER + INTRA:         -10.816
REMARK INTER:                  -8.289
REMARK INTRA:                  -2.527
REMARK UNBOUND:                -2.886
REMARK SMILES CCCCCC=CCC=CCCCCCCCC(=O)OC
REMARK SMILES IDX 11 1 10 2 9 3 8 4 7 5 6 6 5 7 4 8 3 9 2 10 1 11 12 12 13 13
REMARK SMILES IDX 14 14 15 15 16 16 17 17 18 18 19 19 20 20 21 21
REMARK H PARENT
REMARK Flexibility Score: inf
ROOT
ATOM      1  C   UNL     1      -9.434   5.590  -1.876  1.00  0.00     0.027 C 
ENDROOT
BRANCH   1   2
ATOM      2  C   UNL     1     -10.675   6.199  -1.267  1.00  0.00    -0.031 C 
ATOM      3  C   UNL     1     -10.922   7.516  -1.123  1.00  0.00    -0.027 C 
BRANCH   3   4
ATOM      4  C   UNL     1     -10.020   8.640  -1.568  1.00  0.00     0.054 C 
BRANCH   4   5
ATOM      5  C   UNL     1      -9.003   8.946  -0.501  1.00  0.00    -0.027 C 
ATOM      6  C   UNL     1      -7.693   9.151  -0.734  1.00  0.00    -0.031 C 
BRANCH   6   7
ATOM      7  C   UNL     1      -7.064   9.167  -2.104  1.00  0.00     0.027 C 
BRANCH   7   8
ATOM      8  C   UNL     1      -6.380   7.825  -2.405  1.00  0.00     0.004 C 
BRANCH   8   9
ATOM      9  C   UNL     1      -6.680   7.304  -3.821  1.00  0.00     0.000 C 
BRANCH   9  10
ATOM     10  C   UNL     1      -7.988   7.829  -4.440  1.00  0.00    -0.003 C 
ATOM     11  C   UNL     1      -8.730   6.772  -5.258  1.00  0.00     0.004 C 
ENDBRANCH   9  10
ENDBRANCH   8   9
ENDBRANCH   7   8
ENDBRANCH   6   7
ENDBRANCH   4   5
ENDBRANCH   3   4
ENDBRANCH   1   2
BRANCH   1  12
ATOM     12  C   UNL     1      -8.348   5.327  -0.822  1.00  0.00     0.004 C 
BRANCH  12  13
ATOM     13  C   UNL     1      -8.805   4.334   0.257  1.00  0.00     0.000 C 
BRANCH  13  14
ATOM     14  C   UNL     1      -8.532   4.856   1.684  1.00  0.00     0.000 C 
BRANCH  14  15
ATOM     15  C   UNL     1      -7.522   6.019   1.729  1.00  0.00     0.001 C 
BRANCH  15  16
ATOM     16  C   UNL     1      -6.737   6.138   3.047  1.00  0.00     0.012 C 
BRANCH  16  17
ATOM     17  C   UNL     1      -7.628   5.969   4.284  1.00  0.00     0.123 C 
BRANCH  17  18
ATOM     18  C   UNL     1      -6.800   5.996   5.530  1.00  0.00     0.305 C 
ATOM     19  O   UNL     1      -5.718   6.647   5.551  1.00  0.00    -0.252 OA
BRANCH  18  20
ATOM     20  O   UNL     1      -7.250   5.320   6.669  1.00  0.00    -0.469 OA
ATOM     21  C   UNL     1      -7.918   4.067   6.600  1.00  0.00     0.282 C 
ENDBRANCH  18  20
ENDBRANCH  17  18
ENDBRANCH  16  17
ENDBRANCH  15  16
ENDBRANCH  14  15
ENDBRANCH  13  14
ENDBRANCH  12  13
ENDBRANCH   1  12
TORSDOF 15
ENDMDL
MODEL 5
REMARK VINA RESULT:    -4.168      3.681      6.910
REMARK INTER + INTRA:         -10.708
REMARK INTER:                  -8.130
REMARK INTRA:                  -2.578
REMARK UNBOUND:                -2.886
REMARK SMILES CCCCCC=CCC=CCCCCCCCC(=O)OC
REMARK SMILES IDX 11 1 10 2 9 3 8 4 7 5 6 6 5 7 4 8 3 9 2 10 1 11 12 12 13 13
REMARK SMILES IDX 14 14 15 15 16 16 17 17 18 18 19 19 20 20 21 21
REMARK H PARENT
REMARK Flexibility Score: inf
ROOT
ATOM      1  C   UNL     1     -10.479   7.294  -1.104  1.00  0.00     0.027 C 
ENDROOT
BRANCH   1   2
ATOM      2  C   UNL     1     -10.005   6.231  -2.068  1.00  0.00    -0.031 C 
ATOM      3  C   UNL     1      -9.137   5.239  -1.788  1.00  0.00    -0.027 C 
BRANCH   3   4
ATOM      4  C   UNL     1      -8.492   4.978  -0.449  1.00  0.00     0.054 C 
BRANCH   4   5
ATOM      5  C   UNL     1      -7.002   5.167  -0.543  1.00  0.00    -0.027 C 
ATOM      6  C   UNL     1      -6.277   5.927   0.298  1.00  0.00    -0.031 C 
BRANCH   6   7
ATOM      7  C   UNL     1      -6.842   6.649   1.495  1.00  0.00     0.027 C 
BRANCH   7   8
ATOM      8  C   UNL     1      -6.319   6.032   2.800  1.00  0.00     0.004 C 
BRANCH   8   9
ATOM      9  C   UNL     1      -7.448   5.609   3.757  1.00  0.00     0.000 C 
BRANCH   9  10
ATOM     10  C   UNL     1      -7.473   6.362   5.100  1.00  0.00    -0.003 C 
ATOM     11  C   UNL     1      -6.207   6.146   5.930  1.00  0.00     0.004 C 
ENDBRANCH   9  10
ENDBRANCH   8   9
ENDBRANCH   7   8
ENDBRANCH   6   7
ENDBRANCH   4   5
ENDBRANCH   3   4
ENDBRANCH   1   2
BRANCH   1  12
ATOM     12  C   UNL     1      -9.917   8.678  -1.456  1.00  0.00     0.004 C 
BRANCH  12  13
ATOM     13  C   UNL     1      -8.479   8.874  -0.952  1.00  0.00     0.000 C 
BRANCH  13  14
ATOM     14  C   UNL     1      -7.531   9.359  -2.069  1.00  0.00     0.000 C 
BRANCH  14  15
ATOM     15  C   UNL     1      -6.437   8.338  -2.434  1.00  0.00     0.001 C 
BRANCH  15  16
ATOM     16  C   UNL     1      -6.802   7.388  -3.587  1.00  0.00     0.012 C 
BRANCH  16  17
ATOM     17  C   UNL     1      -7.553   8.097  -4.722  1.00  0.00     0.123 C 
BRANCH  17  18
ATOM     18  C   UNL     1      -8.152   7.093  -5.657  1.00  0.00     0.305 C 
ATOM     19  O   UNL     1      -8.464   5.947  -5.230  1.00  0.00    -0.252 OA
BRANCH  18  20
ATOM     20  O   UNL     1      -8.385   7.449  -6.989  1.00  0.00    -0.469 OA
ATOM     21  C   UNL     1      -7.397   7.309  -8.002  1.00  0.00     0.282 C 
ENDBRANCH  18  20
ENDBRANCH  17  18
ENDBRANCH  16  17
ENDBRANCH  15  16
ENDBRANCH  14  15
ENDBRANCH  13  14
ENDBRANCH  12  13
ENDBRANCH   1  12
TORSDOF 15
ENDMDL
MODEL 6
REMARK VINA RESULT:    -4.093      1.609      2.823
REMARK INTER + INTRA:         -10.569
REMARK INTER:                  -7.932
REMARK INTRA:                  -2.637
REMARK UNBOUND:                -2.886
REMARK SMILES CCCCCC=CCC=CCCCCCCCC(=O)OC
REMARK SMILES IDX 11 1 10 2 9 3 8 4 7 5 6 6 5 7 4 8 3 9 2 10 1 11 12 12 13 13
REMARK SMILES IDX 14 14 15 15 16 16 17 17 18 18 19 19 20 20 21 21
REMARK H PARENT
REMARK Flexibility Score: inf
ROOT
ATOM      1  C   UNL     1      -6.699   8.445  -2.124  1.00  0.00     0.027 C 
ENDROOT
BRANCH   1   2
ATOM      2  C   UNL     1      -7.186   9.288  -3.281  1.00  0.00    -0.031 C 
ATOM      3  C   UNL     1      -7.395   8.858  -4.540  1.00  0.00    -0.027 C 
BRANCH   3   4
ATOM      4  C   UNL     1      -7.211   7.445  -5.036  1.00  0.00     0.054 C 
BRANCH   4   5
ATOM      5  C   UNL     1      -8.548   6.813  -5.318  1.00  0.00    -0.027 C 
ATOM      6  C   UNL     1      -9.173   5.954  -4.493  1.00  0.00    -0.031 C 
BRANCH   6   7
ATOM      7  C   UNL     1      -8.656   5.548  -3.136  1.00  0.00     0.027 C 
BRANCH   7   8
ATOM      8  C   UNL     1      -9.751   5.694  -2.070  1.00  0.00     0.004 C 
BRANCH   8   9
ATOM      9  C   UNL     1     -10.282   7.134  -1.948  1.00  0.00     0.000 C 
BRANCH   9  10
ATOM     10  C   UNL     1     -11.509   7.294  -1.033  1.00  0.00    -0.003 C 
ATOM     11  C   UNL     1     -11.363   6.558   0.298  1.00  0.00     0.004 C 
ENDBRANCH   9  10
ENDBRANCH   8   9
ENDBRANCH   7   8
ENDBRANCH   6   7
ENDBRANCH   4   5
ENDBRANCH   3   4
ENDBRANCH   1   2
BRANCH   1  12
ATOM     12  C   UNL     1      -7.131   9.025  -0.770  1.00  0.00     0.004 C 
BRANCH  12  13
ATOM     13  C   UNL     1      -7.613   7.941   0.206  1.00  0.00     0.000 C 
BRANCH  13  14
ATOM     14  C   UNL     1      -6.869   6.604   0.006  1.00  0.00     0.000 C 
BRANCH  14  15
ATOM     15  C   UNL     1      -7.410   5.460   0.885  1.00  0.00     0.001 C 
BRANCH  15  16
ATOM     16  C   UNL     1      -8.147   5.919   2.154  1.00  0.00     0.012 C 
BRANCH  16  17
ATOM     17  C   UNL     1      -7.514   5.367   3.438  1.00  0.00     0.123 C 
BRANCH  17  18
ATOM     18  C   UNL     1      -6.524   6.343   3.993  1.00  0.00     0.305 C 
ATOM     19  O   UNL     1      -6.316   7.434   3.393  1.00  0.00    -0.252 OA
BRANCH  18  20
ATOM     20  O   UNL     1      -5.861   6.045   5.187  1.00  0.00    -0.469 OA
ATOM     21  C   UNL     1      -6.522   6.033   6.446  1.00  0.00     0.282 C 
ENDBRANCH  18  20
ENDBRANCH  17  18
ENDBRANCH  16  17
ENDBRANCH  15  16
ENDBRANCH  14  15
ENDBRANCH  13  14
ENDBRANCH  12  13
ENDBRANCH   1  12
TORSDOF 15
ENDMDL
MODEL 7
REMARK VINA RESULT:    -4.087      1.462      3.603
REMARK INTER + INTRA:         -10.557
REMARK INTER:                  -8.219
REMARK INTRA:                  -2.338
REMARK UNBOUND:                -2.886
REMARK SMILES CCCCCC=CCC=CCCCCCCCC(=O)OC
REMARK SMILES IDX 11 1 10 2 9 3 8 4 7 5 6 6 5 7 4 8 3 9 2 10 1 11 12 12 13 13
REMARK SMILES IDX 14 14 15 15 16 16 17 17 18 18 19 19 20 20 21 21
REMARK H PARENT
REMARK Flexibility Score: inf
ROOT
ATOM      1  C   UNL     1      -8.573   4.340  -0.222  1.00  0.00     0.027 C 
ENDROOT
BRANCH   1   2
ATOM      2  C   UNL     1      -8.931   4.998  -1.535  1.00  0.00    -0.031 C 
ATOM      3  C   UNL     1      -8.138   5.820  -2.250  1.00  0.00    -0.027 C 
BRANCH   3   4
ATOM      4  C   UNL     1      -6.728   6.220  -1.895  1.00  0.00     0.054 C 
BRANCH   4   5
ATOM      5  C   UNL     1      -6.449   7.622  -2.365  1.00  0.00    -0.027 C 
ATOM      6  C   UNL     1      -6.840   8.734  -1.716  1.00  0.00    -0.031 C 
BRANCH   6   7
ATOM      7  C   UNL     1      -7.558   8.739  -0.391  1.00  0.00     0.027 C 
BRANCH   7   8
ATOM      8  C   UNL     1      -8.968   9.328  -0.537  1.00  0.00     0.004 C 
BRANCH   8   9
ATOM      9  C   UNL     1     -10.075   8.341  -0.126  1.00  0.00     0.000 C 
BRANCH   9  10
ATOM     10  C   UNL     1     -11.136   8.073  -1.210  1.00  0.00    -0.003 C 
ATOM     11  C   UNL     1     -12.026   6.872  -0.891  1.00  0.00     0.004 C 
ENDBRANCH   9  10
ENDBRANCH   8   9
ENDBRANCH   7   8
ENDBRANCH   6   7
ENDBRANCH   4   5
ENDBRANCH   3   4
ENDBRANCH   1   2
BRANCH   1  12
ATOM     12  C   UNL     1      -9.396   4.904   0.945  1.00  0.00     0.004 C 
BRANCH  12  13
ATOM     13  C   UNL     1      -8.552   5.114   2.211  1.00  0.00     0.000 C 
BRANCH  13  14
ATOM     14  C   UNL     1      -7.249   5.889   1.922  1.00  0.00     0.000 C 
BRANCH  14  15
ATOM     15  C   UNL     1      -6.273   5.919   3.113  1.00  0.00     0.001 C 
BRANCH  15  16
ATOM     16  C   UNL     1      -6.876   6.450   4.425  1.00  0.00     0.012 C 
BRANCH  16  17
ATOM     17  C   UNL     1      -6.131   5.942   5.667  1.00  0.00     0.123 C 
BRANCH  17  18
ATOM     18  C   UNL     1      -6.956   6.163   6.896  1.00  0.00     0.305 C 
ATOM     19  O   UNL     1      -6.720   7.155   7.639  1.00  0.00    -0.252 OA
BRANCH  18  20
ATOM     20  O   UNL     1      -7.999   5.279   7.191  1.00  0.00    -0.469 OA
ATOM     21  C   UNL     1      -7.945   3.896   6.864  1.00  0.00     0.282 C 
ENDBRANCH  18  20
ENDBRANCH  17  18
ENDBRANCH  16  17
ENDBRANCH  15  16
ENDBRANCH  14  15
ENDBRANCH  13  14
ENDBRANCH  12  13
ENDBRANCH   1  12
TORSDOF 15
ENDMDL
MODEL 8
REMARK VINA RESULT:    -4.030      1.618      2.596
REMARK INTER + INTRA:         -10.450
REMARK INTER:                  -7.661
REMARK INTRA:                  -2.790
REMARK UNBOUND:                -2.886
REMARK SMILES CCCCCC=CCC=CCCCCCCCC(=O)OC
REMARK SMILES IDX 11 1 10 2 9 3 8 4 7 5 6 6 5 7 4 8 3 9 2 10 1 11 12 12 13 13
REMARK SMILES IDX 14 14 15 15 16 16 17 17 18 18 19 19 20 20 21 21
REMARK H PARENT
REMARK Flexibility Score: inf
ROOT
ATOM      1  C   UNL     1      -7.125   8.331  -1.304  1.00  0.00     0.027 C 
ENDROOT
BRANCH   1   2
ATOM      2  C   UNL     1      -6.678   7.309  -2.324  1.00  0.00    -0.031 C 
ATOM      3  C   UNL     1      -7.455   6.737  -3.264  1.00  0.00    -0.027 C 
BRANCH   3   4
ATOM      4  C   UNL     1      -8.917   7.025  -3.500  1.00  0.00     0.054 C 
BRANCH   4   5
ATOM      5  C   UNL     1      -9.769   5.969  -2.846  1.00  0.00    -0.027 C 
ATOM      6  C   UNL     1     -10.652   6.208  -1.860  1.00  0.00    -0.031 C 
BRANCH   6   7
ATOM      7  C   UNL     1     -10.964   7.575  -1.308  1.00  0.00     0.027 C 
BRANCH   7   8
ATOM      8  C   UNL     1     -11.508   7.473   0.124  1.00  0.00     0.004 C 
BRANCH   8   9
ATOM      9  C   UNL     1     -11.674   6.020   0.601  1.00  0.00     0.000 C 
BRANCH   9  10
ATOM     10  C   UNL     1     -11.941   5.861   2.109  1.00  0.00    -0.003 C 
ATOM     11  C   UNL     1     -11.265   6.942   2.953  1.00  0.00     0.004 C 
ENDBRANCH   9  10
ENDBRANCH   8   9
ENDBRANCH   7   8
ENDBRANCH   6   7
ENDBRANCH   4   5
ENDBRANCH   3   4
ENDBRANCH   1   2
BRANCH   1  12
ATOM     12  C   UNL     1      -7.690   7.668  -0.039  1.00  0.00     0.004 C 
BRANCH  12  13
ATOM     13  C   UNL     1      -6.994   6.338   0.288  1.00  0.00     0.000 C 
BRANCH  13  14
ATOM     14  C   UNL     1      -8.001   5.181   0.459  1.00  0.00     0.000 C 
BRANCH  14  15
ATOM     15  C   UNL     1      -8.371   4.899   1.928  1.00  0.00     0.001 C 
BRANCH  15  16
ATOM     16  C   UNL     1      -7.619   5.760   2.957  1.00  0.00     0.012 C 
BRANCH  16  17
ATOM     17  C   UNL     1      -7.969   5.392   4.405  1.00  0.00     0.123 C 
BRANCH  17  18
ATOM     18  C   UNL     1      -7.295   6.328   5.358  1.00  0.00     0.305 C 
ATOM     19  O   UNL     1      -6.075   6.614   5.200  1.00  0.00    -0.252 OA
BRANCH  18  20
ATOM     20  O   UNL     1      -8.034   6.898   6.399  1.00  0.00    -0.469 OA
ATOM     21  C   UNL     1      -9.451   6.812   6.467  1.00  0.00     0.282 C 
ENDBRANCH  18  20
ENDBRANCH  17  18
ENDBRANCH  16  17
ENDBRANCH  15  16
ENDBRANCH  14  15
ENDBRANCH  13  14
ENDBRANCH  12  13
ENDBRANCH   1  12
TORSDOF 15
ENDMDL
MODEL 9
REMARK VINA RESULT:    -3.957      1.449      4.149
REMARK INTER + INTRA:         -10.312
REMARK INTER:                  -7.834
REMARK INTRA:                  -2.478
REMARK UNBOUND:                -2.886
REMARK SMILES CCCCCC=CCC=CCCCCCCCC(=O)OC
REMARK SMILES IDX 11 1 10 2 9 3 8 4 7 5 6 6 5 7 4 8 3 9 2 10 1 11 12 12 13 13
REMARK SMILES IDX 14 14 15 15 16 16 17 17 18 18 19 19 20 20 21 21
REMARK H PARENT
REMARK Flexibility Score: inf
ROOT
ATOM      1  C   UNL     1     -10.382   6.124   0.993  1.00  0.00     0.027 C 
ENDROOT
BRANCH   1   2
ATOM      2  C   UNL     1     -11.524   6.254   0.012  1.00  0.00    -0.031 C 
ATOM      3  C   UNL     1     -11.427   6.667  -1.266  1.00  0.00    -0.027 C 
BRANCH   3   4
ATOM      4  C   UNL     1     -10.154   7.053  -1.978  1.00  0.00     0.054 C 
BRANCH   4   5
ATOM      5  C   UNL     1      -9.621   5.885  -2.763  1.00  0.00    -0.027 C 
ATOM      6  C   UNL     1      -8.325   5.526  -2.808  1.00  0.00    -0.031 C 
BRANCH   6   7
ATOM      7  C   UNL     1      -7.226   6.202  -2.029  1.00  0.00     0.027 C 
BRANCH   7   8
ATOM      8  C   UNL     1      -6.545   7.286  -2.876  1.00  0.00     0.004 C 
BRANCH   8   9
ATOM      9  C   UNL     1      -6.805   8.709  -2.352  1.00  0.00     0.000 C 
BRANCH   9  10
ATOM     10  C   UNL     1      -7.150   8.793  -0.854  1.00  0.00    -0.003 C 
ATOM     11  C   UNL     1      -8.209   9.851  -0.543  1.00  0.00     0.004 C 
ENDBRANCH   9  10
ENDBRANCH   8   9
ENDBRANCH   7   8
ENDBRANCH   6   7
ENDBRANCH   4   5
ENDBRANCH   3   4
ENDBRANCH   1   2
BRANCH   1  12
ATOM     12  C   UNL     1      -9.754   4.724   0.959  1.00  0.00     0.004 C 
BRANCH  12  13
ATOM     13  C   UNL     1      -8.225   4.762   1.100  1.00  0.00     0.000 C 
BRANCH  13  14
ATOM     14  C   UNL     1      -7.720   6.130   1.604  1.00  0.00     0.000 C 
BRANCH  14  15
ATOM     15  C   UNL     1      -6.379   6.052   2.359  1.00  0.00     0.001 C 
BRANCH  15  16
ATOM     16  C   UNL     1      -6.489   6.221   3.884  1.00  0.00     0.012 C 
BRANCH  16  17
ATOM     17  C   UNL     1      -7.922   6.033   4.398  1.00  0.00     0.123 C 
BRANCH  17  18
ATOM     18  C   UNL     1      -7.941   6.024   5.895  1.00  0.00     0.305 C 
ATOM     19  O   UNL     1      -7.282   5.150   6.525  1.00  0.00    -0.252 OA
BRANCH  18  20
ATOM     20  O   UNL     1      -8.668   7.003   6.579  1.00  0.00    -0.469 OA
ATOM     21  C   UNL     1     -10.089   7.042   6.575  1.00  0.00     0.282 C 
ENDBRANCH  18  20
ENDBRANCH  17  18
ENDBRANCH  16  17
ENDBRANCH  15  16
ENDBRANCH  14  15
ENDBRANCH  13  14
ENDBRANCH  12  13
ENDBRANCH   1  12
TORSDOF 15
ENDMDL
