MODEL 1
REMARK VINA RESULT:    -5.123      0.000      0.000
REMARK INTER + INTRA:          -5.456
REMARK INTER:                  -5.422
REMARK INTRA:                  -0.034
REMARK UNBOUND:                -0.034
REMARK SMILES COc1ccc2ccc(=O)oc2c1
REMARK SMILES IDX 3 1 13 2 12 3 6 4 5 5 4 6 7 7 8 8 9 9 10 10 11 11 2 12 1 13
REMARK H PARENT
REMARK Flexibility Score: inf
ROOT
ATOM      1  C   UNL     1      -1.532  -6.622 -41.330  1.00  0.00     0.122 A 
ATOM      2  C   UNL     1      -0.271  -6.852 -40.745  1.00  0.00     0.094 A 
ATOM      3  C   UNL     1       0.880  -6.281 -41.299  1.00  0.00     0.142 A 
ATOM      4  C   UNL     1       0.776  -5.471 -42.450  1.00  0.00     0.018 A 
ATOM      5  C   UNL     1      -0.477  -5.241 -43.032  1.00  0.00     0.016 A 
ATOM      6  C   UNL     1      -1.622  -5.816 -42.471  1.00  0.00     0.047 A 
ATOM      7  C   UNL     1       1.943  -4.913 -42.981  1.00  0.00     0.019 A 
ATOM      8  C   UNL     1       3.167  -5.173 -42.364  1.00  0.00     0.094 A 
ATOM      9  C   UNL     1       3.194  -5.986 -41.226  1.00  0.00     0.336 A 
ATOM     10  O   UNL     1       4.288  -6.232 -40.655  1.00  0.00    -0.246 OA
ATOM     11  O   UNL     1       2.068  -6.503 -40.742  1.00  0.00    -0.423 OA
ENDROOT
BRANCH   1  12
ATOM     12  O   UNL     1      -2.713  -7.173 -40.810  1.00  0.00    -0.497 OA
ATOM     13  C   UNL     1      -3.642  -7.944 -41.565  1.00  0.00     0.278 C 
ENDBRANCH   1  12
TORSDOF 1
ENDMDL
MODEL 2
REMARK VINA RESULT:    -5.050      7.552      9.033
REMARK INTER + INTRA:          -5.379
REMARK INTER:                  -5.346
REMARK INTRA:                  -0.033
REMARK UNBOUND:                -0.034
REMARK SMILES COc1ccc2ccc(=O)oc2c1
REMARK SMILES IDX 3 1 13 2 12 3 6 4 5 5 4 6 7 7 8 8 9 9 10 10 11 11 2 12 1 13
REMARK H PARENT
REMARK Flexibility Score: inf
ROOT
ATOM      1  C   UNL     1       7.740 -10.951 -42.940  1.00  0.00     0.122 A 
ATOM      2  C   UNL     1       6.513 -11.249 -43.567  1.00  0.00     0.094 A 
ATOM      3  C   UNL     1       6.064 -10.477 -44.644  1.00  0.00     0.142 A 
ATOM      4  C   UNL     1       6.843  -9.394 -45.104  1.00  0.00     0.018 A 
ATOM      5  C   UNL     1       8.063  -9.097 -44.482  1.00  0.00     0.016 A 
ATOM      6  C   UNL     1       8.504  -9.874 -43.407  1.00  0.00     0.047 A 
ATOM      7  C   UNL     1       6.368  -8.640 -46.182  1.00  0.00     0.019 A 
ATOM      8  C   UNL     1       5.147  -8.977 -46.766  1.00  0.00     0.094 A 
ATOM      9  C   UNL     1       4.428 -10.063 -46.256  1.00  0.00     0.336 A 
ATOM     10  O   UNL     1       3.325 -10.383 -46.770  1.00  0.00    -0.246 OA
ATOM     11  O   UNL     1       4.904 -10.763 -45.230  1.00  0.00    -0.423 OA
ENDROOT
BRANCH   1  12
ATOM     12  O   UNL     1       8.231 -11.697 -41.858  1.00  0.00    -0.497 OA
ATOM     13  C   UNL     1       9.163 -12.767 -41.975  1.00  0.00     0.278 C 
ENDBRANCH   1  12
TORSDOF 1
ENDMDL
MODEL 3
REMARK VINA RESULT:    -4.997      4.264      5.595
REMARK INTER + INTRA:          -5.323
REMARK INTER:                  -5.284
REMARK INTRA:                  -0.039
REMARK UNBOUND:                -0.034
REMARK SMILES COc1ccc2ccc(=O)oc2c1
REMARK SMILES IDX 3 1 13 2 12 3 6 4 5 5 4 6 7 7 8 8 9 9 10 10 11 11 2 12 1 13
REMARK H PARENT
REMARK Flexibility Score: inf
ROOT
ATOM      1  C   UNL     1       2.831  -6.164 -43.175  1.00  0.00     0.122 A 
ATOM      2  C   UNL     1       2.362  -7.158 -44.057  1.00  0.00     0.094 A 
ATOM      3  C   UNL     1       3.263  -8.003 -44.713  1.00  0.00     0.142 A 
ATOM      4  C   UNL     1       4.649  -7.859 -44.490  1.00  0.00     0.018 A 
ATOM      5  C   UNL     1       5.117  -6.873 -43.612  1.00  0.00     0.016 A 
ATOM      6  C   UNL     1       4.209  -6.033 -42.961  1.00  0.00     0.047 A 
ATOM      7  C   UNL     1       5.526  -8.719 -45.160  1.00  0.00     0.019 A 
ATOM      8  C   UNL     1       5.009  -9.685 -46.023  1.00  0.00     0.094 A 
ATOM      9  C   UNL     1       3.624  -9.768 -46.196  1.00  0.00     0.336 A 
ATOM     10  O   UNL     1       3.139 -10.633 -46.971  1.00  0.00    -0.246 OA
ATOM     11  O   UNL     1       2.813  -8.938 -45.546  1.00  0.00    -0.423 OA
ENDROOT
BRANCH   1  12
ATOM     12  O   UNL     1       1.966  -5.294 -42.494  1.00  0.00    -0.497 OA
ATOM     13  C   UNL     1       0.549  -5.300 -42.628  1.00  0.00     0.278 C 
ENDBRANCH   1  12
TORSDOF 1
ENDMDL
MODEL 4
REMARK VINA RESULT:    -4.983      0.972      4.822
REMARK INTER + INTRA:          -5.308
REMARK INTER:                  -5.270
REMARK INTRA:                  -0.038
REMARK UNBOUND:                -0.034
REMARK SMILES COc1ccc2ccc(=O)oc2c1
REMARK SMILES IDX 3 1 13 2 12 3 6 4 5 5 4 6 7 7 8 8 9 9 10 10 11 11 2 12 1 13
REMARK H PARENT
REMARK Flexibility Score: inf
ROOT
ATOM      1  C   UNL     1       2.953  -5.865 -41.269  1.00  0.00     0.122 A 
ATOM      2  C   UNL     1       1.807  -6.482 -40.728  1.00  0.00     0.094 A 
ATOM      3  C   UNL     1       0.557  -6.302 -41.331  1.00  0.00     0.142 A 
ATOM      4  C   UNL     1       0.445  -5.500 -42.487  1.00  0.00     0.018 A 
ATOM      5  C   UNL     1       1.583  -4.888 -43.026  1.00  0.00     0.016 A 
ATOM      6  C   UNL     1       2.828  -5.072 -42.417  1.00  0.00     0.047 A 
ATOM      7  C   UNL     1      -0.818  -5.340 -43.067  1.00  0.00     0.019 A 
ATOM      8  C   UNL     1      -1.920  -5.971 -42.491  1.00  0.00     0.094 A 
ATOM      9  C   UNL     1      -1.732  -6.751 -41.345  1.00  0.00     0.336 A 
ATOM     10  O   UNL     1      -2.715  -7.329 -40.811  1.00  0.00    -0.246 OA
ATOM     11  O   UNL     1      -0.520  -6.887 -40.814  1.00  0.00    -0.423 OA
ENDROOT
BRANCH   1  12
ATOM     12  O   UNL     1       4.227  -6.016 -40.701  1.00  0.00    -0.497 OA
ATOM     13  C   UNL     1       5.445  -5.997 -41.438  1.00  0.00     0.278 C 
ENDBRANCH   1  12
TORSDOF 1
ENDMDL
MODEL 5
REMARK VINA RESULT:    -4.983      6.444      8.020
REMARK INTER + INTRA:          -5.307
REMARK INTER:                  -5.269
REMARK INTRA:                  -0.039
REMARK UNBOUND:                -0.034
REMARK SMILES COc1ccc2ccc(=O)oc2c1
REMARK SMILES IDX 3 1 13 2 12 3 6 4 5 5 4 6 7 7 8 8 9 9 10 10 11 11 2 12 1 13
REMARK H PARENT
REMARK Flexibility Score: inf
ROOT
ATOM      1  C   UNL     1       5.344 -12.247 -42.000  1.00  0.00     0.122 A 
ATOM      2  C   UNL     1       4.162 -11.785 -42.613  1.00  0.00     0.094 A 
ATOM      3  C   UNL     1       4.222 -11.065 -43.811  1.00  0.00     0.142 A 
ATOM      4  C   UNL     1       5.473 -10.799 -44.407  1.00  0.00     0.018 A 
ATOM      5  C   UNL     1       6.649 -11.259 -43.800  1.00  0.00     0.016 A 
ATOM      6  C   UNL     1       6.580 -11.978 -42.603  1.00  0.00     0.047 A 
ATOM      7  C   UNL     1       5.502 -10.077 -45.604  1.00  0.00     0.019 A 
ATOM      8  C   UNL     1       4.303  -9.642 -46.169  1.00  0.00     0.094 A 
ATOM      9  C   UNL     1       3.100  -9.941 -45.520  1.00  0.00     0.336 A 
ATOM     10  O   UNL     1       2.008  -9.557 -46.014  1.00  0.00    -0.246 OA
ATOM     11  O   UNL     1       3.103 -10.631 -44.383  1.00  0.00    -0.423 OA
ENDROOT
BRANCH   1  12
ATOM     12  O   UNL     1       5.334 -12.974 -40.800  1.00  0.00    -0.497 OA
ATOM     13  C   UNL     1       6.446 -13.087 -39.919  1.00  0.00     0.278 C 
ENDBRANCH   1  12
TORSDOF 1
ENDMDL
MODEL 6
REMARK VINA RESULT:    -4.962      7.034      8.499
REMARK INTER + INTRA:          -5.285
REMARK INTER:                  -5.246
REMARK INTRA:                  -0.039
REMARK UNBOUND:                -0.034
REMARK SMILES COc1ccc2ccc(=O)oc2c1
REMARK SMILES IDX 3 1 13 2 12 3 6 4 5 5 4 6 7 7 8 8 9 9 10 10 11 11 2 12 1 13
REMARK H PARENT
REMARK Flexibility Score: inf
ROOT
ATOM      1  C   UNL     1       6.423 -11.990 -42.613  1.00  0.00     0.122 A 
ATOM      2  C   UNL     1       6.858 -11.225 -43.714  1.00  0.00     0.094 A 
ATOM      3  C   UNL     1       5.928 -10.588 -44.543  1.00  0.00     0.142 A 
ATOM      4  C   UNL     1       4.548 -10.714 -44.276  1.00  0.00     0.018 A 
ATOM      5  C   UNL     1       4.114 -11.474 -43.182  1.00  0.00     0.016 A 
ATOM      6  C   UNL     1       5.050 -12.107 -42.359  1.00  0.00     0.047 A 
ATOM      7  C   UNL     1       3.644 -10.066 -45.123  1.00  0.00     0.019 A 
ATOM      8  C   UNL     1       4.127  -9.321 -46.198  1.00  0.00     0.094 A 
ATOM      9  C   UNL     1       5.509  -9.241 -46.402  1.00  0.00     0.336 A 
ATOM     10  O   UNL     1       5.964  -8.574 -47.367  1.00  0.00    -0.246 OA
ATOM     11  O   UNL     1       6.347  -9.867 -45.580  1.00  0.00    -0.423 OA
ENDROOT
BRANCH   1  12
ATOM     12  O   UNL     1       7.316 -12.647 -41.753  1.00  0.00    -0.497 OA
ATOM     13  C   UNL     1       8.728 -12.675 -41.930  1.00  0.00     0.278 C 
ENDBRANCH   1  12
TORSDOF 1
ENDMDL
MODEL 7
REMARK VINA RESULT:    -4.956      6.017      7.819
REMARK INTER + INTRA:          -5.279
REMARK INTER:                  -5.242
REMARK INTRA:                  -0.037
REMARK UNBOUND:                -0.034
REMARK SMILES COc1ccc2ccc(=O)oc2c1
REMARK SMILES IDX 3 1 13 2 12 3 6 4 5 5 4 6 7 7 8 8 9 9 10 10 11 11 2 12 1 13
REMARK H PARENT
REMARK Flexibility Score: inf
ROOT
ATOM      1  C   UNL     1       6.151 -11.234 -43.745  1.00  0.00     0.122 A 
ATOM      2  C   UNL     1       4.804 -11.209 -43.331  1.00  0.00     0.094 A 
ATOM      3  C   UNL     1       3.832 -10.593 -44.126  1.00  0.00     0.142 A 
ATOM      4  C   UNL     1       4.202  -9.993 -45.349  1.00  0.00     0.018 A 
ATOM      5  C   UNL     1       5.540 -10.018 -45.762  1.00  0.00     0.016 A 
ATOM      6  C   UNL     1       6.506 -10.635 -44.961  1.00  0.00     0.047 A 
ATOM      7  C   UNL     1       3.208  -9.385 -46.122  1.00  0.00     0.019 A 
ATOM      8  C   UNL     1       1.890  -9.388 -45.666  1.00  0.00     0.094 A 
ATOM      9  C   UNL     1       1.597 -10.002 -44.443  1.00  0.00     0.336 A 
ATOM     10  O   UNL     1       0.413 -10.015 -44.015  1.00  0.00    -0.246 OA
ATOM     11  O   UNL     1       2.562 -10.573 -43.729  1.00  0.00    -0.423 OA
ENDROOT
BRANCH   1  12
ATOM     12  O   UNL     1       7.161 -11.839 -42.983  1.00  0.00    -0.497 OA
ATOM     13  C   UNL     1       6.968 -12.981 -42.154  1.00  0.00     0.278 C 
ENDBRANCH   1  12
TORSDOF 1
ENDMDL
MODEL 8
REMARK VINA RESULT:    -4.942      6.822      8.229
REMARK INTER + INTRA:          -5.265
REMARK INTER:                  -5.227
REMARK INTRA:                  -0.038
REMARK UNBOUND:                -0.034
REMARK SMILES COc1ccc2ccc(=O)oc2c1
REMARK SMILES IDX 3 1 13 2 12 3 6 4 5 5 4 6 7 7 8 8 9 9 10 10 11 11 2 12 1 13
REMARK H PARENT
REMARK Flexibility Score: inf
ROOT
ATOM      1  C   UNL     1       4.786  -9.967 -45.392  1.00  0.00     0.122 A 
ATOM      2  C   UNL     1       6.005 -10.485 -44.909  1.00  0.00     0.094 A 
ATOM      3  C   UNL     1       6.026 -11.285 -43.761  1.00  0.00     0.142 A 
ATOM      4  C   UNL     1       4.822 -11.574 -43.085  1.00  0.00     0.018 A 
ATOM      5  C   UNL     1       3.610 -11.060 -43.565  1.00  0.00     0.016 A 
ATOM      6  C   UNL     1       3.598 -10.261 -44.712  1.00  0.00     0.047 A 
ATOM      7  C   UNL     1       4.875 -12.376 -41.940  1.00  0.00     0.019 A 
ATOM      8  C   UNL     1       6.107 -12.863 -41.504  1.00  0.00     0.094 A 
ATOM      9  C   UNL     1       7.260 -12.535 -42.225  1.00  0.00     0.336 A 
ATOM     10  O   UNL     1       8.380 -12.965 -41.846  1.00  0.00    -0.246 OA
ATOM     11  O   UNL     1       7.180 -11.770 -43.310  1.00  0.00    -0.423 OA
ENDROOT
BRANCH   1  12
ATOM     12  O   UNL     1       4.715  -9.160 -46.538  1.00  0.00    -0.497 OA
ATOM     13  C   UNL     1       5.766  -8.316 -46.995  1.00  0.00     0.278 C 
ENDBRANCH   1  12
TORSDOF 1
ENDMDL
MODEL 9
REMARK VINA RESULT:    -4.923      4.761      5.374
REMARK INTER + INTRA:          -5.244
REMARK INTER:                  -5.210
REMARK INTRA:                  -0.034
REMARK UNBOUND:                -0.034
REMARK SMILES COc1ccc2ccc(=O)oc2c1
REMARK SMILES IDX 3 1 13 2 12 3 6 4 5 5 4 6 7 7 8 8 9 9 10 10 11 11 2 12 1 13
REMARK H PARENT
REMARK Flexibility Score: inf
ROOT
ATOM      1  C   UNL     1       1.491  -7.590 -43.410  1.00  0.00     0.122 A 
ATOM      2  C   UNL     1       2.739  -7.409 -44.041  1.00  0.00     0.094 A 
ATOM      3  C   UNL     1       3.215  -8.359 -44.951  1.00  0.00     0.142 A 
ATOM      4  C   UNL     1       2.441  -9.504 -45.239  1.00  0.00     0.018 A 
ATOM      5  C   UNL     1       1.201  -9.684 -44.614  1.00  0.00     0.016 A 
ATOM      6  C   UNL     1       0.733  -8.730 -43.705  1.00  0.00     0.047 A 
ATOM      7  C   UNL     1       2.943 -10.435 -46.154  1.00  0.00     0.019 A 
ATOM      8  C   UNL     1       4.183 -10.209 -46.749  1.00  0.00     0.094 A 
ATOM      9  C   UNL     1       4.895  -9.051 -46.415  1.00  0.00     0.336 A 
ATOM     10  O   UNL     1       6.016  -8.829 -46.942  1.00  0.00    -0.246 OA
ATOM     11  O   UNL     1       4.393  -8.182 -45.543  1.00  0.00    -0.423 OA
ENDROOT
BRANCH   1  12
ATOM     12  O   UNL     1       0.973  -6.666 -42.491  1.00  0.00    -0.497 OA
ATOM     13  C   UNL     1       0.621  -5.324 -42.811  1.00  0.00     0.278 C 
ENDBRANCH   1  12
TORSDOF 1
ENDMDL
