MODEL 1
REMARK VINA RESULT:    -6.429      0.000      0.000
REMARK INTER + INTRA:          -6.902
REMARK INTER:                  -6.805
REMARK INTRA:                  -0.098
REMARK UNBOUND:                -0.098
REMARK SMILES C=C(C)[C@@H]1CC=C(C)C(=O)C1
REMARK SMILES IDX 8 1 7 2 6 3 5 4 4 5 11 6 9 7 10 8 2 9 1 10 3 11
REMARK H PARENT
REMARK Flexibility Score: inf
ROOT
ATOM      1  C   UNL     1      28.591  11.420  84.609  1.00  0.00     0.048 C 
ATOM      2  C   UNL     1      27.920  12.431  83.721  1.00  0.00    -0.012 C 
ATOM      3  C   UNL     1      27.615  13.647  84.204  1.00  0.00    -0.019 C 
ATOM      4  C   UNL     1      26.960  14.703  83.353  1.00  0.00     0.036 C 
ATOM      5  C   UNL     1      26.019  14.070  82.312  1.00  0.00     0.025 C 
ATOM      6  C   UNL     1      26.777  13.029  81.468  1.00  0.00     0.089 C 
ATOM      7  C   UNL     1      27.484  12.042  82.357  1.00  0.00     0.158 C 
ATOM      8  O   UNL     1      27.737  10.889  81.914  1.00  0.00    -0.295 OA
ENDROOT
BRANCH   5   9
ATOM      9  C   UNL     1      25.366  15.128  81.434  1.00  0.00    -0.077 C 
ATOM     10  C   UNL     1      25.894  15.431  80.237  1.00  0.00     0.008 C 
ATOM     11  C   UNL     1      24.122  15.859  81.878  1.00  0.00     0.039 C 
ENDBRANCH   5   9
TORSDOF 1
ENDMDL
MODEL 2
REMARK VINA RESULT:    -6.368      0.329      1.080
REMARK INTER + INTRA:          -6.838
REMARK INTER:                  -6.745
REMARK INTRA:                  -0.093
REMARK UNBOUND:                -0.098
REMARK SMILES C=C(C)[C@@H]1CC=C(C)C(=O)C1
REMARK SMILES IDX 8 1 7 2 6 3 5 4 4 5 11 6 9 7 10 8 2 9 1 10 3 11
REMARK H PARENT
REMARK Flexibility Score: inf
ROOT
ATOM      1  C   UNL     1      28.592  11.384  84.670  1.00  0.00     0.048 C 
ATOM      2  C   UNL     1      27.981  12.384  83.728  1.00  0.00    -0.012 C 
ATOM      3  C   UNL     1      27.560  13.572  84.195  1.00  0.00    -0.019 C 
ATOM      4  C   UNL     1      26.958  14.617  83.292  1.00  0.00     0.036 C 
ATOM      5  C   UNL     1      26.179  13.965  82.134  1.00  0.00     0.025 C 
ATOM      6  C   UNL     1      27.082  12.983  81.367  1.00  0.00     0.089 C 
ATOM      7  C   UNL     1      27.729  12.010  82.314  1.00  0.00     0.158 C 
ATOM      8  O   UNL     1      28.090  10.882  81.883  1.00  0.00    -0.295 OA
ENDROOT
BRANCH   5   9
ATOM      9  C   UNL     1      25.581  15.013  81.206  1.00  0.00    -0.077 C 
ATOM     10  C   UNL     1      24.664  15.878  81.667  1.00  0.00     0.008 C 
ATOM     11  C   UNL     1      25.996  15.107  79.758  1.00  0.00     0.039 C 
ENDBRANCH   5   9
TORSDOF 1
ENDMDL
MODEL 3
REMARK VINA RESULT:    -6.017      2.346      4.729
REMARK INTER + INTRA:          -6.467
REMARK INTER:                  -6.370
REMARK INTRA:                  -0.097
REMARK UNBOUND:                -0.098
REMARK SMILES C=C(C)[C@@H]1CC=C(C)C(=O)C1
REMARK SMILES IDX 8 1 7 2 6 3 5 4 4 5 11 6 9 7 10 8 2 9 1 10 3 11
REMARK H PARENT
REMARK Flexibility Score: inf
ROOT
ATOM      1  C   UNL     1      24.995  17.279  81.274  1.00  0.00     0.048 C 
ATOM      2  C   UNL     1      25.869  16.108  81.630  1.00  0.00    -0.012 C 
ATOM      3  C   UNL     1      25.315  14.904  81.851  1.00  0.00    -0.019 C 
ATOM      4  C   UNL     1      26.145  13.694  82.192  1.00  0.00     0.036 C 
ATOM      5  C   UNL     1      27.392  14.089  83.003  1.00  0.00     0.025 C 
ATOM      6  C   UNL     1      28.204  15.158  82.251  1.00  0.00     0.089 C 
ATOM      7  C   UNL     1      27.321  16.311  81.857  1.00  0.00     0.158 C 
ATOM      8  O   UNL     1      27.838  17.448  81.685  1.00  0.00    -0.295 OA
ENDROOT
BRANCH   5   9
ATOM      9  C   UNL     1      28.247  12.874  83.337  1.00  0.00    -0.077 C 
ATOM     10  C   UNL     1      29.127  12.402  82.439  1.00  0.00     0.008 C 
ATOM     11  C   UNL     1      28.131  12.173  84.668  1.00  0.00     0.039 C 
ENDBRANCH   5   9
TORSDOF 1
ENDMDL
MODEL 4
REMARK VINA RESULT:    -5.999      3.489      4.358
REMARK INTER + INTRA:          -6.447
REMARK INTER:                  -6.354
REMARK INTRA:                  -0.093
REMARK UNBOUND:                -0.098
REMARK SMILES C=C(C)[C@@H]1CC=C(C)C(=O)C1
REMARK SMILES IDX 8 1 7 2 6 3 5 4 4 5 11 6 9 7 10 8 2 9 1 10 3 11
REMARK H PARENT
REMARK Flexibility Score: inf
ROOT
ATOM      1  C   UNL     1      31.707  12.518  79.451  1.00  0.00     0.048 C 
ATOM      2  C   UNL     1      30.292  13.026  79.417  1.00  0.00    -0.012 C 
ATOM      3  C   UNL     1      29.426  12.535  78.514  1.00  0.00    -0.019 C 
ATOM      4  C   UNL     1      27.994  12.995  78.449  1.00  0.00     0.036 C 
ATOM      5  C   UNL     1      27.869  14.475  78.855  1.00  0.00     0.025 C 
ATOM      6  C   UNL     1      28.491  14.703  80.245  1.00  0.00     0.089 C 
ATOM      7  C   UNL     1      29.891  14.155  80.293  1.00  0.00     0.158 C 
ATOM      8  O   UNL     1      30.713  14.642  81.116  1.00  0.00    -0.295 OA
ENDROOT
BRANCH   5   9
ATOM      9  C   UNL     1      26.422  14.945  78.810  1.00  0.00    -0.077 C 
ATOM     10  C   UNL     1      25.732  14.895  77.659  1.00  0.00     0.008 C 
ATOM     11  C   UNL     1      25.730  15.477  80.041  1.00  0.00     0.039 C 
ENDBRANCH   5   9
TORSDOF 1
ENDMDL
MODEL 5
REMARK VINA RESULT:    -5.972      3.216      3.672
REMARK INTER + INTRA:          -6.419
REMARK INTER:                  -6.321
REMARK INTRA:                  -0.098
REMARK UNBOUND:                -0.098
REMARK SMILES C=C(C)[C@@H]1CC=C(C)C(=O)C1
REMARK SMILES IDX 8 1 7 2 6 3 5 4 4 5 11 6 9 7 10 8 2 9 1 10 3 11
REMARK H PARENT
REMARK Flexibility Score: inf
ROOT
ATOM      1  C   UNL     1      31.283  12.723  79.210  1.00  0.00     0.048 C 
ATOM      2  C   UNL     1      30.198  13.627  79.727  1.00  0.00    -0.012 C 
ATOM      3  C   UNL     1      30.416  14.377  80.820  1.00  0.00    -0.019 C 
ATOM      4  C   UNL     1      29.371  15.312  81.369  1.00  0.00     0.036 C 
ATOM      5  C   UNL     1      27.954  14.760  81.129  1.00  0.00     0.025 C 
ATOM      6  C   UNL     1      27.741  14.462  79.634  1.00  0.00     0.089 C 
ATOM      7  C   UNL     1      28.850  13.594  79.106  1.00  0.00     0.158 C 
ATOM      8  O   UNL     1      28.633  12.863  78.102  1.00  0.00    -0.295 OA
ENDROOT
BRANCH   5   9
ATOM      9  C   UNL     1      26.889  15.707  81.664  1.00  0.00    -0.077 C 
ATOM     10  C   UNL     1      27.150  17.019  81.780  1.00  0.00     0.008 C 
ATOM     11  C   UNL     1      25.526  15.206  82.075  1.00  0.00     0.039 C 
ENDBRANCH   5   9
TORSDOF 1
ENDMDL
MODEL 6
REMARK VINA RESULT:    -5.953      3.307      4.053
REMARK INTER + INTRA:          -6.398
REMARK INTER:                  -6.300
REMARK INTRA:                  -0.098
REMARK UNBOUND:                -0.098
REMARK SMILES C=C(C)[C@@H]1CC=C(C)C(=O)C1
REMARK SMILES IDX 8 1 7 2 6 3 5 4 4 5 11 6 9 7 10 8 2 9 1 10 3 11
REMARK H PARENT
REMARK Flexibility Score: inf
ROOT
ATOM      1  C   UNL     1      31.607  12.562  78.999  1.00  0.00     0.048 C 
ATOM      2  C   UNL     1      30.376  13.239  79.536  1.00  0.00    -0.012 C 
ATOM      3  C   UNL     1      29.402  13.624  78.693  1.00  0.00    -0.019 C 
ATOM      4  C   UNL     1      28.142  14.288  79.179  1.00  0.00     0.036 C 
ATOM      5  C   UNL     1      28.415  15.148  80.427  1.00  0.00     0.025 C 
ATOM      6  C   UNL     1      29.088  14.303  81.523  1.00  0.00     0.089 C 
ATOM      7  C   UNL     1      30.295  13.591  80.975  1.00  0.00     0.158 C 
ATOM      8  O   UNL     1      31.223  13.263  81.762  1.00  0.00    -0.295 OA
ENDROOT
BRANCH   5   9
ATOM      9  C   UNL     1      27.142  15.810  80.937  1.00  0.00    -0.077 C 
ATOM     10  C   UNL     1      25.942  15.372  80.523  1.00  0.00     0.008 C 
ATOM     11  C   UNL     1      27.192  16.962  81.910  1.00  0.00     0.039 C 
ENDBRANCH   5   9
TORSDOF 1
ENDMDL
MODEL 7
REMARK VINA RESULT:    -5.882      2.090      2.580
REMARK INTER + INTRA:          -6.323
REMARK INTER:                  -6.225
REMARK INTRA:                  -0.098
REMARK UNBOUND:                -0.098
REMARK SMILES C=C(C)[C@@H]1CC=C(C)C(=O)C1
REMARK SMILES IDX 8 1 7 2 6 3 5 4 4 5 11 6 9 7 10 8 2 9 1 10 3 11
REMARK H PARENT
REMARK Flexibility Score: inf
ROOT
ATOM      1  C   UNL     1      28.949  11.825  81.002  1.00  0.00     0.048 C 
ATOM      2  C   UNL     1      28.041  13.006  81.204  1.00  0.00    -0.012 C 
ATOM      3  C   UNL     1      26.917  12.870  81.928  1.00  0.00    -0.019 C 
ATOM      4  C   UNL     1      25.983  14.025  82.176  1.00  0.00     0.036 C 
ATOM      5  C   UNL     1      25.973  14.996  80.981  1.00  0.00     0.025 C 
ATOM      6  C   UNL     1      27.404  15.464  80.659  1.00  0.00     0.089 C 
ATOM      7  C   UNL     1      28.322  14.283  80.501  1.00  0.00     0.158 C 
ATOM      8  O   UNL     1      29.358  14.402  79.791  1.00  0.00    -0.295 OA
ENDROOT
BRANCH   5   9
ATOM      9  C   UNL     1      25.045  16.177  81.230  1.00  0.00    -0.077 C 
ATOM     10  C   UNL     1      25.396  17.407  80.825  1.00  0.00     0.008 C 
ATOM     11  C   UNL     1      23.720  16.000  81.932  1.00  0.00     0.039 C 
ENDBRANCH   5   9
TORSDOF 1
ENDMDL
MODEL 8
REMARK VINA RESULT:    -5.843      3.166      4.768
REMARK INTER + INTRA:          -6.282
REMARK INTER:                  -6.193
REMARK INTRA:                  -0.089
REMARK UNBOUND:                -0.098
REMARK SMILES C=C(C)[C@@H]1CC=C(C)C(=O)C1
REMARK SMILES IDX 8 1 7 2 6 3 5 4 4 5 11 6 9 7 10 8 2 9 1 10 3 11
REMARK H PARENT
REMARK Flexibility Score: inf
ROOT
ATOM      1  C   UNL     1      24.565  15.182  82.311  1.00  0.00     0.048 C 
ATOM      2  C   UNL     1      25.983  14.952  81.867  1.00  0.00    -0.012 C 
ATOM      3  C   UNL     1      26.421  13.700  81.648  1.00  0.00    -0.019 C 
ATOM      4  C   UNL     1      27.825  13.415  81.185  1.00  0.00     0.036 C 
ATOM      5  C   UNL     1      28.815  14.451  81.748  1.00  0.00     0.025 C 
ATOM      6  C   UNL     1      28.361  15.877  81.387  1.00  0.00     0.089 C 
ATOM      7  C   UNL     1      26.929  16.093  81.792  1.00  0.00     0.158 C 
ATOM      8  O   UNL     1      26.529  17.265  82.032  1.00  0.00    -0.295 OA
ENDROOT
BRANCH   5   9
ATOM      9  C   UNL     1      30.235  14.182  81.269  1.00  0.00    -0.077 C 
ATOM     10  C   UNL     1      31.274  14.382  82.096  1.00  0.00     0.008 C 
ATOM     11  C   UNL     1      30.513  13.690  79.870  1.00  0.00     0.039 C 
ENDBRANCH   5   9
TORSDOF 1
ENDMDL
MODEL 9
REMARK VINA RESULT:    -5.750      1.874      2.844
REMARK INTER + INTRA:          -6.184
REMARK INTER:                  -6.085
REMARK INTRA:                  -0.099
REMARK UNBOUND:                -0.098
REMARK SMILES C=C(C)[C@@H]1CC=C(C)C(=O)C1
REMARK SMILES IDX 8 1 7 2 6 3 5 4 4 5 11 6 9 7 10 8 2 9 1 10 3 11
REMARK H PARENT
REMARK Flexibility Score: inf
ROOT
ATOM      1  C   UNL     1      28.257  11.796  84.581  1.00  0.00     0.048 C 
ATOM      2  C   UNL     1      27.722  12.312  83.274  1.00  0.00    -0.012 C 
ATOM      3  C   UNL     1      27.879  11.585  82.154  1.00  0.00    -0.019 C 
ATOM      4  C   UNL     1      27.347  12.046  80.823  1.00  0.00     0.036 C 
ATOM      5  C   UNL     1      27.383  13.581  80.714  1.00  0.00     0.025 C 
ATOM      6  C   UNL     1      26.630  14.221  81.894  1.00  0.00     0.089 C 
ATOM      7  C   UNL     1      27.135  13.673  83.201  1.00  0.00     0.158 C 
ATOM      8  O   UNL     1      27.019  14.370  84.245  1.00  0.00    -0.295 OA
ENDROOT
BRANCH   5   9
ATOM      9  C   UNL     1      26.829  14.058  79.378  1.00  0.00    -0.077 C 
ATOM     10  C   UNL     1      25.980  15.097  79.332  1.00  0.00     0.008 C 
ATOM     11  C   UNL     1      27.213  13.384  78.083  1.00  0.00     0.039 C 
ENDBRANCH   5   9
TORSDOF 1
ENDMDL
