MODEL 1
REMARK VINA RESULT:    -5.092      0.000      0.000
REMARK INTER + INTRA:         -15.929
REMARK INTER:                 -13.426
REMARK INTRA:                  -2.503
REMARK UNBOUND:                -2.503
REMARK SMILES CCCCCCCCCCCCCCCCCCCCCCCCCCCCCC(=O)[O-]
REMARK SMILES IDX 16 1 17 2 18 3 19 4 20 5 21 6 22 7 23 8 24 9 25 10 26 11
REMARK SMILES IDX 27 12 28 13 29 14 30 15 31 16 32 17 15 18 14 19 13 20 12 21
REMARK SMILES IDX 11 22 10 23 9 24 8 25 7 26 6 27 5 28 4 29 3 30 2 31 1 32
REMARK H PARENT
REMARK Flexibility Score: inf
ROOT
ATOM      1  C   UNL     1       8.110  -2.991  25.548  1.00  0.00     0.000 C 
ENDROOT
BRANCH   1   2
ATOM      2  C   UNL     1       8.624  -2.689  24.129  1.00  0.00     0.000 C 
BRANCH   2   3
ATOM      3  C   UNL     1       8.955  -1.198  23.923  1.00  0.00     0.000 C 
BRANCH   3   4
ATOM      4  C   UNL     1       9.821  -0.902  22.677  1.00  0.00     0.000 C 
BRANCH   4   5
ATOM      5  C   UNL     1      10.979   0.082  22.934  1.00  0.00     0.000 C 
BRANCH   5   6
ATOM      6  C   UNL     1      12.354  -0.524  22.599  1.00  0.00     0.000 C 
BRANCH   6   7
ATOM      7  C   UNL     1      12.302  -2.059  22.492  1.00  0.00     0.000 C 
BRANCH   7   8
ATOM      8  C   UNL     1      13.438  -2.648  21.630  1.00  0.00     0.000 C 
BRANCH   8   9
ATOM      9  C   UNL     1      13.050  -3.992  20.989  1.00  0.00     0.000 C 
BRANCH   9  10
ATOM     10  C   UNL     1      14.166  -5.046  21.102  1.00  0.00     0.000 C 
BRANCH  10  11
ATOM     11  C   UNL     1      14.570  -5.709  19.769  1.00  0.00     0.000 C 
BRANCH  11  12
ATOM     12  C   UNL     1      14.490  -4.793  18.536  1.00  0.00     0.000 C 
BRANCH  12  13
ATOM     13  C   UNL     1      13.812  -5.467  17.333  1.00  0.00     0.006 C 
BRANCH  13  14
ATOM     14  C   UNL     1      14.330  -6.894  17.137  1.00  0.00     0.053 C 
BRANCH  14  15
ATOM     15  C   UNL     1      14.331  -7.253  15.684  1.00  0.00     0.041 C 
ATOM     16  O   UNL     1      13.559  -6.660  14.883  1.00  0.00    -0.550 OA
ATOM     17  O   UNL     1      15.142  -8.281  15.222  1.00  0.00    -0.550 OA
ENDBRANCH  14  15
ENDBRANCH  13  14
ENDBRANCH  12  13
ENDBRANCH  11  12
ENDBRANCH  10  11
ENDBRANCH   9  10
ENDBRANCH   8   9
ENDBRANCH   7   8
ENDBRANCH   6   7
ENDBRANCH   5   6
ENDBRANCH   4   5
ENDBRANCH   3   4
ENDBRANCH   2   3
ENDBRANCH   1   2
BRANCH   1  18
ATOM     18  C   UNL     1       7.051  -4.110  25.571  1.00  0.00     0.000 C 
BRANCH  18  19
ATOM     19  C   UNL     1       6.612  -4.570  26.975  1.00  0.00     0.000 C 
BRANCH  19  20
ATOM     20  C   UNL     1       7.638  -4.349  28.105  1.00  0.00     0.000 C 
BRANCH  20  21
ATOM     21  C   UNL     1       8.750  -5.415  28.168  1.00  0.00     0.000 C 
BRANCH  21  22
ATOM     22  C   UNL     1       8.237  -6.801  28.600  1.00  0.00     0.000 C 
BRANCH  22  23
ATOM     23  C   UNL     1       8.740  -7.938  27.693  1.00  0.00     0.000 C 
BRANCH  23  24
ATOM     24  C   UNL     1       7.659  -8.622  26.836  1.00  0.00    -0.000 C 
BRANCH  24  25
ATOM     25  C   UNL     1       6.232  -8.180  27.201  1.00  0.00    -0.000 C 
BRANCH  25  26
ATOM     26  C   UNL     1       5.412  -9.318  27.832  1.00  0.00    -0.000 C 
BRANCH  26  27
ATOM     27  C   UNL     1       5.650  -9.447  29.347  1.00  0.00    -0.000 C 
BRANCH  27  28
ATOM     28  C   UNL     1       5.107  -8.244  30.139  1.00  0.00    -0.000 C 
BRANCH  28  29
ATOM     29  C   UNL     1       5.945  -7.846  31.368  1.00  0.00    -0.000 C 
BRANCH  29  30
ATOM     30  C   UNL     1       5.271  -6.771  32.233  1.00  0.00    -0.000 C 
BRANCH  30  31
ATOM     31  C   UNL     1       6.315  -5.858  32.888  1.00  0.00    -0.003 C 
ATOM     32  C   UNL     1       7.333  -5.360  31.865  1.00  0.00     0.004 C 
ENDBRANCH  30  31
ENDBRANCH  29  30
ENDBRANCH  28  29
ENDBRANCH  27  28
ENDBRANCH  26  27
ENDBRANCH  25  26
ENDBRANCH  24  25
ENDBRANCH  23  24
ENDBRANCH  22  23
ENDBRANCH  21  22
ENDBRANCH  20  21
ENDBRANCH  19  20
ENDBRANCH  18  19
ENDBRANCH   1  18
TORSDOF 28
ENDMDL
MODEL 2
REMARK VINA RESULT:    -5.000      5.051     13.035
REMARK INTER + INTRA:         -15.689
REMARK INTER:                 -13.249
REMARK INTRA:                  -2.439
REMARK UNBOUND:                -2.503
REMARK SMILES CCCCCCCCCCCCCCCCCCCCCCCCCCCCCC(=O)[O-]
REMARK SMILES IDX 16 1 17 2 18 3 19 4 20 5 21 6 22 7 23 8 24 9 25 10 26 11
REMARK SMILES IDX 27 12 28 13 29 14 30 15 31 16 32 17 15 18 14 19 13 20 12 21
REMARK SMILES IDX 11 22 10 23 9 24 8 25 7 26 6 27 5 28 4 29 3 30 2 31 1 32
REMARK H PARENT
REMARK Flexibility Score: inf
ROOT
ATOM      1  C   UNL     1      13.541  -2.661  21.533  1.00  0.00     0.000 C 
ENDROOT
BRANCH   1   2
ATOM      2  C   UNL     1      12.569  -2.125  22.599  1.00  0.00     0.000 C 
BRANCH   2   3
ATOM      3  C   UNL     1      12.165  -0.659  22.351  1.00  0.00     0.000 C 
BRANCH   3   4
ATOM      4  C   UNL     1      11.025  -0.148  23.260  1.00  0.00     0.000 C 
BRANCH   4   5
ATOM      5  C   UNL     1       9.632  -0.692  22.889  1.00  0.00     0.000 C 
BRANCH   5   6
ATOM      6  C   UNL     1       8.848  -1.193  24.116  1.00  0.00     0.000 C 
BRANCH   6   7
ATOM      7  C   UNL     1       8.745  -2.729  24.152  1.00  0.00     0.000 C 
BRANCH   7   8
ATOM      8  C   UNL     1       7.941  -3.257  25.357  1.00  0.00     0.000 C 
BRANCH   8   9
ATOM      9  C   UNL     1       6.744  -4.124  24.928  1.00  0.00     0.000 C 
BRANCH   9  10
ATOM     10  C   UNL     1       6.504  -5.312  25.878  1.00  0.00     0.000 C 
BRANCH  10  11
ATOM     11  C   UNL     1       6.332  -4.932  27.363  1.00  0.00     0.000 C 
BRANCH  11  12
ATOM     12  C   UNL     1       7.101  -5.821  28.356  1.00  0.00     0.000 C 
BRANCH  12  13
ATOM     13  C   UNL     1       7.119  -5.249  29.781  1.00  0.00     0.006 C 
BRANCH  13  14
ATOM     14  C   UNL     1       6.542  -6.251  30.784  1.00  0.00     0.053 C 
BRANCH  14  15
ATOM     15  C   UNL     1       6.415  -5.622  32.136  1.00  0.00     0.041 C 
ATOM     16  O   UNL     1       5.315  -5.653  32.750  1.00  0.00    -0.550 OA
ATOM     17  O   UNL     1       7.494  -4.951  32.695  1.00  0.00    -0.550 OA
ENDBRANCH  14  15
ENDBRANCH  13  14
ENDBRANCH  12  13
ENDBRANCH  11  12
ENDBRANCH  10  11
ENDBRANCH   9  10
ENDBRANCH   8   9
ENDBRANCH   7   8
ENDBRANCH   6   7
ENDBRANCH   5   6
ENDBRANCH   4   5
ENDBRANCH   3   4
ENDBRANCH   2   3
ENDBRANCH   1   2
BRANCH   1  18
ATOM     18  C   UNL     1      13.063  -3.982  20.901  1.00  0.00     0.000 C 
BRANCH  18  19
ATOM     19  C   UNL     1      14.019  -5.178  21.076  1.00  0.00     0.000 C 
BRANCH  19  20
ATOM     20  C   UNL     1      14.599  -5.770  19.774  1.00  0.00     0.000 C 
BRANCH  20  21
ATOM     21  C   UNL     1      14.627  -4.785  18.589  1.00  0.00     0.000 C 
BRANCH  21  22
ATOM     22  C   UNL     1      13.815  -5.275  17.375  1.00  0.00     0.000 C 
BRANCH  22  23
ATOM     23  C   UNL     1      12.624  -6.168  17.769  1.00  0.00     0.000 C 
BRANCH  23  24
ATOM     24  C   UNL     1      12.614  -7.567  17.126  1.00  0.00    -0.000 C 
BRANCH  24  25
ATOM     25  C   UNL     1      12.846  -8.699  18.141  1.00  0.00    -0.000 C 
BRANCH  25  26
ATOM     26  C   UNL     1      14.224  -9.360  17.973  1.00  0.00    -0.000 C 
BRANCH  26  27
ATOM     27  C   UNL     1      15.004  -8.800  16.770  1.00  0.00    -0.000 C 
BRANCH  27  28
ATOM     28  C   UNL     1      15.137  -9.816  15.622  1.00  0.00    -0.000 C 
BRANCH  28  29
ATOM     29  C   UNL     1      14.502  -9.375  14.290  1.00  0.00    -0.000 C 
BRANCH  29  30
ATOM     30  C   UNL     1      15.488  -8.643  13.368  1.00  0.00    -0.000 C 
BRANCH  30  31
ATOM     31  C   UNL     1      15.241  -7.130  13.389  1.00  0.00    -0.003 C 
ATOM     32  C   UNL     1      13.772  -6.814  13.657  1.00  0.00     0.004 C 
ENDBRANCH  30  31
ENDBRANCH  29  30
ENDBRANCH  28  29
ENDBRANCH  27  28
ENDBRANCH  26  27
ENDBRANCH  25  26
ENDBRANCH  24  25
ENDBRANCH  23  24
ENDBRANCH  22  23
ENDBRANCH  21  22
ENDBRANCH  20  21
ENDBRANCH  19  20
ENDBRANCH  18  19
ENDBRANCH   1  18
TORSDOF 28
ENDMDL
MODEL 3
REMARK VINA RESULT:    -5.000      5.009     12.805
REMARK INTER + INTRA:         -15.686
REMARK INTER:                 -13.763
REMARK INTRA:                  -1.923
REMARK UNBOUND:                -2.503
REMARK SMILES CCCCCCCCCCCCCCCCCCCCCCCCCCCCCC(=O)[O-]
REMARK SMILES IDX 16 1 17 2 18 3 19 4 20 5 21 6 22 7 23 8 24 9 25 10 26 11
REMARK SMILES IDX 27 12 28 13 29 14 30 15 31 16 32 17 15 18 14 19 13 20 12 21
REMARK SMILES IDX 11 22 10 23 9 24 8 25 7 26 6 27 5 28 4 29 3 30 2 31 1 32
REMARK H PARENT
REMARK Flexibility Score: inf
ROOT
ATOM      1  C   UNL     1      10.948   0.348  23.021  1.00  0.00     0.000 C 
ENDROOT
BRANCH   1   2
ATOM      2  C   UNL     1       9.632  -0.002  22.305  1.00  0.00     0.000 C 
BRANCH   2   3
ATOM      3  C   UNL     1       8.445  -0.141  23.277  1.00  0.00     0.000 C 
BRANCH   3   4
ATOM      4  C   UNL     1       8.685  -1.126  24.444  1.00  0.00     0.000 C 
BRANCH   4   5
ATOM      5  C   UNL     1       8.807  -2.599  24.009  1.00  0.00     0.000 C 
BRANCH   5   6
ATOM      6  C   UNL     1       7.932  -3.539  24.857  1.00  0.00     0.000 C 
BRANCH   6   7
ATOM      7  C   UNL     1       7.570  -2.924  26.221  1.00  0.00     0.000 C 
BRANCH   7   8
ATOM      8  C   UNL     1       6.786  -3.887  27.135  1.00  0.00     0.000 C 
BRANCH   8   9
ATOM      9  C   UNL     1       6.615  -5.282  26.506  1.00  0.00     0.000 C 
BRANCH   9  10
ATOM     10  C   UNL     1       7.051  -6.415  27.452  1.00  0.00     0.000 C 
BRANCH  10  11
ATOM     11  C   UNL     1       8.519  -6.342  27.919  1.00  0.00     0.000 C 
BRANCH  11  12
ATOM     12  C   UNL     1       8.719  -6.380  29.445  1.00  0.00     0.000 C 
BRANCH  12  13
ATOM     13  C   UNL     1       7.568  -5.716  30.215  1.00  0.00     0.006 C 
BRANCH  13  14
ATOM     14  C   UNL     1       7.529  -6.195  31.669  1.00  0.00     0.053 C 
BRANCH  14  15
ATOM     15  C   UNL     1       6.113  -6.345  32.130  1.00  0.00     0.041 C 
ATOM     16  O   UNL     1       5.497  -7.430  31.948  1.00  0.00    -0.550 OA
ATOM     17  O   UNL     1       5.453  -5.270  32.710  1.00  0.00    -0.550 OA
ENDBRANCH  14  15
ENDBRANCH  13  14
ENDBRANCH  12  13
ENDBRANCH  11  12
ENDBRANCH  10  11
ENDBRANCH   9  10
ENDBRANCH   8   9
ENDBRANCH   7   8
ENDBRANCH   6   7
ENDBRANCH   5   6
ENDBRANCH   4   5
ENDBRANCH   3   4
ENDBRANCH   2   3
ENDBRANCH   1   2
BRANCH   1  18
ATOM     18  C   UNL     1      12.190   0.076  22.151  1.00  0.00     0.000 C 
BRANCH  18  19
ATOM     19  C   UNL     1      13.076  -1.096  22.619  1.00  0.00     0.000 C 
BRANCH  19  20
ATOM     20  C   UNL     1      13.522  -2.081  21.519  1.00  0.00     0.000 C 
BRANCH  20  21
ATOM     21  C   UNL     1      13.035  -3.528  21.729  1.00  0.00     0.000 C 
BRANCH  21  22
ATOM     22  C   UNL     1      13.482  -4.486  20.610  1.00  0.00     0.000 C 
BRANCH  22  23
ATOM     23  C   UNL     1      14.249  -5.712  21.138  1.00  0.00     0.000 C 
BRANCH  23  24
ATOM     24  C   UNL     1      15.013  -6.517  20.071  1.00  0.00    -0.000 C 
BRANCH  24  25
ATOM     25  C   UNL     1      14.436  -6.344  18.657  1.00  0.00    -0.000 C 
BRANCH  25  26
ATOM     26  C   UNL     1      15.470  -6.659  17.562  1.00  0.00    -0.000 C 
BRANCH  26  27
ATOM     27  C   UNL     1      15.173  -7.982  16.835  1.00  0.00    -0.000 C 
BRANCH  27  28
ATOM     28  C   UNL     1      13.747  -8.039  16.259  1.00  0.00    -0.000 C 
BRANCH  28  29
ATOM     29  C   UNL     1      13.671  -8.275  14.739  1.00  0.00    -0.000 C 
BRANCH  29  30
ATOM     30  C   UNL     1      13.253  -7.022  13.956  1.00  0.00    -0.000 C 
BRANCH  30  31
ATOM     31  C   UNL     1      14.311  -6.648  12.911  1.00  0.00    -0.003 C 
ATOM     32  C   UNL     1      15.579  -7.480  13.085  1.00  0.00     0.004 C 
ENDBRANCH  30  31
ENDBRANCH  29  30
ENDBRANCH  28  29
ENDBRANCH  27  28
ENDBRANCH  26  27
ENDBRANCH  25  26
ENDBRANCH  24  25
ENDBRANCH  23  24
ENDBRANCH  22  23
ENDBRANCH  21  22
ENDBRANCH  20  21
ENDBRANCH  19  20
ENDBRANCH  18  19
ENDBRANCH   1  18
TORSDOF 28
ENDMDL
MODEL 4
REMARK VINA RESULT:    -4.969      0.990      2.766
REMARK INTER + INTRA:         -15.605
REMARK INTER:                 -12.846
REMARK INTRA:                  -2.759
REMARK UNBOUND:                -2.503
REMARK SMILES CCCCCCCCCCCCCCCCCCCCCCCCCCCCCC(=O)[O-]
REMARK SMILES IDX 16 1 17 2 18 3 19 4 20 5 21 6 22 7 23 8 24 9 25 10 26 11
REMARK SMILES IDX 27 12 28 13 29 14 30 15 31 16 32 17 15 18 14 19 13 20 12 21
REMARK SMILES IDX 11 22 10 23 9 24 8 25 7 26 6 27 5 28 4 29 3 30 2 31 1 32
REMARK H PARENT
REMARK Flexibility Score: inf
ROOT
ATOM      1  C   UNL     1       8.178  -3.098  25.034  1.00  0.00     0.000 C 
ENDROOT
BRANCH   1   2
ATOM      2  C   UNL     1       8.925  -2.540  23.810  1.00  0.00     0.000 C 
BRANCH   2   3
ATOM      3  C   UNL     1       9.236  -1.036  23.938  1.00  0.00     0.000 C 
BRANCH   3   4
ATOM      4  C   UNL     1       9.129  -0.246  22.614  1.00  0.00     0.000 C 
BRANCH   4   5
ATOM      5  C   UNL     1      10.408   0.524  22.235  1.00  0.00     0.000 C 
BRANCH   5   6
ATOM      6  C   UNL     1      11.651   0.010  22.984  1.00  0.00     0.000 C 
BRANCH   6   7
ATOM      7  C   UNL     1      12.735  -0.511  22.022  1.00  0.00     0.000 C 
BRANCH   7   8
ATOM      8  C   UNL     1      13.459  -1.768  22.544  1.00  0.00     0.000 C 
BRANCH   8   9
ATOM      9  C   UNL     1      12.666  -3.058  22.267  1.00  0.00     0.000 C 
BRANCH   9  10
ATOM     10  C   UNL     1      13.168  -3.804  21.018  1.00  0.00     0.000 C 
BRANCH  10  11
ATOM     11  C   UNL     1      14.012  -5.063  21.308  1.00  0.00     0.000 C 
BRANCH  11  12
ATOM     12  C   UNL     1      14.370  -5.905  20.070  1.00  0.00     0.000 C 
BRANCH  12  13
ATOM     13  C   UNL     1      13.949  -5.239  18.752  1.00  0.00     0.006 C 
BRANCH  13  14
ATOM     14  C   UNL     1      13.197  -6.224  17.853  1.00  0.00     0.053 C 
BRANCH  14  15
ATOM     15  C   UNL     1      14.083  -6.698  16.744  1.00  0.00     0.041 C 
ATOM     16  O   UNL     1      13.797  -6.433  15.545  1.00  0.00    -0.550 OA
ATOM     17  O   UNL     1      15.195  -7.480  17.027  1.00  0.00    -0.550 OA
ENDBRANCH  14  15
ENDBRANCH  13  14
ENDBRANCH  12  13
ENDBRANCH  11  12
ENDBRANCH  10  11
ENDBRANCH   9  10
ENDBRANCH   8   9
ENDBRANCH   7   8
ENDBRANCH   6   7
ENDBRANCH   5   6
ENDBRANCH   4   5
ENDBRANCH   3   4
ENDBRANCH   2   3
ENDBRANCH   1   2
BRANCH   1  18
ATOM     18  C   UNL     1       7.039  -4.061  24.648  1.00  0.00     0.000 C 
BRANCH  18  19
ATOM     19  C   UNL     1       6.483  -4.918  25.803  1.00  0.00     0.000 C 
BRANCH  19  20
ATOM     20  C   UNL     1       6.525  -4.268  27.201  1.00  0.00     0.000 C 
BRANCH  20  21
ATOM     21  C   UNL     1       6.584  -5.275  28.366  1.00  0.00     0.000 C 
BRANCH  21  22
ATOM     22  C   UNL     1       7.961  -5.326  29.055  1.00  0.00     0.000 C 
BRANCH  22  23
ATOM     23  C   UNL     1       8.072  -6.454  30.095  1.00  0.00     0.000 C 
BRANCH  23  24
ATOM     24  C   UNL     1       7.597  -6.089  31.513  1.00  0.00    -0.000 C 
BRANCH  24  25
ATOM     25  C   UNL     1       6.181  -6.599  31.825  1.00  0.00    -0.000 C 
BRANCH  25  26
ATOM     26  C   UNL     1       5.922  -7.997  31.240  1.00  0.00    -0.000 C 
BRANCH  26  27
ATOM     27  C   UNL     1       4.726  -8.019  30.272  1.00  0.00    -0.000 C 
BRANCH  27  28
ATOM     28  C   UNL     1       4.735  -9.245  29.342  1.00  0.00    -0.000 C 
BRANCH  28  29
ATOM     29  C   UNL     1       6.084  -9.982  29.254  1.00  0.00    -0.000 C 
BRANCH  29  30
ATOM     30  C   UNL     1       6.603 -10.118  27.816  1.00  0.00    -0.000 C 
BRANCH  30  31
ATOM     31  C   UNL     1       7.684  -9.071  27.520  1.00  0.00    -0.003 C 
ATOM     32  C   UNL     1       7.398  -8.335  26.214  1.00  0.00     0.004 C 
ENDBRANCH  30  31
ENDBRANCH  29  30
ENDBRANCH  28  29
ENDBRANCH  27  28
ENDBRANCH  26  27
ENDBRANCH  25  26
ENDBRANCH  24  25
ENDBRANCH  23  24
ENDBRANCH  22  23
ENDBRANCH  21  22
ENDBRANCH  20  21
ENDBRANCH  19  20
ENDBRANCH  18  19
ENDBRANCH   1  18
TORSDOF 28
ENDMDL
MODEL 5
REMARK VINA RESULT:    -4.960      1.782      5.340
REMARK INTER + INTRA:         -15.583
REMARK INTER:                 -13.227
REMARK INTRA:                  -2.357
REMARK UNBOUND:                -2.503
REMARK SMILES CCCCCCCCCCCCCCCCCCCCCCCCCCCCCC(=O)[O-]
REMARK SMILES IDX 16 1 17 2 18 3 19 4 20 5 21 6 22 7 23 8 24 9 25 10 26 11
REMARK SMILES IDX 27 12 28 13 29 14 30 15 31 16 32 17 15 18 14 19 13 20 12 21
REMARK SMILES IDX 11 22 10 23 9 24 8 25 7 26 6 27 5 28 4 29 3 30 2 31 1 32
REMARK H PARENT
REMARK Flexibility Score: inf
ROOT
ATOM      1  C   UNL     1      12.963  -1.967  22.562  1.00  0.00     0.000 C 
ENDROOT
BRANCH   1   2
ATOM      2  C   UNL     1      13.555  -2.627  21.305  1.00  0.00     0.000 C 
BRANCH   2   3
ATOM      3  C   UNL     1      13.145  -4.105  21.161  1.00  0.00     0.000 C 
BRANCH   3   4
ATOM      4  C   UNL     1      13.873  -4.864  20.028  1.00  0.00     0.000 C 
BRANCH   4   5
ATOM      5  C   UNL     1      14.289  -6.300  20.397  1.00  0.00     0.000 C 
BRANCH   5   6
ATOM      6  C   UNL     1      15.341  -6.876  19.433  1.00  0.00     0.000 C 
BRANCH   6   7
ATOM      7  C   UNL     1      15.172  -8.393  19.226  1.00  0.00     0.000 C 
BRANCH   7   8
ATOM      8  C   UNL     1      13.738  -8.888  19.501  1.00  0.00     0.000 C 
BRANCH   8   9
ATOM      9  C   UNL     1      12.922  -9.067  18.209  1.00  0.00     0.000 C 
BRANCH   9  10
ATOM     10  C   UNL     1      12.078  -7.827  17.865  1.00  0.00     0.000 C 
BRANCH  10  11
ATOM     11  C   UNL     1      12.277  -7.282  16.436  1.00  0.00     0.000 C 
BRANCH  11  12
ATOM     12  C   UNL     1      13.528  -6.406  16.241  1.00  0.00     0.000 C 
BRANCH  12  13
ATOM     13  C   UNL     1      14.660  -7.136  15.503  1.00  0.00     0.006 C 
BRANCH  13  14
ATOM     14  C   UNL     1      14.148  -8.417  14.839  1.00  0.00     0.053 C 
BRANCH  14  15
ATOM     15  C   UNL     1      15.290  -9.331  14.520  1.00  0.00     0.041 C 
ATOM     16  O   UNL     1      15.762 -10.090  15.408  1.00  0.00    -0.550 OA
ATOM     17  O   UNL     1      15.870  -9.305  13.259  1.00  0.00    -0.550 OA
ENDBRANCH  14  15
ENDBRANCH  13  14
ENDBRANCH  12  13
ENDBRANCH  11  12
ENDBRANCH  10  11
ENDBRANCH   9  10
ENDBRANCH   8   9
ENDBRANCH   7   8
ENDBRANCH   6   7
ENDBRANCH   5   6
ENDBRANCH   4   5
ENDBRANCH   3   4
ENDBRANCH   2   3
ENDBRANCH   1   2
BRANCH   1  18
ATOM     18  C   UNL     1      12.802  -0.442  22.413  1.00  0.00     0.000 C 
BRANCH  18  19
ATOM     19  C   UNL     1      11.402   0.107  22.753  1.00  0.00     0.000 C 
BRANCH  19  20
ATOM     20  C   UNL     1      10.289  -0.948  22.919  1.00  0.00     0.000 C 
BRANCH  20  21
ATOM     21  C   UNL     1       8.936  -0.373  23.381  1.00  0.00     0.000 C 
BRANCH  21  22
ATOM     22  C   UNL     1       8.324  -1.142  24.567  1.00  0.00     0.000 C 
BRANCH  22  23
ATOM     23  C   UNL     1       8.629  -2.650  24.527  1.00  0.00     0.000 C 
BRANCH  23  24
ATOM     24  C   UNL     1       7.684  -3.532  25.364  1.00  0.00    -0.000 C 
BRANCH  24  25
ATOM     25  C   UNL     1       7.426  -2.972  26.773  1.00  0.00    -0.000 C 
BRANCH  25  26
ATOM     26  C   UNL     1       7.411  -4.074  27.845  1.00  0.00    -0.000 C 
BRANCH  26  27
ATOM     27  C   UNL     1       6.251  -5.067  27.655  1.00  0.00    -0.000 C 
BRANCH  27  28
ATOM     28  C   UNL     1       6.259  -6.200  28.696  1.00  0.00    -0.000 C 
BRANCH  28  29
ATOM     29  C   UNL     1       6.769  -5.794  30.092  1.00  0.00    -0.000 C 
BRANCH  29  30
ATOM     30  C   UNL     1       5.810  -6.194  31.222  1.00  0.00    -0.000 C 
BRANCH  30  31
ATOM     31  C   UNL     1       6.097  -5.391  32.497  1.00  0.00    -0.003 C 
ATOM     32  C   UNL     1       7.589  -5.105  32.646  1.00  0.00     0.004 C 
ENDBRANCH  30  31
ENDBRANCH  29  30
ENDBRANCH  28  29
ENDBRANCH  27  28
ENDBRANCH  26  27
ENDBRANCH  25  26
ENDBRANCH  24  25
ENDBRANCH  23  24
ENDBRANCH  22  23
ENDBRANCH  21  22
ENDBRANCH  20  21
ENDBRANCH  19  20
ENDBRANCH  18  19
ENDBRANCH   1  18
TORSDOF 28
ENDMDL
MODEL 6
REMARK VINA RESULT:    -4.951      0.945      2.820
REMARK INTER + INTRA:         -15.559
REMARK INTER:                 -12.860
REMARK INTRA:                  -2.699
REMARK UNBOUND:                -2.503
REMARK SMILES CCCCCCCCCCCCCCCCCCCCCCCCCCCCCC(=O)[O-]
REMARK SMILES IDX 16 1 17 2 18 3 19 4 20 5 21 6 22 7 23 8 24 9 25 10 26 11
REMARK SMILES IDX 27 12 28 13 29 14 30 15 31 16 32 17 15 18 14 19 13 20 12 21
REMARK SMILES IDX 11 22 10 23 9 24 8 25 7 26 6 27 5 28 4 29 3 30 2 31 1 32
REMARK H PARENT
REMARK Flexibility Score: inf
ROOT
ATOM      1  C   UNL     1       9.140  -2.637  24.112  1.00  0.00     0.000 C 
ENDROOT
BRANCH   1   2
ATOM      2  C   UNL     1       9.037  -1.126  23.839  1.00  0.00     0.000 C 
BRANCH   2   3
ATOM      3  C   UNL     1       9.880  -0.682  22.628  1.00  0.00     0.000 C 
BRANCH   3   4
ATOM      4  C   UNL     1      11.170   0.086  22.994  1.00  0.00     0.000 C 
BRANCH   4   5
ATOM      5  C   UNL     1      12.454  -0.516  22.393  1.00  0.00     0.000 C 
BRANCH   5   6
ATOM      6  C   UNL     1      12.499  -2.050  22.515  1.00  0.00     0.000 C 
BRANCH   6   7
ATOM      7  C   UNL     1      13.485  -2.684  21.516  1.00  0.00     0.000 C 
BRANCH   7   8
ATOM      8  C   UNL     1      13.044  -4.078  21.028  1.00  0.00     0.000 C 
BRANCH   8   9
ATOM      9  C   UNL     1      14.214  -4.891  20.444  1.00  0.00     0.000 C 
BRANCH   9  10
ATOM     10  C   UNL     1      14.421  -4.636  18.940  1.00  0.00     0.000 C 
BRANCH  10  11
ATOM     11  C   UNL     1      14.204  -5.867  18.037  1.00  0.00     0.000 C 
BRANCH  11  12
ATOM     12  C   UNL     1      12.783  -6.010  17.462  1.00  0.00     0.000 C 
BRANCH  12  13
ATOM     13  C   UNL     1      12.685  -7.089  16.373  1.00  0.00     0.006 C 
BRANCH  13  14
ATOM     14  C   UNL     1      13.518  -6.710  15.146  1.00  0.00     0.053 C 
BRANCH  14  15
ATOM     15  C   UNL     1      14.506  -7.790  14.833  1.00  0.00     0.041 C 
ATOM     16  O   UNL     1      15.463  -7.566  14.043  1.00  0.00    -0.550 OA
ATOM     17  O   UNL     1      14.341  -9.060  15.369  1.00  0.00    -0.550 OA
ENDBRANCH  14  15
ENDBRANCH  13  14
ENDBRANCH  12  13
ENDBRANCH  11  12
ENDBRANCH  10  11
ENDBRANCH   9  10
ENDBRANCH   8   9
ENDBRANCH   7   8
ENDBRANCH   6   7
ENDBRANCH   5   6
ENDBRANCH   4   5
ENDBRANCH   3   4
ENDBRANCH   2   3
ENDBRANCH   1   2
BRANCH   1  18
ATOM     18  C   UNL     1       7.777  -3.277  24.436  1.00  0.00     0.000 C 
BRANCH  18  19
ATOM     19  C   UNL     1       7.516  -3.545  25.932  1.00  0.00     0.000 C 
BRANCH  19  20
ATOM     20  C   UNL     1       6.586  -4.733  26.249  1.00  0.00     0.000 C 
BRANCH  20  21
ATOM     21  C   UNL     1       6.519  -5.104  27.744  1.00  0.00     0.000 C 
BRANCH  21  22
ATOM     22  C   UNL     1       7.792  -4.720  28.521  1.00  0.00     0.000 C 
BRANCH  22  23
ATOM     23  C   UNL     1       8.593  -5.942  29.005  1.00  0.00     0.000 C 
BRANCH  23  24
ATOM     24  C   UNL     1       8.273  -6.411  30.436  1.00  0.00    -0.000 C 
BRANCH  24  25
ATOM     25  C   UNL     1       7.092  -5.656  31.068  1.00  0.00    -0.000 C 
BRANCH  25  26
ATOM     26  C   UNL     1       5.828  -6.527  31.164  1.00  0.00    -0.000 C 
BRANCH  26  27
ATOM     27  C   UNL     1       6.151  -8.027  31.270  1.00  0.00    -0.000 C 
BRANCH  27  28
ATOM     28  C   UNL     1       5.521  -8.855  30.136  1.00  0.00    -0.000 C 
BRANCH  28  29
ATOM     29  C   UNL     1       5.042  -8.034  28.924  1.00  0.00    -0.000 C 
BRANCH  29  30
ATOM     30  C   UNL     1       5.570  -8.573  27.587  1.00  0.00    -0.000 C 
BRANCH  30  31
ATOM     31  C   UNL     1       7.042  -8.988  27.704  1.00  0.00    -0.003 C 
ATOM     32  C   UNL     1       7.850  -8.503  26.503  1.00  0.00     0.004 C 
ENDBRANCH  30  31
ENDBRANCH  29  30
ENDBRANCH  28  29
ENDBRANCH  27  28
ENDBRANCH  26  27
ENDBRANCH  25  26
ENDBRANCH  24  25
ENDBRANCH  23  24
ENDBRANCH  22  23
ENDBRANCH  21  22
ENDBRANCH  20  21
ENDBRANCH  19  20
ENDBRANCH  18  19
ENDBRANCH   1  18
TORSDOF 28
ENDMDL
MODEL 7
REMARK VINA RESULT:    -4.931      4.100     12.413
REMARK INTER + INTRA:         -15.505
REMARK INTER:                 -13.294
REMARK INTRA:                  -2.211
REMARK UNBOUND:                -2.503
REMARK SMILES CCCCCCCCCCCCCCCCCCCCCCCCCCCCCC(=O)[O-]
REMARK SMILES IDX 16 1 17 2 18 3 19 4 20 5 21 6 22 7 23 8 24 9 25 10 26 11
REMARK SMILES IDX 27 12 28 13 29 14 30 15 31 16 32 17 15 18 14 19 13 20 12 21
REMARK SMILES IDX 11 22 10 23 9 24 8 25 7 26 6 27 5 28 4 29 3 30 2 31 1 32
REMARK H PARENT
REMARK Flexibility Score: inf
ROOT
ATOM      1  C   UNL     1       9.891   0.366  22.203  1.00  0.00     0.000 C 
ENDROOT
BRANCH   1   2
ATOM      2  C   UNL     1       8.698  -0.427  22.766  1.00  0.00     0.000 C 
BRANCH   2   3
ATOM      3  C   UNL     1       9.005  -1.072  24.132  1.00  0.00     0.000 C 
BRANCH   3   4
ATOM      4  C   UNL     1       8.627  -2.567  24.232  1.00  0.00     0.000 C 
BRANCH   4   5
ATOM      5  C   UNL     1       7.949  -2.958  25.559  1.00  0.00     0.000 C 
BRANCH   5   6
ATOM      6  C   UNL     1       7.009  -4.167  25.408  1.00  0.00     0.000 C 
BRANCH   6   7
ATOM      7  C   UNL     1       6.643  -4.792  26.767  1.00  0.00     0.000 C 
BRANCH   7   8
ATOM      8  C   UNL     1       7.665  -4.477  27.877  1.00  0.00     0.000 C 
BRANCH   8   9
ATOM      9  C   UNL     1       8.466  -5.720  28.305  1.00  0.00     0.000 C 
BRANCH   9  10
ATOM     10  C   UNL     1       8.196  -6.123  29.766  1.00  0.00     0.000 C 
BRANCH  10  11
ATOM     11  C   UNL     1       6.911  -5.529  30.377  1.00  0.00     0.000 C 
BRANCH  11  12
ATOM     12  C   UNL     1       6.098  -6.498  31.254  1.00  0.00     0.000 C 
BRANCH  12  13
ATOM     13  C   UNL     1       6.223  -7.961  30.802  1.00  0.00     0.006 C 
BRANCH  13  14
ATOM     14  C   UNL     1       4.933  -8.443  30.134  1.00  0.00     0.053 C 
BRANCH  14  15
ATOM     15  C   UNL     1       4.890  -8.001  28.704  1.00  0.00     0.041 C 
ATOM     16  O   UNL     1       3.838  -7.495  28.227  1.00  0.00    -0.550 OA
ATOM     17  O   UNL     1       5.991  -8.199  27.882  1.00  0.00    -0.550 OA
ENDBRANCH  14  15
ENDBRANCH  13  14
ENDBRANCH  12  13
ENDBRANCH  11  12
ENDBRANCH  10  11
ENDBRANCH   9  10
ENDBRANCH   8   9
ENDBRANCH   7   8
ENDBRANCH   6   7
ENDBRANCH   5   6
ENDBRANCH   4   5
ENDBRANCH   3   4
ENDBRANCH   2   3
ENDBRANCH   1   2
BRANCH   1  18
ATOM     18  C   UNL     1      11.170   0.195  23.045  1.00  0.00     0.000 C 
BRANCH  18  19
ATOM     19  C   UNL     1      12.383  -0.380  22.287  1.00  0.00     0.000 C 
BRANCH  19  20
ATOM     20  C   UNL     1      12.740  -1.846  22.604  1.00  0.00     0.000 C 
BRANCH  20  21
ATOM     21  C   UNL     1      13.493  -2.573  21.472  1.00  0.00     0.000 C 
BRANCH  21  22
ATOM     22  C   UNL     1      13.100  -4.056  21.337  1.00  0.00     0.000 C 
BRANCH  22  23
ATOM     23  C   UNL     1      14.046  -4.848  20.417  1.00  0.00     0.000 C 
BRANCH  23  24
ATOM     24  C   UNL     1      14.280  -4.229  19.027  1.00  0.00    -0.000 C 
BRANCH  24  25
ATOM     25  C   UNL     1      14.210  -5.260  17.889  1.00  0.00    -0.000 C 
BRANCH  25  26
ATOM     26  C   UNL     1      12.894  -6.056  17.901  1.00  0.00    -0.000 C 
BRANCH  26  27
ATOM     27  C   UNL     1      13.121  -7.568  18.078  1.00  0.00    -0.000 C 
BRANCH  27  28
ATOM     28  C   UNL     1      13.077  -8.337  16.746  1.00  0.00    -0.000 C 
BRANCH  28  29
ATOM     29  C   UNL     1      14.454  -8.715  16.170  1.00  0.00    -0.000 C 
BRANCH  29  30
ATOM     30  C   UNL     1      14.996  -7.675  15.179  1.00  0.00    -0.000 C 
BRANCH  30  31
ATOM     31  C   UNL     1      14.322  -7.817  13.809  1.00  0.00    -0.003 C 
ATOM     32  C   UNL     1      13.523  -6.565  13.454  1.00  0.00     0.004 C 
ENDBRANCH  30  31
ENDBRANCH  29  30
ENDBRANCH  28  29
ENDBRANCH  27  28
ENDBRANCH  26  27
ENDBRANCH  25  26
ENDBRANCH  24  25
ENDBRANCH  23  24
ENDBRANCH  22  23
ENDBRANCH  21  22
ENDBRANCH  20  21
ENDBRANCH  19  20
ENDBRANCH  18  19
ENDBRANCH   1  18
TORSDOF 28
ENDMDL
MODEL 8
REMARK VINA RESULT:    -4.929      5.126     12.731
REMARK INTER + INTRA:         -15.500
REMARK INTER:                 -13.362
REMARK INTRA:                  -2.139
REMARK UNBOUND:                -2.503
REMARK SMILES CCCCCCCCCCCCCCCCCCCCCCCCCCCCCC(=O)[O-]
REMARK SMILES IDX 16 1 17 2 18 3 19 4 20 5 21 6 22 7 23 8 24 9 25 10 26 11
REMARK SMILES IDX 27 12 28 13 29 14 30 15 31 16 32 17 15 18 14 19 13 20 12 21
REMARK SMILES IDX 11 22 10 23 9 24 8 25 7 26 6 27 5 28 4 29 3 30 2 31 1 32
REMARK H PARENT
REMARK Flexibility Score: inf
ROOT
ATOM      1  C   UNL     1      13.696  -1.507  22.580  1.00  0.00     0.000 C 
ENDROOT
BRANCH   1   2
ATOM      2  C   UNL     1      12.597  -0.448  22.781  1.00  0.00     0.000 C 
BRANCH   2   3
ATOM      3  C   UNL     1      11.178  -1.026  22.617  1.00  0.00     0.000 C 
BRANCH   3   4
ATOM      4  C   UNL     1      10.051  -0.117  23.159  1.00  0.00     0.000 C 
BRANCH   4   5
ATOM      5  C   UNL     1       8.756  -0.868  23.522  1.00  0.00     0.000 C 
BRANCH   5   6
ATOM      6  C   UNL     1       9.011  -2.341  23.890  1.00  0.00     0.000 C 
BRANCH   6   7
ATOM      7  C   UNL     1       7.861  -2.939  24.722  1.00  0.00     0.000 C 
BRANCH   7   8
ATOM      8  C   UNL     1       8.297  -3.379  26.134  1.00  0.00     0.000 C 
BRANCH   8   9
ATOM      9  C   UNL     1       7.114  -3.449  27.117  1.00  0.00     0.000 C 
BRANCH   9  10
ATOM     10  C   UNL     1       7.275  -4.570  28.159  1.00  0.00     0.000 C 
BRANCH  10  11
ATOM     11  C   UNL     1       8.497  -5.487  27.943  1.00  0.00     0.000 C 
BRANCH  11  12
ATOM     12  C   UNL     1       8.920  -6.308  29.174  1.00  0.00     0.000 C 
BRANCH  12  13
ATOM     13  C   UNL     1       7.729  -6.736  30.045  1.00  0.00     0.006 C 
BRANCH  13  14
ATOM     14  C   UNL     1       7.941  -6.333  31.506  1.00  0.00     0.053 C 
BRANCH  14  15
ATOM     15  C   UNL     1       6.626  -6.073  32.172  1.00  0.00     0.041 C 
ATOM     16  O   UNL     1       6.438  -5.004  32.811  1.00  0.00    -0.550 OA
ATOM     17  O   UNL     1       5.626  -7.036  32.134  1.00  0.00    -0.550 OA
ENDBRANCH  14  15
ENDBRANCH  13  14
ENDBRANCH  12  13
ENDBRANCH  11  12
ENDBRANCH  10  11
ENDBRANCH   9  10
ENDBRANCH   8   9
ENDBRANCH   7   8
ENDBRANCH   6   7
ENDBRANCH   5   6
ENDBRANCH   4   5
ENDBRANCH   3   4
ENDBRANCH   2   3
ENDBRANCH   1   2
BRANCH   1  18
ATOM     18  C   UNL     1      13.512  -2.316  21.282  1.00  0.00     0.000 C 
BRANCH  18  19
ATOM     19  C   UNL     1      13.156  -3.803  21.479  1.00  0.00     0.000 C 
BRANCH  19  20
ATOM     20  C   UNL     1      13.870  -4.795  20.539  1.00  0.00     0.000 C 
BRANCH  20  21
ATOM     21  C   UNL     1      14.460  -6.029  21.250  1.00  0.00     0.000 C 
BRANCH  21  22
ATOM     22  C   UNL     1      15.285  -6.931  20.315  1.00  0.00     0.000 C 
BRANCH  22  23
ATOM     23  C   UNL     1      15.297  -6.436  18.858  1.00  0.00     0.000 C 
BRANCH  23  24
ATOM     24  C   UNL     1      15.572  -7.520  17.799  1.00  0.00    -0.000 C 
BRANCH  24  25
ATOM     25  C   UNL     1      14.932  -8.875  18.143  1.00  0.00    -0.000 C 
BRANCH  25  26
ATOM     26  C   UNL     1      15.401  -9.998  17.202  1.00  0.00    -0.000 C 
BRANCH  26  27
ATOM     27  C   UNL     1      14.601 -10.037  15.887  1.00  0.00    -0.000 C 
BRANCH  27  28
ATOM     28  C   UNL     1      15.403  -9.505  14.686  1.00  0.00    -0.000 C 
BRANCH  28  29
ATOM     29  C   UNL     1      14.916  -8.155  14.129  1.00  0.00    -0.000 C 
BRANCH  29  30
ATOM     30  C   UNL     1      13.426  -7.898  14.393  1.00  0.00    -0.000 C 
BRANCH  30  31
ATOM     31  C   UNL     1      13.233  -6.743  15.382  1.00  0.00    -0.003 C 
ATOM     32  C   UNL     1      12.154  -7.070  16.411  1.00  0.00     0.004 C 
ENDBRANCH  30  31
ENDBRANCH  29  30
ENDBRANCH  28  29
ENDBRANCH  27  28
ENDBRANCH  26  27
ENDBRANCH  25  26
ENDBRANCH  24  25
ENDBRANCH  23  24
ENDBRANCH  22  23
ENDBRANCH  21  22
ENDBRANCH  20  21
ENDBRANCH  19  20
ENDBRANCH  18  19
ENDBRANCH   1  18
TORSDOF 28
ENDMDL
MODEL 9
REMARK VINA RESULT:    -4.922      2.124      6.132
REMARK INTER + INTRA:         -15.481
REMARK INTER:                 -13.371
REMARK INTRA:                  -2.110
REMARK UNBOUND:                -2.503
REMARK SMILES CCCCCCCCCCCCCCCCCCCCCCCCCCCCCC(=O)[O-]
REMARK SMILES IDX 16 1 17 2 18 3 19 4 20 5 21 6 22 7 23 8 24 9 25 10 26 11
REMARK SMILES IDX 27 12 28 13 29 14 30 15 31 16 32 17 15 18 14 19 13 20 12 21
REMARK SMILES IDX 11 22 10 23 9 24 8 25 7 26 6 27 5 28 4 29 3 30 2 31 1 32
REMARK H PARENT
REMARK Flexibility Score: inf
ROOT
ATOM      1  C   UNL     1      13.489  -2.660  21.338  1.00  0.00     0.000 C 
ENDROOT
BRANCH   1   2
ATOM      2  C   UNL     1      13.083  -4.114  21.036  1.00  0.00     0.000 C 
BRANCH   2   3
ATOM      3  C   UNL     1      14.281  -4.992  20.628  1.00  0.00     0.000 C 
BRANCH   3   4
ATOM      4  C   UNL     1      14.288  -5.413  19.141  1.00  0.00     0.000 C 
BRANCH   4   5
ATOM      5  C   UNL     1      13.086  -6.282  18.726  1.00  0.00     0.000 C 
BRANCH   5   6
ATOM      6  C   UNL     1      12.700  -6.089  17.249  1.00  0.00     0.000 C 
BRANCH   6   7
ATOM      7  C   UNL     1      13.878  -6.370  16.298  1.00  0.00     0.000 C 
BRANCH   7   8
ATOM      8  C   UNL     1      13.470  -7.161  15.039  1.00  0.00     0.000 C 
BRANCH   8   9
ATOM      9  C   UNL     1      14.668  -7.453  14.117  1.00  0.00     0.000 C 
BRANCH   9  10
ATOM     10  C   UNL     1      14.969  -8.958  13.998  1.00  0.00     0.000 C 
BRANCH  10  11
ATOM     11  C   UNL     1      14.450  -9.819  15.168  1.00  0.00     0.000 C 
BRANCH  11  12
ATOM     12  C   UNL     1      15.391  -9.899  16.384  1.00  0.00     0.000 C 
BRANCH  12  13
ATOM     13  C   UNL     1      14.638 -10.083  17.711  1.00  0.00     0.006 C 
BRANCH  13  14
ATOM     14  C   UNL     1      13.124 -10.100  17.487  1.00  0.00     0.053 C 
BRANCH  14  15
ATOM     15  C   UNL     1      12.408  -9.710  18.742  1.00  0.00     0.041 C 
ATOM     16  O   UNL     1      13.017  -9.703  19.845  1.00  0.00    -0.550 OA
ATOM     17  O   UNL     1      11.053  -9.409  18.705  1.00  0.00    -0.550 OA
ENDBRANCH  14  15
ENDBRANCH  13  14
ENDBRANCH  12  13
ENDBRANCH  11  12
ENDBRANCH  10  11
ENDBRANCH   9  10
ENDBRANCH   8   9
ENDBRANCH   7   8
ENDBRANCH   6   7
ENDBRANCH   5   6
ENDBRANCH   4   5
ENDBRANCH   3   4
ENDBRANCH   2   3
ENDBRANCH   1   2
BRANCH   1  18
ATOM     18  C   UNL     1      12.668  -2.039  22.485  1.00  0.00     0.000 C 
BRANCH  18  19
ATOM     19  C   UNL     1      12.309  -0.551  22.305  1.00  0.00     0.000 C 
BRANCH  19  20
ATOM     20  C   UNL     1      11.020  -0.081  23.010  1.00  0.00     0.000 C 
BRANCH  20  21
ATOM     21  C   UNL     1       9.810  -1.013  22.804  1.00  0.00     0.000 C 
BRANCH  21  22
ATOM     22  C   UNL     1       8.987  -1.231  24.087  1.00  0.00     0.000 C 
BRANCH  22  23
ATOM     23  C   UNL     1       8.619  -2.707  24.322  1.00  0.00     0.000 C 
BRANCH  23  24
ATOM     24  C   UNL     1       7.854  -2.992  25.628  1.00  0.00    -0.000 C 
BRANCH  24  25
ATOM     25  C   UNL     1       6.875  -4.171  25.508  1.00  0.00    -0.000 C 
BRANCH  25  26
ATOM     26  C   UNL     1       6.629  -4.865  26.859  1.00  0.00    -0.000 C 
BRANCH  26  27
ATOM     27  C   UNL     1       7.477  -4.263  27.994  1.00  0.00    -0.000 C 
BRANCH  27  28
ATOM     28  C   UNL     1       8.208  -5.333  28.823  1.00  0.00    -0.000 C 
BRANCH  28  29
ATOM     29  C   UNL     1       7.289  -6.250  29.652  1.00  0.00    -0.000 C 
BRANCH  29  30
ATOM     30  C   UNL     1       7.782  -6.451  31.093  1.00  0.00    -0.000 C 
BRANCH  30  31
ATOM     31  C   UNL     1       7.326  -5.298  31.995  1.00  0.00    -0.003 C 
ATOM     32  C   UNL     1       6.045  -5.655  32.744  1.00  0.00     0.004 C 
ENDBRANCH  30  31
ENDBRANCH  29  30
ENDBRANCH  28  29
ENDBRANCH  27  28
ENDBRANCH  26  27
ENDBRANCH  25  26
ENDBRANCH  24  25
ENDBRANCH  23  24
ENDBRANCH  22  23
ENDBRANCH  21  22
ENDBRANCH  20  21
ENDBRANCH  19  20
ENDBRANCH  18  19
ENDBRANCH   1  18
TORSDOF 28
ENDMDL
