MODEL 1
REMARK VINA RESULT:    -6.095      0.000      0.000
REMARK INTER + INTRA:          -9.458
REMARK INTER:                  -8.234
REMARK INTRA:                  -1.224
REMARK UNBOUND:                -1.224
REMARK SMILES CC(=O)CCC=C(C)CCC=C(C)C
REMARK SMILES IDX 7 1 6 2 8 3 9 4 10 5 11 6 13 7 12 8 14 9 5 10 4 11 2 12 3 13
REMARK SMILES IDX 1 14
REMARK H PARENT
REMARK Flexibility Score: inf
ROOT
ATOM      1  C   UNL     1      -8.000  33.509  21.257  1.00  0.00    -0.077 C 
ATOM      2  C   UNL     1      -7.513  34.485  22.058  1.00  0.00    -0.028 C 
ATOM      3  C   UNL     1      -7.274  33.212  19.971  1.00  0.00     0.039 C 
ENDROOT
BRANCH   1   4
ATOM      4  C   UNL     1      -9.278  32.752  21.560  1.00  0.00     0.034 C 
BRANCH   4   5
ATOM      5  C   UNL     1      -8.966  31.303  21.947  1.00  0.00     0.032 C 
BRANCH   5   6
ATOM      6  C   UNL     1      -8.835  31.166  23.443  1.00  0.00    -0.028 C 
ATOM      7  C   UNL     1      -7.759  30.595  25.577  1.00  0.00     0.039 C 
ATOM      8  C   UNL     1      -7.766  30.626  24.071  1.00  0.00    -0.080 C 
ATOM      9  C   UNL     1      -6.599  30.045  23.308  1.00  0.00     0.039 C 
ENDBRANCH   5   6
ENDBRANCH   4   5
ENDBRANCH   1   4
BRANCH   2  10
ATOM     10  C   UNL     1      -8.118  34.897  23.377  1.00  0.00     0.035 C 
BRANCH  10  11
ATOM     11  C   UNL     1      -7.311  34.327  24.548  1.00  0.00     0.079 C 
BRANCH  11  12
ATOM     12  C   UNL     1      -7.968  34.667  25.859  1.00  0.00     0.130 C 
ATOM     13  O   UNL     1      -7.772  33.955  26.833  1.00  0.00    -0.300 OA
ATOM     14  C   UNL     1      -8.862  35.864  25.997  1.00  0.00     0.087 C 
ENDBRANCH  11  12
ENDBRANCH  10  11
ENDBRANCH   2  10
TORSDOF 6
ENDMDL
MODEL 2
REMARK VINA RESULT:    -5.919      1.938      4.492
REMARK INTER + INTRA:          -9.219
REMARK INTER:                  -8.244
REMARK INTRA:                  -0.975
REMARK UNBOUND:                -1.224
REMARK SMILES CC(=O)CCC=C(C)CCC=C(C)C
REMARK SMILES IDX 7 1 6 2 8 3 9 4 10 5 11 6 13 7 12 8 14 9 5 10 4 11 2 12 3 13
REMARK SMILES IDX 1 14
REMARK H PARENT
REMARK Flexibility Score: inf
ROOT
ATOM      1  C   UNL     1      -7.955  33.217  21.139  1.00  0.00    -0.077 C 
ATOM      2  C   UNL     1      -8.225  31.935  21.478  1.00  0.00    -0.028 C 
ATOM      3  C   UNL     1      -7.095  33.471  19.929  1.00  0.00     0.039 C 
ENDROOT
BRANCH   1   4
ATOM      4  C   UNL     1      -8.419  34.404  21.960  1.00  0.00     0.034 C 
BRANCH   4   5
ATOM      5  C   UNL     1      -7.259  34.982  22.776  1.00  0.00     0.032 C 
BRANCH   5   6
ATOM      6  C   UNL     1      -7.216  34.369  24.153  1.00  0.00    -0.028 C 
ATOM      7  C   UNL     1      -7.856  34.038  26.502  1.00  0.00     0.039 C 
ATOM      8  C   UNL     1      -7.978  34.775  25.194  1.00  0.00    -0.080 C 
ATOM      9  C   UNL     1      -8.926  35.946  25.083  1.00  0.00     0.039 C 
ENDBRANCH   5   6
ENDBRANCH   4   5
ENDBRANCH   1   4
BRANCH   2  10
ATOM     10  C   UNL     1      -9.072  31.515  22.653  1.00  0.00     0.035 C 
BRANCH  10  11
ATOM     11  C   UNL     1      -8.230  30.767  23.691  1.00  0.00     0.079 C 
BRANCH  11  12
ATOM     12  C   UNL     1      -7.702  29.479  23.117  1.00  0.00     0.130 C 
ATOM     13  O   UNL     1      -6.496  29.281  23.090  1.00  0.00    -0.300 OA
ATOM     14  C   UNL     1      -8.627  28.431  22.571  1.00  0.00     0.087 C 
ENDBRANCH  11  12
ENDBRANCH  10  11
ENDBRANCH   2  10
TORSDOF 6
ENDMDL
MODEL 3
REMARK VINA RESULT:    -5.625      1.375      3.922
REMARK INTER + INTRA:          -8.822
REMARK INTER:                  -7.826
REMARK INTRA:                  -0.997
REMARK UNBOUND:                -1.224
REMARK SMILES CC(=O)CCC=C(C)CCC=C(C)C
REMARK SMILES IDX 7 1 6 2 8 3 9 4 10 5 11 6 13 7 12 8 14 9 5 10 4 11 2 12 3 13
REMARK SMILES IDX 1 14
REMARK H PARENT
REMARK Flexibility Score: inf
ROOT
ATOM      1  C   UNL     1      -8.381  29.328  23.325  1.00  0.00    -0.077 C 
ATOM      2  C   UNL     1      -8.386  29.495  24.667  1.00  0.00    -0.028 C 
ATOM      3  C   UNL     1      -8.994  28.075  22.757  1.00  0.00     0.039 C 
ENDROOT
BRANCH   1   4
ATOM      4  C   UNL     1      -7.727  30.311  22.372  1.00  0.00     0.034 C 
BRANCH   4   5
ATOM      5  C   UNL     1      -8.775  31.244  21.757  1.00  0.00     0.032 C 
BRANCH   5   6
ATOM      6  C   UNL     1      -8.540  32.669  22.191  1.00  0.00    -0.028 C 
ATOM      7  C   UNL     1      -7.770  34.994  21.999  1.00  0.00     0.039 C 
ATOM      8  C   UNL     1      -7.893  33.596  21.451  1.00  0.00    -0.080 C 
ATOM      9  C   UNL     1      -7.281  33.265  20.110  1.00  0.00     0.039 C 
ENDBRANCH   5   6
ENDBRANCH   4   5
ENDBRANCH   1   4
BRANCH   2  10
ATOM     10  C   UNL     1      -7.820  30.693  25.388  1.00  0.00     0.035 C 
BRANCH  10  11
ATOM     11  C   UNL     1      -8.922  31.710  25.701  1.00  0.00     0.079 C 
BRANCH  11  12
ATOM     12  C   UNL     1      -8.349  32.914  26.401  1.00  0.00     0.130 C 
ATOM     13  O   UNL     1      -8.199  32.890  27.614  1.00  0.00    -0.300 OA
ATOM     14  C   UNL     1      -7.960  34.147  25.640  1.00  0.00     0.087 C 
ENDBRANCH  11  12
ENDBRANCH  10  11
ENDBRANCH   2  10
TORSDOF 6
ENDMDL
MODEL 4
REMARK VINA RESULT:    -5.598      1.700      2.946
REMARK INTER + INTRA:          -8.786
REMARK INTER:                  -7.507
REMARK INTRA:                  -1.279
REMARK UNBOUND:                -1.224
REMARK SMILES CC(=O)CCC=C(C)CCC=C(C)C
REMARK SMILES IDX 7 1 6 2 8 3 9 4 10 5 11 6 13 7 12 8 14 9 5 10 4 11 2 12 3 13
REMARK SMILES IDX 1 14
REMARK H PARENT
REMARK Flexibility Score: inf
ROOT
ATOM      1  C   UNL     1      -8.658  33.445  23.166  1.00  0.00    -0.077 C 
ATOM      2  C   UNL     1      -8.658  33.133  24.483  1.00  0.00    -0.028 C 
ATOM      3  C   UNL     1      -7.802  34.593  22.702  1.00  0.00     0.039 C 
ENDROOT
BRANCH   1   4
ATOM      4  C   UNL     1      -9.534  32.737  22.150  1.00  0.00     0.034 C 
BRANCH   4   5
ATOM      5  C   UNL     1      -8.703  31.763  21.309  1.00  0.00     0.032 C 
BRANCH   5   6
ATOM      6  C   UNL     1      -9.006  30.335  21.690  1.00  0.00    -0.028 C 
ATOM      7  C   UNL     1      -8.676  28.174  22.812  1.00  0.00     0.039 C 
ATOM      8  C   UNL     1      -8.222  29.573  22.484  1.00  0.00    -0.080 C 
ATOM      9  C   UNL     1      -6.906  30.076  23.031  1.00  0.00     0.039 C 
ENDBRANCH   5   6
ENDBRANCH   4   5
ENDBRANCH   1   4
BRANCH   2  10
ATOM     10  C   UNL     1      -9.453  32.012  25.103  1.00  0.00     0.035 C 
BRANCH  10  11
ATOM     11  C   UNL     1      -9.324  32.031  26.629  1.00  0.00     0.079 C 
BRANCH  11  12
ATOM     12  C   UNL     1      -7.948  31.587  27.050  1.00  0.00     0.130 C 
ATOM     13  O   UNL     1      -7.255  32.334  27.724  1.00  0.00    -0.300 OA
ATOM     14  C   UNL     1      -7.407  30.244  26.656  1.00  0.00     0.087 C 
ENDBRANCH  11  12
ENDBRANCH  10  11
ENDBRANCH   2  10
TORSDOF 6
ENDMDL
MODEL 5
REMARK VINA RESULT:    -5.558      2.273      4.384
REMARK INTER + INTRA:          -8.732
REMARK INTER:                  -7.312
REMARK INTRA:                  -1.420
REMARK UNBOUND:                -1.224
REMARK SMILES CC(=O)CCC=C(C)CCC=C(C)C
REMARK SMILES IDX 7 1 6 2 8 3 9 4 10 5 11 6 13 7 12 8 14 9 5 10 4 11 2 12 3 13
REMARK SMILES IDX 1 14
REMARK H PARENT
REMARK Flexibility Score: inf
ROOT
ATOM      1  C   UNL     1      -8.424  32.279  26.185  1.00  0.00    -0.077 C 
ATOM      2  C   UNL     1      -8.226  33.118  25.142  1.00  0.00    -0.028 C 
ATOM      3  C   UNL     1      -7.557  32.439  27.406  1.00  0.00     0.039 C 
ENDROOT
BRANCH   1   4
ATOM      4  C   UNL     1      -9.428  31.143  26.152  1.00  0.00     0.034 C 
BRANCH   4   5
ATOM      5  C   UNL     1      -8.735  29.821  25.810  1.00  0.00     0.032 C 
BRANCH   5   6
ATOM      6  C   UNL     1      -9.099  29.372  24.417  1.00  0.00    -0.028 C 
ATOM      7  C   UNL     1      -8.760  28.910  22.028  1.00  0.00     0.039 C 
ATOM      8  C   UNL     1      -8.269  29.435  23.352  1.00  0.00    -0.080 C 
ATOM      9  C   UNL     1      -6.882  30.026  23.451  1.00  0.00     0.039 C 
ENDBRANCH   5   6
ENDBRANCH   4   5
ENDBRANCH   1   4
BRANCH   2  10
ATOM     10  C   UNL     1      -9.012  33.092  23.855  1.00  0.00     0.035 C 
BRANCH  10  11
ATOM     11  C   UNL     1      -8.187  33.672  22.701  1.00  0.00     0.079 C 
BRANCH  11  12
ATOM     12  C   UNL     1      -8.458  32.919  21.426  1.00  0.00     0.130 C 
ATOM     13  O   UNL     1      -9.514  32.319  21.294  1.00  0.00    -0.300 OA
ATOM     14  C   UNL     1      -7.454  32.886  20.311  1.00  0.00     0.087 C 
ENDBRANCH  11  12
ENDBRANCH  10  11
ENDBRANCH   2  10
TORSDOF 6
ENDMDL
MODEL 6
REMARK VINA RESULT:    -5.475      1.072      3.402
REMARK INTER + INTRA:          -8.619
REMARK INTER:                  -7.458
REMARK INTRA:                  -1.162
REMARK UNBOUND:                -1.224
REMARK SMILES CC(=O)CCC=C(C)CCC=C(C)C
REMARK SMILES IDX 7 1 6 2 8 3 9 4 10 5 11 6 13 7 12 8 14 9 5 10 4 11 2 12 3 13
REMARK SMILES IDX 1 14
REMARK H PARENT
REMARK Flexibility Score: inf
ROOT
ATOM      1  C   UNL     1      -7.989  30.959  24.269  1.00  0.00    -0.077 C 
ATOM      2  C   UNL     1      -7.751  31.710  25.369  1.00  0.00    -0.028 C 
ATOM      3  C   UNL     1      -6.841  30.195  23.663  1.00  0.00     0.039 C 
ENDROOT
BRANCH   1   4
ATOM      4  C   UNL     1      -9.338  30.907  23.580  1.00  0.00     0.034 C 
BRANCH   4   5
ATOM      5  C   UNL     1      -9.278  31.618  22.224  1.00  0.00     0.032 C 
BRANCH   5   6
ATOM      6  C   UNL     1      -8.772  33.030  22.383  1.00  0.00    -0.028 C 
ATOM      7  C   UNL     1      -7.539  35.071  21.792  1.00  0.00     0.039 C 
ATOM      8  C   UNL     1      -7.926  33.640  21.523  1.00  0.00    -0.080 C 
ATOM      9  C   UNL     1      -7.353  32.925  20.322  1.00  0.00     0.039 C 
ENDBRANCH   5   6
ENDBRANCH   4   5
ENDBRANCH   1   4
BRANCH   2  10
ATOM     10  C   UNL     1      -8.792  32.525  26.096  1.00  0.00     0.035 C 
BRANCH  10  11
ATOM     11  C   UNL     1      -8.160  33.763  26.741  1.00  0.00     0.079 C 
BRANCH  11  12
ATOM     12  C   UNL     1      -7.969  34.854  25.721  1.00  0.00     0.130 C 
ATOM     13  O   UNL     1      -6.843  35.123  25.331  1.00  0.00    -0.300 OA
ATOM     14  C   UNL     1      -9.136  35.622  25.173  1.00  0.00     0.087 C 
ENDBRANCH  11  12
ENDBRANCH  10  11
ENDBRANCH   2  10
TORSDOF 6
ENDMDL
MODEL 7
REMARK VINA RESULT:    -5.263      2.040      3.790
REMARK INTER + INTRA:          -8.334
REMARK INTER:                  -7.053
REMARK INTRA:                  -1.280
REMARK UNBOUND:                -1.224
REMARK SMILES CC(=O)CCC=C(C)CCC=C(C)C
REMARK SMILES IDX 7 1 6 2 8 3 9 4 10 5 11 6 13 7 12 8 14 9 5 10 4 11 2 12 3 13
REMARK SMILES IDX 1 14
REMARK H PARENT
REMARK Flexibility Score: inf
ROOT
ATOM      1  C   UNL     1      -8.042  34.353  24.143  1.00  0.00    -0.077 C 
ATOM      2  C   UNL     1      -7.503  34.667  22.942  1.00  0.00    -0.028 C 
ATOM      3  C   UNL     1      -7.258  34.680  25.386  1.00  0.00     0.039 C 
ENDROOT
BRANCH   1   4
ATOM      4  C   UNL     1      -9.364  33.625  24.290  1.00  0.00     0.034 C 
BRANCH   4   5
ATOM      5  C   UNL     1      -9.257  32.522  25.347  1.00  0.00     0.032 C 
BRANCH   5   6
ATOM      6  C   UNL     1      -9.562  31.173  24.743  1.00  0.00    -0.028 C 
ATOM      7  C   UNL     1      -9.209  28.800  24.215  1.00  0.00     0.039 C 
ATOM      8  C   UNL     1      -8.752  30.095  24.834  1.00  0.00    -0.080 C 
ATOM      9  C   UNL     1      -7.408  30.159  25.521  1.00  0.00     0.039 C 
ENDBRANCH   5   6
ENDBRANCH   4   5
ENDBRANCH   1   4
BRANCH   2  10
ATOM     10  C   UNL     1      -8.162  34.412  21.609  1.00  0.00     0.035 C 
BRANCH  10  11
ATOM     11  C   UNL     1      -7.493  33.237  20.887  1.00  0.00     0.079 C 
BRANCH  11  12
ATOM     12  C   UNL     1      -8.109  31.932  21.317  1.00  0.00     0.130 C 
ATOM     13  O   UNL     1      -7.414  31.091  21.868  1.00  0.00    -0.300 OA
ATOM     14  C   UNL     1      -9.561  31.638  21.078  1.00  0.00     0.087 C 
ENDBRANCH  11  12
ENDBRANCH  10  11
ENDBRANCH   2  10
TORSDOF 6
ENDMDL
MODEL 8
REMARK VINA RESULT:    -5.226      1.662      4.820
REMARK INTER + INTRA:          -8.283
REMARK INTER:                  -7.289
REMARK INTRA:                  -0.994
REMARK UNBOUND:                -1.224
REMARK SMILES CC(=O)CCC=C(C)CCC=C(C)C
REMARK SMILES IDX 7 1 6 2 8 3 9 4 10 5 11 6 13 7 12 8 14 9 5 10 4 11 2 12 3 13
REMARK SMILES IDX 1 14
REMARK H PARENT
REMARK Flexibility Score: inf
ROOT
ATOM      1  C   UNL     1      -8.392  34.453  25.450  1.00  0.00    -0.077 C 
ATOM      2  C   UNL     1      -9.161  33.373  25.723  1.00  0.00    -0.028 C 
ATOM      3  C   UNL     1      -8.526  35.667  26.331  1.00  0.00     0.039 C 
ENDROOT
BRANCH   1   4
ATOM      4  C   UNL     1      -7.456  34.521  24.259  1.00  0.00     0.034 C 
BRANCH   4   5
ATOM      5  C   UNL     1      -8.178  35.101  23.039  1.00  0.00     0.032 C 
BRANCH   5   6
ATOM      6  C   UNL     1      -7.497  34.672  21.763  1.00  0.00    -0.028 C 
ATOM      7  C   UNL     1      -7.122  33.328  19.741  1.00  0.00     0.039 C 
ATOM      8  C   UNL     1      -7.872  33.610  21.016  1.00  0.00    -0.080 C 
ATOM      9  C   UNL     1      -9.003  32.698  21.432  1.00  0.00     0.039 C 
ENDBRANCH   5   6
ENDBRANCH   4   5
ENDBRANCH   1   4
BRANCH   2  10
ATOM     10  C   UNL     1      -9.140  32.083  24.942  1.00  0.00     0.035 C 
BRANCH  10  11
ATOM     11  C   UNL     1      -8.020  31.164  25.440  1.00  0.00     0.079 C 
BRANCH  11  12
ATOM     12  C   UNL     1      -7.691  30.121  24.405  1.00  0.00     0.130 C 
ATOM     13  O   UNL     1      -8.282  29.051  24.419  1.00  0.00    -0.300 OA
ATOM     14  C   UNL     1      -6.648  30.365  23.354  1.00  0.00     0.087 C 
ENDBRANCH  11  12
ENDBRANCH  10  11
ENDBRANCH   2  10
TORSDOF 6
ENDMDL
MODEL 9
REMARK VINA RESULT:    -4.984      2.684      4.572
REMARK INTER + INTRA:          -7.956
REMARK INTER:                  -6.629
REMARK INTRA:                  -1.327
REMARK UNBOUND:                -1.224
REMARK SMILES CC(=O)CCC=C(C)CCC=C(C)C
REMARK SMILES IDX 7 1 6 2 8 3 9 4 10 5 11 6 13 7 12 8 14 9 5 10 4 11 2 12 3 13
REMARK SMILES IDX 1 14
REMARK H PARENT
REMARK Flexibility Score: inf
ROOT
ATOM      1  C   UNL     1      -8.286  32.300  22.573  1.00  0.00    -0.077 C 
ATOM      2  C   UNL     1      -7.164  31.621  22.904  1.00  0.00    -0.028 C 
ATOM      3  C   UNL     1      -8.167  33.456  21.615  1.00  0.00     0.039 C 
ENDROOT
BRANCH   1   4
ATOM      4  C   UNL     1      -9.644  31.996  23.176  1.00  0.00     0.034 C 
BRANCH   4   5
ATOM      5  C   UNL     1      -9.967  32.982  24.303  1.00  0.00     0.032 C 
BRANCH   5   6
ATOM      6  C   UNL     1      -9.333  32.539  25.598  1.00  0.00    -0.028 C 
ATOM      7  C   UNL     1      -7.825  32.655  27.534  1.00  0.00     0.039 C 
ATOM      8  C   UNL     1      -8.330  33.196  26.222  1.00  0.00    -0.080 C 
ATOM      9  C   UNL     1      -7.698  34.436  25.635  1.00  0.00     0.039 C 
ENDBRANCH   5   6
ENDBRANCH   4   5
ENDBRANCH   1   4
BRANCH   2  10
ATOM     10  C   UNL     1      -7.117  30.441  23.842  1.00  0.00     0.035 C 
BRANCH  10  11
ATOM     11  C   UNL     1      -7.162  29.123  23.061  1.00  0.00     0.079 C 
BRANCH  11  12
ATOM     12  C   UNL     1      -8.552  28.544  23.080  1.00  0.00     0.130 C 
ATOM     13  O   UNL     1      -9.028  28.088  22.051  1.00  0.00    -0.300 OA
ATOM     14  C   UNL     1      -9.369  28.516  24.338  1.00  0.00     0.087 C 
ENDBRANCH  11  12
ENDBRANCH  10  11
ENDBRANCH   2  10
TORSDOF 6
ENDMDL
