MODEL 1
REMARK VINA RESULT:    -3.670      0.000      0.000
REMARK INTER + INTRA:          -7.503
REMARK INTER:                  -6.351
REMARK INTRA:                  -1.151
REMARK UNBOUND:                -1.151
REMARK SMILES OC[C@@H]1O[C@H](O[C@H]2[C@@H](O)[C@@H](O)[C@H](O[C@@H]3[C@@H](O)[C@@H](O)[C@H](O)O[C@H]3CO)O[C@H]2CO)[C@@H](O)[C@@H](O)[C@@H]1O
REMARK SMILES IDX 7 1 26 2 25 3 12 4 10 5 8 6 6 7 5 8 3 9 33 10 4 11 31 12
REMARK SMILES IDX 29 13 2 14 1 15 34 17 32 19 30 21 27 23 28 24 9 26 11 28
REMARK SMILES IDX 13 30 14 31 22 32 15 33 21 34 17 35 19 36 23 37 24 38 16 40
REMARK SMILES IDX 18 42 20 44
REMARK H PARENT 1 16 34 18 32 20 30 22 28 25 9 27 11 29 24 39 16 41 18 43
REMARK H PARENT 20 45
REMARK Flexibility Score: inf
ROOT
ATOM      1  C   UNL     1      13.531  36.307  33.230  1.00  0.00     0.184 C 
ATOM      2  C   UNL     1      12.284  37.153  33.543  1.00  0.00     0.178 C 
ATOM      3  O   UNL     1      11.139  36.602  32.928  1.00  0.00    -0.341 OA
ATOM      4  C   UNL     1      10.721  35.363  33.467  1.00  0.00     0.282 C 
ATOM      5  C   UNL     1      11.866  34.331  33.743  1.00  0.00     0.202 C 
ATOM      6  C   UNL     1      13.239  34.777  33.177  1.00  0.00     0.180 C 
ENDROOT
BRANCH   1   7
ATOM      7  O   UNL     1      14.578  36.635  34.135  1.00  0.00    -0.341 OA
BRANCH   7   8
ATOM      8  C   UNL     1      15.569  37.437  33.508  1.00  0.00     0.282 C 
ATOM      9  C   UNL     1      17.688  38.367  33.820  1.00  0.00     0.178 C 
ATOM     10  C   UNL     1      18.495  37.275  33.059  1.00  0.00     0.177 C 
ATOM     11  O   UNL     1      16.573  37.773  34.460  1.00  0.00    -0.341 OA
ATOM     12  C   UNL     1      17.558  36.129  32.600  1.00  0.00     0.179 C 
ATOM     13  C   UNL     1      16.144  36.651  32.286  1.00  0.00     0.202 C 
BRANCH   9  14
ATOM     14  C   UNL     1      18.535  39.117  34.856  1.00  0.00     0.191 C 
BRANCH  14  15
ATOM     15  O   UNL     1      19.888  39.022  34.506  1.00  0.00    -0.394 OA
ATOM     16  H   UNL     1      20.019  39.616  33.730  1.00  0.00     0.210 HD
ENDBRANCH  14  15
ENDBRANCH   9  14
BRANCH  10  17
ATOM     17  O   UNL     1      19.504  36.738  33.882  1.00  0.00    -0.387 OA
ATOM     18  H   UNL     1      19.992  37.506  34.274  1.00  0.00     0.211 HD
ENDBRANCH  10  17
BRANCH  12  19
ATOM     19  O   UNL     1      18.087  35.481  31.476  1.00  0.00    -0.387 OA
ATOM     20  H   UNL     1      18.499  36.180  30.909  1.00  0.00     0.211 HD
ENDBRANCH  12  19
BRANCH  13  21
ATOM     21  O   UNL     1      16.187  37.503  31.163  1.00  0.00    -0.385 OA
ATOM     22  H   UNL     1      16.335  38.426  31.501  1.00  0.00     0.211 HD
ENDBRANCH  13  21
ENDBRANCH   7   8
ENDBRANCH   1   7
BRANCH   2  23
ATOM     23  C   UNL     1      12.071  37.576  35.014  1.00  0.00     0.191 C 
BRANCH  23  24
ATOM     24  O   UNL     1      11.633  38.904  35.125  1.00  0.00    -0.394 OA
ATOM     25  H   UNL     1      11.499  39.077  36.092  1.00  0.00     0.210 HD
ENDBRANCH  23  24
ENDBRANCH   2  23
BRANCH   6  26
ATOM     26  O   UNL     1      14.291  34.011  33.710  1.00  0.00    -0.387 OA
ATOM     27  H   UNL     1      13.970  33.625  34.561  1.00  0.00     0.211 HD
ENDBRANCH   6  26
BRANCH   5  28
ATOM     28  O   UNL     1      11.951  34.082  35.125  1.00  0.00    -0.385 OA
ATOM     29  H   UNL     1      11.303  33.367  35.343  1.00  0.00     0.211 HD
ENDBRANCH   5  28
BRANCH   4  30
ATOM     30  O   UNL     1       9.653  34.834  32.680  1.00  0.00    -0.341 OA
BRANCH  30  31
ATOM     31  C   UNL     1       8.607  34.196  33.416  1.00  0.00     0.184 C 
ATOM     32  C   UNL     1       7.252  34.832  32.973  1.00  0.00     0.178 C 
ATOM     33  C   UNL     1       8.568  32.671  33.106  1.00  0.00     0.180 C 
ATOM     34  O   UNL     1       6.140  34.174  33.558  1.00  0.00    -0.342 OA
ATOM     35  C   UNL     1       7.265  32.036  33.631  1.00  0.00     0.201 C 
ATOM     36  C   UNL     1       6.045  32.820  33.148  1.00  0.00     0.279 C 
BRANCH  32  37
ATOM     37  C   UNL     1       7.167  36.310  33.376  1.00  0.00     0.191 C 
BRANCH  37  38
ATOM     38  O   UNL     1       8.092  37.078  32.648  1.00  0.00    -0.394 OA
ATOM     39  H   UNL     1       8.060  38.007  33.005  1.00  0.00     0.210 HD
ENDBRANCH  37  38
ENDBRANCH  32  37
BRANCH  33  40
ATOM     40  O   UNL     1       9.646  32.020  33.723  1.00  0.00    -0.387 OA
ATOM     41  H   UNL     1       9.793  31.164  33.246  1.00  0.00     0.211 HD
ENDBRANCH  33  40
BRANCH  35  42
ATOM     42  O   UNL     1       7.283  32.025  35.040  1.00  0.00    -0.385 OA
ATOM     43  H   UNL     1       6.505  32.558  35.348  1.00  0.00     0.211 HD
ENDBRANCH  35  42
BRANCH  36  44
ATOM     44  O   UNL     1       5.915  32.713  31.752  1.00  0.00    -0.366 OA
ATOM     45  H   UNL     1       6.112  31.768  31.519  1.00  0.00     0.213 HD
ENDBRANCH  36  44
ENDBRANCH  30  31
ENDBRANCH   4  30
TORSDOF 18
ENDMDL
MODEL 2
REMARK VINA RESULT:    -3.071      1.534      9.356
REMARK INTER + INTRA:          -6.467
REMARK INTER:                  -6.469
REMARK INTRA:                   0.002
REMARK UNBOUND:                -1.151
REMARK SMILES OC[C@@H]1O[C@H](O[C@H]2[C@@H](O)[C@@H](O)[C@H](O[C@@H]3[C@@H](O)[C@@H](O)[C@H](O)O[C@H]3CO)O[C@H]2CO)[C@@H](O)[C@@H](O)[C@@H]1O
REMARK SMILES IDX 7 1 26 2 25 3 12 4 10 5 8 6 6 7 5 8 3 9 33 10 4 11 31 12
REMARK SMILES IDX 29 13 2 14 1 15 34 17 32 19 30 21 27 23 28 24 9 26 11 28
REMARK SMILES IDX 13 30 14 31 22 32 15 33 21 34 17 35 19 36 23 37 24 38 16 40
REMARK SMILES IDX 18 42 20 44
REMARK H PARENT 1 16 34 18 32 20 30 22 28 25 9 27 11 29 24 39 16 41 18 43
REMARK H PARENT 20 45
REMARK Flexibility Score: inf
ROOT
ATOM      1  C   UNL     1      11.531  35.618  32.941  1.00  0.00     0.184 C 
ATOM      2  C   UNL     1      12.953  35.066  33.138  1.00  0.00     0.178 C 
ATOM      3  O   UNL     1      13.913  35.954  32.607  1.00  0.00    -0.341 OA
ATOM      4  C   UNL     1      14.037  37.175  33.311  1.00  0.00     0.282 C 
ATOM      5  C   UNL     1      12.686  37.852  33.722  1.00  0.00     0.202 C 
ATOM      6  C   UNL     1      11.444  37.166  33.098  1.00  0.00     0.180 C 
ENDROOT
BRANCH   1   7
ATOM      7  O   UNL     1      10.622  34.928  33.790  1.00  0.00    -0.341 OA
BRANCH   7   8
ATOM      8  C   UNL     1       9.357  34.761  33.164  1.00  0.00     0.282 C 
ATOM      9  C   UNL     1       7.523  33.323  33.019  1.00  0.00     0.178 C 
ATOM     10  C   UNL     1       6.606  34.073  34.029  1.00  0.00     0.177 C 
ATOM     11  O   UNL     1       8.875  33.447  33.424  1.00  0.00    -0.341 OA
ATOM     12  C   UNL     1       7.365  35.264  34.670  1.00  0.00     0.179 C 
ATOM     13  C   UNL     1       8.390  35.868  33.694  1.00  0.00     0.202 C 
BRANCH   9  14
ATOM     14  C   UNL     1       7.163  31.839  32.880  1.00  0.00     0.191 C 
BRANCH  14  15
ATOM     15  O   UNL     1       7.600  31.147  34.018  1.00  0.00    -0.394 OA
ATOM     16  H   UNL     1       8.524  31.445  34.189  1.00  0.00     0.210 HD
ENDBRANCH  14  15
ENDBRANCH   9  14
BRANCH  10  17
ATOM     17  O   UNL     1       6.174  33.204  35.050  1.00  0.00    -0.387 OA
ATOM     18  H   UNL     1       5.717  33.765  35.728  1.00  0.00     0.211 HD
ENDBRANCH  10  17
BRANCH  12  19
ATOM     19  O   UNL     1       6.465  36.252  35.089  1.00  0.00    -0.387 OA
ATOM     20  H   UNL     1       6.731  37.092  34.638  1.00  0.00     0.211 HD
ENDBRANCH  12  19
BRANCH  13  21
ATOM     21  O   UNL     1       7.720  36.461  32.604  1.00  0.00    -0.385 OA
ATOM     22  H   UNL     1       8.182  36.160  31.777  1.00  0.00     0.211 HD
ENDBRANCH  13  21
ENDBRANCH   7   8
ENDBRANCH   1   7
BRANCH   2  23
ATOM     23  C   UNL     1      13.307  34.515  34.539  1.00  0.00     0.191 C 
BRANCH  23  24
ATOM     24  O   UNL     1      13.139  33.125  34.618  1.00  0.00    -0.394 OA
ATOM     25  H   UNL     1      12.342  32.969  35.188  1.00  0.00     0.210 HD
ENDBRANCH  23  24
ENDBRANCH   2  23
BRANCH   6  26
ATOM     26  O   UNL     1      10.256  37.576  33.727  1.00  0.00    -0.387 OA
ATOM     27  H   UNL     1      10.502  38.254  34.403  1.00  0.00     0.211 HD
ENDBRANCH   6  26
BRANCH   5  28
ATOM     28  O   UNL     1      12.586  37.887  35.125  1.00  0.00    -0.385 OA
ATOM     29  H   UNL     1      11.634  38.028  35.356  1.00  0.00     0.211 HD
ENDBRANCH   5  28
BRANCH   4  30
ATOM     30  O   UNL     1      14.921  38.047  32.606  1.00  0.00    -0.341 OA
BRANCH  30  31
ATOM     31  C   UNL     1      16.239  37.537  32.386  1.00  0.00     0.184 C 
ATOM     32  C   UNL     1      17.110  38.695  31.805  1.00  0.00     0.178 C 
ATOM     33  C   UNL     1      16.874  37.056  33.722  1.00  0.00     0.180 C 
ATOM     34  O   UNL     1      18.471  38.320  31.671  1.00  0.00    -0.342 OA
ATOM     35  C   UNL     1      18.386  36.810  33.555  1.00  0.00     0.201 C 
ATOM     36  C   UNL     1      19.068  38.022  32.921  1.00  0.00     0.279 C 
BRANCH  32  37
ATOM     37  C   UNL     1      16.619  39.125  30.416  1.00  0.00     0.191 C 
BRANCH  37  38
ATOM     38  O   UNL     1      15.551  38.316  29.993  1.00  0.00    -0.394 OA
ATOM     39  H   UNL     1      15.927  37.430  29.736  1.00  0.00     0.210 HD
ENDBRANCH  37  38
ENDBRANCH  32  37
BRANCH  33  40
ATOM     40  O   UNL     1      16.283  35.854  34.139  1.00  0.00    -0.387 OA
ATOM     41  H   UNL     1      16.847  35.476  34.860  1.00  0.00     0.211 HD
ENDBRANCH  33  40
BRANCH  35  42
ATOM     42  O   UNL     1      18.590  35.681  32.738  1.00  0.00    -0.385 OA
ATOM     43  H   UNL     1      19.046  34.996  33.292  1.00  0.00     0.211 HD
ENDBRANCH  35  42
BRANCH  36  44
ATOM     44  O   UNL     1      19.016  39.125  33.792  1.00  0.00    -0.366 OA
ATOM     45  H   UNL     1      19.512  38.865  34.612  1.00  0.00     0.213 HD
ENDBRANCH  36  44
ENDBRANCH  30  31
ENDBRANCH   4  30
TORSDOF 18
ENDMDL
MODEL 3
REMARK VINA RESULT:    -2.838      1.537      3.005
REMARK INTER + INTRA:          -6.063
REMARK INTER:                  -5.156
REMARK INTRA:                  -0.908
REMARK UNBOUND:                -1.151
REMARK SMILES OC[C@@H]1O[C@H](O[C@H]2[C@@H](O)[C@@H](O)[C@H](O[C@@H]3[C@@H](O)[C@@H](O)[C@H](O)O[C@H]3CO)O[C@H]2CO)[C@@H](O)[C@@H](O)[C@@H]1O
REMARK SMILES IDX 7 1 26 2 25 3 12 4 10 5 8 6 6 7 5 8 3 9 33 10 4 11 31 12
REMARK SMILES IDX 29 13 2 14 1 15 34 17 32 19 30 21 27 23 28 24 9 26 11 28
REMARK SMILES IDX 13 30 14 31 22 32 15 33 21 34 17 35 19 36 23 37 24 38 16 40
REMARK SMILES IDX 18 42 20 44
REMARK H PARENT 1 16 34 18 32 20 30 22 28 25 9 27 11 29 24 39 16 41 18 43
REMARK H PARENT 20 45
REMARK Flexibility Score: inf
ROOT
ATOM      1  C   UNL     1      12.607  37.392  33.850  1.00  0.00     0.184 C 
ATOM      2  C   UNL     1      12.561  35.879  34.121  1.00  0.00     0.178 C 
ATOM      3  O   UNL     1      11.425  35.543  34.889  1.00  0.00    -0.341 OA
ATOM      4  C   UNL     1      10.192  35.697  34.214  1.00  0.00     0.282 C 
ATOM      5  C   UNL     1      10.044  37.016  33.382  1.00  0.00     0.202 C 
ATOM      6  C   UNL     1      11.200  38.020  33.618  1.00  0.00     0.180 C 
ENDROOT
BRANCH   1   7
ATOM      7  O   UNL     1      13.513  37.667  32.788  1.00  0.00    -0.341 OA
BRANCH   7   8
ATOM      8  C   UNL     1      14.773  37.048  33.011  1.00  0.00     0.282 C 
ATOM      9  C   UNL     1      16.930  36.844  32.143  1.00  0.00     0.178 C 
ATOM     10  C   UNL     1      17.610  37.907  33.055  1.00  0.00     0.177 C 
ATOM     11  O   UNL     1      15.598  37.238  31.867  1.00  0.00    -0.341 OA
ATOM     12  C   UNL     1      16.555  38.606  33.952  1.00  0.00     0.179 C 
ATOM     13  C   UNL     1      15.400  37.652  34.307  1.00  0.00     0.202 C 
BRANCH   9  14
ATOM     14  C   UNL     1      17.684  36.625  30.825  1.00  0.00     0.191 C 
BRANCH  14  15
ATOM     15  O   UNL     1      18.659  35.635  31.007  1.00  0.00    -0.394 OA
ATOM     16  H   UNL     1      18.632  35.065  30.202  1.00  0.00     0.210 HD
ENDBRANCH  14  15
ENDBRANCH   9  14
BRANCH  10  17
ATOM     17  O   UNL     1      18.268  38.881  32.280  1.00  0.00    -0.387 OA
ATOM     18  H   UNL     1      17.565  39.473  31.909  1.00  0.00     0.211 HD
ENDBRANCH  10  17
BRANCH  12  19
ATOM     19  O   UNL     1      17.151  39.092  35.123  1.00  0.00    -0.387 OA
ATOM     20  H   UNL     1      18.130  39.019  34.999  1.00  0.00     0.211 HD
ENDBRANCH  12  19
BRANCH  13  21
ATOM     21  O   UNL     1      15.877  36.607  35.125  1.00  0.00    -0.385 OA
ATOM     22  H   UNL     1      16.847  36.504  34.932  1.00  0.00     0.211 HD
ENDBRANCH  13  21
ENDBRANCH   7   8
ENDBRANCH   1   7
BRANCH   2  23
ATOM     23  C   UNL     1      12.812  34.940  32.918  1.00  0.00     0.191 C 
BRANCH  23  24
ATOM     24  O   UNL     1      12.981  33.605  33.315  1.00  0.00    -0.394 OA
ATOM     25  H   UNL     1      12.173  33.362  33.837  1.00  0.00     0.210 HD
ENDBRANCH  23  24
ENDBRANCH   2  23
BRANCH   6  26
ATOM     26  O   UNL     1      11.217  39.029  32.639  1.00  0.00    -0.387 OA
ATOM     27  H   UNL     1      11.234  39.896  33.112  1.00  0.00     0.211 HD
ENDBRANCH   6  26
BRANCH   5  28
ATOM     28  O   UNL     1       9.926  36.699  32.016  1.00  0.00    -0.385 OA
ATOM     29  H   UNL     1       8.995  36.408  31.853  1.00  0.00     0.211 HD
ENDBRANCH   5  28
BRANCH   4  30
ATOM     30  O   UNL     1       9.115  35.473  35.125  1.00  0.00    -0.341 OA
BRANCH  30  31
ATOM     31  C   UNL     1       8.403  34.247  34.943  1.00  0.00     0.184 C 
ATOM     32  C   UNL     1       7.061  34.574  34.215  1.00  0.00     0.178 C 
ATOM     33  C   UNL     1       9.222  33.260  34.060  1.00  0.00     0.180 C 
ATOM     34  O   UNL     1       6.341  33.401  33.876  1.00  0.00    -0.342 OA
ATOM     35  C   UNL     1       8.345  32.081  33.594  1.00  0.00     0.201 C 
ATOM     36  C   UNL     1       7.049  32.585  32.959  1.00  0.00     0.279 C 
BRANCH  32  37
ATOM     37  C   UNL     1       6.142  35.434  35.093  1.00  0.00     0.191 C 
BRANCH  37  38
ATOM     38  O   UNL     1       6.526  36.785  35.042  1.00  0.00    -0.394 OA
ATOM     39  H   UNL     1       6.985  36.936  34.171  1.00  0.00     0.210 HD
ENDBRANCH  37  38
ENDBRANCH  32  37
BRANCH  33  40
ATOM     40  O   UNL     1      10.302  32.736  34.787  1.00  0.00    -0.387 OA
ATOM     41  H   UNL     1      10.131  32.913  35.747  1.00  0.00     0.211 HD
ENDBRANCH  33  40
BRANCH  35  42
ATOM     42  O   UNL     1       8.035  31.263  34.698  1.00  0.00    -0.385 OA
ATOM     43  H   UNL     1       8.116  31.824  35.512  1.00  0.00     0.211 HD
ENDBRANCH  35  42
BRANCH  36  44
ATOM     44  O   UNL     1       7.324  33.273  31.764  1.00  0.00    -0.366 OA
ATOM     45  H   UNL     1       7.289  32.602  31.034  1.00  0.00     0.213 HD
ENDBRANCH  36  44
ENDBRANCH  30  31
ENDBRANCH   4  30
TORSDOF 18
ENDMDL
MODEL 4
REMARK VINA RESULT:    -2.557      1.748      2.546
REMARK INTER + INTRA:          -5.577
REMARK INTER:                  -3.926
REMARK INTRA:                  -1.650
REMARK UNBOUND:                -1.151
REMARK SMILES OC[C@@H]1O[C@H](O[C@H]2[C@@H](O)[C@@H](O)[C@H](O[C@@H]3[C@@H](O)[C@@H](O)[C@H](O)O[C@H]3CO)O[C@H]2CO)[C@@H](O)[C@@H](O)[C@@H]1O
REMARK SMILES IDX 7 1 26 2 25 3 12 4 10 5 8 6 6 7 5 8 3 9 33 10 4 11 31 12
REMARK SMILES IDX 29 13 2 14 1 15 34 17 32 19 30 21 27 23 28 24 9 26 11 28
REMARK SMILES IDX 13 30 14 31 22 32 15 33 21 34 17 35 19 36 23 37 24 38 16 40
REMARK SMILES IDX 18 42 20 44
REMARK H PARENT 1 16 34 18 32 20 30 22 28 25 9 27 11 29 24 39 16 41 18 43
REMARK H PARENT 20 45
REMARK Flexibility Score: inf
ROOT
ATOM      1  C   UNL     1      15.108  36.396  32.802  1.00  0.00     0.184 C 
ATOM      2  C   UNL     1      14.438  37.700  33.267  1.00  0.00     0.178 C 
ATOM      3  O   UNL     1      13.074  37.719  32.902  1.00  0.00    -0.341 OA
ATOM      4  C   UNL     1      12.269  36.785  33.593  1.00  0.00     0.282 C 
ATOM      5  C   UNL     1      12.880  35.350  33.736  1.00  0.00     0.202 C 
ATOM      6  C   UNL     1      14.175  35.152  32.910  1.00  0.00     0.180 C 
ENDROOT
BRANCH   1   7
ATOM      7  O   UNL     1      16.344  36.216  33.484  1.00  0.00    -0.341 OA
BRANCH   7   8
ATOM      8  C   UNL     1      17.427  36.760  32.743  1.00  0.00     0.282 C 
ATOM      9  C   UNL     1      19.464  37.879  32.965  1.00  0.00     0.178 C 
ATOM     10  C   UNL     1      20.386  36.629  32.855  1.00  0.00     0.177 C 
ATOM     11  O   UNL     1      18.256  37.520  33.614  1.00  0.00    -0.341 OA
ATOM     12  C   UNL     1      19.538  35.334  32.770  1.00  0.00     0.179 C 
ATOM     13  C   UNL     1      18.197  35.587  32.057  1.00  0.00     0.202 C 
BRANCH   9  14
ATOM     14  C   UNL     1      20.126  39.040  33.717  1.00  0.00     0.191 C 
BRANCH  14  15
ATOM     15  O   UNL     1      19.832  38.936  35.083  1.00  0.00    -0.394 OA
ATOM     16  H   UNL     1      19.017  39.469  35.236  1.00  0.00     0.210 HD
ENDBRANCH  14  15
ENDBRANCH   9  14
BRANCH  10  17
ATOM     17  O   UNL     1      21.242  36.542  33.969  1.00  0.00    -0.387 OA
ATOM     18  H   UNL     1      22.016  35.988  33.692  1.00  0.00     0.211 HD
ENDBRANCH  10  17
BRANCH  12  19
ATOM     19  O   UNL     1      20.248  34.324  32.108  1.00  0.00    -0.387 OA
ATOM     20  H   UNL     1      19.586  33.799  31.592  1.00  0.00     0.211 HD
ENDBRANCH  12  19
BRANCH  13  21
ATOM     21  O   UNL     1      18.429  35.910  30.704  1.00  0.00    -0.385 OA
ATOM     22  H   UNL     1      18.807  35.100  30.270  1.00  0.00     0.211 HD
ENDBRANCH  13  21
ENDBRANCH   7   8
ENDBRANCH   1   7
BRANCH   2  23
ATOM     23  C   UNL     1      14.712  38.154  34.719  1.00  0.00     0.191 C 
BRANCH  23  24
ATOM     24  O   UNL     1      16.003  38.679  34.875  1.00  0.00    -0.394 OA
ATOM     25  H   UNL     1      16.543  37.975  35.318  1.00  0.00     0.210 HD
ENDBRANCH  23  24
ENDBRANCH   2  23
BRANCH   6  26
ATOM     26  O   UNL     1      14.868  33.994  33.303  1.00  0.00    -0.387 OA
ATOM     27  H   UNL     1      14.204  33.372  33.689  1.00  0.00     0.211 HD
ENDBRANCH   6  26
BRANCH   5  28
ATOM     28  O   UNL     1      13.106  35.070  35.097  1.00  0.00    -0.385 OA
ATOM     29  H   UNL     1      14.082  34.973  35.226  1.00  0.00     0.211 HD
ENDBRANCH   5  28
BRANCH   4  30
ATOM     30  O   UNL     1      10.950  36.791  33.044  1.00  0.00    -0.341 OA
BRANCH  30  31
ATOM     31  C   UNL     1       9.929  36.262  33.893  1.00  0.00     0.184 C 
ATOM     32  C   UNL     1       8.966  37.431  34.270  1.00  0.00     0.178 C 
ATOM     33  C   UNL     1       9.114  35.161  33.155  1.00  0.00     0.180 C 
ATOM     34  O   UNL     1       7.845  36.976  35.011  1.00  0.00    -0.342 OA
ATOM     35  C   UNL     1       7.828  34.816  33.930  1.00  0.00     0.201 C 
ATOM     36  C   UNL     1       7.039  36.081  34.265  1.00  0.00     0.279 C 
BRANCH  32  37
ATOM     37  C   UNL     1       9.675  38.490  35.124  1.00  0.00     0.191 C 
BRANCH  37  38
ATOM     38  O   UNL     1      10.690  39.124  34.388  1.00  0.00    -0.394 OA
ATOM     39  H   UNL     1      10.252  39.703  33.707  1.00  0.00     0.210 HD
ENDBRANCH  37  38
ENDBRANCH  32  37
BRANCH  33  40
ATOM     40  O   UNL     1       9.875  33.988  33.034  1.00  0.00    -0.387 OA
ATOM     41  H   UNL     1       9.728  33.628  32.123  1.00  0.00     0.211 HD
ENDBRANCH  33  40
BRANCH  35  42
ATOM     42  O   UNL     1       8.164  34.147  35.123  1.00  0.00    -0.385 OA
ATOM     43  H   UNL     1       7.916  33.194  35.006  1.00  0.00     0.211 HD
ENDBRANCH  35  42
BRANCH  36  44
ATOM     44  O   UNL     1       6.554  36.683  33.090  1.00  0.00    -0.366 OA
ATOM     45  H   UNL     1       5.784  36.135  32.786  1.00  0.00     0.213 HD
ENDBRANCH  36  44
ENDBRANCH  30  31
ENDBRANCH   4  30
TORSDOF 18
ENDMDL
MODEL 5
REMARK VINA RESULT:    -2.422      1.283      1.886
REMARK INTER + INTRA:          -5.343
REMARK INTER:                  -5.372
REMARK INTRA:                   0.028
REMARK UNBOUND:                -1.151
REMARK SMILES OC[C@@H]1O[C@H](O[C@H]2[C@@H](O)[C@@H](O)[C@H](O[C@@H]3[C@@H](O)[C@@H](O)[C@H](O)O[C@H]3CO)O[C@H]2CO)[C@@H](O)[C@@H](O)[C@@H]1O
REMARK SMILES IDX 7 1 26 2 25 3 12 4 10 5 8 6 6 7 5 8 3 9 33 10 4 11 31 12
REMARK SMILES IDX 29 13 2 14 1 15 34 17 32 19 30 21 27 23 28 24 9 26 11 28
REMARK SMILES IDX 13 30 14 31 22 32 15 33 21 34 17 35 19 36 23 37 24 38 16 40
REMARK SMILES IDX 18 42 20 44
REMARK H PARENT 1 16 34 18 32 20 30 22 28 25 9 27 11 29 24 39 16 41 18 43
REMARK H PARENT 20 45
REMARK Flexibility Score: inf
ROOT
ATOM      1  C   UNL     1      13.999  36.122  34.056  1.00  0.00     0.184 C 
ATOM      2  C   UNL     1      13.269  35.253  35.094  1.00  0.00     0.178 C 
ATOM      3  O   UNL     1      11.884  35.528  35.091  1.00  0.00    -0.341 OA
ATOM      4  C   UNL     1      11.205  35.114  33.921  1.00  0.00     0.282 C 
ATOM      5  C   UNL     1      11.932  35.441  32.573  1.00  0.00     0.202 C 
ATOM      6  C   UNL     1      13.174  36.351  32.754  1.00  0.00     0.180 C 
ENDROOT
BRANCH   1   7
ATOM      7  O   UNL     1      15.292  35.587  33.800  1.00  0.00    -0.341 OA
BRANCH   7   8
ATOM      8  C   UNL     1      16.190  36.596  33.357  1.00  0.00     0.282 C 
ATOM      9  C   UNL     1      18.134  37.749  33.940  1.00  0.00     0.178 C 
ATOM     10  C   UNL     1      19.128  36.894  33.101  1.00  0.00     0.177 C 
ATOM     11  O   UNL     1      17.083  36.925  34.415  1.00  0.00    -0.341 OA
ATOM     12  C   UNL     1      18.390  35.709  32.428  1.00  0.00     0.179 C 
ATOM     13  C   UNL     1      16.934  36.075  32.086  1.00  0.00     0.202 C 
BRANCH   9  14
ATOM     14  C   UNL     1      18.809  38.452  35.125  1.00  0.00     0.191 C 
BRANCH  14  15
ATOM     15  O   UNL     1      20.158  38.680  34.821  1.00  0.00    -0.394 OA
ATOM     16  H   UNL     1      20.236  39.637  34.596  1.00  0.00     0.210 HD
ENDBRANCH  14  15
ENDBRANCH   9  14
BRANCH  10  17
ATOM     17  O   UNL     1      20.159  36.386  33.915  1.00  0.00    -0.387 OA
ATOM     18  H   UNL     1      21.006  36.780  33.582  1.00  0.00     0.211 HD
ENDBRANCH  10  17
BRANCH  12  19
ATOM     19  O   UNL     1      19.064  35.303  31.269  1.00  0.00    -0.387 OA
ATOM     20  H   UNL     1      19.158  34.319  31.321  1.00  0.00     0.211 HD
ENDBRANCH  12  19
BRANCH  13  21
ATOM     21  O   UNL     1      16.913  37.074  31.092  1.00  0.00    -0.385 OA
ATOM     22  H   UNL     1      17.069  37.944  31.547  1.00  0.00     0.211 HD
ENDBRANCH  13  21
ENDBRANCH   7   8
ENDBRANCH   1   7
BRANCH   2  23
ATOM     23  C   UNL     1      13.615  33.746  35.120  1.00  0.00     0.191 C 
BRANCH  23  24
ATOM     24  O   UNL     1      13.762  33.215  33.831  1.00  0.00    -0.394 OA
ATOM     25  H   UNL     1      14.438  33.775  33.370  1.00  0.00     0.210 HD
ENDBRANCH  23  24
ENDBRANCH   2  23
BRANCH   6  26
ATOM     26  O   UNL     1      13.980  36.360  31.602  1.00  0.00    -0.387 OA
ATOM     27  H   UNL     1      13.991  37.287  31.260  1.00  0.00     0.211 HD
ENDBRANCH   6  26
BRANCH   5  28
ATOM     28  O   UNL     1      12.281  34.242  31.925  1.00  0.00    -0.385 OA
ATOM     29  H   UNL     1      11.534  33.604  32.048  1.00  0.00     0.211 HD
ENDBRANCH   5  28
BRANCH   4  30
ATOM     30  O   UNL     1       9.853  35.571  33.965  1.00  0.00    -0.341 OA
BRANCH  30  31
ATOM     31  C   UNL     1       8.888  34.593  34.360  1.00  0.00     0.184 C 
ATOM     32  C   UNL     1       7.473  35.133  33.978  1.00  0.00     0.178 C 
ATOM     33  C   UNL     1       9.128  33.249  33.612  1.00  0.00     0.180 C 
ATOM     34  O   UNL     1       6.456  34.173  34.216  1.00  0.00    -0.342 OA
ATOM     35  C   UNL     1       7.923  32.303  33.779  1.00  0.00     0.201 C 
ATOM     36  C   UNL     1       6.619  33.014  33.417  1.00  0.00     0.279 C 
BRANCH  32  37
ATOM     37  C   UNL     1       7.114  36.386  34.787  1.00  0.00     0.191 C 
BRANCH  37  38
ATOM     38  O   UNL     1       8.029  37.421  34.535  1.00  0.00    -0.394 OA
ATOM     39  H   UNL     1       8.905  37.002  34.312  1.00  0.00     0.210 HD
ENDBRANCH  37  38
ENDBRANCH  32  37
BRANCH  33  40
ATOM     40  O   UNL     1      10.262  32.601  34.124  1.00  0.00    -0.387 OA
ATOM     41  H   UNL     1      10.936  32.559  33.399  1.00  0.00     0.211 HD
ENDBRANCH  33  40
BRANCH  35  42
ATOM     42  O   UNL     1       7.856  31.860  35.115  1.00  0.00    -0.385 OA
ATOM     43  H   UNL     1       7.508  32.614  35.657  1.00  0.00     0.211 HD
ENDBRANCH  35  42
BRANCH  36  44
ATOM     44  O   UNL     1       6.594  33.326  32.047  1.00  0.00    -0.366 OA
ATOM     45  H   UNL     1       5.711  33.741  31.864  1.00  0.00     0.213 HD
ENDBRANCH  36  44
ENDBRANCH  30  31
ENDBRANCH   4  30
TORSDOF 18
ENDMDL
MODEL 6
REMARK VINA RESULT:    -2.380      1.691      8.904
REMARK INTER + INTRA:          -5.271
REMARK INTER:                  -4.523
REMARK INTRA:                  -0.748
REMARK UNBOUND:                -1.151
REMARK SMILES OC[C@@H]1O[C@H](O[C@H]2[C@@H](O)[C@@H](O)[C@H](O[C@@H]3[C@@H](O)[C@@H](O)[C@H](O)O[C@H]3CO)O[C@H]2CO)[C@@H](O)[C@@H](O)[C@@H]1O
REMARK SMILES IDX 7 1 26 2 25 3 12 4 10 5 8 6 6 7 5 8 3 9 33 10 4 11 31 12
REMARK SMILES IDX 29 13 2 14 1 15 34 17 32 19 30 21 27 23 28 24 9 26 11 28
REMARK SMILES IDX 13 30 14 31 22 32 15 33 21 34 17 35 19 36 23 37 24 38 16 40
REMARK SMILES IDX 18 42 20 44
REMARK H PARENT 1 16 34 18 32 20 30 22 28 25 9 27 11 29 24 39 16 41 18 43
REMARK H PARENT 20 45
REMARK Flexibility Score: inf
ROOT
ATOM      1  C   UNL     1      11.335  34.998  33.879  1.00  0.00     0.184 C 
ATOM      2  C   UNL     1      12.645  34.278  33.517  1.00  0.00     0.178 C 
ATOM      3  O   UNL     1      13.338  34.977  32.505  1.00  0.00    -0.341 OA
ATOM      4  C   UNL     1      13.863  36.227  32.909  1.00  0.00     0.282 C 
ATOM      5  C   UNL     1      12.897  37.115  33.764  1.00  0.00     0.202 C 
ATOM      6  C   UNL     1      11.456  36.552  33.840  1.00  0.00     0.180 C 
ENDROOT
BRANCH   1   7
ATOM      7  O   UNL     1      10.845  34.517  35.125  1.00  0.00    -0.341 OA
BRANCH   7   8
ATOM      8  C   UNL     1       9.562  33.924  34.980  1.00  0.00     0.282 C 
ATOM      9  C   UNL     1       7.307  34.418  34.629  1.00  0.00     0.178 C 
ATOM     10  C   UNL     1       7.287  34.160  33.093  1.00  0.00     0.177 C 
ATOM     11  O   UNL     1       8.569  34.943  35.005  1.00  0.00    -0.341 OA
ATOM     12  C   UNL     1       8.713  33.832  32.580  1.00  0.00     0.179 C 
ATOM     13  C   UNL     1       9.542  33.102  33.651  1.00  0.00     0.202 C 
BRANCH   9  14
ATOM     14  C   UNL     1       6.198  35.374  35.085  1.00  0.00     0.191 C 
BRANCH  14  15
ATOM     15  O   UNL     1       6.380  36.622  34.475  1.00  0.00    -0.394 OA
ATOM     16  H   UNL     1       5.709  37.227  34.868  1.00  0.00     0.210 HD
ENDBRANCH  14  15
ENDBRANCH   9  14
BRANCH  10  17
ATOM     17  O   UNL     1       6.802  35.288  32.405  1.00  0.00    -0.387 OA
ATOM     18  H   UNL     1       6.068  34.971  31.819  1.00  0.00     0.211 HD
ENDBRANCH  10  17
BRANCH  12  19
ATOM     19  O   UNL     1       8.649  33.057  31.414  1.00  0.00    -0.387 OA
ATOM     20  H   UNL     1       9.563  33.035  31.034  1.00  0.00     0.211 HD
ENDBRANCH  12  19
BRANCH  13  21
ATOM     21  O   UNL     1       8.988  31.829  33.899  1.00  0.00    -0.385 OA
ATOM     22  H   UNL     1       9.037  31.317  33.048  1.00  0.00     0.211 HD
ENDBRANCH  13  21
ENDBRANCH   7   8
ENDBRANCH   1   7
BRANCH   2  23
ATOM     23  C   UNL     1      13.538  33.810  34.689  1.00  0.00     0.191 C 
BRANCH  23  24
ATOM     24  O   UNL     1      13.432  32.431  34.918  1.00  0.00    -0.394 OA
ATOM     25  H   UNL     1      12.551  32.283  35.348  1.00  0.00     0.210 HD
ENDBRANCH  23  24
ENDBRANCH   2  23
BRANCH   6  26
ATOM     26  O   UNL     1      10.710  37.174  34.857  1.00  0.00    -0.387 OA
ATOM     27  H   UNL     1       9.830  37.408  34.473  1.00  0.00     0.211 HD
ENDBRANCH   6  26
BRANCH   5  28
ATOM     28  O   UNL     1      13.436  37.288  35.052  1.00  0.00    -0.385 OA
ATOM     29  H   UNL     1      13.994  38.105  35.039  1.00  0.00     0.211 HD
ENDBRANCH   5  28
BRANCH   4  30
ATOM     30  O   UNL     1      14.409  36.904  31.777  1.00  0.00    -0.341 OA
BRANCH  30  31
ATOM     31  C   UNL     1      15.837  36.965  31.728  1.00  0.00     0.184 C 
ATOM     32  C   UNL     1      16.252  38.468  31.665  1.00  0.00     0.178 C 
ATOM     33  C   UNL     1      16.459  36.328  33.005  1.00  0.00     0.180 C 
ATOM     34  O   UNL     1      17.658  38.635  31.742  1.00  0.00    -0.342 OA
ATOM     35  C   UNL     1      17.957  36.670  33.116  1.00  0.00     0.201 C 
ATOM     36  C   UNL     1      18.183  38.175  32.975  1.00  0.00     0.279 C 
BRANCH  32  37
ATOM     37  C   UNL     1      15.788  39.124  30.358  1.00  0.00     0.191 C 
BRANCH  37  38
ATOM     38  O   UNL     1      16.706  38.875  29.323  1.00  0.00    -0.394 OA
ATOM     39  H   UNL     1      17.389  39.599  29.345  1.00  0.00     0.210 HD
ENDBRANCH  37  38
ENDBRANCH  32  37
BRANCH  33  40
ATOM     40  O   UNL     1      16.335  34.931  32.964  1.00  0.00    -0.387 OA
ATOM     41  H   UNL     1      15.538  34.685  33.498  1.00  0.00     0.211 HD
ENDBRANCH  33  40
BRANCH  35  42
ATOM     42  O   UNL     1      18.669  35.996  32.105  1.00  0.00    -0.385 OA
ATOM     43  H   UNL     1      18.746  35.047  32.383  1.00  0.00     0.211 HD
ENDBRANCH  35  42
BRANCH  36  44
ATOM     44  O   UNL     1      17.616  38.861  34.064  1.00  0.00    -0.366 OA
ATOM     45  H   UNL     1      17.389  38.176  34.746  1.00  0.00     0.213 HD
ENDBRANCH  36  44
ENDBRANCH  30  31
ENDBRANCH   4  30
TORSDOF 18
ENDMDL
MODEL 7
REMARK VINA RESULT:    -2.369      1.685      9.361
REMARK INTER + INTRA:          -5.251
REMARK INTER:                  -4.647
REMARK INTRA:                  -0.604
REMARK UNBOUND:                -1.151
REMARK SMILES OC[C@@H]1O[C@H](O[C@H]2[C@@H](O)[C@@H](O)[C@H](O[C@@H]3[C@@H](O)[C@@H](O)[C@H](O)O[C@H]3CO)O[C@H]2CO)[C@@H](O)[C@@H](O)[C@@H]1O
REMARK SMILES IDX 7 1 26 2 25 3 12 4 10 5 8 6 6 7 5 8 3 9 33 10 4 11 31 12
REMARK SMILES IDX 29 13 2 14 1 15 34 17 32 19 30 21 27 23 28 24 9 26 11 28
REMARK SMILES IDX 13 30 14 31 22 32 15 33 21 34 17 35 19 36 23 37 24 38 16 40
REMARK SMILES IDX 18 42 20 44
REMARK H PARENT 1 16 34 18 32 20 30 22 28 25 9 27 11 29 24 39 16 41 18 43
REMARK H PARENT 20 45
REMARK Flexibility Score: inf
ROOT
ATOM      1  C   UNL     1      10.110  34.764  33.050  1.00  0.00     0.184 C 
ATOM      2  C   UNL     1      11.557  34.290  33.264  1.00  0.00     0.178 C 
ATOM      3  O   UNL     1      12.467  35.149  32.610  1.00  0.00    -0.341 OA
ATOM      4  C   UNL     1      12.560  36.443  33.173  1.00  0.00     0.282 C 
ATOM      5  C   UNL     1      11.194  37.111  33.548  1.00  0.00     0.202 C 
ATOM      6  C   UNL     1       9.965  36.316  33.039  1.00  0.00     0.180 C 
ENDROOT
BRANCH   1   7
ATOM      7  O   UNL     1       9.250  34.139  33.996  1.00  0.00    -0.341 OA
BRANCH   7   8
ATOM      8  C   UNL     1       8.767  32.894  33.510  1.00  0.00     0.282 C 
ATOM      9  C   UNL     1       7.270  31.164  33.977  1.00  0.00     0.178 C 
ATOM     10  C   UNL     1       6.115  31.651  33.053  1.00  0.00     0.177 C 
ATOM     11  O   UNL     1       7.956  32.284  34.508  1.00  0.00    -0.341 OA
ATOM     12  C   UNL     1       6.472  33.016  32.411  1.00  0.00     0.179 C 
ATOM     13  C   UNL     1       7.988  33.149  32.180  1.00  0.00     0.202 C 
BRANCH   9  14
ATOM     14  C   UNL     1       6.778  30.272  35.124  1.00  0.00     0.191 C 
BRANCH  14  15
ATOM     15  O   UNL     1       5.790  29.402  34.644  1.00  0.00    -0.394 OA
ATOM     16  H   UNL     1       6.151  28.995  33.822  1.00  0.00     0.210 HD
ENDBRANCH  14  15
ENDBRANCH   9  14
BRANCH  10  17
ATOM     17  O   UNL     1       4.918  31.788  33.783  1.00  0.00    -0.387 OA
ATOM     18  H   UNL     1       4.553  30.875  33.906  1.00  0.00     0.211 HD
ENDBRANCH  10  17
BRANCH  12  19
ATOM     19  O   UNL     1       5.788  33.184  31.200  1.00  0.00    -0.387 OA
ATOM     20  H   UNL     1       6.462  33.443  30.523  1.00  0.00     0.211 HD
ENDBRANCH  12  19
BRANCH  13  21
ATOM     21  O   UNL     1       8.407  32.216  31.209  1.00  0.00    -0.385 OA
ATOM     22  H   UNL     1       7.686  32.160  30.527  1.00  0.00     0.211 HD
ENDBRANCH  13  21
ENDBRANCH   7   8
ENDBRANCH   1   7
BRANCH   2  23
ATOM     23  C   UNL     1      11.968  33.910  34.705  1.00  0.00     0.191 C 
BRANCH  23  24
ATOM     24  O   UNL     1      13.250  33.342  34.757  1.00  0.00    -0.394 OA
ATOM     25  H   UNL     1      13.705  33.744  35.542  1.00  0.00     0.210 HD
ENDBRANCH  23  24
ENDBRANCH   2  23
BRANCH   6  26
ATOM     26  O   UNL     1       8.778  36.748  33.655  1.00  0.00    -0.387 OA
ATOM     27  H   UNL     1       8.470  36.017  34.244  1.00  0.00     0.211 HD
ENDBRANCH   6  26
BRANCH   5  28
ATOM     28  O   UNL     1      11.129  37.297  34.941  1.00  0.00    -0.385 OA
ATOM     29  H   UNL     1      10.516  38.054  35.116  1.00  0.00     0.211 HD
ENDBRANCH   5  28
BRANCH   4  30
ATOM     30  O   UNL     1      13.390  37.264  32.351  1.00  0.00    -0.341 OA
BRANCH  30  31
ATOM     31  C   UNL     1      14.797  37.128  32.570  1.00  0.00     0.184 C 
ATOM     32  C   UNL     1      15.449  38.535  32.386  1.00  0.00     0.178 C 
ATOM     33  C   UNL     1      15.084  36.629  34.016  1.00  0.00     0.180 C 
ATOM     34  O   UNL     1      16.830  38.525  32.709  1.00  0.00    -0.342 OA
ATOM     35  C   UNL     1      16.576  36.785  34.366  1.00  0.00     0.201 C 
ATOM     36  C   UNL     1      17.058  38.205  34.070  1.00  0.00     0.279 C 
BRANCH  32  37
ATOM     37  C   UNL     1      15.324  39.027  30.939  1.00  0.00     0.191 C 
BRANCH  37  38
ATOM     38  O   UNL     1      16.453  38.656  30.188  1.00  0.00    -0.394 OA
ATOM     39  H   UNL     1      17.020  38.075  30.763  1.00  0.00     0.210 HD
ENDBRANCH  37  38
ENDBRANCH  32  37
BRANCH  33  40
ATOM     40  O   UNL     1      14.749  35.272  34.139  1.00  0.00    -0.387 OA
ATOM     41  H   UNL     1      14.169  35.035  33.371  1.00  0.00     0.211 HD
ENDBRANCH  33  40
BRANCH  35  42
ATOM     42  O   UNL     1      17.333  35.869  33.609  1.00  0.00    -0.385 OA
ATOM     43  H   UNL     1      17.329  35.008  34.101  1.00  0.00     0.211 HD
ENDBRANCH  35  42
BRANCH  36  44
ATOM     44  O   UNL     1      16.430  39.125  34.928  1.00  0.00    -0.366 OA
ATOM     45  H   UNL     1      15.506  39.249  34.585  1.00  0.00     0.213 HD
ENDBRANCH  36  44
ENDBRANCH  30  31
ENDBRANCH   4  30
TORSDOF 18
ENDMDL
MODEL 8
REMARK VINA RESULT:    -2.301      1.545      9.109
REMARK INTER + INTRA:          -5.133
REMARK INTER:                  -4.310
REMARK INTRA:                  -0.823
REMARK UNBOUND:                -1.151
REMARK SMILES OC[C@@H]1O[C@H](O[C@H]2[C@@H](O)[C@@H](O)[C@H](O[C@@H]3[C@@H](O)[C@@H](O)[C@H](O)O[C@H]3CO)O[C@H]2CO)[C@@H](O)[C@@H](O)[C@@H]1O
REMARK SMILES IDX 7 1 26 2 25 3 12 4 10 5 8 6 6 7 5 8 3 9 33 10 4 11 31 12
REMARK SMILES IDX 29 13 2 14 1 15 34 17 32 19 30 21 27 23 28 24 9 26 11 28
REMARK SMILES IDX 13 30 14 31 22 32 15 33 21 34 17 35 19 36 23 37 24 38 16 40
REMARK SMILES IDX 18 42 20 44
REMARK H PARENT 1 16 34 18 32 20 30 22 28 25 9 27 11 29 24 39 16 41 18 43
REMARK H PARENT 20 45
REMARK Flexibility Score: inf
ROOT
ATOM      1  C   UNL     1      10.638  35.886  34.201  1.00  0.00     0.184 C 
ATOM      2  C   UNL     1      10.643  37.395  33.902  1.00  0.00     0.178 C 
ATOM      3  O   UNL     1      11.882  37.971  34.259  1.00  0.00    -0.341 OA
ATOM      4  C   UNL     1      12.971  37.570  33.450  1.00  0.00     0.282 C 
ATOM      5  C   UNL     1      13.038  36.038  33.129  1.00  0.00     0.202 C 
ATOM      6  C   UNL     1      12.011  35.200  33.931  1.00  0.00     0.180 C 
ENDROOT
BRANCH   1   7
ATOM      7  O   UNL     1       9.565  35.258  33.509  1.00  0.00    -0.341 OA
BRANCH   7   8
ATOM      8  C   UNL     1       8.865  34.355  34.352  1.00  0.00     0.282 C 
ATOM      9  C   UNL     1       6.732  33.558  34.869  1.00  0.00     0.178 C 
ATOM     10  C   UNL     1       6.793  32.263  34.007  1.00  0.00     0.177 C 
ATOM     11  O   UNL     1       7.466  34.588  34.230  1.00  0.00    -0.341 OA
ATOM     12  C   UNL     1       8.114  32.210  33.199  1.00  0.00     0.179 C 
ATOM     13  C   UNL     1       9.264  32.897  33.958  1.00  0.00     0.202 C 
BRANCH   9  14
ATOM     14  C   UNL     1       5.297  34.034  35.125  1.00  0.00     0.191 C 
BRANCH  14  15
ATOM     15  O   UNL     1       5.259  35.434  35.089  1.00  0.00    -0.394 OA
ATOM     16  H   UNL     1       4.491  35.708  35.645  1.00  0.00     0.210 HD
ENDBRANCH  14  15
ENDBRANCH   9  14
BRANCH  10  17
ATOM     17  O   UNL     1       5.707  32.209  33.112  1.00  0.00    -0.387 OA
ATOM     18  H   UNL     1       5.171  31.413  33.360  1.00  0.00     0.211 HD
ENDBRANCH  10  17
BRANCH  12  19
ATOM     19  O   UNL     1       8.460  30.884  32.907  1.00  0.00    -0.387 OA
ATOM     20  H   UNL     1       9.431  30.797  33.077  1.00  0.00     0.211 HD
ENDBRANCH  12  19
BRANCH  13  21
ATOM     21  O   UNL     1       9.570  32.166  35.125  1.00  0.00    -0.385 OA
ATOM     22  H   UNL     1       8.848  32.349  35.783  1.00  0.00     0.211 HD
ENDBRANCH  13  21
ENDBRANCH   7   8
ENDBRANCH   1   7
BRANCH   2  23
ATOM     23  C   UNL     1      10.111  37.841  32.521  1.00  0.00     0.191 C 
BRANCH  23  24
ATOM     24  O   UNL     1       8.722  37.683  32.412  1.00  0.00    -0.394 OA
ATOM     25  H   UNL     1       8.462  38.066  31.535  1.00  0.00     0.210 HD
ENDBRANCH  23  24
ENDBRANCH   2  23
BRANCH   6  26
ATOM     26  O   UNL     1      11.870  33.907  33.398  1.00  0.00    -0.387 OA
ATOM     27  H   UNL     1      11.275  33.978  32.611  1.00  0.00     0.211 HD
ENDBRANCH   6  26
BRANCH   5  28
ATOM     28  O   UNL     1      12.874  35.841  31.745  1.00  0.00    -0.385 OA
ATOM     29  H   UNL     1      12.784  34.868  31.588  1.00  0.00     0.211 HD
ENDBRANCH   5  28
BRANCH   4  30
ATOM     30  O   UNL     1      14.185  38.094  33.988  1.00  0.00    -0.341 OA
BRANCH  30  31
ATOM     31  C   UNL     1      15.386  37.563  33.423  1.00  0.00     0.184 C 
ATOM     32  C   UNL     1      16.078  38.702  32.609  1.00  0.00     0.178 C 
ATOM     33  C   UNL     1      16.358  37.087  34.541  1.00  0.00     0.180 C 
ATOM     34  O   UNL     1      17.346  38.306  32.113  1.00  0.00    -0.342 OA
ATOM     35  C   UNL     1      17.764  36.817  33.970  1.00  0.00     0.201 C 
ATOM     36  C   UNL     1      18.259  38.012  33.157  1.00  0.00     0.279 C 
BRANCH  32  37
ATOM     37  C   UNL     1      15.230  39.125  31.402  1.00  0.00     0.191 C 
BRANCH  37  38
ATOM     38  O   UNL     1      15.493  38.298  30.296  1.00  0.00    -0.394 OA
ATOM     39  H   UNL     1      16.420  38.490  29.989  1.00  0.00     0.210 HD
ENDBRANCH  37  38
ENDBRANCH  32  37
BRANCH  33  40
ATOM     40  O   UNL     1      15.890  35.898  35.120  1.00  0.00    -0.387 OA
ATOM     41  H   UNL     1      15.519  35.336  34.394  1.00  0.00     0.211 HD
ENDBRANCH  33  40
BRANCH  35  42
ATOM     42  O   UNL     1      17.723  35.676  33.144  1.00  0.00    -0.385 OA
ATOM     43  H   UNL     1      18.523  35.131  33.357  1.00  0.00     0.211 HD
ENDBRANCH  35  42
BRANCH  36  44
ATOM     44  O   UNL     1      18.460  39.125  33.993  1.00  0.00    -0.366 OA
ATOM     45  H   UNL     1      19.197  39.655  33.590  1.00  0.00     0.213 HD
ENDBRANCH  36  44
ENDBRANCH  30  31
ENDBRANCH   4  30
TORSDOF 18
ENDMDL
