MODEL 1
REMARK VINA RESULT:    -3.676      0.000      0.000
REMARK INTER + INTRA:          -4.528
REMARK INTER:                  -5.181
REMARK INTRA:                   0.653
REMARK UNBOUND:                 0.653
REMARK SMILES CC1=CCC(=C(C)C)C(=O)CC(C)=CCC1
REMARK SMILES IDX 12 1 14 2 13 3 15 4 16 5 2 6 1 7 3 8 11 10 9 11 10 12 5 13
REMARK SMILES IDX 6 14 7 15 8 16 4 17
REMARK H PARENT
REMARK Flexibility Score: 60.00
ROOT
ATOM      1  C   UNL     1     -15.865   6.990  27.214  1.00  0.00    -0.070 C 
ATOM      2  C   UNL     1     -16.435   6.065  28.022  1.00  0.00    -0.027 C 
ATOM      3  C   UNL     1     -16.786   7.836  26.369  1.00  0.00     0.039 C 
ENDROOT
BRANCH   2   4
ATOM      4  C   UNL     1     -15.720   5.190  29.023  1.00  0.00     0.032 C 
BRANCH   4   5
ATOM      5  C   UNL     1     -15.836   3.690  28.689  1.00  0.00     0.034 C 
BRANCH   5   6
ATOM      6  C   UNL     1     -15.632   3.417  27.211  1.00  0.00    -0.077 C 
ATOM      7  C   UNL     1     -16.775   2.819  26.430  1.00  0.00     0.039 C 
ATOM      8  C   UNL     1     -14.474   3.655  26.556  1.00  0.00    -0.023 CG0
ATOM      9  G   UNL     1     -13.212   4.213  27.170  1.00  0.00     0.000 G0
ENDBRANCH   5   6
ENDBRANCH   4   5
ENDBRANCH   2   4
BRANCH   1  10
ATOM     10  C   UNL     1     -14.371   7.263  27.165  1.00  0.00     0.111 C 
BRANCH  10  11
ATOM     11  C   UNL     1     -13.700   6.478  26.066  1.00  0.00     0.163 C 
ATOM     12  O   UNL     1     -14.029   6.727  24.874  1.00  0.00    -0.294 OA
BRANCH  11  13
ATOM     13  C   UNL     1     -12.711   5.395  26.357  1.00  0.00    -0.002 C 
ATOM     14  C   UNL     1     -11.398   5.501  25.989  1.00  0.00    -0.069 C 
ATOM     15  C   UNL     1     -10.858   6.752  25.333  1.00  0.00     0.039 C 
ATOM     16  C   UNL     1     -10.412   4.384  26.253  1.00  0.00     0.039 C 
BRANCH  13  17
ATOM     17  C   UNL     1     -13.210   4.199  27.148  1.00  0.00     0.066 CG0
ATOM     18  G   UNL     1     -14.475   3.662  26.521  1.00  0.00     0.000 G0
ENDBRANCH  13  17
ENDBRANCH  11  13
ENDBRANCH  10  11
ENDBRANCH   1  10
TORSDOF 0
ENDMDL
MODEL 2
REMARK VINA RESULT:    -3.594      1.696      4.085
REMARK INTER + INTRA:          -4.412
REMARK INTER:                  -5.047
REMARK INTRA:                   0.635
REMARK UNBOUND:                 0.653
REMARK SMILES CC1=CCC(=C(C)C)C(=O)CC(C)=CCC1
REMARK SMILES IDX 12 1 14 2 13 3 15 4 16 5 2 6 1 7 3 8 11 10 9 11 10 12 5 13
REMARK SMILES IDX 6 14 7 15 8 16 4 17
REMARK H PARENT
REMARK Flexibility Score: 60.00
ROOT
ATOM      1  C   UNL     1     -16.827   7.169  27.505  1.00  0.00    -0.070 C 
ATOM      2  C   UNL     1     -16.104   7.909  26.631  1.00  0.00    -0.027 C 
ATOM      3  C   UNL     1     -18.320   7.390  27.532  1.00  0.00     0.039 C 
ENDROOT
BRANCH   2   4
ATOM      4  C   UNL     1     -14.624   7.778  26.361  1.00  0.00     0.032 C 
BRANCH   4   5
ATOM      5  C   UNL     1     -14.276   6.500  25.573  1.00  0.00     0.034 C 
BRANCH   5   6
ATOM      6  C   UNL     1     -13.287   5.622  26.316  1.00  0.00    -0.077 C 
ATOM      7  C   UNL     1     -11.915   6.176  26.604  1.00  0.00     0.039 C 
ATOM      8  C   UNL     1     -13.557   4.358  26.714  1.00  0.00    -0.023 CG0
ATOM      9  G   UNL     1     -14.854   3.620  26.486  1.00  0.00     0.000 G0
ENDBRANCH   5   6
ENDBRANCH   4   5
ENDBRANCH   2   4
BRANCH   1  10
ATOM     10  C   UNL     1     -16.231   6.096  28.400  1.00  0.00     0.111 C 
BRANCH  10  11
ATOM     11  C   UNL     1     -16.664   4.715  27.974  1.00  0.00     0.163 C 
ATOM     12  O   UNL     1     -17.899   4.501  27.826  1.00  0.00    -0.294 OA
BRANCH  11  13
ATOM     13  C   UNL     1     -15.685   3.602  27.778  1.00  0.00    -0.002 C 
ATOM     14  C   UNL     1     -15.576   2.574  28.673  1.00  0.00    -0.069 C 
ATOM     15  C   UNL     1     -16.490   2.466  29.872  1.00  0.00     0.039 C 
ATOM     16  C   UNL     1     -14.555   1.471  28.486  1.00  0.00     0.039 C 
BRANCH  13  17
ATOM     17  C   UNL     1     -14.865   3.622  26.501  1.00  0.00     0.066 CG0
ATOM     18  G   UNL     1     -13.569   4.362  26.734  1.00  0.00     0.000 G0
ENDBRANCH  13  17
ENDBRANCH  11  13
ENDBRANCH  10  11
ENDBRANCH   1  10
TORSDOF 0
ENDMDL
MODEL 3
REMARK VINA RESULT:    -3.554      6.488      8.211
REMARK INTER + INTRA:          -4.355
REMARK INTER:                  -4.676
REMARK INTRA:                   0.320
REMARK UNBOUND:                 0.653
REMARK SMILES CC1=CCC(=C(C)C)C(=O)CC(C)=CCC1
REMARK SMILES IDX 12 1 14 2 13 3 15 4 16 5 2 6 1 7 3 8 11 10 9 11 10 12 5 13
REMARK SMILES IDX 6 14 7 15 8 16 4 17
REMARK H PARENT
REMARK Flexibility Score: 60.00
ROOT
ATOM      1  C   UNL     1     -14.778  -0.231  28.495  1.00  0.00    -0.070 C 
ATOM      2  C   UNL     1     -15.297  -0.713  27.341  1.00  0.00    -0.027 C 
ATOM      3  C   UNL     1     -13.299  -0.426  28.726  1.00  0.00     0.039 C 
ENDROOT
BRANCH   2   4
ATOM      4  C   UNL     1     -16.717  -0.537  26.858  1.00  0.00     0.032 C 
BRANCH   4   5
ATOM      5  C   UNL     1     -17.689  -1.550  27.495  1.00  0.00     0.034 C 
BRANCH   5   6
ATOM      6  C   UNL     1     -18.886  -0.871  28.132  1.00  0.00    -0.077 C 
ATOM      7  C   UNL     1     -19.862  -0.153  27.234  1.00  0.00     0.039 C 
ATOM      8  C   UNL     1     -19.118  -0.850  29.464  1.00  0.00    -0.023 CG0
ATOM      9  G   UNL     1     -18.241  -1.478  30.521  1.00  0.00     0.000 G0
ENDBRANCH   5   6
ENDBRANCH   4   5
ENDBRANCH   2   4
BRANCH   1  10
ATOM     10  C   UNL     1     -15.583   0.546  29.525  1.00  0.00     0.111 C 
BRANCH  10  11
ATOM     11  C   UNL     1     -15.950  -0.317  30.706  1.00  0.00     0.163 C 
ATOM     12  O   UNL     1     -15.035  -0.988  31.258  1.00  0.00    -0.294 OA
BRANCH  11  13
ATOM     13  C   UNL     1     -17.358  -0.432  31.196  1.00  0.00    -0.002 C 
ATOM     14  C   UNL     1     -17.861   0.414  32.146  1.00  0.00    -0.069 C 
ATOM     15  C   UNL     1     -17.043   1.559  32.700  1.00  0.00     0.039 C 
ATOM     16  C   UNL     1     -19.276   0.267  32.664  1.00  0.00     0.039 C 
BRANCH  13  17
ATOM     17  C   UNL     1     -18.234  -1.482  30.538  1.00  0.00     0.066 CG0
ATOM     18  G   UNL     1     -19.088  -0.842  29.470  1.00  0.00     0.000 G0
ENDBRANCH  13  17
ENDBRANCH  11  13
ENDBRANCH  10  11
ENDBRANCH   1  10
TORSDOF 0
ENDMDL
MODEL 4
REMARK VINA RESULT:    -3.474      7.558      8.855
REMARK INTER + INTRA:          -4.243
REMARK INTER:                  -4.722
REMARK INTRA:                   0.479
REMARK UNBOUND:                 0.653
REMARK SMILES CC1=CCC(=C(C)C)C(=O)CC(C)=CCC1
REMARK SMILES IDX 12 1 14 2 13 3 15 4 16 5 2 6 1 7 3 8 11 10 9 11 10 12 5 13
REMARK SMILES IDX 6 14 7 15 8 16 4 17
REMARK H PARENT
REMARK Flexibility Score: 60.00
ROOT
ATOM      1  C   UNL     1     -17.640   3.198  33.757  1.00  0.00    -0.070 C 
ATOM      2  C   UNL     1     -18.909   3.572  34.047  1.00  0.00    -0.027 C 
ATOM      3  C   UNL     1     -16.578   3.490  34.789  1.00  0.00     0.039 C 
ENDROOT
BRANCH   2   4
ATOM      4  C   UNL     1     -20.137   3.285  33.215  1.00  0.00     0.032 C 
BRANCH   4   5
ATOM      5  C   UNL     1     -20.803   1.945  33.585  1.00  0.00     0.034 C 
BRANCH   5   6
ATOM      6  C   UNL     1     -21.089   1.093  32.363  1.00  0.00    -0.077 C 
ATOM      7  C   UNL     1     -22.279   1.446  31.508  1.00  0.00     0.039 C 
ATOM      8  C   UNL     1     -20.351   0.016  32.010  1.00  0.00    -0.023 CG0
ATOM      9  G   UNL     1     -19.150  -0.514  32.756  1.00  0.00     0.000 G0
ENDBRANCH   5   6
ENDBRANCH   4   5
ENDBRANCH   2   4
BRANCH   1  10
ATOM     10  C   UNL     1     -17.247   2.448  32.495  1.00  0.00     0.111 C 
BRANCH  10  11
ATOM     11  C   UNL     1     -17.066   0.975  32.759  1.00  0.00     0.163 C 
ATOM     12  O   UNL     1     -16.162   0.623  33.567  1.00  0.00    -0.294 OA
BRANCH  11  13
ATOM     13  C   UNL     1     -17.883  -0.063  32.058  1.00  0.00    -0.002 C 
ATOM     14  C   UNL     1     -17.475  -0.625  30.880  1.00  0.00    -0.069 C 
ATOM     15  C   UNL     1     -16.140  -0.283  30.259  1.00  0.00     0.039 C 
ATOM     16  C   UNL     1     -18.327  -1.647  30.157  1.00  0.00     0.039 C 
BRANCH  13  17
ATOM     17  C   UNL     1     -19.154  -0.522  32.748  1.00  0.00     0.066 CG0
ATOM     18  G   UNL     1     -20.360   0.017  32.016  1.00  0.00     0.000 G0
ENDBRANCH  13  17
ENDBRANCH  11  13
ENDBRANCH  10  11
ENDBRANCH   1  10
TORSDOF 0
ENDMDL
MODEL 5
REMARK VINA RESULT:    -3.455      5.490      7.730
REMARK INTER + INTRA:          -4.215
REMARK INTER:                  -4.739
REMARK INTRA:                   0.524
REMARK UNBOUND:                 0.653
REMARK SMILES CC1=CCC(=C(C)C)C(=O)CC(C)=CCC1
REMARK SMILES IDX 12 1 14 2 13 3 15 4 16 5 2 6 1 7 3 8 11 10 9 11 10 12 5 13
REMARK SMILES IDX 6 14 7 15 8 16 4 17
REMARK H PARENT
REMARK Flexibility Score: 60.00
ROOT
ATOM      1  C   UNL     1     -17.268  -0.030  32.321  1.00  0.00    -0.070 C 
ATOM      2  C   UNL     1     -18.298  -0.799  32.747  1.00  0.00    -0.027 C 
ATOM      3  C   UNL     1     -16.006  -0.039  33.149  1.00  0.00     0.039 C 
ENDROOT
BRANCH   2   4
ATOM      4  C   UNL     1     -19.605  -1.022  32.024  1.00  0.00     0.032 C 
BRANCH   4   5
ATOM      5  C   UNL     1     -19.428  -1.813  30.713  1.00  0.00     0.034 C 
BRANCH   5   6
ATOM      6  C   UNL     1     -20.033  -1.091  29.524  1.00  0.00    -0.077 C 
ATOM      7  C   UNL     1     -21.491  -0.714  29.582  1.00  0.00     0.039 C 
ATOM      8  C   UNL     1     -19.344  -0.787  28.401  1.00  0.00    -0.023 CG0
ATOM      9  G   UNL     1     -17.892  -1.113  28.141  1.00  0.00     0.000 G0
ENDBRANCH   5   6
ENDBRANCH   4   5
ENDBRANCH   2   4
BRANCH   1  10
ATOM     10  C   UNL     1     -17.293   0.779  31.035  1.00  0.00     0.111 C 
BRANCH  10  11
ATOM     11  C   UNL     1     -16.512   0.100  29.938  1.00  0.00     0.163 C 
ATOM     12  O   UNL     1     -15.393  -0.404  30.232  1.00  0.00    -0.294 OA
BRANCH  11  13
ATOM     13  C   UNL     1     -17.002   0.057  28.526  1.00  0.00    -0.002 C 
ATOM     14  C   UNL     1     -16.631   1.000  27.607  1.00  0.00    -0.069 C 
ATOM     15  C   UNL     1     -15.647   2.096  27.948  1.00  0.00     0.039 C 
ATOM     16  C   UNL     1     -17.162   0.970  26.189  1.00  0.00     0.039 C 
BRANCH  13  17
ATOM     17  C   UNL     1     -17.871  -1.124  28.133  1.00  0.00     0.066 CG0
ATOM     18  G   UNL     1     -19.322  -0.804  28.404  1.00  0.00     0.000 G0
ENDBRANCH  13  17
ENDBRANCH  11  13
ENDBRANCH  10  11
ENDBRANCH   1  10
TORSDOF 0
ENDMDL
MODEL 6
REMARK VINA RESULT:    -3.454      7.767     10.696
REMARK INTER + INTRA:          -4.214
REMARK INTER:                  -4.814
REMARK INTRA:                   0.600
REMARK UNBOUND:                 0.653
REMARK SMILES CC1=CCC(=C(C)C)C(=O)CC(C)=CCC1
REMARK SMILES IDX 12 1 14 2 13 3 15 4 16 5 2 6 1 7 3 8 11 10 9 11 10 12 5 13
REMARK SMILES IDX 6 14 7 15 8 16 4 17
REMARK H PARENT
REMARK Flexibility Score: 60.00
ROOT
ATOM      1  C   UNL     1     -19.735  -4.248  22.258  1.00  0.00    -0.070 C 
ATOM      2  C   UNL     1     -20.396  -3.939  21.117  1.00  0.00    -0.027 C 
ATOM      3  C   UNL     1     -20.098  -5.544  22.941  1.00  0.00     0.039 C 
ENDROOT
BRANCH   2   4
ATOM      4  C   UNL     1     -20.122  -2.756  20.218  1.00  0.00     0.032 C 
BRANCH   4   5
ATOM      5  C   UNL     1     -21.326  -1.799  20.118  1.00  0.00     0.034 C 
BRANCH   5   6
ATOM      6  C   UNL     1     -21.899  -1.457  21.481  1.00  0.00    -0.077 C 
ATOM      7  C   UNL     1     -23.320  -1.862  21.780  1.00  0.00     0.039 C 
ATOM      8  C   UNL     1     -21.217  -0.787  22.436  1.00  0.00    -0.023 CG0
ATOM      9  G   UNL     1     -19.803  -0.269  22.311  1.00  0.00     0.000 G0
ENDBRANCH   5   6
ENDBRANCH   4   5
ENDBRANCH   2   4
BRANCH   1  10
ATOM     10  C   UNL     1     -18.616  -3.402  22.842  1.00  0.00     0.111 C 
BRANCH  10  11
ATOM     11  C   UNL     1     -19.154  -2.313  23.737  1.00  0.00     0.163 C 
ATOM     12  O   UNL     1     -19.833  -2.655  24.744  1.00  0.00    -0.294 OA
BRANCH  11  13
ATOM     13  C   UNL     1     -18.948  -0.863  23.432  1.00  0.00    -0.002 C 
ATOM     14  C   UNL     1     -17.982  -0.127  24.061  1.00  0.00    -0.069 C 
ATOM     15  C   UNL     1     -17.022  -0.754  25.045  1.00  0.00     0.039 C 
ATOM     16  C   UNL     1     -17.806   1.349  23.775  1.00  0.00     0.039 C 
BRANCH  13  17
ATOM     17  C   UNL     1     -19.808  -0.260  22.338  1.00  0.00     0.066 CG0
ATOM     18  G   UNL     1     -21.223  -0.776  22.454  1.00  0.00     0.000 G0
ENDBRANCH  13  17
ENDBRANCH  11  13
ENDBRANCH  10  11
ENDBRANCH   1  10
TORSDOF 0
ENDMDL
MODEL 7
REMARK VINA RESULT:    -3.437      2.439      4.895
REMARK INTER + INTRA:          -4.190
REMARK INTER:                  -4.522
REMARK INTRA:                   0.333
REMARK UNBOUND:                 0.653
REMARK SMILES CC1=CCC(=C(C)C)C(=O)CC(C)=CCC1
REMARK SMILES IDX 12 1 14 2 13 3 15 4 16 5 2 6 1 7 3 8 11 10 9 11 10 12 5 13
REMARK SMILES IDX 6 14 7 15 8 16 4 17
REMARK H PARENT
REMARK Flexibility Score: 60.00
ROOT
ATOM      1  C   UNL     1     -15.265   8.582  26.326  1.00  0.00    -0.070 C 
ATOM      2  C   UNL     1     -14.170   7.812  26.117  1.00  0.00    -0.027 C 
ATOM      3  C   UNL     1     -15.074  10.079  26.308  1.00  0.00     0.039 C 
ENDROOT
BRANCH   2   4
ATOM      4  C   UNL     1     -14.147   6.307  25.988  1.00  0.00     0.032 C 
BRANCH   4   5
ATOM      5  C   UNL     1     -14.258   5.595  27.350  1.00  0.00     0.034 C 
BRANCH   5   6
ATOM      6  C   UNL     1     -15.349   4.541  27.357  1.00  0.00    -0.077 C 
ATOM      7  C   UNL     1     -15.224   3.377  26.406  1.00  0.00     0.039 C 
ATOM      8  C   UNL     1     -16.443   4.597  28.149  1.00  0.00    -0.023 CG0
ATOM      9  G   UNL     1     -16.763   5.696  29.135  1.00  0.00     0.000 G0
ENDBRANCH   5   6
ENDBRANCH   4   5
ENDBRANCH   2   4
BRANCH   1  10
ATOM     10  C   UNL     1     -16.667   8.025  26.510  1.00  0.00     0.111 C 
BRANCH  10  11
ATOM     11  C   UNL     1     -17.043   7.940  27.968  1.00  0.00     0.163 C 
ATOM     12  O   UNL     1     -16.761   8.919  28.711  1.00  0.00    -0.294 OA
BRANCH  11  13
ATOM     13  C   UNL     1     -17.684   6.720  28.551  1.00  0.00    -0.002 C 
ATOM     14  C   UNL     1     -19.033   6.511  28.475  1.00  0.00    -0.069 C 
ATOM     15  C   UNL     1     -19.943   7.464  27.733  1.00  0.00     0.039 C 
ATOM     16  C   UNL     1     -19.677   5.292  29.101  1.00  0.00     0.039 C 
BRANCH  13  17
ATOM     17  C   UNL     1     -16.761   5.684  29.166  1.00  0.00     0.066 CG0
ATOM     18  G   UNL     1     -16.442   4.614  28.150  1.00  0.00     0.000 G0
ENDBRANCH  13  17
ENDBRANCH  11  13
ENDBRANCH  10  11
ENDBRANCH   1  10
TORSDOF 0
ENDMDL
MODEL 8
REMARK VINA RESULT:    -3.405      5.721      7.854
REMARK INTER + INTRA:          -4.145
REMARK INTER:                  -4.615
REMARK INTRA:                   0.470
REMARK UNBOUND:                 0.653
REMARK SMILES CC1=CCC(=C(C)C)C(=O)CC(C)=CCC1
REMARK SMILES IDX 12 1 14 2 13 3 15 4 16 5 2 6 1 7 3 8 11 10 9 11 10 12 5 13
REMARK SMILES IDX 6 14 7 15 8 16 4 17
REMARK H PARENT
REMARK Flexibility Score: 60.00
ROOT
ATOM      1  C   UNL     1     -20.077  -1.854  29.264  1.00  0.00    -0.070 C 
ATOM      2  C   UNL     1     -20.605  -1.616  30.487  1.00  0.00    -0.027 C 
ATOM      3  C   UNL     1     -21.039  -2.093  28.126  1.00  0.00     0.039 C 
ENDROOT
BRANCH   2   4
ATOM      4  C   UNL     1     -19.839  -1.249  31.736  1.00  0.00     0.032 C 
BRANCH   4   5
ATOM      5  C   UNL     1     -19.187   0.144  31.642  1.00  0.00     0.034 C 
BRANCH   5   6
ATOM      6  C   UNL     1     -17.713   0.110  31.995  1.00  0.00    -0.077 C 
ATOM      7  C   UNL     1     -17.311  -0.455  33.334  1.00  0.00     0.039 C 
ATOM      8  C   UNL     1     -16.736   0.582  31.188  1.00  0.00    -0.023 CG0
ATOM      9  G   UNL     1     -16.941   1.215  29.833  1.00  0.00     0.000 G0
ENDBRANCH   5   6
ENDBRANCH   4   5
ENDBRANCH   2   4
BRANCH   1  10
ATOM     10  C   UNL     1     -18.586  -1.826  28.967  1.00  0.00     0.111 C 
BRANCH  10  11
ATOM     11  C   UNL     1     -18.167  -0.511  28.357  1.00  0.00     0.163 C 
ATOM     12  O   UNL     1     -18.915   0.000  27.479  1.00  0.00    -0.294 OA
BRANCH  11  13
ATOM     13  C   UNL     1     -16.883   0.160  28.727  1.00  0.00    -0.002 C 
ATOM     14  C   UNL     1     -15.713  -0.114  28.074  1.00  0.00    -0.069 C 
ATOM     15  C   UNL     1     -15.668  -1.056  26.893  1.00  0.00     0.039 C 
ATOM     16  C   UNL     1     -14.411   0.542  28.480  1.00  0.00     0.039 C 
BRANCH  13  17
ATOM     17  C   UNL     1     -16.947   1.219  29.813  1.00  0.00     0.066 CG0
ATOM     18  G   UNL     1     -16.743   0.579  31.166  1.00  0.00     0.000 G0
ENDBRANCH  13  17
ENDBRANCH  11  13
ENDBRANCH  10  11
ENDBRANCH   1  10
TORSDOF 0
ENDMDL
MODEL 9
REMARK VINA RESULT:    -3.399      2.072      4.711
REMARK INTER + INTRA:          -4.137
REMARK INTER:                  -4.528
REMARK INTRA:                   0.391
REMARK UNBOUND:                 0.653
REMARK SMILES CC1=CCC(=C(C)C)C(=O)CC(C)=CCC1
REMARK SMILES IDX 12 1 14 2 13 3 15 4 16 5 2 6 1 7 3 8 11 10 9 11 10 12 5 13
REMARK SMILES IDX 6 14 7 15 8 16 4 17
REMARK H PARENT
REMARK Flexibility Score: 60.00
ROOT
ATOM      1  C   UNL     1     -13.798   5.913  26.377  1.00  0.00    -0.070 C 
ATOM      2  C   UNL     1     -14.236   7.182  26.560  1.00  0.00    -0.027 C 
ATOM      3  C   UNL     1     -12.309   5.676  26.442  1.00  0.00     0.039 C 
ENDROOT
BRANCH   2   4
ATOM      4  C   UNL     1     -15.676   7.627  26.641  1.00  0.00     0.032 C 
BRANCH   4   5
ATOM      5  C   UNL     1     -16.282   7.419  28.043  1.00  0.00     0.034 C 
BRANCH   5   6
ATOM      6  C   UNL     1     -17.595   6.662  27.992  1.00  0.00    -0.077 C 
ATOM      7  C   UNL     1     -18.806   7.366  27.436  1.00  0.00     0.039 C 
ATOM      8  C   UNL     1     -17.749   5.396  28.443  1.00  0.00    -0.023 CG0
ATOM      9  G   UNL     1     -16.669   4.543  29.065  1.00  0.00     0.000 G0
ENDBRANCH   5   6
ENDBRANCH   4   5
ENDBRANCH   2   4
BRANCH   1  10
ATOM     10  C   UNL     1     -14.720   4.722  26.178  1.00  0.00     0.111 C 
BRANCH  10  11
ATOM     11  C   UNL     1     -14.816   3.881  27.427  1.00  0.00     0.163 C 
ATOM     12  O   UNL     1     -13.748   3.422  27.917  1.00  0.00    -0.294 OA
BRANCH  11  13
ATOM     13  C   UNL     1     -16.131   3.544  28.055  1.00  0.00    -0.002 C 
ATOM     14  C   UNL     1     -16.781   2.373  27.779  1.00  0.00    -0.069 C 
ATOM     15  C   UNL     1     -16.172   1.321  26.879  1.00  0.00     0.039 C 
ATOM     16  C   UNL     1     -18.129   2.056  28.391  1.00  0.00     0.039 C 
BRANCH  13  17
ATOM     17  C   UNL     1     -16.680   4.525  29.075  1.00  0.00     0.066 CG0
ATOM     18  G   UNL     1     -17.743   5.386  28.436  1.00  0.00     0.000 G0
ENDBRANCH  13  17
ENDBRANCH  11  13
ENDBRANCH  10  11
ENDBRANCH   1  10
TORSDOF 0
ENDMDL
