MODEL 1
REMARK VINA RESULT:    -6.556      0.000      0.000
REMARK INTER + INTRA:          -6.556
REMARK INTER:                  -6.556
REMARK INTRA:                   0.000
REMARK UNBOUND:                 0.000
REMARK SMILES c1ccc2ccccc2c1
REMARK SMILES IDX 2 1 1 2 10 3 9 4 8 5 7 6 6 7 5 8 4 9 3 10
REMARK H PARENT
REMARK Flexibility Score: inf
ROOT
ATOM      1  C   UNL     1     -14.544  13.069 -23.450  1.00  0.00     0.001 A 
ATOM      2  C   UNL     1     -14.290  13.315 -24.802  1.00  0.00     0.001 A 
ATOM      3  C   UNL     1     -15.324  13.723 -25.650  1.00  0.00     0.009 A 
ATOM      4  C   UNL     1     -16.623  13.889 -25.147  1.00  0.00    -0.018 A 
ATOM      5  C   UNL     1     -17.670  14.300 -25.986  1.00  0.00     0.009 A 
ATOM      6  C   UNL     1     -18.959  14.461 -25.472  1.00  0.00     0.001 A 
ATOM      7  C   UNL     1     -19.214  14.216 -24.120  1.00  0.00     0.001 A 
ATOM      8  C   UNL     1     -18.180  13.807 -23.272  1.00  0.00     0.009 A 
ATOM      9  C   UNL     1     -16.881  13.641 -23.775  1.00  0.00    -0.018 A 
ATOM     10  C   UNL     1     -15.833  13.231 -22.936  1.00  0.00     0.009 A 
ENDROOT
TORSDOF 0
ENDMDL
MODEL 2
REMARK VINA RESULT:    -6.553      0.089      2.082
REMARK INTER + INTRA:          -6.553
REMARK INTER:                  -6.553
REMARK INTRA:                   0.000
REMARK UNBOUND:                 0.000
REMARK SMILES c1ccc2ccccc2c1
REMARK SMILES IDX 2 1 1 2 10 3 9 4 8 5 7 6 6 7 5 8 4 9 3 10
REMARK H PARENT
REMARK Flexibility Score: inf
ROOT
ATOM      1  C   UNL     1     -14.244  13.365 -24.879  1.00  0.00     0.001 A 
ATOM      2  C   UNL     1     -14.454  13.090 -23.526  1.00  0.00     0.001 A 
ATOM      3  C   UNL     1     -15.732  13.216 -22.972  1.00  0.00     0.009 A 
ATOM      4  C   UNL     1     -16.810  13.618 -23.774  1.00  0.00    -0.018 A 
ATOM      5  C   UNL     1     -18.099  13.748 -23.232  1.00  0.00     0.009 A 
ATOM      6  C   UNL     1     -19.163  14.150 -24.043  1.00  0.00     0.001 A 
ATOM      7  C   UNL     1     -18.953  14.425 -25.397  1.00  0.00     0.001 A 
ATOM      8  C   UNL     1     -17.675  14.299 -25.950  1.00  0.00     0.009 A 
ATOM      9  C   UNL     1     -16.597  13.896 -25.148  1.00  0.00    -0.018 A 
ATOM     10  C   UNL     1     -15.308  13.766 -25.690  1.00  0.00     0.009 A 
ENDROOT
TORSDOF 0
ENDMDL
MODEL 3
REMARK VINA RESULT:    -6.550      0.078      3.437
REMARK INTER + INTRA:          -6.550
REMARK INTER:                  -6.550
REMARK INTRA:                   0.000
REMARK UNBOUND:                 0.000
REMARK SMILES c1ccc2ccccc2c1
REMARK SMILES IDX 2 1 1 2 10 3 9 4 8 5 7 6 6 7 5 8 4 9 3 10
REMARK H PARENT
REMARK Flexibility Score: inf
ROOT
ATOM      1  C   UNL     1     -19.211  14.169 -24.089  1.00  0.00     0.001 A 
ATOM      2  C   UNL     1     -18.993  14.455 -25.439  1.00  0.00     0.001 A 
ATOM      3  C   UNL     1     -17.713  14.327 -25.988  1.00  0.00     0.009 A 
ATOM      4  C   UNL     1     -16.640  13.910 -25.185  1.00  0.00    -0.018 A 
ATOM      5  C   UNL     1     -15.351  13.776 -25.722  1.00  0.00     0.009 A 
ATOM      6  C   UNL     1     -14.292  13.360 -24.910  1.00  0.00     0.001 A 
ATOM      7  C   UNL     1     -14.511  13.074 -23.560  1.00  0.00     0.001 A 
ATOM      8  C   UNL     1     -15.790  13.202 -23.012  1.00  0.00     0.009 A 
ATOM      9  C   UNL     1     -16.863  13.619 -23.815  1.00  0.00    -0.018 A 
ATOM     10  C   UNL     1     -18.153  13.752 -23.278  1.00  0.00     0.009 A 
ENDROOT
TORSDOF 0
ENDMDL
MODEL 4
REMARK VINA RESULT:    -6.538      0.097      4.019
REMARK INTER + INTRA:          -6.538
REMARK INTER:                  -6.538
REMARK INTRA:                   0.000
REMARK UNBOUND:                 0.000
REMARK SMILES c1ccc2ccccc2c1
REMARK SMILES IDX 2 1 1 2 10 3 9 4 8 5 7 6 6 7 5 8 4 9 3 10
REMARK H PARENT
REMARK Flexibility Score: inf
ROOT
ATOM      1  C   UNL     1     -18.864  14.431 -25.471  1.00  0.00     0.001 A 
ATOM      2  C   UNL     1     -19.130  14.171 -24.124  1.00  0.00     0.001 A 
ATOM      3  C   UNL     1     -18.101  13.763 -23.270  1.00  0.00     0.009 A 
ATOM      4  C   UNL     1     -16.796  13.612 -23.761  1.00  0.00    -0.018 A 
ATOM      5  C   UNL     1     -15.753  13.203 -22.915  1.00  0.00     0.009 A 
ATOM      6  C   UNL     1     -14.458  13.058 -23.417  1.00  0.00     0.001 A 
ATOM      7  C   UNL     1     -14.192  13.318 -24.764  1.00  0.00     0.001 A 
ATOM      8  C   UNL     1     -15.221  13.726 -25.619  1.00  0.00     0.009 A 
ATOM      9  C   UNL     1     -16.526  13.877 -25.128  1.00  0.00    -0.018 A 
ATOM     10  C   UNL     1     -17.569  14.285 -25.974  1.00  0.00     0.009 A 
ENDROOT
TORSDOF 0
ENDMDL
MODEL 5
REMARK VINA RESULT:    -6.312     12.163     13.347
REMARK INTER + INTRA:          -6.312
REMARK INTER:                  -6.312
REMARK INTRA:                   0.000
REMARK UNBOUND:                 0.000
REMARK SMILES c1ccc2ccccc2c1
REMARK SMILES IDX 2 1 1 2 10 3 9 4 8 5 7 6 6 7 5 8 4 9 3 10
REMARK H PARENT
REMARK Flexibility Score: inf
ROOT
ATOM      1  C   UNL     1     -11.376   5.491 -32.021  1.00  0.00     0.001 A 
ATOM      2  C   UNL     1     -11.760   4.986 -33.266  1.00  0.00     0.001 A 
ATOM      3  C   UNL     1     -11.394   5.653 -34.439  1.00  0.00     0.009 A 
ATOM      4  C   UNL     1     -10.638   6.833 -34.373  1.00  0.00    -0.018 A 
ATOM      5  C   UNL     1     -10.262   7.512 -35.542  1.00  0.00     0.009 A 
ATOM      6  C   UNL     1      -9.509   8.685 -35.460  1.00  0.00     0.001 A 
ATOM      7  C   UNL     1      -9.124   9.190 -34.216  1.00  0.00     0.001 A 
ATOM      8  C   UNL     1      -9.491   8.524 -33.042  1.00  0.00     0.009 A 
ATOM      9  C   UNL     1     -10.247   7.344 -33.109  1.00  0.00    -0.018 A 
ATOM     10  C   UNL     1     -10.622   6.665 -31.939  1.00  0.00     0.009 A 
ENDROOT
TORSDOF 0
ENDMDL
MODEL 6
REMARK VINA RESULT:    -6.310     12.138     13.422
REMARK INTER + INTRA:          -6.310
REMARK INTER:                  -6.310
REMARK INTRA:                   0.000
REMARK UNBOUND:                 0.000
REMARK SMILES c1ccc2ccccc2c1
REMARK SMILES IDX 2 1 1 2 10 3 9 4 8 5 7 6 6 7 5 8 4 9 3 10
REMARK H PARENT
REMARK Flexibility Score: inf
ROOT
ATOM      1  C   UNL     1     -11.755   5.008 -33.256  1.00  0.00     0.001 A 
ATOM      2  C   UNL     1     -11.379   5.482 -31.996  1.00  0.00     0.001 A 
ATOM      3  C   UNL     1     -10.619   6.651 -31.883  1.00  0.00     0.009 A 
ATOM      4  C   UNL     1     -10.231   7.353 -33.033  1.00  0.00    -0.018 A 
ATOM      5  C   UNL     1      -9.469   8.528 -32.934  1.00  0.00     0.009 A 
ATOM      6  C   UNL     1      -9.090   9.218 -34.088  1.00  0.00     0.001 A 
ATOM      7  C   UNL     1      -9.466   8.743 -35.348  1.00  0.00     0.001 A 
ATOM      8  C   UNL     1     -10.225   7.575 -35.461  1.00  0.00     0.009 A 
ATOM      9  C   UNL     1     -10.613   6.872 -34.311  1.00  0.00    -0.018 A 
ATOM     10  C   UNL     1     -11.375   5.697 -34.410  1.00  0.00     0.009 A 
ENDROOT
TORSDOF 0
ENDMDL
MODEL 7
REMARK VINA RESULT:    -6.302     12.194     13.253
REMARK INTER + INTRA:          -6.302
REMARK INTER:                  -6.302
REMARK INTRA:                   0.000
REMARK UNBOUND:                 0.000
REMARK SMILES c1ccc2ccccc2c1
REMARK SMILES IDX 2 1 1 2 10 3 9 4 8 5 7 6 6 7 5 8 4 9 3 10
REMARK H PARENT
REMARK Flexibility Score: inf
ROOT
ATOM      1  C   UNL     1      -9.120   9.238 -34.129  1.00  0.00     0.001 A 
ATOM      2  C   UNL     1      -9.485   8.764 -35.392  1.00  0.00     0.001 A 
ATOM      3  C   UNL     1     -10.221   7.581 -35.513  1.00  0.00     0.009 A 
ATOM      4  C   UNL     1     -10.596   6.864 -34.366  1.00  0.00    -0.018 A 
ATOM      5  C   UNL     1     -11.335   5.675 -34.472  1.00  0.00     0.009 A 
ATOM      6  C   UNL     1     -11.702   4.972 -33.322  1.00  0.00     0.001 A 
ATOM      7  C   UNL     1     -11.336   5.447 -32.060  1.00  0.00     0.001 A 
ATOM      8  C   UNL     1     -10.601   6.630 -31.939  1.00  0.00     0.009 A 
ATOM      9  C   UNL     1     -10.226   7.347 -33.085  1.00  0.00    -0.018 A 
ATOM     10  C   UNL     1      -9.487   8.535 -32.979  1.00  0.00     0.009 A 
ENDROOT
TORSDOF 0
ENDMDL
MODEL 8
REMARK VINA RESULT:    -6.249     10.343     12.252
REMARK INTER + INTRA:          -6.249
REMARK INTER:                  -6.249
REMARK INTRA:                   0.000
REMARK UNBOUND:                 0.000
REMARK SMILES c1ccc2ccccc2c1
REMARK SMILES IDX 2 1 1 2 10 3 9 4 8 5 7 6 6 7 5 8 4 9 3 10
REMARK H PARENT
REMARK Flexibility Score: inf
ROOT
ATOM      1  C   UNL     1     -22.211  13.872 -34.138  1.00  0.00     0.001 A 
ATOM      2  C   UNL     1     -22.542  13.694 -32.792  1.00  0.00     0.001 A 
ATOM      3  C   UNL     1     -23.285  12.579 -32.392  1.00  0.00     0.009 A 
ATOM      4  C   UNL     1     -23.702  11.633 -33.340  1.00  0.00    -0.018 A 
ATOM      5  C   UNL     1     -24.448  10.509 -32.952  1.00  0.00     0.009 A 
ATOM      6  C   UNL     1     -24.856   9.575 -33.907  1.00  0.00     0.001 A 
ATOM      7  C   UNL     1     -24.526   9.753 -35.253  1.00  0.00     0.001 A 
ATOM      8  C   UNL     1     -23.783  10.868 -35.653  1.00  0.00     0.009 A 
ATOM      9  C   UNL     1     -23.366  11.814 -34.705  1.00  0.00    -0.018 A 
ATOM     10  C   UNL     1     -22.620  12.938 -35.093  1.00  0.00     0.009 A 
ENDROOT
TORSDOF 0
ENDMDL
MODEL 9
REMARK VINA RESULT:    -6.232     10.355     12.090
REMARK INTER + INTRA:          -6.232
REMARK INTER:                  -6.232
REMARK INTRA:                   0.000
REMARK UNBOUND:                 0.000
REMARK SMILES c1ccc2ccccc2c1
REMARK SMILES IDX 2 1 1 2 10 3 9 4 8 5 7 6 6 7 5 8 4 9 3 10
REMARK H PARENT
REMARK Flexibility Score: inf
ROOT
ATOM      1  C   UNL     1     -22.603  13.713 -32.765  1.00  0.00     0.001 A 
ATOM      2  C   UNL     1     -22.259  13.911 -34.105  1.00  0.00     0.001 A 
ATOM      3  C   UNL     1     -22.644  12.981 -35.075  1.00  0.00     0.009 A 
ATOM      4  C   UNL     1     -23.379  11.844 -34.709  1.00  0.00    -0.018 A 
ATOM      5  C   UNL     1     -23.773  10.902 -35.672  1.00  0.00     0.009 A 
ATOM      6  C   UNL     1     -24.504   9.774 -35.293  1.00  0.00     0.001 A 
ATOM      7  C   UNL     1     -24.848   9.576 -33.953  1.00  0.00     0.001 A 
ATOM      8  C   UNL     1     -24.463  10.506 -32.983  1.00  0.00     0.009 A 
ATOM      9  C   UNL     1     -23.728  11.643 -33.349  1.00  0.00    -0.018 A 
ATOM     10  C   UNL     1     -23.334  12.585 -32.386  1.00  0.00     0.009 A 
ENDROOT
TORSDOF 0
ENDMDL
