MODEL 1
REMARK VINA RESULT:    -3.370      0.000      0.000
REMARK INTER + INTRA:         -10.508
REMARK INTER:                  -7.310
REMARK INTRA:                  -3.198
REMARK UNBOUND:                -3.198
REMARK SMILES CCCCCCCCCCCCCCCCCCCCCC(=O)[O-]
REMARK SMILES IDX 12 1 11 2 10 3 9 4 8 5 7 6 6 7 5 8 4 9 3 10 2 11 1 12 13 13
REMARK SMILES IDX 14 14 15 15 16 16 17 17 18 18 19 19 20 20 21 21 22 22 23 23
REMARK SMILES IDX 24 24
REMARK H PARENT
REMARK Flexibility Score: inf
ROOT
ATOM      1  C   UNL     1     164.009 169.118 153.820  1.00  0.00     0.000 C 
ENDROOT
BRANCH   1   2
ATOM      2  C   UNL     1     163.454 169.952 152.643  1.00  0.00     0.000 C 
BRANCH   2   3
ATOM      3  C   UNL     1     164.511 170.834 151.947  1.00  0.00     0.000 C 
BRANCH   3   4
ATOM      4  C   UNL     1     164.766 170.504 150.459  1.00  0.00    -0.000 C 
BRANCH   4   5
ATOM      5  C   UNL     1     165.560 169.212 150.197  1.00  0.00    -0.000 C 
BRANCH   5   6
ATOM      6  C   UNL     1     165.632 168.850 148.703  1.00  0.00    -0.000 C 
BRANCH   6   7
ATOM      7  C   UNL     1     165.092 167.437 148.410  1.00  0.00    -0.000 C 
BRANCH   7   8
ATOM      8  C   UNL     1     163.786 167.080 149.149  1.00  0.00    -0.000 C 
BRANCH   8   9
ATOM      9  C   UNL     1     163.877 165.840 150.062  1.00  0.00    -0.000 C 
BRANCH   9  10
ATOM     10  C   UNL     1     164.103 166.205 151.537  1.00  0.00    -0.000 C 
BRANCH  10  11
ATOM     11  C   UNL     1     165.113 165.254 152.192  1.00  0.00    -0.003 C 
ATOM     12  C   UNL     1     166.029 166.004 153.155  1.00  0.00     0.004 C 
ENDBRANCH  10  11
ENDBRANCH   9  10
ENDBRANCH   8   9
ENDBRANCH   7   8
ENDBRANCH   6   7
ENDBRANCH   5   6
ENDBRANCH   4   5
ENDBRANCH   3   4
ENDBRANCH   2   3
ENDBRANCH   1   2
BRANCH   1  13
ATOM     13  C   UNL     1     163.848 169.805 155.186  1.00  0.00     0.000 C 
BRANCH  13  14
ATOM     14  C   UNL     1     165.177 169.912 155.956  1.00  0.00     0.000 C 
BRANCH  14  15
ATOM     15  C   UNL     1     166.228 170.756 155.216  1.00  0.00     0.000 C 
BRANCH  15  16
ATOM     16  C   UNL     1     167.529 169.981 154.940  1.00  0.00     0.000 C 
BRANCH  16  17
ATOM     17  C   UNL     1     167.521 169.302 153.561  1.00  0.00     0.000 C 
BRANCH  17  18
ATOM     18  C   UNL     1     168.271 170.117 152.495  1.00  0.00     0.000 C 
BRANCH  18  19
ATOM     19  C   UNL     1     168.987 169.209 151.470  1.00  0.00     0.000 C 
BRANCH  19  20
ATOM     20  C   UNL     1     169.190 169.882 150.099  1.00  0.00     0.006 C 
BRANCH  20  21
ATOM     21  C   UNL     1     169.783 168.951 149.030  1.00  0.00     0.053 C 
BRANCH  21  22
ATOM     22  C   UNL     1     169.294 169.297 147.657  1.00  0.00     0.041 C 
ATOM     23  O   UNL     1     168.688 170.383 147.459  1.00  0.00    -0.550 OA
ATOM     24  O   UNL     1     169.487 168.415 146.602  1.00  0.00    -0.550 OA
ENDBRANCH  21  22
ENDBRANCH  20  21
ENDBRANCH  19  20
ENDBRANCH  18  19
ENDBRANCH  17  18
ENDBRANCH  16  17
ENDBRANCH  15  16
ENDBRANCH  14  15
ENDBRANCH  13  14
ENDBRANCH   1  13
TORSDOF 20
ENDMDL
MODEL 2
REMARK VINA RESULT:    -3.304      1.969      3.903
REMARK INTER + INTRA:         -10.365
REMARK INTER:                  -6.879
REMARK INTRA:                  -3.486
REMARK UNBOUND:                -3.198
REMARK SMILES CCCCCCCCCCCCCCCCCCCCCC(=O)[O-]
REMARK SMILES IDX 12 1 11 2 10 3 9 4 8 5 7 6 6 7 5 8 4 9 3 10 2 11 1 12 13 13
REMARK SMILES IDX 14 14 15 15 16 16 17 17 18 18 19 19 20 20 21 21 22 22 23 23
REMARK SMILES IDX 24 24
REMARK H PARENT
REMARK Flexibility Score: inf
ROOT
ATOM      1  C   UNL     1     167.370 169.388 154.144  1.00  0.00     0.000 C 
ENDROOT
BRANCH   1   2
ATOM      2  C   UNL     1     165.867 169.031 154.098  1.00  0.00     0.000 C 
BRANCH   2   3
ATOM      3  C   UNL     1     164.943 170.242 153.851  1.00  0.00     0.000 C 
BRANCH   3   4
ATOM      4  C   UNL     1     164.135 170.194 152.536  1.00  0.00    -0.000 C 
BRANCH   4   5
ATOM      5  C   UNL     1     164.830 169.483 151.361  1.00  0.00    -0.000 C 
BRANCH   5   6
ATOM      6  C   UNL     1     164.896 170.354 150.093  1.00  0.00    -0.000 C 
BRANCH   6   7
ATOM      7  C   UNL     1     165.590 169.637 148.919  1.00  0.00    -0.000 C 
BRANCH   7   8
ATOM      8  C   UNL     1     165.851 168.133 149.145  1.00  0.00    -0.000 C 
BRANCH   8   9
ATOM      9  C   UNL     1     164.838 167.191 148.464  1.00  0.00    -0.000 C 
BRANCH   9  10
ATOM     10  C   UNL     1     164.898 167.263 146.931  1.00  0.00    -0.000 C 
BRANCH  10  11
ATOM     11  C   UNL     1     164.968 165.860 146.315  1.00  0.00    -0.003 C 
ATOM     12  C   UNL     1     165.945 164.973 147.082  1.00  0.00     0.004 C 
ENDBRANCH  10  11
ENDBRANCH   9  10
ENDBRANCH   8   9
ENDBRANCH   7   8
ENDBRANCH   6   7
ENDBRANCH   5   6
ENDBRANCH   4   5
ENDBRANCH   3   4
ENDBRANCH   2   3
ENDBRANCH   1   2
BRANCH   1  13
ATOM     13  C   UNL     1     167.687 170.780 153.571  1.00  0.00     0.000 C 
BRANCH  13  14
ATOM     14  C   UNL     1     168.337 170.713 152.177  1.00  0.00     0.000 C 
BRANCH  14  15
ATOM     15  C   UNL     1     168.612 169.273 151.716  1.00  0.00     0.000 C 
BRANCH  15  16
ATOM     16  C   UNL     1     169.529 169.207 150.481  1.00  0.00     0.000 C 
BRANCH  16  17
ATOM     17  C   UNL     1     169.172 170.273 149.433  1.00  0.00     0.000 C 
BRANCH  17  18
ATOM     18  C   UNL     1     169.282 169.749 147.992  1.00  0.00     0.000 C 
BRANCH  18  19
ATOM     19  C   UNL     1     169.642 168.246 147.949  1.00  0.00     0.000 C 
BRANCH  19  20
ATOM     20  C   UNL     1     168.792 167.446 146.944  1.00  0.00     0.006 C 
BRANCH  20  21
ATOM     21  C   UNL     1     168.317 168.267 145.736  1.00  0.00     0.053 C 
BRANCH  21  22
ATOM     22  C   UNL     1     168.931 167.782 144.458  1.00  0.00     0.041 C 
ATOM     23  O   UNL     1     170.181 167.792 144.315  1.00  0.00    -0.550 OA
ATOM     24  O   UNL     1     168.123 167.340 143.418  1.00  0.00    -0.550 OA
ENDBRANCH  21  22
ENDBRANCH  20  21
ENDBRANCH  19  20
ENDBRANCH  18  19
ENDBRANCH  17  18
ENDBRANCH  16  17
ENDBRANCH  15  16
ENDBRANCH  14  15
ENDBRANCH  13  14
ENDBRANCH   1  13
TORSDOF 20
ENDMDL
MODEL 3
REMARK VINA RESULT:    -3.238      5.127      9.659
REMARK INTER + INTRA:         -10.221
REMARK INTER:                  -6.738
REMARK INTRA:                  -3.483
REMARK UNBOUND:                -3.198
REMARK SMILES CCCCCCCCCCCCCCCCCCCCCC(=O)[O-]
REMARK SMILES IDX 12 1 11 2 10 3 9 4 8 5 7 6 6 7 5 8 4 9 3 10 2 11 1 12 13 13
REMARK SMILES IDX 14 14 15 15 16 16 17 17 18 18 19 19 20 20 21 21 22 22 23 23
REMARK SMILES IDX 24 24
REMARK H PARENT
REMARK Flexibility Score: inf
ROOT
ATOM      1  C   UNL     1     168.312 166.064 143.677  1.00  0.00     0.000 C 
ENDROOT
BRANCH   1   2
ATOM      2  C   UNL     1     168.528 166.954 144.922  1.00  0.00     0.000 C 
BRANCH   2   3
ATOM      3  C   UNL     1     169.262 166.245 146.079  1.00  0.00     0.000 C 
BRANCH   3   4
ATOM      4  C   UNL     1     170.222 167.140 146.894  1.00  0.00    -0.000 C 
BRANCH   4   5
ATOM      5  C   UNL     1     170.497 168.530 146.293  1.00  0.00    -0.000 C 
BRANCH   5   6
ATOM      6  C   UNL     1     171.885 169.078 146.668  1.00  0.00    -0.000 C 
BRANCH   6   7
ATOM      7  C   UNL     1     172.513 168.330 147.860  1.00  0.00    -0.000 C 
BRANCH   7   8
ATOM      8  C   UNL     1     172.919 169.230 149.045  1.00  0.00    -0.000 C 
BRANCH   8   9
ATOM      9  C   UNL     1     171.740 169.886 149.794  1.00  0.00    -0.000 C 
BRANCH   9  10
ATOM     10  C   UNL     1     170.656 168.874 150.194  1.00  0.00    -0.000 C 
BRANCH  10  11
ATOM     11  C   UNL     1     169.313 169.573 150.439  1.00  0.00    -0.003 C 
ATOM     12  C   UNL     1     168.356 169.347 149.271  1.00  0.00     0.004 C 
ENDBRANCH  10  11
ENDBRANCH   9  10
ENDBRANCH   8   9
ENDBRANCH   7   8
ENDBRANCH   6   7
ENDBRANCH   5   6
ENDBRANCH   4   5
ENDBRANCH   3   4
ENDBRANCH   2   3
ENDBRANCH   1   2
BRANCH   1  13
ATOM     13  C   UNL     1     168.886 166.669 142.385  1.00  0.00     0.000 C 
BRANCH  13  14
ATOM     14  C   UNL     1     169.604 168.009 142.624  1.00  0.00     0.000 C 
BRANCH  14  15
ATOM     15  C   UNL     1     170.962 168.094 141.908  1.00  0.00     0.000 C 
BRANCH  15  16
ATOM     16  C   UNL     1     172.119 168.443 142.862  1.00  0.00     0.000 C 
BRANCH  16  17
ATOM     17  C   UNL     1     173.124 167.289 143.005  1.00  0.00     0.000 C 
BRANCH  17  18
ATOM     18  C   UNL     1     173.049 166.606 144.380  1.00  0.00     0.000 C 
BRANCH  18  19
ATOM     19  C   UNL     1     172.344 165.232 144.308  1.00  0.00     0.000 C 
BRANCH  19  20
ATOM     20  C   UNL     1     172.875 164.221 145.341  1.00  0.00     0.006 C 
BRANCH  20  21
ATOM     21  C   UNL     1     173.110 162.813 144.772  1.00  0.00     0.053 C 
BRANCH  21  22
ATOM     22  C   UNL     1     172.063 161.846 145.231  1.00  0.00     0.041 C 
ATOM     23  O   UNL     1     171.009 162.268 145.775  1.00  0.00    -0.550 OA
ATOM     24  O   UNL     1     172.258 160.479 145.078  1.00  0.00    -0.550 OA
ENDBRANCH  21  22
ENDBRANCH  20  21
ENDBRANCH  19  20
ENDBRANCH  18  19
ENDBRANCH  17  18
ENDBRANCH  16  17
ENDBRANCH  15  16
ENDBRANCH  14  15
ENDBRANCH  13  14
ENDBRANCH   1  13
TORSDOF 20
ENDMDL
MODEL 4
REMARK VINA RESULT:    -3.186     11.883     14.961
REMARK INTER + INTRA:         -10.109
REMARK INTER:                  -6.133
REMARK INTRA:                  -3.976
REMARK UNBOUND:                -3.198
REMARK SMILES CCCCCCCCCCCCCCCCCCCCCC(=O)[O-]
REMARK SMILES IDX 12 1 11 2 10 3 9 4 8 5 7 6 6 7 5 8 4 9 3 10 2 11 1 12 13 13
REMARK SMILES IDX 14 14 15 15 16 16 17 17 18 18 19 19 20 20 21 21 22 22 23 23
REMARK SMILES IDX 24 24
REMARK H PARENT
REMARK Flexibility Score: inf
ROOT
ATOM      1  C   UNL     1     169.360 156.598 151.753  1.00  0.00     0.000 C 
ENDROOT
BRANCH   1   2
ATOM      2  C   UNL     1     168.433 155.604 152.489  1.00  0.00     0.000 C 
BRANCH   2   3
ATOM      3  C   UNL     1     168.986 154.165 152.556  1.00  0.00     0.000 C 
BRANCH   3   4
ATOM      4  C   UNL     1     169.212 153.614 153.981  1.00  0.00    -0.000 C 
BRANCH   4   5
ATOM      5  C   UNL     1     169.030 154.635 155.119  1.00  0.00    -0.000 C 
BRANCH   5   6
ATOM      6  C   UNL     1     169.245 154.018 156.512  1.00  0.00    -0.000 C 
BRANCH   6   7
ATOM      7  C   UNL     1     170.069 152.717 156.463  1.00  0.00    -0.000 C 
BRANCH   7   8
ATOM      8  C   UNL     1     171.560 152.884 156.822  1.00  0.00    -0.000 C 
BRANCH   8   9
ATOM      9  C   UNL     1     172.523 151.974 156.032  1.00  0.00    -0.000 C 
BRANCH   9  10
ATOM     10  C   UNL     1     173.124 152.673 154.804  1.00  0.00    -0.000 C 
BRANCH  10  11
ATOM     11  C   UNL     1     172.414 152.234 153.516  1.00  0.00    -0.003 C 
ATOM     12  C   UNL     1     173.045 152.891 152.291  1.00  0.00     0.004 C 
ENDBRANCH  10  11
ENDBRANCH   9  10
ENDBRANCH   8   9
ENDBRANCH   7   8
ENDBRANCH   6   7
ENDBRANCH   5   6
ENDBRANCH   4   5
ENDBRANCH   3   4
ENDBRANCH   2   3
ENDBRANCH   1   2
BRANCH   1  13
ATOM     13  C   UNL     1     170.853 156.249 151.874  1.00  0.00     0.000 C 
BRANCH  13  14
ATOM     14  C   UNL     1     171.573 157.084 152.947  1.00  0.00     0.000 C 
BRANCH  14  15
ATOM     15  C   UNL     1     172.517 156.244 153.823  1.00  0.00     0.000 C 
BRANCH  15  16
ATOM     16  C   UNL     1     172.116 156.250 155.309  1.00  0.00     0.000 C 
BRANCH  16  17
ATOM     17  C   UNL     1     172.731 157.434 156.073  1.00  0.00     0.000 C 
BRANCH  17  18
ATOM     18  C   UNL     1     171.753 158.061 157.080  1.00  0.00     0.000 C 
BRANCH  18  19
ATOM     19  C   UNL     1     170.289 157.654 156.796  1.00  0.00     0.000 C 
BRANCH  19  20
ATOM     20  C   UNL     1     169.431 158.811 156.249  1.00  0.00     0.006 C 
BRANCH  20  21
ATOM     21  C   UNL     1     168.861 158.554 154.845  1.00  0.00     0.053 C 
BRANCH  21  22
ATOM     22  C   UNL     1     168.223 159.782 154.271  1.00  0.00     0.041 C 
ATOM     23  O   UNL     1     168.111 160.821 154.972  1.00  0.00    -0.550 OA
ATOM     24  O   UNL     1     167.733 159.773 152.971  1.00  0.00    -0.550 OA
ENDBRANCH  21  22
ENDBRANCH  20  21
ENDBRANCH  19  20
ENDBRANCH  18  19
ENDBRANCH  17  18
ENDBRANCH  16  17
ENDBRANCH  15  16
ENDBRANCH  14  15
ENDBRANCH  13  14
ENDBRANCH   1  13
TORSDOF 20
ENDMDL
MODEL 5
REMARK VINA RESULT:    -3.126      2.422      6.792
REMARK INTER + INTRA:          -9.978
REMARK INTER:                  -6.536
REMARK INTRA:                  -3.442
REMARK UNBOUND:                -3.198
REMARK SMILES CCCCCCCCCCCCCCCCCCCCCC(=O)[O-]
REMARK SMILES IDX 12 1 11 2 10 3 9 4 8 5 7 6 6 7 5 8 4 9 3 10 2 11 1 12 13 13
REMARK SMILES IDX 14 14 15 15 16 16 17 17 18 18 19 19 20 20 21 21 22 22 23 23
REMARK SMILES IDX 24 24
REMARK H PARENT
REMARK Flexibility Score: inf
ROOT
ATOM      1  C   UNL     1     170.223 167.634 146.613  1.00  0.00     0.000 C 
ENDROOT
BRANCH   1   2
ATOM      2  C   UNL     1     171.489 168.007 147.417  1.00  0.00     0.000 C 
BRANCH   2   3
ATOM      3  C   UNL     1     172.027 169.422 147.117  1.00  0.00     0.000 C 
BRANCH   3   4
ATOM      4  C   UNL     1     171.757 170.474 148.217  1.00  0.00    -0.000 C 
BRANCH   4   5
ATOM      5  C   UNL     1     171.716 169.927 149.655  1.00  0.00    -0.000 C 
BRANCH   5   6
ATOM      6  C   UNL     1     170.418 170.295 150.395  1.00  0.00    -0.000 C 
BRANCH   6   7
ATOM      7  C   UNL     1     169.704 169.064 150.984  1.00  0.00    -0.000 C 
BRANCH   7   8
ATOM      8  C   UNL     1     168.562 169.391 151.969  1.00  0.00    -0.000 C 
BRANCH   8   9
ATOM      9  C   UNL     1     168.138 170.873 152.001  1.00  0.00    -0.000 C 
BRANCH   9  10
ATOM     10  C   UNL     1     166.627 171.053 152.211  1.00  0.00    -0.000 C 
BRANCH  10  11
ATOM     11  C   UNL     1     165.996 169.782 152.793  1.00  0.00    -0.003 C 
ATOM     12  C   UNL     1     164.647 169.490 152.140  1.00  0.00     0.004 C 
ENDBRANCH  10  11
ENDBRANCH   9  10
ENDBRANCH   8   9
ENDBRANCH   7   8
ENDBRANCH   6   7
ENDBRANCH   5   6
ENDBRANCH   4   5
ENDBRANCH   3   4
ENDBRANCH   2   3
ENDBRANCH   1   2
BRANCH   1  13
ATOM     13  C   UNL     1     168.914 167.879 147.382  1.00  0.00     0.000 C 
BRANCH  13  14
ATOM     14  C   UNL     1     168.260 169.225 147.027  1.00  0.00     0.000 C 
BRANCH  14  15
ATOM     15  C   UNL     1     167.532 169.868 148.219  1.00  0.00     0.000 C 
BRANCH  15  16
ATOM     16  C   UNL     1     166.724 168.850 149.045  1.00  0.00     0.000 C 
BRANCH  16  17
ATOM     17  C   UNL     1     165.267 168.740 148.568  1.00  0.00     0.000 C 
BRANCH  17  18
ATOM     18  C   UNL     1     164.672 167.342 148.802  1.00  0.00     0.000 C 
BRANCH  18  19
ATOM     19  C   UNL     1     165.132 166.329 147.730  1.00  0.00     0.000 C 
BRANCH  19  20
ATOM     20  C   UNL     1     165.327 166.962 146.339  1.00  0.00     0.006 C 
BRANCH  20  21
ATOM     21  C   UNL     1     165.562 165.939 145.217  1.00  0.00     0.053 C 
BRANCH  21  22
ATOM     22  C   UNL     1     166.218 166.564 144.023  1.00  0.00     0.041 C 
ATOM     23  O   UNL     1     167.314 167.169 144.150  1.00  0.00    -0.550 OA
ATOM     24  O   UNL     1     165.609 166.498 142.776  1.00  0.00    -0.550 OA
ENDBRANCH  21  22
ENDBRANCH  20  21
ENDBRANCH  19  20
ENDBRANCH  18  19
ENDBRANCH  17  18
ENDBRANCH  16  17
ENDBRANCH  15  16
ENDBRANCH  14  15
ENDBRANCH  13  14
ENDBRANCH   1  13
TORSDOF 20
ENDMDL
MODEL 6
REMARK VINA RESULT:    -3.122     12.586     15.775
REMARK INTER + INTRA:          -9.971
REMARK INTER:                  -6.085
REMARK INTRA:                  -3.886
REMARK UNBOUND:                -3.198
REMARK SMILES CCCCCCCCCCCCCCCCCCCCCC(=O)[O-]
REMARK SMILES IDX 12 1 11 2 10 3 9 4 8 5 7 6 6 7 5 8 4 9 3 10 2 11 1 12 13 13
REMARK SMILES IDX 14 14 15 15 16 16 17 17 18 18 19 19 20 20 21 21 22 22 23 23
REMARK SMILES IDX 24 24
REMARK H PARENT
REMARK Flexibility Score: inf
ROOT
ATOM      1  C   UNL     1     170.806 153.979 151.061  1.00  0.00     0.000 C 
ENDROOT
BRANCH   1   2
ATOM      2  C   UNL     1     171.902 153.012 150.559  1.00  0.00     0.000 C 
BRANCH   2   3
ATOM      3  C   UNL     1     172.828 152.483 151.675  1.00  0.00     0.000 C 
BRANCH   3   4
ATOM      4  C   UNL     1     172.143 152.243 153.038  1.00  0.00    -0.000 C 
BRANCH   4   5
ATOM      5  C   UNL     1     172.627 153.147 154.187  1.00  0.00    -0.000 C 
BRANCH   5   6
ATOM      6  C   UNL     1     173.008 152.353 155.449  1.00  0.00    -0.000 C 
BRANCH   6   7
ATOM      7  C   UNL     1     171.810 151.599 156.057  1.00  0.00    -0.000 C 
BRANCH   7   8
ATOM      8  C   UNL     1     170.603 152.489 156.419  1.00  0.00    -0.000 C 
BRANCH   8   9
ATOM      9  C   UNL     1     169.226 151.877 156.091  1.00  0.00    -0.000 C 
BRANCH   9  10
ATOM     10  C   UNL     1     168.786 152.148 154.644  1.00  0.00    -0.000 C 
BRANCH  10  11
ATOM     11  C   UNL     1     168.947 153.632 154.288  1.00  0.00    -0.003 C 
ATOM     12  C   UNL     1     167.592 154.283 154.024  1.00  0.00     0.004 C 
ENDBRANCH  10  11
ENDBRANCH   9  10
ENDBRANCH   8   9
ENDBRANCH   7   8
ENDBRANCH   6   7
ENDBRANCH   5   6
ENDBRANCH   4   5
ENDBRANCH   3   4
ENDBRANCH   2   3
ENDBRANCH   1   2
BRANCH   1  13
ATOM     13  C   UNL     1     171.271 155.443 151.144  1.00  0.00     0.000 C 
BRANCH  13  14
ATOM     14  C   UNL     1     170.567 156.226 152.266  1.00  0.00     0.000 C 
BRANCH  14  15
ATOM     15  C   UNL     1     171.498 157.231 152.966  1.00  0.00     0.000 C 
BRANCH  15  16
ATOM     16  C   UNL     1     172.485 156.555 153.934  1.00  0.00     0.000 C 
BRANCH  16  17
ATOM     17  C   UNL     1     172.350 157.089 155.370  1.00  0.00     0.000 C 
BRANCH  17  18
ATOM     18  C   UNL     1     171.760 156.048 156.335  1.00  0.00     0.000 C 
BRANCH  18  19
ATOM     19  C   UNL     1     170.222 156.158 156.436  1.00  0.00     0.000 C 
BRANCH  19  20
ATOM     20  C   UNL     1     169.696 157.587 156.199  1.00  0.00     0.006 C 
BRANCH  20  21
ATOM     21  C   UNL     1     168.264 157.640 155.646  1.00  0.00     0.053 C 
BRANCH  21  22
ATOM     22  C   UNL     1     168.203 158.352 154.329  1.00  0.00     0.041 C 
ATOM     23  O   UNL     1     168.719 159.493 154.204  1.00  0.00    -0.550 OA
ATOM     24  O   UNL     1     167.558 157.766 153.246  1.00  0.00    -0.550 OA
ENDBRANCH  21  22
ENDBRANCH  20  21
ENDBRANCH  19  20
ENDBRANCH  18  19
ENDBRANCH  17  18
ENDBRANCH  16  17
ENDBRANCH  15  16
ENDBRANCH  14  15
ENDBRANCH  13  14
ENDBRANCH   1  13
TORSDOF 20
ENDMDL
MODEL 7
REMARK VINA RESULT:    -3.089      7.730     10.491
REMARK INTER + INTRA:          -9.899
REMARK INTER:                  -6.144
REMARK INTRA:                  -3.755
REMARK UNBOUND:                -3.198
REMARK SMILES CCCCCCCCCCCCCCCCCCCCCC(=O)[O-]
REMARK SMILES IDX 12 1 11 2 10 3 9 4 8 5 7 6 6 7 5 8 4 9 3 10 2 11 1 12 13 13
REMARK SMILES IDX 14 14 15 15 16 16 17 17 18 18 19 19 20 20 21 21 22 22 23 23
REMARK SMILES IDX 24 24
REMARK H PARENT
REMARK Flexibility Score: inf
ROOT
ATOM      1  C   UNL     1     168.013 163.585 143.296  1.00  0.00     0.000 C 
ENDROOT
BRANCH   1   2
ATOM      2  C   UNL     1     167.992 165.030 143.843  1.00  0.00     0.000 C 
BRANCH   2   3
ATOM      3  C   UNL     1     167.858 165.118 145.378  1.00  0.00     0.000 C 
BRANCH   3   4
ATOM      4  C   UNL     1     169.185 165.319 146.142  1.00  0.00    -0.000 C 
BRANCH   4   5
ATOM      5  C   UNL     1     169.838 164.033 146.680  1.00  0.00    -0.000 C 
BRANCH   5   6
ATOM      6  C   UNL     1     168.837 162.874 146.827  1.00  0.00    -0.000 C 
BRANCH   6   7
ATOM      7  C   UNL     1     169.223 161.899 147.956  1.00  0.00    -0.000 C 
BRANCH   7   8
ATOM      8  C   UNL     1     170.464 161.030 147.663  1.00  0.00    -0.000 C 
BRANCH   8   9
ATOM      9  C   UNL     1     170.574 160.529 146.208  1.00  0.00    -0.000 C 
BRANCH   9  10
ATOM     10  C   UNL     1     172.029 160.409 145.731  1.00  0.00    -0.000 C 
BRANCH  10  11
ATOM     11  C   UNL     1     172.494 161.702 145.048  1.00  0.00    -0.003 C 
ATOM     12  C   UNL     1     172.824 161.457 143.578  1.00  0.00     0.004 C 
ENDBRANCH  10  11
ENDBRANCH   9  10
ENDBRANCH   8   9
ENDBRANCH   7   8
ENDBRANCH   6   7
ENDBRANCH   5   6
ENDBRANCH   4   5
ENDBRANCH   3   4
ENDBRANCH   2   3
ENDBRANCH   1   2
BRANCH   1  13
ATOM     13  C   UNL     1     169.431 163.035 143.069  1.00  0.00     0.000 C 
BRANCH  13  14
ATOM     14  C   UNL     1     170.444 164.136 142.710  1.00  0.00     0.000 C 
BRANCH  14  15
ATOM     15  C   UNL     1     170.699 164.241 141.197  1.00  0.00     0.000 C 
BRANCH  15  16
ATOM     16  C   UNL     1     170.704 165.695 140.692  1.00  0.00     0.000 C 
BRANCH  16  17
ATOM     17  C   UNL     1     169.297 166.317 140.693  1.00  0.00     0.000 C 
BRANCH  17  18
ATOM     18  C   UNL     1     169.252 167.678 141.405  1.00  0.00     0.000 C 
BRANCH  18  19
ATOM     19  C   UNL     1     170.580 167.997 142.130  1.00  0.00     0.000 C 
BRANCH  19  20
ATOM     20  C   UNL     1     170.509 167.780 143.653  1.00  0.00     0.006 C 
BRANCH  20  21
ATOM     21  C   UNL     1     171.780 167.159 144.253  1.00  0.00     0.053 C 
BRANCH  21  22
ATOM     22  C   UNL     1     172.181 167.835 145.528  1.00  0.00     0.041 C 
ATOM     23  O   UNL     1     172.238 167.178 146.600  1.00  0.00    -0.550 OA
ATOM     24  O   UNL     1     172.472 169.194 145.538  1.00  0.00    -0.550 OA
ENDBRANCH  21  22
ENDBRANCH  20  21
ENDBRANCH  19  20
ENDBRANCH  18  19
ENDBRANCH  17  18
ENDBRANCH  16  17
ENDBRANCH  15  16
ENDBRANCH  14  15
ENDBRANCH  13  14
ENDBRANCH   1  13
TORSDOF 20
ENDMDL
MODEL 8
REMARK VINA RESULT:    -3.065      7.368     10.853
REMARK INTER + INTRA:          -9.846
REMARK INTER:                  -6.057
REMARK INTRA:                  -3.789
REMARK UNBOUND:                -3.198
REMARK SMILES CCCCCCCCCCCCCCCCCCCCCC(=O)[O-]
REMARK SMILES IDX 12 1 11 2 10 3 9 4 8 5 7 6 6 7 5 8 4 9 3 10 2 11 1 12 13 13
REMARK SMILES IDX 14 14 15 15 16 16 17 17 18 18 19 19 20 20 21 21 22 22 23 23
REMARK SMILES IDX 24 24
REMARK H PARENT
REMARK Flexibility Score: inf
ROOT
ATOM      1  C   UNL     1     171.341 163.343 143.106  1.00  0.00     0.000 C 
ENDROOT
BRANCH   1   2
ATOM      2  C   UNL     1     171.808 163.979 141.777  1.00  0.00     0.000 C 
BRANCH   2   3
ATOM      3  C   UNL     1     173.093 164.825 141.905  1.00  0.00     0.000 C 
BRANCH   3   4
ATOM      4  C   UNL     1     172.912 166.336 141.642  1.00  0.00    -0.000 C 
BRANCH   4   5
ATOM      5  C   UNL     1     172.939 167.231 142.895  1.00  0.00    -0.000 C 
BRANCH   5   6
ATOM      6  C   UNL     1     171.679 168.104 143.030  1.00  0.00    -0.000 C 
BRANCH   6   7
ATOM      7  C   UNL     1     170.378 167.287 142.922  1.00  0.00    -0.000 C 
BRANCH   7   8
ATOM      8  C   UNL     1     169.795 166.821 144.272  1.00  0.00    -0.000 C 
BRANCH   8   9
ATOM      9  C   UNL     1     170.129 167.732 145.471  1.00  0.00    -0.000 C 
BRANCH   9  10
ATOM     10  C   UNL     1     170.640 166.946 146.688  1.00  0.00    -0.000 C 
BRANCH  10  11
ATOM     11  C   UNL     1     172.030 167.435 147.116  1.00  0.00    -0.003 C 
ATOM     12  C   UNL     1     173.125 166.524 146.568  1.00  0.00     0.004 C 
ENDBRANCH  10  11
ENDBRANCH   9  10
ENDBRANCH   8   9
ENDBRANCH   7   8
ENDBRANCH   6   7
ENDBRANCH   5   6
ENDBRANCH   4   5
ENDBRANCH   3   4
ENDBRANCH   2   3
ENDBRANCH   1   2
BRANCH   1  13
ATOM     13  C   UNL     1     172.089 163.879 144.338  1.00  0.00     0.000 C 
BRANCH  13  14
ATOM     14  C   UNL     1     172.908 162.791 145.055  1.00  0.00     0.000 C 
BRANCH  14  15
ATOM     15  C   UNL     1     172.536 161.369 144.602  1.00  0.00     0.000 C 
BRANCH  15  16
ATOM     16  C   UNL     1     172.249 160.423 145.782  1.00  0.00     0.000 C 
BRANCH  16  17
ATOM     17  C   UNL     1     170.746 160.313 146.088  1.00  0.00     0.000 C 
BRANCH  17  18
ATOM     18  C   UNL     1     170.250 161.428 147.022  1.00  0.00     0.000 C 
BRANCH  18  19
ATOM     19  C   UNL     1     169.020 162.164 146.443  1.00  0.00     0.000 C 
BRANCH  19  20
ATOM     20  C   UNL     1     169.120 163.697 146.555  1.00  0.00     0.006 C 
BRANCH  20  21
ATOM     21  C   UNL     1     167.764 164.416 146.492  1.00  0.00     0.053 C 
BRANCH  21  22
ATOM     22  C   UNL     1     166.986 164.031 145.270  1.00  0.00     0.041 C 
ATOM     23  O   UNL     1     165.822 163.567 145.384  1.00  0.00    -0.550 OA
ATOM     24  O   UNL     1     167.554 164.164 144.009  1.00  0.00    -0.550 OA
ENDBRANCH  21  22
ENDBRANCH  20  21
ENDBRANCH  19  20
ENDBRANCH  18  19
ENDBRANCH  17  18
ENDBRANCH  16  17
ENDBRANCH  15  16
ENDBRANCH  14  15
ENDBRANCH  13  14
ENDBRANCH   1  13
TORSDOF 20
ENDMDL
MODEL 9
REMARK VINA RESULT:    -3.039      7.721     10.826
REMARK INTER + INTRA:          -9.790
REMARK INTER:                  -6.305
REMARK INTRA:                  -3.485
REMARK UNBOUND:                -3.198
REMARK SMILES CCCCCCCCCCCCCCCCCCCCCC(=O)[O-]
REMARK SMILES IDX 12 1 11 2 10 3 9 4 8 5 7 6 6 7 5 8 4 9 3 10 2 11 1 12 13 13
REMARK SMILES IDX 14 14 15 15 16 16 17 17 18 18 19 19 20 20 21 21 22 22 23 23
REMARK SMILES IDX 24 24
REMARK H PARENT
REMARK Flexibility Score: inf
ROOT
ATOM      1  C   UNL     1     172.690 161.722 145.294  1.00  0.00     0.000 C 
ENDROOT
BRANCH   1   2
ATOM      2  C   UNL     1     172.903 162.688 144.106  1.00  0.00     0.000 C 
BRANCH   2   3
ATOM      3  C   UNL     1     171.866 162.529 142.975  1.00  0.00     0.000 C 
BRANCH   3   4
ATOM      4  C   UNL     1     171.550 163.821 142.188  1.00  0.00    -0.000 C 
BRANCH   4   5
ATOM      5  C   UNL     1     172.776 164.638 141.743  1.00  0.00    -0.000 C 
BRANCH   5   6
ATOM      6  C   UNL     1     173.117 165.779 142.717  1.00  0.00    -0.000 C 
BRANCH   6   7
ATOM      7  C   UNL     1     172.914 167.172 142.090  1.00  0.00    -0.000 C 
BRANCH   7   8
ATOM      8  C   UNL     1     172.129 168.167 142.970  1.00  0.00    -0.000 C 
BRANCH   8   9
ATOM      9  C   UNL     1     170.620 168.251 142.664  1.00  0.00    -0.000 C 
BRANCH   9  10
ATOM     10  C   UNL     1     169.812 167.144 143.359  1.00  0.00    -0.000 C 
BRANCH  10  11
ATOM     11  C   UNL     1     168.649 166.674 142.477  1.00  0.00    -0.003 C 
ATOM     12  C   UNL     1     169.090 166.519 141.024  1.00  0.00     0.004 C 
ENDBRANCH  10  11
ENDBRANCH   9  10
ENDBRANCH   8   9
ENDBRANCH   7   8
ENDBRANCH   6   7
ENDBRANCH   5   6
ENDBRANCH   4   5
ENDBRANCH   3   4
ENDBRANCH   2   3
ENDBRANCH   1   2
BRANCH   1  13
ATOM     13  C   UNL     1     171.852 160.484 144.933  1.00  0.00     0.000 C 
BRANCH  13  14
ATOM     14  C   UNL     1     170.480 160.473 145.629  1.00  0.00     0.000 C 
BRANCH  14  15
ATOM     15  C   UNL     1     170.533 161.033 147.060  1.00  0.00     0.000 C 
BRANCH  15  16
ATOM     16  C   UNL     1     169.694 162.313 147.232  1.00  0.00     0.000 C 
BRANCH  16  17
ATOM     17  C   UNL     1     169.050 162.768 145.912  1.00  0.00     0.000 C 
BRANCH  17  18
ATOM     18  C   UNL     1     169.576 164.131 145.436  1.00  0.00     0.000 C 
BRANCH  18  19
ATOM     19  C   UNL     1     170.374 164.862 146.539  1.00  0.00     0.000 C 
BRANCH  19  20
ATOM     20  C   UNL     1     171.744 165.379 146.059  1.00  0.00     0.006 C 
BRANCH  20  21
ATOM     21  C   UNL     1     172.361 166.448 146.973  1.00  0.00     0.053 C 
BRANCH  21  22
ATOM     22  C   UNL     1     171.617 167.746 146.891  1.00  0.00     0.041 C 
ATOM     23  O   UNL     1     170.409 167.804 147.240  1.00  0.00    -0.550 OA
ATOM     24  O   UNL     1     172.250 168.886 146.410  1.00  0.00    -0.550 OA
ENDBRANCH  21  22
ENDBRANCH  20  21
ENDBRANCH  19  20
ENDBRANCH  18  19
ENDBRANCH  17  18
ENDBRANCH  16  17
ENDBRANCH  15  16
ENDBRANCH  14  15
ENDBRANCH  13  14
ENDBRANCH   1  13
TORSDOF 20
ENDMDL
