MODEL 1
REMARK VINA RESULT:    -5.589      0.000      0.000
REMARK INTER + INTRA:          -9.374
REMARK INTER:                  -8.529
REMARK INTRA:                  -0.845
REMARK UNBOUND:                -0.845
REMARK SMILES CCCCCCCCCC=CC(=O)[O-]
REMARK SMILES IDX 7 1 8 2 9 3 10 4 11 5 12 6 13 7 14 8 6 9 5 10 4 11 3 12 2 13
REMARK SMILES IDX 1 14
REMARK H PARENT
REMARK Flexibility Score: inf
ROOT
ATOM      1  C   UNL     1      43.344  40.728  14.716  1.00  0.00     0.000 C 
ENDROOT
BRANCH   1   2
ATOM      2  C   UNL     1      42.292  41.529  15.498  1.00  0.00     0.004 C 
BRANCH   2   3
ATOM      3  C   UNL     1      41.157  40.637  16.022  1.00  0.00     0.027 C 
BRANCH   3   4
ATOM      4  C   UNL     1      40.938  40.796  17.500  1.00  0.00    -0.025 C 
ATOM      5  C   UNL     1      41.962  40.853  18.358  1.00  0.00     0.020 C 
BRANCH   5   6
ATOM      6  C   UNL     1      41.762  41.015  19.804  1.00  0.00     0.064 C 
ATOM      7  O   UNL     1      41.877  40.018  20.564  1.00  0.00    -0.545 OA
ATOM      8  O   UNL     1      41.445  42.255  20.349  1.00  0.00    -0.545 OA
ENDBRANCH   5   6
ENDBRANCH   3   4
ENDBRANCH   2   3
ENDBRANCH   1   2
BRANCH   1   9
ATOM      9  C   UNL     1      43.198  39.225  14.980  1.00  0.00     0.000 C 
BRANCH   9  10
ATOM     10  C   UNL     1      42.933  38.460  13.675  1.00  0.00     0.000 C 
BRANCH  10  11
ATOM     11  C   UNL     1      42.145  37.160  13.901  1.00  0.00    -0.000 C 
BRANCH  11  12
ATOM     12  C   UNL     1      40.755  37.188  13.242  1.00  0.00    -0.000 C 
BRANCH  12  13
ATOM     13  C   UNL     1      40.195  38.613  13.110  1.00  0.00    -0.003 C 
ATOM     14  C   UNL     1      39.068  38.712  12.083  1.00  0.00     0.004 C 
ENDBRANCH  12  13
ENDBRANCH  11  12
ENDBRANCH  10  11
ENDBRANCH   9  10
ENDBRANCH   1   9
TORSDOF 9
ENDMDL
MODEL 2
REMARK VINA RESULT:    -5.375      0.699      1.061
REMARK INTER + INTRA:          -9.048
REMARK INTER:                  -8.196
REMARK INTRA:                  -0.852
REMARK UNBOUND:                -0.845
REMARK SMILES CCCCCCCCCC=CC(=O)[O-]
REMARK SMILES IDX 7 1 8 2 9 3 10 4 11 5 12 6 13 7 14 8 6 9 5 10 4 11 3 12 2 13
REMARK SMILES IDX 1 14
REMARK H PARENT
REMARK Flexibility Score: inf
ROOT
ATOM      1  C   UNL     1      43.314  40.493  15.292  1.00  0.00     0.000 C 
ENDROOT
BRANCH   1   2
ATOM      2  C   UNL     1      41.926  41.105  15.052  1.00  0.00     0.004 C 
BRANCH   2   3
ATOM      3  C   UNL     1      41.003  40.942  16.269  1.00  0.00     0.027 C 
BRANCH   3   4
ATOM      4  C   UNL     1      41.770  40.754  17.548  1.00  0.00    -0.025 C 
ATOM      5  C   UNL     1      41.356  41.294  18.699  1.00  0.00     0.020 C 
BRANCH   5   6
ATOM      6  C   UNL     1      42.093  41.112  19.957  1.00  0.00     0.064 C 
ATOM      7  O   UNL     1      42.815  42.046  20.396  1.00  0.00    -0.545 OA
ATOM      8  O   UNL     1      42.007  39.923  20.673  1.00  0.00    -0.545 OA
ENDBRANCH   5   6
ENDBRANCH   3   4
ENDBRANCH   2   3
ENDBRANCH   1   2
BRANCH   1   9
ATOM      9  C   UNL     1      43.636  39.429  14.236  1.00  0.00     0.000 C 
BRANCH   9  10
ATOM     10  C   UNL     1      42.994  38.082  14.600  1.00  0.00     0.000 C 
BRANCH  10  11
ATOM     11  C   UNL     1      42.355  37.385  13.388  1.00  0.00    -0.000 C 
BRANCH  11  12
ATOM     12  C   UNL     1      40.824  37.288  13.501  1.00  0.00    -0.000 C 
BRANCH  12  13
ATOM     13  C   UNL     1      40.131  38.641  13.282  1.00  0.00    -0.003 C 
ATOM     14  C   UNL     1      39.173  38.629  12.091  1.00  0.00     0.004 C 
ENDBRANCH  12  13
ENDBRANCH  11  12
ENDBRANCH  10  11
ENDBRANCH   9  10
ENDBRANCH   1   9
TORSDOF 9
ENDMDL
MODEL 3
REMARK VINA RESULT:    -5.302      0.993      1.418
REMARK INTER + INTRA:          -8.937
REMARK INTER:                  -7.974
REMARK INTRA:                  -0.962
REMARK UNBOUND:                -0.845
REMARK SMILES CCCCCCCCCC=CC(=O)[O-]
REMARK SMILES IDX 7 1 8 2 9 3 10 4 11 5 12 6 13 7 14 8 6 9 5 10 4 11 3 12 2 13
REMARK SMILES IDX 1 14
REMARK H PARENT
REMARK Flexibility Score: inf
ROOT
ATOM      1  C   UNL     1      42.586  41.103  15.066  1.00  0.00     0.000 C 
ENDROOT
BRANCH   1   2
ATOM      2  C   UNL     1      41.161  41.523  15.459  1.00  0.00     0.004 C 
BRANCH   2   3
ATOM      3  C   UNL     1      40.674  40.802  16.725  1.00  0.00     0.027 C 
BRANCH   3   4
ATOM      4  C   UNL     1      40.894  41.616  17.969  1.00  0.00    -0.025 C 
ATOM      5  C   UNL     1      41.962  41.426  18.751  1.00  0.00     0.020 C 
BRANCH   5   6
ATOM      6  C   UNL     1      42.191  42.220  19.966  1.00  0.00     0.064 C 
ATOM      7  O   UNL     1      41.290  42.290  20.842  1.00  0.00    -0.545 OA
ATOM      8  O   UNL     1      43.389  42.898  20.164  1.00  0.00    -0.545 OA
ENDBRANCH   5   6
ENDBRANCH   3   4
ENDBRANCH   2   3
ENDBRANCH   1   2
BRANCH   1   9
ATOM      9  C   UNL     1      42.891  39.679  15.544  1.00  0.00     0.000 C 
BRANCH   9  10
ATOM     10  C   UNL     1      43.769  38.933  14.527  1.00  0.00     0.000 C 
BRANCH  10  11
ATOM     11  C   UNL     1      42.958  38.357  13.356  1.00  0.00    -0.000 C 
BRANCH  11  12
ATOM     12  C   UNL     1      42.240  37.046  13.722  1.00  0.00    -0.000 C 
BRANCH  12  13
ATOM     13  C   UNL     1      40.741  37.084  13.389  1.00  0.00    -0.003 C 
ATOM     14  C   UNL     1      40.214  38.505  13.196  1.00  0.00     0.004 C 
ENDBRANCH  12  13
ENDBRANCH  11  12
ENDBRANCH  10  11
ENDBRANCH   9  10
ENDBRANCH   1   9
TORSDOF 9
ENDMDL
MODEL 4
REMARK VINA RESULT:    -5.169      3.287      6.151
REMARK INTER + INTRA:          -8.734
REMARK INTER:                  -7.590
REMARK INTRA:                  -1.144
REMARK UNBOUND:                -0.845
REMARK SMILES CCCCCCCCCC=CC(=O)[O-]
REMARK SMILES IDX 7 1 8 2 9 3 10 4 11 5 12 6 13 7 14 8 6 9 5 10 4 11 3 12 2 13
REMARK SMILES IDX 1 14
REMARK H PARENT
REMARK Flexibility Score: inf
ROOT
ATOM      1  C   UNL     1      42.719  42.022  16.352  1.00  0.00     0.000 C 
ENDROOT
BRANCH   1   2
ATOM      2  C   UNL     1      43.021  41.411  14.975  1.00  0.00     0.004 C 
BRANCH   2   3
ATOM      3  C   UNL     1      43.537  39.969  15.083  1.00  0.00     0.027 C 
BRANCH   3   4
ATOM      4  C   UNL     1      42.673  38.994  14.332  1.00  0.00    -0.025 C 
ATOM      5  C   UNL     1      41.374  39.229  14.119  1.00  0.00     0.020 C 
BRANCH   5   6
ATOM      6  C   UNL     1      40.521  38.287  13.381  1.00  0.00     0.064 C 
ATOM      7  O   UNL     1      40.750  37.051  13.457  1.00  0.00    -0.545 OA
ATOM      8  O   UNL     1      39.465  38.738  12.599  1.00  0.00    -0.545 OA
ENDBRANCH   5   6
ENDBRANCH   3   4
ENDBRANCH   2   3
ENDBRANCH   1   2
BRANCH   1   9
ATOM      9  C   UNL     1      41.210  42.190  16.560  1.00  0.00     0.000 C 
BRANCH   9  10
ATOM     10  C   UNL     1      40.673  41.154  17.560  1.00  0.00     0.000 C 
BRANCH  10  11
ATOM     11  C   UNL     1      41.794  40.434  18.324  1.00  0.00    -0.000 C 
BRANCH  11  12
ATOM     12  C   UNL     1      41.679  40.610  19.848  1.00  0.00    -0.000 C 
BRANCH  12  13
ATOM     13  C   UNL     1      41.794  42.080  20.281  1.00  0.00    -0.003 C 
ATOM     14  C   UNL     1      43.213  42.630  20.133  1.00  0.00     0.004 C 
ENDBRANCH  12  13
ENDBRANCH  11  12
ENDBRANCH  10  11
ENDBRANCH   9  10
ENDBRANCH   1   9
TORSDOF 9
ENDMDL
MODEL 5
REMARK VINA RESULT:    -5.056      3.517      6.449
REMARK INTER + INTRA:          -8.561
REMARK INTER:                  -7.476
REMARK INTRA:                  -1.085
REMARK UNBOUND:                -0.845
REMARK SMILES CCCCCCCCCC=CC(=O)[O-]
REMARK SMILES IDX 7 1 8 2 9 3 10 4 11 5 12 6 13 7 14 8 6 9 5 10 4 11 3 12 2 13
REMARK SMILES IDX 1 14
REMARK H PARENT
REMARK Flexibility Score: inf
ROOT
ATOM      1  C   UNL     1      40.831  42.458  16.722  1.00  0.00     0.000 C 
ENDROOT
BRANCH   1   2
ATOM      2  C   UNL     1      40.743  40.957  16.406  1.00  0.00     0.004 C 
BRANCH   2   3
ATOM      3  C   UNL     1      42.029  40.427  15.754  1.00  0.00     0.027 C 
BRANCH   3   4
ATOM      4  C   UNL     1      41.751  39.409  14.684  1.00  0.00    -0.025 C 
ATOM      5  C   UNL     1      40.535  39.275  14.144  1.00  0.00     0.020 C 
BRANCH   5   6
ATOM      6  C   UNL     1      40.252  38.288  13.092  1.00  0.00     0.064 C 
ATOM      7  O   UNL     1      39.450  38.579  12.166  1.00  0.00    -0.545 OA
ATOM      8  O   UNL     1      40.856  37.036  13.103  1.00  0.00    -0.545 OA
ENDBRANCH   5   6
ENDBRANCH   3   4
ENDBRANCH   2   3
ENDBRANCH   1   2
BRANCH   1   9
ATOM      9  C   UNL     1      42.230  43.004  16.413  1.00  0.00     0.000 C 
BRANCH   9  10
ATOM     10  C   UNL     1      42.926  43.488  17.694  1.00  0.00     0.000 C 
BRANCH  10  11
ATOM     11  C   UNL     1      43.451  42.330  18.556  1.00  0.00    -0.000 C 
BRANCH  11  12
ATOM     12  C   UNL     1      42.954  42.402  20.010  1.00  0.00    -0.000 C 
BRANCH  12  13
ATOM     13  C   UNL     1      41.650  41.621  20.226  1.00  0.00    -0.003 C 
ATOM     14  C   UNL     1      41.780  40.142  19.863  1.00  0.00     0.004 C 
ENDBRANCH  12  13
ENDBRANCH  11  12
ENDBRANCH  10  11
ENDBRANCH   9  10
ENDBRANCH   1   9
TORSDOF 9
ENDMDL
MODEL 6
REMARK VINA RESULT:    -4.819      3.599      6.669
REMARK INTER + INTRA:          -8.200
REMARK INTER:                  -7.476
REMARK INTRA:                  -0.724
REMARK UNBOUND:                -0.845
REMARK SMILES CCCCCCCCCC=CC(=O)[O-]
REMARK SMILES IDX 7 1 8 2 9 3 10 4 11 5 12 6 13 7 14 8 6 9 5 10 4 11 3 12 2 13
REMARK SMILES IDX 1 14
REMARK H PARENT
REMARK Flexibility Score: inf
ROOT
ATOM      1  C   UNL     1      40.638  40.885  16.769  1.00  0.00     0.000 C 
ENDROOT
BRANCH   1   2
ATOM      2  C   UNL     1      41.231  40.971  15.354  1.00  0.00     0.004 C 
BRANCH   2   3
ATOM      3  C   UNL     1      42.765  41.041  15.374  1.00  0.00     0.027 C 
BRANCH   3   4
ATOM      4  C   UNL     1      43.402  39.840  14.731  1.00  0.00    -0.025 C 
ATOM      5  C   UNL     1      42.676  38.786  14.345  1.00  0.00     0.020 C 
BRANCH   5   6
ATOM      6  C   UNL     1      43.286  37.609  13.709  1.00  0.00     0.064 C 
ATOM      7  O   UNL     1      44.491  37.652  13.348  1.00  0.00    -0.545 OA
ATOM      8  O   UNL     1      42.552  36.448  13.499  1.00  0.00    -0.545 OA
ENDBRANCH   5   6
ENDBRANCH   3   4
ENDBRANCH   2   3
ENDBRANCH   1   2
BRANCH   1   9
ATOM      9  C   UNL     1      41.725  41.073  17.833  1.00  0.00     0.000 C 
BRANCH   9  10
ATOM     10  C   UNL     1      41.506  40.119  19.018  1.00  0.00     0.000 C 
BRANCH  10  11
ATOM     11  C   UNL     1      42.172  40.618  20.309  1.00  0.00    -0.000 C 
BRANCH  11  12
ATOM     12  C   UNL     1      41.954  42.122  20.545  1.00  0.00    -0.000 C 
BRANCH  12  13
ATOM     13  C   UNL     1      43.246  42.849  20.948  1.00  0.00    -0.003 C 
ATOM     14  C   UNL     1      43.962  43.486  19.758  1.00  0.00     0.004 C 
ENDBRANCH  12  13
ENDBRANCH  11  12
ENDBRANCH  10  11
ENDBRANCH   9  10
ENDBRANCH   1   9
TORSDOF 9
ENDMDL
MODEL 7
REMARK VINA RESULT:    -4.771      3.456      6.324
REMARK INTER + INTRA:          -8.127
REMARK INTER:                  -7.365
REMARK INTRA:                  -0.762
REMARK UNBOUND:                -0.845
REMARK SMILES CCCCCCCCCC=CC(=O)[O-]
REMARK SMILES IDX 7 1 8 2 9 3 10 4 11 5 12 6 13 7 14 8 6 9 5 10 4 11 3 12 2 13
REMARK SMILES IDX 1 14
REMARK H PARENT
REMARK Flexibility Score: inf
ROOT
ATOM      1  C   UNL     1      40.963  41.254  16.540  1.00  0.00     0.000 C 
ENDROOT
BRANCH   1   2
ATOM      2  C   UNL     1      41.219  41.027  15.043  1.00  0.00     0.004 C 
BRANCH   2   3
ATOM      3  C   UNL     1      40.368  39.880  14.477  1.00  0.00     0.027 C 
BRANCH   3   4
ATOM      4  C   UNL     1      41.204  38.720  14.014  1.00  0.00    -0.025 C 
ATOM      5  C   UNL     1      42.534  38.714  14.158  1.00  0.00     0.020 C 
BRANCH   5   6
ATOM      6  C   UNL     1      43.362  37.584  13.716  1.00  0.00     0.064 C 
ATOM      7  O   UNL     1      44.596  37.751  13.532  1.00  0.00    -0.545 OA
ATOM      8  O   UNL     1      42.803  36.330  13.496  1.00  0.00    -0.545 OA
ENDBRANCH   5   6
ENDBRANCH   3   4
ENDBRANCH   2   3
ENDBRANCH   1   2
BRANCH   1   9
ATOM      9  C   UNL     1      40.864  42.750  16.860  1.00  0.00     0.000 C 
BRANCH   9  10
ATOM     10  C   UNL     1      42.209  43.294  17.366  1.00  0.00     0.000 C 
BRANCH  10  11
ATOM     11  C   UNL     1      43.053  42.222  18.072  1.00  0.00    -0.000 C 
BRANCH  11  12
ATOM     12  C   UNL     1      43.000  42.341  19.605  1.00  0.00    -0.000 C 
BRANCH  12  13
ATOM     13  C   UNL     1      41.827  41.561  20.216  1.00  0.00    -0.003 C 
ATOM     14  C   UNL     1      41.929  40.055  19.976  1.00  0.00     0.004 C 
ENDBRANCH  12  13
ENDBRANCH  11  12
ENDBRANCH  10  11
ENDBRANCH   9  10
ENDBRANCH   1   9
TORSDOF 9
ENDMDL
MODEL 8
REMARK VINA RESULT:    -4.624     10.003     11.485
REMARK INTER + INTRA:          -7.901
REMARK INTER:                  -7.026
REMARK INTRA:                  -0.875
REMARK UNBOUND:                -0.845
REMARK SMILES CCCCCCCCCC=CC(=O)[O-]
REMARK SMILES IDX 7 1 8 2 9 3 10 4 11 5 12 6 13 7 14 8 6 9 5 10 4 11 3 12 2 13
REMARK SMILES IDX 1 14
REMARK H PARENT
REMARK Flexibility Score: inf
ROOT
ATOM      1  C   UNL     1      39.145  28.483  13.908  1.00  0.00     0.000 C 
ENDROOT
BRANCH   1   2
ATOM      2  C   UNL     1      39.043  30.011  13.785  1.00  0.00     0.004 C 
BRANCH   2   3
ATOM      3  C   UNL     1      38.272  30.636  14.957  1.00  0.00     0.027 C 
BRANCH   3   4
ATOM      4  C   UNL     1      36.794  30.715  14.694  1.00  0.00    -0.025 C 
ATOM      5  C   UNL     1      36.313  31.187  13.540  1.00  0.00     0.020 C 
BRANCH   5   6
ATOM      6  C   UNL     1      34.871  31.262  13.268  1.00  0.00     0.064 C 
ATOM      7  O   UNL     1      34.205  30.201  13.143  1.00  0.00    -0.545 OA
ATOM      8  O   UNL     1      34.228  32.489  13.145  1.00  0.00    -0.545 OA
ENDBRANCH   5   6
ENDBRANCH   3   4
ENDBRANCH   2   3
ENDBRANCH   1   2
BRANCH   1   9
ATOM      9  C   UNL     1      40.608  28.034  13.983  1.00  0.00     0.000 C 
BRANCH   9  10
ATOM     10  C   UNL     1      41.560  29.232  13.843  1.00  0.00     0.000 C 
BRANCH  10  11
ATOM     11  C   UNL     1      42.485  29.398  15.058  1.00  0.00    -0.000 C 
BRANCH  11  12
ATOM     12  C   UNL     1      42.195  30.684  15.851  1.00  0.00    -0.000 C 
BRANCH  12  13
ATOM     13  C   UNL     1      41.563  30.400  17.222  1.00  0.00    -0.003 C 
ATOM     14  C   UNL     1      42.332  29.347  18.020  1.00  0.00     0.004 C 
ENDBRANCH  12  13
ENDBRANCH  11  12
ENDBRANCH  10  11
ENDBRANCH   9  10
ENDBRANCH   1   9
TORSDOF 9
ENDMDL
MODEL 9
REMARK VINA RESULT:    -4.451      9.627     10.412
REMARK INTER + INTRA:          -7.638
REMARK INTER:                  -7.129
REMARK INTRA:                  -0.508
REMARK UNBOUND:                -0.845
REMARK SMILES CCCCCCCCCC=CC(=O)[O-]
REMARK SMILES IDX 7 1 8 2 9 3 10 4 11 5 12 6 13 7 14 8 6 9 5 10 4 11 3 12 2 13
REMARK SMILES IDX 1 14
REMARK H PARENT
REMARK Flexibility Score: inf
ROOT
ATOM      1  C   UNL     1      40.480  28.765  14.626  1.00  0.00     0.000 C 
ENDROOT
BRANCH   1   2
ATOM      2  C   UNL     1      41.668  29.606  15.116  1.00  0.00     0.004 C 
BRANCH   2   3
ATOM      3  C   UNL     1      41.304  30.468  16.334  1.00  0.00     0.027 C 
BRANCH   3   4
ATOM      4  C   UNL     1      42.475  30.688  17.251  1.00  0.00    -0.025 C 
ATOM      5  C   UNL     1      42.908  29.729  18.077  1.00  0.00     0.020 C 
BRANCH   5   6
ATOM      6  C   UNL     1      44.056  29.930  18.972  1.00  0.00     0.064 C 
ATOM      7  O   UNL     1      45.109  30.455  18.525  1.00  0.00    -0.545 OA
ATOM      8  O   UNL     1      43.998  29.548  20.308  1.00  0.00    -0.545 OA
ENDBRANCH   5   6
ENDBRANCH   3   4
ENDBRANCH   2   3
ENDBRANCH   1   2
BRANCH   1   9
ATOM      9  C   UNL     1      39.847  29.385  13.375  1.00  0.00     0.000 C 
BRANCH   9  10
ATOM     10  C   UNL     1      38.351  29.662  13.595  1.00  0.00     0.000 C 
BRANCH  10  11
ATOM     11  C   UNL     1      38.100  30.734  14.666  1.00  0.00    -0.000 C 
BRANCH  11  12
ATOM     12  C   UNL     1      36.764  31.471  14.464  1.00  0.00    -0.000 C 
BRANCH  12  13
ATOM     13  C   UNL     1      35.578  30.507  14.310  1.00  0.00    -0.003 C 
ATOM     14  C   UNL     1      34.680  30.859  13.125  1.00  0.00     0.004 C 
ENDBRANCH  12  13
ENDBRANCH  11  12
ENDBRANCH  10  11
ENDBRANCH   9  10
ENDBRANCH   1   9
TORSDOF 9
ENDMDL
