MODEL 1
REMARK VINA RESULT:    -4.224      0.000      0.000
REMARK INTER + INTRA:          -7.634
REMARK INTER:                  -6.447
REMARK INTRA:                  -1.187
REMARK UNBOUND:                -1.187
REMARK SMILES CCCCCCCCCCC(=O)[O-]
REMARK SMILES IDX 7 1 8 2 9 3 10 4 11 5 12 6 13 7 6 8 5 9 4 10 3 11 2 12 1 13
REMARK H PARENT
REMARK Flexibility Score: inf
ROOT
ATOM      1  C   UNL     1      19.551  16.587  34.452  1.00  0.00     0.000 C 
ENDROOT
BRANCH   1   2
ATOM      2  C   UNL     1      18.132  16.022  34.634  1.00  0.00     0.000 C 
BRANCH   2   3
ATOM      3  C   UNL     1      17.765  15.800  36.109  1.00  0.00     0.006 C 
BRANCH   3   4
ATOM      4  C   UNL     1      16.627  16.731  36.535  1.00  0.00     0.053 C 
BRANCH   4   5
ATOM      5  C   UNL     1      15.571  15.966  37.270  1.00  0.00     0.041 C 
ATOM      6  O   UNL     1      15.710  14.731  37.475  1.00  0.00    -0.550 OA
ATOM      7  O   UNL     1      14.410  16.606  37.684  1.00  0.00    -0.550 OA
ENDBRANCH   4   5
ENDBRANCH   3   4
ENDBRANCH   2   3
ENDBRANCH   1   2
BRANCH   1   8
ATOM      8  C   UNL     1      20.382  16.522  35.745  1.00  0.00     0.000 C 
BRANCH   8   9
ATOM      9  C   UNL     1      20.709  17.915  36.307  1.00  0.00    -0.000 C 
BRANCH   9  10
ATOM     10  C   UNL     1      20.680  19.011  35.229  1.00  0.00    -0.000 C 
BRANCH  10  11
ATOM     11  C   UNL     1      19.847  20.213  35.692  1.00  0.00    -0.000 C 
BRANCH  11  12
ATOM     12  C   UNL     1      18.352  19.877  35.697  1.00  0.00    -0.003 C 
ATOM     13  C   UNL     1      17.779  19.893  34.283  1.00  0.00     0.004 C 
ENDBRANCH  11  12
ENDBRANCH  10  11
ENDBRANCH   9  10
ENDBRANCH   8   9
ENDBRANCH   1   8
TORSDOF 9
ENDMDL
MODEL 2
REMARK VINA RESULT:    -4.160      1.394      2.292
REMARK INTER + INTRA:          -7.537
REMARK INTER:                  -6.590
REMARK INTRA:                  -0.947
REMARK UNBOUND:                -1.187
REMARK SMILES CCCCCCCCCCC(=O)[O-]
REMARK SMILES IDX 7 1 8 2 9 3 10 4 11 5 12 6 13 7 6 8 5 9 4 10 3 11 2 12 1 13
REMARK H PARENT
REMARK Flexibility Score: inf
ROOT
ATOM      1  C   UNL     1      17.435  18.785  33.697  1.00  0.00     0.000 C 
ENDROOT
BRANCH   1   2
ATOM      2  C   UNL     1      17.802  17.449  34.364  1.00  0.00     0.000 C 
BRANCH   2   3
ATOM      3  C   UNL     1      16.600  16.771  35.039  1.00  0.00     0.006 C 
BRANCH   3   4
ATOM      4  C   UNL     1      16.695  16.882  36.563  1.00  0.00     0.053 C 
BRANCH   4   5
ATOM      5  C   UNL     1      15.601  16.097  37.215  1.00  0.00     0.041 C 
ATOM      6  O   UNL     1      14.553  16.676  37.609  1.00  0.00    -0.550 OA
ATOM      7  O   UNL     1      15.758  14.734  37.434  1.00  0.00    -0.550 OA
ENDBRANCH   4   5
ENDBRANCH   3   4
ENDBRANCH   2   3
ENDBRANCH   1   2
BRANCH   1   8
ATOM      8  C   UNL     1      18.579  19.811  33.760  1.00  0.00     0.000 C 
BRANCH   8   9
ATOM      9  C   UNL     1      19.967  19.149  33.737  1.00  0.00    -0.000 C 
BRANCH   9  10
ATOM     10  C   UNL     1      20.749  19.362  35.043  1.00  0.00    -0.000 C 
BRANCH  10  11
ATOM     11  C   UNL     1      20.010  20.333  35.972  1.00  0.00    -0.000 C 
BRANCH  11  12
ATOM     12  C   UNL     1      19.593  19.640  37.273  1.00  0.00    -0.003 C 
ATOM     13  C   UNL     1      18.128  19.913  37.599  1.00  0.00     0.004 C 
ENDBRANCH  11  12
ENDBRANCH  10  11
ENDBRANCH   9  10
ENDBRANCH   8   9
ENDBRANCH   1   8
TORSDOF 9
ENDMDL
MODEL 3
REMARK VINA RESULT:    -4.137      1.391      2.156
REMARK INTER + INTRA:          -7.501
REMARK INTER:                  -6.553
REMARK INTRA:                  -0.948
REMARK UNBOUND:                -1.187
REMARK SMILES CCCCCCCCCCC(=O)[O-]
REMARK SMILES IDX 7 1 8 2 9 3 10 4 11 5 12 6 13 7 6 8 5 9 4 10 3 11 2 12 1 13
REMARK H PARENT
REMARK Flexibility Score: inf
ROOT
ATOM      1  C   UNL     1      17.329  18.047  35.847  1.00  0.00     0.000 C 
ENDROOT
BRANCH   1   2
ATOM      2  C   UNL     1      18.209  16.797  36.018  1.00  0.00     0.000 C 
BRANCH   2   3
ATOM      3  C   UNL     1      17.436  15.602  36.597  1.00  0.00     0.006 C 
BRANCH   3   4
ATOM      4  C   UNL     1      15.953  15.676  36.222  1.00  0.00     0.053 C 
BRANCH   4   5
ATOM      5  C   UNL     1      15.101  15.681  37.452  1.00  0.00     0.041 C 
ATOM      6  O   UNL     1      14.379  16.677  37.720  1.00  0.00    -0.550 OA
ATOM      7  O   UNL     1      15.142  14.604  38.330  1.00  0.00    -0.550 OA
ENDBRANCH   4   5
ENDBRANCH   3   4
ENDBRANCH   2   3
ENDBRANCH   1   2
BRANCH   1   8
ATOM      8  C   UNL     1      17.765  19.205  36.760  1.00  0.00     0.000 C 
BRANCH   8   9
ATOM      9  C   UNL     1      19.292  19.291  36.915  1.00  0.00    -0.000 C 
BRANCH   9  10
ATOM     10  C   UNL     1      19.936  20.264  35.914  1.00  0.00    -0.000 C 
BRANCH  10  11
ATOM     11  C   UNL     1      21.000  19.555  35.067  1.00  0.00    -0.000 C 
BRANCH  11  12
ATOM     12  C   UNL     1      20.376  18.914  33.824  1.00  0.00    -0.003 C 
ATOM     13  C   UNL     1      19.272  19.793  33.244  1.00  0.00     0.004 C 
ENDBRANCH  11  12
ENDBRANCH  10  11
ENDBRANCH   9  10
ENDBRANCH   8   9
ENDBRANCH   1   8
TORSDOF 9
ENDMDL
MODEL 4
REMARK VINA RESULT:    -4.114      1.248      1.982
REMARK INTER + INTRA:          -7.466
REMARK INTER:                  -6.453
REMARK INTRA:                  -1.013
REMARK UNBOUND:                -1.187
REMARK SMILES CCCCCCCCCCC(=O)[O-]
REMARK SMILES IDX 7 1 8 2 9 3 10 4 11 5 12 6 13 7 6 8 5 9 4 10 3 11 2 12 1 13
REMARK H PARENT
REMARK Flexibility Score: inf
ROOT
ATOM      1  C   UNL     1      19.568  16.934  34.228  1.00  0.00     0.000 C 
ENDROOT
BRANCH   1   2
ATOM      2  C   UNL     1      18.910  15.935  35.195  1.00  0.00     0.000 C 
BRANCH   2   3
ATOM      3  C   UNL     1      17.727  16.544  35.963  1.00  0.00     0.006 C 
BRANCH   3   4
ATOM      4  C   UNL     1      16.953  15.461  36.721  1.00  0.00     0.053 C 
BRANCH   4   5
ATOM      5  C   UNL     1      15.626  15.984  37.172  1.00  0.00     0.041 C 
ATOM      6  O   UNL     1      15.565  16.928  38.003  1.00  0.00    -0.550 OA
ATOM      7  O   UNL     1      14.454  15.395  36.712  1.00  0.00    -0.550 OA
ENDBRANCH   4   5
ENDBRANCH   3   4
ENDBRANCH   2   3
ENDBRANCH   1   2
BRANCH   1   8
ATOM      8  C   UNL     1      18.561  17.941  33.645  1.00  0.00     0.000 C 
BRANCH   8   9
ATOM      9  C   UNL     1      19.141  19.361  33.540  1.00  0.00    -0.000 C 
BRANCH   9  10
ATOM     10  C   UNL     1      18.772  20.243  34.744  1.00  0.00    -0.000 C 
BRANCH  10  11
ATOM     11  C   UNL     1      19.912  20.275  35.770  1.00  0.00    -0.000 C 
BRANCH  11  12
ATOM     12  C   UNL     1      19.486  19.617  37.086  1.00  0.00    -0.003 C 
ATOM     13  C   UNL     1      17.996  19.817  37.346  1.00  0.00     0.004 C 
ENDBRANCH  11  12
ENDBRANCH  10  11
ENDBRANCH   9  10
ENDBRANCH   8   9
ENDBRANCH   1   8
TORSDOF 9
ENDMDL
MODEL 5
REMARK VINA RESULT:    -4.031      1.306      2.040
REMARK INTER + INTRA:          -7.339
REMARK INTER:                  -6.105
REMARK INTRA:                  -1.234
REMARK UNBOUND:                -1.187
REMARK SMILES CCCCCCCCCCC(=O)[O-]
REMARK SMILES IDX 7 1 8 2 9 3 10 4 11 5 12 6 13 7 6 8 5 9 4 10 3 11 2 12 1 13
REMARK H PARENT
REMARK Flexibility Score: inf
ROOT
ATOM      1  C   UNL     1      20.212  17.600  36.019  1.00  0.00     0.000 C 
ENDROOT
BRANCH   1   2
ATOM      2  C   UNL     1      19.703  16.434  35.156  1.00  0.00     0.000 C 
BRANCH   2   3
ATOM      3  C   UNL     1      18.337  15.904  35.620  1.00  0.00     0.006 C 
BRANCH   3   4
ATOM      4  C   UNL     1      17.586  16.965  36.430  1.00  0.00     0.053 C 
BRANCH   4   5
ATOM      5  C   UNL     1      16.183  16.522  36.701  1.00  0.00     0.041 C 
ATOM      6  O   UNL     1      15.487  16.020  35.778  1.00  0.00    -0.550 OA
ATOM      7  O   UNL     1      15.626  16.708  37.960  1.00  0.00    -0.550 OA
ENDBRANCH   4   5
ENDBRANCH   3   4
ENDBRANCH   2   3
ENDBRANCH   1   2
BRANCH   1   8
ATOM      8  C   UNL     1      21.001  18.638  35.204  1.00  0.00     0.000 C 
BRANCH   8   9
ATOM      9  C   UNL     1      20.178  19.228  34.046  1.00  0.00    -0.000 C 
BRANCH   9  10
ATOM     10  C   UNL     1      19.166  20.286  34.517  1.00  0.00    -0.000 C 
BRANCH  10  11
ATOM     11  C   UNL     1      17.729  19.828  34.244  1.00  0.00    -0.000 C 
BRANCH  11  12
ATOM     12  C   UNL     1      17.685  18.794  33.114  1.00  0.00    -0.003 C 
ATOM     13  C   UNL     1      16.248  18.416  32.766  1.00  0.00     0.004 C 
ENDBRANCH  11  12
ENDBRANCH  10  11
ENDBRANCH   9  10
ENDBRANCH   8   9
ENDBRANCH   1   8
TORSDOF 9
ENDMDL
MODEL 6
REMARK VINA RESULT:    -3.985      1.632      2.899
REMARK INTER + INTRA:          -7.269
REMARK INTER:                  -6.007
REMARK INTRA:                  -1.261
REMARK UNBOUND:                -1.187
REMARK SMILES CCCCCCCCCCC(=O)[O-]
REMARK SMILES IDX 7 1 8 2 9 3 10 4 11 5 12 6 13 7 6 8 5 9 4 10 3 11 2 12 1 13
REMARK H PARENT
REMARK Flexibility Score: inf
ROOT
ATOM      1  C   UNL     1      18.485  19.882  35.679  1.00  0.00     0.000 C 
ENDROOT
BRANCH   1   2
ATOM      2  C   UNL     1      17.750  18.940  36.648  1.00  0.00     0.000 C 
BRANCH   2   3
ATOM      3  C   UNL     1      17.915  17.458  36.276  1.00  0.00     0.006 C 
BRANCH   3   4
ATOM      4  C   UNL     1      16.562  16.826  35.937  1.00  0.00     0.053 C 
BRANCH   4   5
ATOM      5  C   UNL     1      16.052  16.028  37.095  1.00  0.00     0.041 C 
ATOM      6  O   UNL     1      15.480  16.604  38.058  1.00  0.00    -0.550 OA
ATOM      7  O   UNL     1      16.251  14.654  37.134  1.00  0.00    -0.550 OA
ENDBRANCH   4   5
ENDBRANCH   3   4
ENDBRANCH   2   3
ENDBRANCH   1   2
BRANCH   1   8
ATOM      8  C   UNL     1      19.881  19.363  35.297  1.00  0.00     0.000 C 
BRANCH   8   9
ATOM      9  C   UNL     1      20.137  19.417  33.781  1.00  0.00    -0.000 C 
BRANCH   9  10
ATOM     10  C   UNL     1      18.843  19.314  32.957  1.00  0.00    -0.000 C 
BRANCH  10  11
ATOM     11  C   UNL     1      18.667  17.901  32.387  1.00  0.00    -0.000 C 
BRANCH  11  12
ATOM     12  C   UNL     1      17.188  17.503  32.349  1.00  0.00    -0.003 C 
ATOM     13  C   UNL     1      16.288  18.693  32.671  1.00  0.00     0.004 C 
ENDBRANCH  11  12
ENDBRANCH  10  11
ENDBRANCH   9  10
ENDBRANCH   8   9
ENDBRANCH   1   8
TORSDOF 9
ENDMDL
MODEL 7
REMARK VINA RESULT:    -3.875      3.628      5.329
REMARK INTER + INTRA:          -7.101
REMARK INTER:                  -6.394
REMARK INTRA:                  -0.707
REMARK UNBOUND:                -1.187
REMARK SMILES CCCCCCCCCCC(=O)[O-]
REMARK SMILES IDX 7 1 8 2 9 3 10 4 11 5 12 6 13 7 6 8 5 9 4 10 3 11 2 12 1 13
REMARK H PARENT
REMARK Flexibility Score: inf
ROOT
ATOM      1  C   UNL     1      19.059  19.531  33.108  1.00  0.00     0.000 C 
ENDROOT
BRANCH   1   2
ATOM      2  C   UNL     1      20.197  19.378  34.131  1.00  0.00     0.000 C 
BRANCH   2   3
ATOM      3  C   UNL     1      20.011  20.278  35.363  1.00  0.00     0.006 C 
BRANCH   3   4
ATOM      4  C   UNL     1      20.488  19.568  36.634  1.00  0.00     0.053 C 
BRANCH   4   5
ATOM      5  C   UNL     1      20.106  20.355  37.848  1.00  0.00     0.041 C 
ATOM      6  O   UNL     1      20.963  21.064  38.440  1.00  0.00    -0.550 OA
ATOM      7  O   UNL     1      18.816  20.267  38.356  1.00  0.00    -0.550 OA
ENDBRANCH   4   5
ENDBRANCH   3   4
ENDBRANCH   2   3
ENDBRANCH   1   2
BRANCH   1   8
ATOM      8  C   UNL     1      17.667  19.468  33.759  1.00  0.00     0.000 C 
BRANCH   8   9
ATOM      9  C   UNL     1      17.210  18.027  34.037  1.00  0.00    -0.000 C 
BRANCH   9  10
ATOM     10  C   UNL     1      16.296  17.471  32.932  1.00  0.00    -0.000 C 
BRANCH  10  11
ATOM     11  C   UNL     1      15.477  18.592  32.282  1.00  0.00    -0.000 C 
BRANCH  11  12
ATOM     12  C   UNL     1      15.448  18.440  30.758  1.00  0.00    -0.003 C 
ATOM     13  C   UNL     1      16.838  18.628  30.158  1.00  0.00     0.004 C 
ENDBRANCH  11  12
ENDBRANCH  10  11
ENDBRANCH   9  10
ENDBRANCH   8   9
ENDBRANCH   1   8
TORSDOF 9
ENDMDL
MODEL 8
REMARK VINA RESULT:    -3.829     16.177     17.521
REMARK INTER + INTRA:          -7.030
REMARK INTER:                  -5.997
REMARK INTRA:                  -1.034
REMARK UNBOUND:                -1.187
REMARK SMILES CCCCCCCCCCC(=O)[O-]
REMARK SMILES IDX 7 1 8 2 9 3 10 4 11 5 12 6 13 7 6 8 5 9 4 10 3 11 2 12 1 13
REMARK H PARENT
REMARK Flexibility Score: inf
ROOT
ATOM      1  C   UNL     1       7.676  29.253  27.959  1.00  0.00     0.000 C 
ENDROOT
BRANCH   1   2
ATOM      2  C   UNL     1       8.279  29.288  29.374  1.00  0.00     0.000 C 
BRANCH   2   3
ATOM      3  C   UNL     1       8.505  30.718  29.888  1.00  0.00     0.006 C 
BRANCH   3   4
ATOM      4  C   UNL     1       9.925  30.883  30.439  1.00  0.00     0.053 C 
BRANCH   4   5
ATOM      5  C   UNL     1       9.939  30.672  31.920  1.00  0.00     0.041 C 
ATOM      6  O   UNL     1      10.410  29.609  32.405  1.00  0.00    -0.550 OA
ATOM      7  O   UNL     1       9.387  31.628  32.764  1.00  0.00    -0.550 OA
ENDBRANCH   4   5
ENDBRANCH   3   4
ENDBRANCH   2   3
ENDBRANCH   1   2
BRANCH   1   8
ATOM      8  C   UNL     1       8.419  30.175  26.978  1.00  0.00     0.000 C 
BRANCH   8   9
ATOM      9  C   UNL     1       9.793  29.619  26.570  1.00  0.00    -0.000 C 
BRANCH   9  10
ATOM     10  C   UNL     1      10.954  30.530  27.000  1.00  0.00    -0.000 C 
BRANCH  10  11
ATOM     11  C   UNL     1      10.735  31.966  26.508  1.00  0.00    -0.000 C 
BRANCH  11  12
ATOM     12  C   UNL     1      10.849  32.967  27.662  1.00  0.00    -0.003 C 
ATOM     13  C   UNL     1      12.279  33.039  28.190  1.00  0.00     0.004 C 
ENDBRANCH  11  12
ENDBRANCH  10  11
ENDBRANCH   9  10
ENDBRANCH   8   9
ENDBRANCH   1   8
TORSDOF 9
ENDMDL
MODEL 9
REMARK VINA RESULT:    -3.804      2.180      4.131
REMARK INTER + INTRA:          -6.993
REMARK INTER:                  -5.850
REMARK INTRA:                  -1.143
REMARK UNBOUND:                -1.187
REMARK SMILES CCCCCCCCCCC(=O)[O-]
REMARK SMILES IDX 7 1 8 2 9 3 10 4 11 5 12 6 13 7 6 8 5 9 4 10 3 11 2 12 1 13
REMARK H PARENT
REMARK Flexibility Score: inf
ROOT
ATOM      1  C   UNL     1      18.897  18.618  33.322  1.00  0.00     0.000 C 
ENDROOT
BRANCH   1   2
ATOM      2  C   UNL     1      19.980  19.517  33.942  1.00  0.00     0.000 C 
BRANCH   2   3
ATOM      3  C   UNL     1      19.582  20.060  35.323  1.00  0.00     0.006 C 
BRANCH   3   4
ATOM      4  C   UNL     1      18.109  19.763  35.623  1.00  0.00     0.053 C 
BRANCH   4   5
ATOM      5  C   UNL     1      17.904  19.562  37.091  1.00  0.00     0.041 C 
ATOM      6  O   UNL     1      16.978  18.815  37.505  1.00  0.00    -0.550 OA
ATOM      7  O   UNL     1      18.703  20.238  38.004  1.00  0.00    -0.550 OA
ENDBRANCH   4   5
ENDBRANCH   3   4
ENDBRANCH   2   3
ENDBRANCH   1   2
BRANCH   1   8
ATOM      8  C   UNL     1      19.483  17.367  32.647  1.00  0.00     0.000 C 
BRANCH   8   9
ATOM      9  C   UNL     1      19.113  16.070  33.385  1.00  0.00    -0.000 C 
BRANCH   9  10
ATOM     10  C   UNL     1      19.898  15.887  34.695  1.00  0.00    -0.000 C 
BRANCH  10  11
ATOM     11  C   UNL     1      18.990  16.098  35.912  1.00  0.00    -0.000 C 
BRANCH  11  12
ATOM     12  C   UNL     1      17.516  15.905  35.540  1.00  0.00    -0.003 C 
ATOM     13  C   UNL     1      16.693  15.475  36.750  1.00  0.00     0.004 C 
ENDBRANCH  11  12
ENDBRANCH  10  11
ENDBRANCH   9  10
ENDBRANCH   8   9
ENDBRANCH   1   8
TORSDOF 9
ENDMDL
