MODEL 1
REMARK VINA RESULT:    35.385      0.000      0.000
REMARK INTER + INTRA:          41.968
REMARK INTER:                  41.591
REMARK INTRA:                   0.377
REMARK UNBOUND:                 0.377
REMARK SMILES O=c1c(O)c(-c2ccc(O)c(O)c2)oc2cc(O)ccc12
REMARK SMILES IDX 5 1 3 2 2 3 1 4 21 5 15 6 14 7 16 8 17 9 19 10 20 11 6 12
REMARK SMILES IDX 7 13 8 14 9 15 13 16 11 17 10 18 12 20 4 22 18 24
REMARK H PARENT 10 19 12 21 4 23 18 25
REMARK Flexibility Score: inf
ROOT
ATOM      1  C   UNL     1      15.869  49.146  59.373  1.00  0.00     0.180 A 
ATOM      2  C   UNL     1      15.575  48.889  60.727  1.00  0.00     0.208 A 
ATOM      3  C   UNL     1      15.286  49.970  61.574  1.00  0.00     0.235 A 
ATOM      4  O   UNL     1      15.030  49.767  62.793  1.00  0.00    -0.285 OA
ATOM      5  C   UNL     1      15.276  51.273  61.051  1.00  0.00     0.069 A 
ATOM      6  C   UNL     1      15.557  51.445  59.678  1.00  0.00     0.142 A 
ATOM      7  O   UNL     1      15.835  50.396  58.913  1.00  0.00    -0.452 OA
ATOM      8  C   UNL     1      15.547  52.727  59.118  1.00  0.00     0.094 A 
ATOM      9  C   UNL     1      15.261  53.842  59.911  1.00  0.00     0.119 A 
ATOM     10  C   UNL     1      14.983  53.676  61.274  1.00  0.00     0.047 A 
ATOM     11  C   UNL     1      14.989  52.399  61.845  1.00  0.00     0.020 A 
ENDROOT
BRANCH   1  12
ATOM     12  C   UNL     1      16.202  48.062  58.420  1.00  0.00     0.025 A 
ATOM     13  C   UNL     1      15.711  46.768  58.649  1.00  0.00     0.016 A 
ATOM     14  C   UNL     1      15.997  45.734  57.753  1.00  0.00     0.051 A 
ATOM     15  C   UNL     1      16.762  45.980  56.610  1.00  0.00     0.157 A 
ATOM     16  C   UNL     1      16.955  48.313  57.259  1.00  0.00     0.062 A 
ATOM     17  C   UNL     1      17.240  47.277  56.357  1.00  0.00     0.158 A 
BRANCH  15  18
ATOM     18  O   UNL     1      17.032  44.929  55.735  1.00  0.00    -0.504 OA
ATOM     19  H   UNL     1      16.718  43.983  55.917  1.00  0.00     0.293 HD
ENDBRANCH  15  18
BRANCH  17  20
ATOM     20  O   UNL     1      17.992  47.533  55.212  1.00  0.00    -0.504 OA
ATOM     21  H   UNL     1      18.765  46.936  54.939  1.00  0.00     0.293 HD
ENDBRANCH  17  20
ENDBRANCH   1  12
BRANCH   2  22
ATOM     22  O   UNL     1      15.544  47.577  61.209  1.00  0.00    -0.502 OA
ATOM     23  H   UNL     1      14.678  47.105  61.436  1.00  0.00     0.293 HD
ENDBRANCH   2  22
BRANCH   9  24
ATOM     24  O   UNL     1      15.256  55.112  59.336  1.00  0.00    -0.508 OA
ATOM     25  H   UNL     1      15.222  55.238  58.332  1.00  0.00     0.293 HD
ENDBRANCH   9  24
TORSDOF 5
ENDMDL
MODEL 2
REMARK VINA RESULT:    36.046      1.916      2.942
REMARK INTER + INTRA:          42.745
REMARK INTER:                  42.986
REMARK INTRA:                  -0.241
REMARK UNBOUND:                 0.377
REMARK SMILES O=c1c(O)c(-c2ccc(O)c(O)c2)oc2cc(O)ccc12
REMARK SMILES IDX 5 1 3 2 2 3 1 4 21 5 15 6 14 7 16 8 17 9 19 10 20 11 6 12
REMARK SMILES IDX 7 13 8 14 9 15 13 16 11 17 10 18 12 20 4 22 18 24
REMARK H PARENT 10 19 12 21 4 23 18 25
REMARK Flexibility Score: inf
ROOT
ATOM      1  C   UNL     1      15.955  49.707  58.800  1.00  0.00     0.180 A 
ATOM      2  C   UNL     1      14.939  50.576  58.352  1.00  0.00     0.208 A 
ATOM      3  C   UNL     1      14.802  51.831  58.966  1.00  0.00     0.235 A 
ATOM      4  O   UNL     1      13.895  52.622  58.589  1.00  0.00    -0.285 OA
ATOM      5  C   UNL     1      15.687  52.197  59.992  1.00  0.00     0.069 A 
ATOM      6  C   UNL     1      16.693  51.280  60.368  1.00  0.00     0.142 A 
ATOM      7  O   UNL     1      16.782  50.099  59.767  1.00  0.00    -0.452 OA
ATOM      8  C   UNL     1      17.600  51.613  61.380  1.00  0.00     0.094 A 
ATOM      9  C   UNL     1      17.516  52.850  62.024  1.00  0.00     0.119 A 
ATOM     10  C   UNL     1      16.518  53.763  61.656  1.00  0.00     0.047 A 
ATOM     11  C   UNL     1      15.607  53.441  60.645  1.00  0.00     0.020 A 
ENDROOT
BRANCH   1  12
ATOM     12  C   UNL     1      16.152  48.360  58.216  1.00  0.00     0.025 A 
ATOM     13  C   UNL     1      17.306  48.097  57.464  1.00  0.00     0.016 A 
ATOM     14  C   UNL     1      17.522  46.827  56.921  1.00  0.00     0.051 A 
ATOM     15  C   UNL     1      16.598  45.801  57.134  1.00  0.00     0.157 A 
ATOM     16  C   UNL     1      15.233  47.321  58.448  1.00  0.00     0.062 A 
ATOM     17  C   UNL     1      15.450  46.045  57.905  1.00  0.00     0.158 A 
BRANCH  15  18
ATOM     18  O   UNL     1      16.840  44.544  56.578  1.00  0.00    -0.504 OA
ATOM     19  H   UNL     1      16.785  44.378  55.581  1.00  0.00     0.293 HD
ENDBRANCH  15  18
BRANCH  17  20
ATOM     20  O   UNL     1      14.531  45.022  58.134  1.00  0.00    -0.504 OA
ATOM     21  H   UNL     1      13.733  45.151  58.746  1.00  0.00     0.293 HD
ENDBRANCH  17  20
ENDBRANCH   1  12
BRANCH   2  22
ATOM     22  O   UNL     1      14.104  50.204  57.294  1.00  0.00    -0.502 OA
ATOM     23  H   UNL     1      13.179  49.820  57.444  1.00  0.00     0.293 HD
ENDBRANCH   2  22
BRANCH   9  24
ATOM     24  O   UNL     1      18.427  53.165  63.030  1.00  0.00    -0.508 OA
ATOM     25  H   UNL     1      18.286  52.859  63.986  1.00  0.00     0.293 HD
ENDBRANCH   9  24
TORSDOF 5
ENDMDL
MODEL 3
REMARK VINA RESULT:    36.943      1.905      2.849
REMARK INTER + INTRA:          43.799
REMARK INTER:                  43.260
REMARK INTRA:                   0.539
REMARK UNBOUND:                 0.377
REMARK SMILES O=c1c(O)c(-c2ccc(O)c(O)c2)oc2cc(O)ccc12
REMARK SMILES IDX 5 1 3 2 2 3 1 4 21 5 15 6 14 7 16 8 17 9 19 10 20 11 6 12
REMARK SMILES IDX 7 13 8 14 9 15 13 16 11 17 10 18 12 20 4 22 18 24
REMARK H PARENT 10 19 12 21 4 23 18 25
REMARK Flexibility Score: inf
ROOT
ATOM      1  C   UNL     1      16.593  49.328  59.332  1.00  0.00     0.180 A 
ATOM      2  C   UNL     1      17.751  50.133  59.342  1.00  0.00     0.208 A 
ATOM      3  C   UNL     1      17.748  51.314  60.099  1.00  0.00     0.235 A 
ATOM      4  O   UNL     1      18.768  52.056  60.117  1.00  0.00    -0.285 OA
ATOM      5  C   UNL     1      16.606  51.655  60.841  1.00  0.00     0.069 A 
ATOM      6  C   UNL     1      15.495  50.785  60.797  1.00  0.00     0.142 A 
ATOM      7  O   UNL     1      15.536  49.681  60.060  1.00  0.00    -0.452 OA
ATOM      8  C   UNL     1      14.342  51.086  61.530  1.00  0.00     0.094 A 
ATOM      9  C   UNL     1      14.281  52.247  62.307  1.00  0.00     0.119 A 
ATOM     10  C   UNL     1      15.381  53.114  62.352  1.00  0.00     0.047 A 
ATOM     11  C   UNL     1      16.539  52.823  61.624  1.00  0.00     0.020 A 
ENDROOT
BRANCH   1  12
ATOM     12  C   UNL     1      16.511  48.077  58.544  1.00  0.00     0.025 A 
ATOM     13  C   UNL     1      17.641  47.626  57.846  1.00  0.00     0.016 A 
ATOM     14  C   UNL     1      17.592  46.438  57.111  1.00  0.00     0.051 A 
ATOM     15  C   UNL     1      16.421  45.676  57.077  1.00  0.00     0.157 A 
ATOM     16  C   UNL     1      15.340  47.299  58.525  1.00  0.00     0.062 A 
ATOM     17  C   UNL     1      15.290  46.105  57.791  1.00  0.00     0.158 A 
BRANCH  15  18
ATOM     18  O   UNL     1      16.401  44.496  56.334  1.00  0.00    -0.504 OA
ATOM     19  H   UNL     1      16.165  44.484  55.349  1.00  0.00     0.293 HD
ENDBRANCH  15  18
BRANCH  17  20
ATOM     20  O   UNL     1      14.123  45.343  57.773  1.00  0.00    -0.504 OA
ATOM     21  H   UNL     1      13.231  45.727  58.066  1.00  0.00     0.293 HD
ENDBRANCH  17  20
ENDBRANCH   1  12
BRANCH   2  22
ATOM     22  O   UNL     1      18.891  49.742  58.634  1.00  0.00    -0.502 OA
ATOM     23  H   UNL     1      19.228  50.252  57.826  1.00  0.00     0.293 HD
ENDBRANCH   2  22
BRANCH   9  24
ATOM     24  O   UNL     1      13.125  52.531  63.030  1.00  0.00    -0.508 OA
ATOM     25  H   UNL     1      13.074  53.326  63.656  1.00  0.00     0.293 HD
ENDBRANCH   9  24
TORSDOF 5
ENDMDL
