MODEL 1
REMARK VINA RESULT:    -4.780      0.000      0.000
REMARK INTER + INTRA:         -10.599
REMARK INTER:                  -8.692
REMARK INTRA:                  -1.907
REMARK UNBOUND:                -1.907
REMARK SMILES CCCCCCCCCCCCCCCC(=O)[O-]
REMARK SMILES IDX 9 1 10 2 11 3 12 4 13 5 14 6 15 7 16 8 17 9 18 10 8 11 7 12
REMARK SMILES IDX 6 13 5 14 4 15 3 16 2 17 1 18
REMARK H PARENT
REMARK Flexibility Score: inf
ROOT
ATOM      1  C   UNL     1       5.941  -5.960 -17.486  1.00  0.00     0.000 C 
ENDROOT
BRANCH   1   2
ATOM      2  C   UNL     1       6.025  -5.115 -16.196  1.00  0.00     0.000 C 
BRANCH   2   3
ATOM      3  C   UNL     1       7.268  -5.455 -15.356  1.00  0.00     0.000 C 
BRANCH   3   4
ATOM      4  C   UNL     1       6.929  -6.254 -14.086  1.00  0.00     0.000 C 
BRANCH   4   5
ATOM      5  C   UNL     1       7.035  -7.784 -14.278  1.00  0.00     0.000 C 
BRANCH   5   6
ATOM      6  C   UNL     1       5.750  -8.509 -13.854  1.00  0.00     0.006 C 
BRANCH   6   7
ATOM      7  C   UNL     1       4.614  -8.241 -14.845  1.00  0.00     0.053 C 
BRANCH   7   8
ATOM      8  C   UNL     1       3.638  -7.261 -14.272  1.00  0.00     0.041 C 
ATOM      9  O   UNL     1       3.332  -7.314 -13.052  1.00  0.00    -0.550 OA
ATOM     10  O   UNL     1       3.118  -6.249 -15.072  1.00  0.00    -0.550 OA
ENDBRANCH   7   8
ENDBRANCH   6   7
ENDBRANCH   5   6
ENDBRANCH   4   5
ENDBRANCH   3   4
ENDBRANCH   2   3
ENDBRANCH   1   2
BRANCH   1  11
ATOM     11  C   UNL     1       7.313  -6.297 -18.102  1.00  0.00     0.000 C 
BRANCH  11  12
ATOM     12  C   UNL     1       7.679  -7.791 -18.092  1.00  0.00    -0.000 C 
BRANCH  12  13
ATOM     13  C   UNL     1       6.450  -8.704 -17.981  1.00  0.00    -0.000 C 
BRANCH  13  14
ATOM     14  C   UNL     1       6.793  -9.992 -17.223  1.00  0.00    -0.000 C 
BRANCH  14  15
ATOM     15  C   UNL     1       6.329 -11.230 -18.007  1.00  0.00    -0.000 C 
BRANCH  15  16
ATOM     16  C   UNL     1       6.068 -10.935 -19.496  1.00  0.00    -0.000 C 
BRANCH  16  17
ATOM     17  C   UNL     1       4.583 -10.916 -19.902  1.00  0.00    -0.003 C 
ATOM     18  C   UNL     1       3.695 -11.740 -18.968  1.00  0.00     0.004 C 
ENDBRANCH  16  17
ENDBRANCH  15  16
ENDBRANCH  14  15
ENDBRANCH  13  14
ENDBRANCH  12  13
ENDBRANCH  11  12
ENDBRANCH   1  11
TORSDOF 14
ENDMDL
MODEL 2
REMARK VINA RESULT:    -4.675      0.937      1.662
REMARK INTER + INTRA:         -10.409
REMARK INTER:                  -8.796
REMARK INTRA:                  -1.613
REMARK UNBOUND:                -1.907
REMARK SMILES CCCCCCCCCCCCCCCC(=O)[O-]
REMARK SMILES IDX 9 1 10 2 11 3 12 4 13 5 14 6 15 7 16 8 17 9 18 10 8 11 7 12
REMARK SMILES IDX 6 13 5 14 4 15 3 16 2 17 1 18
REMARK H PARENT
REMARK Flexibility Score: inf
ROOT
ATOM      1  C   UNL     1       7.370  -6.684 -18.710  1.00  0.00     0.000 C 
ENDROOT
BRANCH   1   2
ATOM      2  C   UNL     1       7.194  -5.771 -17.476  1.00  0.00     0.000 C 
BRANCH   2   3
ATOM      3  C   UNL     1       5.718  -5.434 -17.206  1.00  0.00     0.000 C 
BRANCH   3   4
ATOM      4  C   UNL     1       5.293  -5.733 -15.758  1.00  0.00     0.000 C 
BRANCH   4   5
ATOM      5  C   UNL     1       6.481  -6.066 -14.828  1.00  0.00     0.000 C 
BRANCH   5   6
ATOM      6  C   UNL     1       6.141  -7.191 -13.839  1.00  0.00     0.006 C 
BRANCH   6   7
ATOM      7  C   UNL     1       5.043  -8.100 -14.398  1.00  0.00     0.053 C 
BRANCH   7   8
ATOM      8  C   UNL     1       3.881  -8.158 -13.456  1.00  0.00     0.041 C 
ATOM      9  O   UNL     1       3.489  -9.265 -13.001  1.00  0.00    -0.550 OA
ATOM     10  O   UNL     1       3.273  -6.982 -13.028  1.00  0.00    -0.550 OA
ENDBRANCH   7   8
ENDBRANCH   6   7
ENDBRANCH   5   6
ENDBRANCH   4   5
ENDBRANCH   3   4
ENDBRANCH   2   3
ENDBRANCH   1   2
BRANCH   1  11
ATOM     11  C   UNL     1       8.112  -8.001 -18.411  1.00  0.00     0.000 C 
BRANCH  11  12
ATOM     12  C   UNL     1       7.689  -8.702 -17.109  1.00  0.00    -0.000 C 
BRANCH  12  13
ATOM     13  C   UNL     1       6.354  -9.451 -17.243  1.00  0.00    -0.000 C 
BRANCH  13  14
ATOM     14  C   UNL     1       6.563 -10.828 -17.883  1.00  0.00    -0.000 C 
BRANCH  14  15
ATOM     15  C   UNL     1       6.356 -10.764 -19.405  1.00  0.00    -0.000 C 
BRANCH  15  16
ATOM     16  C   UNL     1       4.877 -10.896 -19.815  1.00  0.00    -0.000 C 
BRANCH  16  17
ATOM     17  C   UNL     1       4.093 -11.990 -19.066  1.00  0.00    -0.003 C 
ATOM     18  C   UNL     1       2.632 -11.615 -18.816  1.00  0.00     0.004 C 
ENDBRANCH  16  17
ENDBRANCH  15  16
ENDBRANCH  14  15
ENDBRANCH  13  14
ENDBRANCH  12  13
ENDBRANCH  11  12
ENDBRANCH   1  11
TORSDOF 14
ENDMDL
MODEL 3
REMARK VINA RESULT:    -4.551      2.544      5.288
REMARK INTER + INTRA:         -10.183
REMARK INTER:                  -8.121
REMARK INTRA:                  -2.062
REMARK UNBOUND:                -1.907
REMARK SMILES CCCCCCCCCCCCCCCC(=O)[O-]
REMARK SMILES IDX 9 1 10 2 11 3 12 4 13 5 14 6 15 7 16 8 17 9 18 10 8 11 7 12
REMARK SMILES IDX 6 13 5 14 4 15 3 16 2 17 1 18
REMARK H PARENT
REMARK Flexibility Score: inf
ROOT
ATOM      1  C   UNL     1       7.028  -6.086 -18.018  1.00  0.00     0.000 C 
ENDROOT
BRANCH   1   2
ATOM      2  C   UNL     1       7.552  -7.505 -18.332  1.00  0.00     0.000 C 
BRANCH   2   3
ATOM      3  C   UNL     1       8.259  -8.146 -17.126  1.00  0.00     0.000 C 
BRANCH   3   4
ATOM      4  C   UNL     1       7.370  -9.153 -16.378  1.00  0.00     0.000 C 
BRANCH   4   5
ATOM      5  C   UNL     1       6.180  -9.664 -17.222  1.00  0.00     0.000 C 
BRANCH   5   6
ATOM      6  C   UNL     1       6.451 -11.051 -17.822  1.00  0.00     0.006 C 
BRANCH   6   7
ATOM      7  C   UNL     1       6.260 -11.040 -19.341  1.00  0.00     0.053 C 
BRANCH   7   8
ATOM      8  C   UNL     1       4.804 -11.092 -19.686  1.00  0.00     0.041 C 
ATOM      9  O   UNL     1       4.015 -11.790 -18.995  1.00  0.00    -0.550 OA
ATOM     10  O   UNL     1       4.308 -10.318 -20.730  1.00  0.00    -0.550 OA
ENDBRANCH   7   8
ENDBRANCH   6   7
ENDBRANCH   5   6
ENDBRANCH   4   5
ENDBRANCH   3   4
ENDBRANCH   2   3
ENDBRANCH   1   2
BRANCH   1  11
ATOM     11  C   UNL     1       7.393  -5.585 -16.606  1.00  0.00     0.000 C 
BRANCH  11  12
ATOM     12  C   UNL     1       6.193  -5.211 -15.721  1.00  0.00    -0.000 C 
BRANCH  12  13
ATOM     13  C   UNL     1       4.843  -5.491 -16.398  1.00  0.00    -0.000 C 
BRANCH  13  14
ATOM     14  C   UNL     1       3.809  -5.976 -15.375  1.00  0.00    -0.000 C 
BRANCH  14  15
ATOM     15  C   UNL     1       3.966  -7.481 -15.106  1.00  0.00    -0.000 C 
BRANCH  15  16
ATOM     16  C   UNL     1       4.256  -7.798 -13.627  1.00  0.00    -0.000 C 
BRANCH  16  17
ATOM     17  C   UNL     1       5.599  -8.507 -13.368  1.00  0.00    -0.003 C 
ATOM     18  C   UNL     1       6.770  -7.535 -13.213  1.00  0.00     0.004 C 
ENDBRANCH  16  17
ENDBRANCH  15  16
ENDBRANCH  14  15
ENDBRANCH  13  14
ENDBRANCH  12  13
ENDBRANCH  11  12
ENDBRANCH   1  11
TORSDOF 14
ENDMDL
MODEL 4
REMARK VINA RESULT:    -4.415      2.451      5.194
REMARK INTER + INTRA:          -9.934
REMARK INTER:                  -7.921
REMARK INTRA:                  -2.013
REMARK UNBOUND:                -1.907
REMARK SMILES CCCCCCCCCCCCCCCC(=O)[O-]
REMARK SMILES IDX 9 1 10 2 11 3 12 4 13 5 14 6 15 7 16 8 17 9 18 10 8 11 7 12
REMARK SMILES IDX 6 13 5 14 4 15 3 16 2 17 1 18
REMARK H PARENT
REMARK Flexibility Score: inf
ROOT
ATOM      1  C   UNL     1       6.147  -5.920 -17.623  1.00  0.00     0.000 C 
ENDROOT
BRANCH   1   2
ATOM      2  C   UNL     1       7.583  -6.373 -17.970  1.00  0.00     0.000 C 
BRANCH   2   3
ATOM      3  C   UNL     1       7.634  -7.837 -18.441  1.00  0.00     0.000 C 
BRANCH   3   4
ATOM      4  C   UNL     1       6.496  -8.692 -17.858  1.00  0.00     0.000 C 
BRANCH   4   5
ATOM      5  C   UNL     1       6.988 -10.005 -17.209  1.00  0.00     0.000 C 
BRANCH   5   6
ATOM      6  C   UNL     1       6.319 -11.240 -17.829  1.00  0.00     0.006 C 
BRANCH   6   7
ATOM      7  C   UNL     1       6.180 -11.087 -19.346  1.00  0.00     0.053 C 
BRANCH   7   8
ATOM      8  C   UNL     1       4.737 -11.058 -19.740  1.00  0.00     0.041 C 
ATOM      9  O   UNL     1       4.360 -10.350 -20.712  1.00  0.00    -0.550 OA
ATOM     10  O   UNL     1       3.817 -11.862 -19.076  1.00  0.00    -0.550 OA
ENDBRANCH   7   8
ENDBRANCH   6   7
ENDBRANCH   5   6
ENDBRANCH   4   5
ENDBRANCH   3   4
ENDBRANCH   2   3
ENDBRANCH   1   2
BRANCH   1  11
ATOM     11  C   UNL     1       6.032  -5.197 -16.267  1.00  0.00     0.000 C 
BRANCH  11  12
ATOM     12  C   UNL     1       7.225  -5.404 -15.318  1.00  0.00    -0.000 C 
BRANCH  12  13
ATOM     13  C   UNL     1       6.852  -6.198 -14.058  1.00  0.00    -0.000 C 
BRANCH  13  14
ATOM     14  C   UNL     1       6.954  -7.707 -14.313  1.00  0.00    -0.000 C 
BRANCH  14  15
ATOM     15  C   UNL     1       5.646  -8.418 -13.932  1.00  0.00    -0.000 C 
BRANCH  15  16
ATOM     16  C   UNL     1       4.521  -8.195 -14.961  1.00  0.00    -0.000 C 
BRANCH  16  17
ATOM     17  C   UNL     1       3.486  -7.125 -14.568  1.00  0.00    -0.003 C 
ATOM     18  C   UNL     1       3.274  -7.023 -13.056  1.00  0.00     0.004 C 
ENDBRANCH  16  17
ENDBRANCH  15  16
ENDBRANCH  14  15
ENDBRANCH  13  14
ENDBRANCH  12  13
ENDBRANCH  11  12
ENDBRANCH   1  11
TORSDOF 14
ENDMDL
MODEL 5
REMARK VINA RESULT:    -4.264      2.560      5.442
REMARK INTER + INTRA:          -9.660
REMARK INTER:                  -8.060
REMARK INTRA:                  -1.600
REMARK UNBOUND:                -1.907
REMARK SMILES CCCCCCCCCCCCCCCC(=O)[O-]
REMARK SMILES IDX 9 1 10 2 11 3 12 4 13 5 14 6 15 7 16 8 17 9 18 10 8 11 7 12
REMARK SMILES IDX 6 13 5 14 4 15 3 16 2 17 1 18
REMARK H PARENT
REMARK Flexibility Score: inf
ROOT
ATOM      1  C   UNL     1       7.520  -6.810 -18.760  1.00  0.00     0.000 C 
ENDROOT
BRANCH   1   2
ATOM      2  C   UNL     1       8.215  -8.140 -18.394  1.00  0.00     0.000 C 
BRANCH   2   3
ATOM      3  C   UNL     1       7.508  -8.870 -17.240  1.00  0.00     0.000 C 
BRANCH   3   4
ATOM      4  C   UNL     1       6.303  -9.703 -17.709  1.00  0.00     0.000 C 
BRANCH   4   5
ATOM      5  C   UNL     1       6.512 -10.354 -19.095  1.00  0.00     0.000 C 
BRANCH   5   6
ATOM      6  C   UNL     1       5.262 -11.108 -19.572  1.00  0.00     0.006 C 
BRANCH   6   7
ATOM      7  C   UNL     1       4.506 -11.721 -18.390  1.00  0.00     0.053 C 
BRANCH   7   8
ATOM      8  C   UNL     1       3.095 -12.037 -18.777  1.00  0.00     0.041 C 
ATOM      9  O   UNL     1       2.231 -11.122 -18.824  1.00  0.00    -0.550 OA
ATOM     10  O   UNL     1       2.749 -13.332 -19.151  1.00  0.00    -0.550 OA
ENDBRANCH   7   8
ENDBRANCH   6   7
ENDBRANCH   5   6
ENDBRANCH   4   5
ENDBRANCH   3   4
ENDBRANCH   2   3
ENDBRANCH   1   2
BRANCH   1  11
ATOM     11  C   UNL     1       7.252  -5.894 -17.550  1.00  0.00     0.000 C 
BRANCH  11  12
ATOM     12  C   UNL     1       5.766  -5.613 -17.266  1.00  0.00    -0.000 C 
BRANCH  12  13
ATOM     13  C   UNL     1       5.417  -5.714 -15.773  1.00  0.00    -0.000 C 
BRANCH  13  14
ATOM     14  C   UNL     1       6.654  -6.086 -14.947  1.00  0.00    -0.000 C 
BRANCH  14  15
ATOM     15  C   UNL     1       6.267  -6.954 -13.739  1.00  0.00    -0.000 C 
BRANCH  15  16
ATOM     16  C   UNL     1       5.632  -8.297 -14.144  1.00  0.00    -0.000 C 
BRANCH  16  17
ATOM     17  C   UNL     1       4.121  -8.409 -13.869  1.00  0.00    -0.003 C 
ATOM     18  C   UNL     1       3.555  -7.196 -13.129  1.00  0.00     0.004 C 
ENDBRANCH  16  17
ENDBRANCH  15  16
ENDBRANCH  14  15
ENDBRANCH  13  14
ENDBRANCH  12  13
ENDBRANCH  11  12
ENDBRANCH   1  11
TORSDOF 14
ENDMDL
MODEL 6
REMARK VINA RESULT:    -4.080      2.499      5.709
REMARK INTER + INTRA:          -9.326
REMARK INTER:                  -7.709
REMARK INTRA:                  -1.618
REMARK UNBOUND:                -1.907
REMARK SMILES CCCCCCCCCCCCCCCC(=O)[O-]
REMARK SMILES IDX 9 1 10 2 11 3 12 4 13 5 14 6 15 7 16 8 17 9 18 10 8 11 7 12
REMARK SMILES IDX 6 13 5 14 4 15 3 16 2 17 1 18
REMARK H PARENT
REMARK Flexibility Score: inf
ROOT
ATOM      1  C   UNL     1       6.470  -7.869 -13.608  1.00  0.00     0.000 C 
ENDROOT
BRANCH   1   2
ATOM      2  C   UNL     1       7.544  -8.146 -14.683  1.00  0.00     0.000 C 
BRANCH   2   3
ATOM      3  C   UNL     1       6.973  -8.893 -15.900  1.00  0.00     0.000 C 
BRANCH   3   4
ATOM      4  C   UNL     1       7.805  -8.679 -17.176  1.00  0.00     0.000 C 
BRANCH   4   5
ATOM      5  C   UNL     1       6.967  -8.753 -18.473  1.00  0.00     0.000 C 
BRANCH   5   6
ATOM      6  C   UNL     1       7.383  -9.935 -19.361  1.00  0.00     0.006 C 
BRANCH   6   7
ATOM      7  C   UNL     1       6.168 -10.775 -19.764  1.00  0.00     0.053 C 
BRANCH   7   8
ATOM      8  C   UNL     1       5.569 -11.438 -18.563  1.00  0.00     0.041 C 
ATOM      9  O   UNL     1       4.321 -11.593 -18.483  1.00  0.00    -0.550 OA
ATOM     10  O   UNL     1       6.392 -11.944 -17.563  1.00  0.00    -0.550 OA
ENDBRANCH   7   8
ENDBRANCH   6   7
ENDBRANCH   5   6
ENDBRANCH   4   5
ENDBRANCH   3   4
ENDBRANCH   2   3
ENDBRANCH   1   2
BRANCH   1  11
ATOM     11  C   UNL     1       5.096  -8.492 -13.925  1.00  0.00     0.000 C 
BRANCH  11  12
ATOM     12  C   UNL     1       3.886  -7.678 -13.434  1.00  0.00    -0.000 C 
BRANCH  12  13
ATOM     13  C   UNL     1       3.487  -6.561 -14.409  1.00  0.00    -0.000 C 
BRANCH  13  14
ATOM     14  C   UNL     1       4.230  -6.707 -15.742  1.00  0.00    -0.000 C 
BRANCH  14  15
ATOM     15  C   UNL     1       4.875  -5.376 -16.160  1.00  0.00    -0.000 C 
BRANCH  15  16
ATOM     16  C   UNL     1       5.821  -5.521 -17.367  1.00  0.00    -0.000 C 
BRANCH  16  17
ATOM     17  C   UNL     1       7.307  -5.259 -17.061  1.00  0.00    -0.003 C 
ATOM     18  C   UNL     1       7.589  -5.077 -15.569  1.00  0.00     0.004 C 
ENDBRANCH  16  17
ENDBRANCH  15  16
ENDBRANCH  14  15
ENDBRANCH  13  14
ENDBRANCH  12  13
ENDBRANCH  11  12
ENDBRANCH   1  11
TORSDOF 14
ENDMDL
MODEL 7
REMARK VINA RESULT:    -3.943      1.820      3.286
REMARK INTER + INTRA:          -9.078
REMARK INTER:                  -7.548
REMARK INTRA:                  -1.530
REMARK UNBOUND:                -1.907
REMARK SMILES CCCCCCCCCCCCCCCC(=O)[O-]
REMARK SMILES IDX 9 1 10 2 11 3 12 4 13 5 14 6 15 7 16 8 17 9 18 10 8 11 7 12
REMARK SMILES IDX 6 13 5 14 4 15 3 16 2 17 1 18
REMARK H PARENT
REMARK Flexibility Score: inf
ROOT
ATOM      1  C   UNL     1       7.716  -8.067 -14.221  1.00  0.00     0.000 C 
ENDROOT
BRANCH   1   2
ATOM      2  C   UNL     1       6.623  -7.750 -13.176  1.00  0.00     0.000 C 
BRANCH   2   3
ATOM      3  C   UNL     1       5.266  -8.375 -13.543  1.00  0.00     0.000 C 
BRANCH   3   4
ATOM      4  C   UNL     1       4.175  -7.321 -13.802  1.00  0.00     0.000 C 
BRANCH   4   5
ATOM      5  C   UNL     1       3.956  -7.022 -15.302  1.00  0.00     0.000 C 
BRANCH   5   6
ATOM      6  C   UNL     1       4.331  -5.577 -15.662  1.00  0.00     0.006 C 
BRANCH   6   7
ATOM      7  C   UNL     1       5.271  -5.538 -16.870  1.00  0.00     0.053 C 
BRANCH   7   8
ATOM      8  C   UNL     1       6.671  -5.233 -16.436  1.00  0.00     0.041 C 
ATOM      9  O   UNL     1       7.597  -5.167 -17.287  1.00  0.00    -0.550 OA
ATOM     10  O   UNL     1       6.940  -4.956 -15.100  1.00  0.00    -0.550 OA
ENDBRANCH   7   8
ENDBRANCH   6   7
ENDBRANCH   5   6
ENDBRANCH   4   5
ENDBRANCH   3   4
ENDBRANCH   2   3
ENDBRANCH   1   2
BRANCH   1  11
ATOM     11  C   UNL     1       7.172  -8.682 -15.525  1.00  0.00     0.000 C 
BRANCH  11  12
ATOM     12  C   UNL     1       8.052  -8.455 -16.766  1.00  0.00    -0.000 C 
BRANCH  12  13
ATOM     13  C   UNL     1       7.260  -8.538 -18.080  1.00  0.00    -0.000 C 
BRANCH  13  14
ATOM     14  C   UNL     1       6.404  -9.809 -18.122  1.00  0.00    -0.000 C 
BRANCH  14  15
ATOM     15  C   UNL     1       6.462 -10.466 -19.510  1.00  0.00    -0.000 C 
BRANCH  15  16
ATOM     16  C   UNL     1       5.125 -11.106 -19.927  1.00  0.00    -0.000 C 
BRANCH  16  17
ATOM     17  C   UNL     1       4.382 -11.847 -18.800  1.00  0.00    -0.003 C 
ATOM     18  C   UNL     1       2.871 -11.607 -18.820  1.00  0.00     0.004 C 
ENDBRANCH  16  17
ENDBRANCH  15  16
ENDBRANCH  14  15
ENDBRANCH  13  14
ENDBRANCH  12  13
ENDBRANCH  11  12
ENDBRANCH   1  11
TORSDOF 14
ENDMDL
MODEL 8
REMARK VINA RESULT:    -3.852      2.549      5.295
REMARK INTER + INTRA:          -8.911
REMARK INTER:                  -7.204
REMARK INTRA:                  -1.707
REMARK UNBOUND:                -1.907
REMARK SMILES CCCCCCCCCCCCCCCC(=O)[O-]
REMARK SMILES IDX 9 1 10 2 11 3 12 4 13 5 14 6 15 7 16 8 17 9 18 10 8 11 7 12
REMARK SMILES IDX 6 13 5 14 4 15 3 16 2 17 1 18
REMARK H PARENT
REMARK Flexibility Score: inf
ROOT
ATOM      1  C   UNL     1       6.405  -5.142 -15.847  1.00  0.00     0.000 C 
ENDROOT
BRANCH   1   2
ATOM      2  C   UNL     1       7.523  -5.493 -16.854  1.00  0.00     0.000 C 
BRANCH   2   3
ATOM      3  C   UNL     1       7.006  -6.349 -18.024  1.00  0.00     0.000 C 
BRANCH   3   4
ATOM      4  C   UNL     1       8.117  -7.175 -18.695  1.00  0.00     0.000 C 
BRANCH   4   5
ATOM      5  C   UNL     1       7.782  -8.680 -18.800  1.00  0.00     0.000 C 
BRANCH   5   6
ATOM      6  C   UNL     1       6.503  -9.040 -18.031  1.00  0.00     0.006 C 
BRANCH   6   7
ATOM      7  C   UNL     1       6.356 -10.558 -17.888  1.00  0.00     0.053 C 
BRANCH   7   8
ATOM      8  C   UNL     1       5.507 -11.108 -18.991  1.00  0.00     0.041 C 
ATOM      9  O   UNL     1       4.349 -11.536 -18.745  1.00  0.00    -0.550 OA
ATOM     10  O   UNL     1       5.970 -11.087 -20.303  1.00  0.00    -0.550 OA
ENDBRANCH   7   8
ENDBRANCH   6   7
ENDBRANCH   5   6
ENDBRANCH   4   5
ENDBRANCH   3   4
ENDBRANCH   2   3
ENDBRANCH   1   2
BRANCH   1  11
ATOM     11  C   UNL     1       4.982  -5.407 -16.377  1.00  0.00     0.000 C 
BRANCH  11  12
ATOM     12  C   UNL     1       4.280  -6.631 -15.765  1.00  0.00    -0.000 C 
BRANCH  12  13
ATOM     13  C   UNL     1       3.395  -6.270 -14.563  1.00  0.00    -0.000 C 
BRANCH  13  14
ATOM     14  C   UNL     1       3.532  -7.315 -13.450  1.00  0.00    -0.000 C 
BRANCH  14  15
ATOM     15  C   UNL     1       4.362  -8.519 -13.926  1.00  0.00    -0.000 C 
BRANCH  15  16
ATOM     16  C   UNL     1       5.648  -8.723 -13.104  1.00  0.00    -0.000 C 
BRANCH  16  17
ATOM     17  C   UNL     1       6.843  -7.857 -13.545  1.00  0.00    -0.003 C 
ATOM     18  C   UNL     1       7.504  -8.358 -14.830  1.00  0.00     0.004 C 
ENDBRANCH  16  17
ENDBRANCH  15  16
ENDBRANCH  14  15
ENDBRANCH  13  14
ENDBRANCH  12  13
ENDBRANCH  11  12
ENDBRANCH   1  11
TORSDOF 14
ENDMDL
MODEL 9
REMARK VINA RESULT:    -3.726      2.744      5.101
REMARK INTER + INTRA:          -8.683
REMARK INTER:                  -6.954
REMARK INTRA:                  -1.729
REMARK UNBOUND:                -1.907
REMARK SMILES CCCCCCCCCCCCCCCC(=O)[O-]
REMARK SMILES IDX 9 1 10 2 11 3 12 4 13 5 14 6 15 7 16 8 17 9 18 10 8 11 7 12
REMARK SMILES IDX 6 13 5 14 4 15 3 16 2 17 1 18
REMARK H PARENT
REMARK Flexibility Score: inf
ROOT
ATOM      1  C   UNL     1       4.770  -7.715 -13.611  1.00  0.00     0.000 C 
ENDROOT
BRANCH   1   2
ATOM      2  C   UNL     1       6.207  -7.155 -13.506  1.00  0.00     0.000 C 
BRANCH   2   3
ATOM      3  C   UNL     1       7.267  -8.188 -13.926  1.00  0.00     0.000 C 
BRANCH   3   4
ATOM      4  C   UNL     1       7.642  -8.085 -15.415  1.00  0.00     0.000 C 
BRANCH   4   5
ATOM      5  C   UNL     1       7.591  -9.441 -16.154  1.00  0.00     0.000 C 
BRANCH   5   6
ATOM      6  C   UNL     1       6.372  -9.546 -17.082  1.00  0.00     0.006 C 
BRANCH   6   7
ATOM      7  C   UNL     1       6.181 -10.982 -17.579  1.00  0.00     0.053 C 
BRANCH   7   8
ATOM      8  C   UNL     1       5.992 -11.002 -19.064  1.00  0.00     0.041 C 
ATOM      9  O   UNL     1       4.899 -11.388 -19.557  1.00  0.00    -0.550 OA
ATOM     10  O   UNL     1       6.998 -10.531 -19.900  1.00  0.00    -0.550 OA
ENDBRANCH   7   8
ENDBRANCH   6   7
ENDBRANCH   5   6
ENDBRANCH   4   5
ENDBRANCH   3   4
ENDBRANCH   2   3
ENDBRANCH   1   2
BRANCH   1  11
ATOM     11  C   UNL     1       4.123  -7.515 -14.995  1.00  0.00     0.000 C 
BRANCH  11  12
ATOM     12  C   UNL     1       3.444  -6.150 -15.202  1.00  0.00    -0.000 C 
BRANCH  12  13
ATOM     13  C   UNL     1       4.260  -5.210 -16.101  1.00  0.00    -0.000 C 
BRANCH  13  14
ATOM     14  C   UNL     1       5.325  -5.990 -16.882  1.00  0.00    -0.000 C 
BRANCH  14  15
ATOM     15  C   UNL     1       6.516  -5.086 -17.239  1.00  0.00    -0.000 C 
BRANCH  15  16
ATOM     16  C   UNL     1       7.744  -5.878 -17.727  1.00  0.00    -0.000 C 
BRANCH  16  17
ATOM     17  C   UNL     1       7.461  -6.876 -18.866  1.00  0.00    -0.003 C 
ATOM     18  C   UNL     1       8.682  -7.714 -19.246  1.00  0.00     0.004 C 
ENDBRANCH  16  17
ENDBRANCH  15  16
ENDBRANCH  14  15
ENDBRANCH  13  14
ENDBRANCH  12  13
ENDBRANCH  11  12
ENDBRANCH   1  11
TORSDOF 14
ENDMDL
