MODEL 1
REMARK VINA RESULT:    -3.331      0.000      0.000
REMARK INTER + INTRA:          -8.534
REMARK INTER:                  -6.252
REMARK INTRA:                  -2.282
REMARK UNBOUND:                -2.282
REMARK SMILES CCCCCCCCC=CCCCCCCCC(=O)[O-]
REMARK SMILES IDX 10 1 9 2 11 3 12 4 13 5 14 6 15 7 16 8 17 9 18 10 19 11
REMARK SMILES IDX 20 12 8 13 7 14 6 15 5 16 4 17 3 18 2 19 1 20
REMARK H PARENT
REMARK Flexibility Score: inf
ROOT
ATOM      1  C   UNL     1     166.520 168.981 153.379  1.00  0.00    -0.031 C 
ATOM      2  C   UNL     1     165.322 169.558 153.169  1.00  0.00    -0.031 C 
ENDROOT
BRANCH   1   3
ATOM      3  C   UNL     1     167.846 169.594 152.998  1.00  0.00     0.027 C 
BRANCH   3   4
ATOM      4  C   UNL     1     168.450 168.927 151.754  1.00  0.00     0.004 C 
BRANCH   4   5
ATOM      5  C   UNL     1     168.964 169.956 150.735  1.00  0.00     0.000 C 
BRANCH   5   6
ATOM      6  C   UNL     1     169.785 169.274 149.632  1.00  0.00     0.000 C 
BRANCH   6   7
ATOM      7  C   UNL     1     171.166 168.799 150.115  1.00  0.00     0.000 C 
BRANCH   7   8
ATOM      8  C   UNL     1     172.365 169.425 149.379  1.00  0.00     0.006 C 
BRANCH   8   9
ATOM      9  C   UNL     1     173.125 168.417 148.507  1.00  0.00     0.053 C 
BRANCH   9  10
ATOM     10  C   UNL     1     172.509 168.331 147.147  1.00  0.00     0.041 C 
ATOM     11  O   UNL     1     172.272 167.208 146.628  1.00  0.00    -0.550 OA
ATOM     12  O   UNL     1     172.155 169.491 146.468  1.00  0.00    -0.550 OA
ENDBRANCH   9  10
ENDBRANCH   8   9
ENDBRANCH   7   8
ENDBRANCH   6   7
ENDBRANCH   5   6
ENDBRANCH   4   5
ENDBRANCH   3   4
ENDBRANCH   1   3
BRANCH   2  13
ATOM     13  C   UNL     1     165.113 170.856 152.431  1.00  0.00     0.027 C 
BRANCH  13  14
ATOM     14  C   UNL     1     164.513 170.598 151.044  1.00  0.00     0.004 C 
BRANCH  14  15
ATOM     15  C   UNL     1     165.541 170.881 149.939  1.00  0.00     0.000 C 
BRANCH  15  16
ATOM     16  C   UNL     1     165.712 169.695 148.975  1.00  0.00     0.000 C 
BRANCH  16  17
ATOM     17  C   UNL     1     165.556 168.336 149.675  1.00  0.00    -0.000 C 
BRANCH  17  18
ATOM     18  C   UNL     1     164.723 167.371 148.820  1.00  0.00    -0.000 C 
BRANCH  18  19
ATOM     19  C   UNL     1     163.387 166.997 149.481  1.00  0.00    -0.003 C 
ATOM     20  C   UNL     1     163.453 167.030 151.007  1.00  0.00     0.004 C 
ENDBRANCH  18  19
ENDBRANCH  17  18
ENDBRANCH  16  17
ENDBRANCH  15  16
ENDBRANCH  14  15
ENDBRANCH  13  14
ENDBRANCH   2  13
TORSDOF 15
ENDMDL
MODEL 2
REMARK VINA RESULT:    -3.322      1.420      2.743
REMARK INTER + INTRA:          -8.517
REMARK INTER:                  -6.386
REMARK INTRA:                  -2.131
REMARK UNBOUND:                -2.282
REMARK SMILES CCCCCCCCC=CCCCCCCCC(=O)[O-]
REMARK SMILES IDX 10 1 9 2 11 3 12 4 13 5 14 6 15 7 16 8 17 9 18 10 19 11
REMARK SMILES IDX 20 12 8 13 7 14 6 15 5 16 4 17 3 18 2 19 1 20
REMARK H PARENT
REMARK Flexibility Score: inf
ROOT
ATOM      1  C   UNL     1     168.508 170.593 152.543  1.00  0.00    -0.031 C 
ATOM      2  C   UNL     1     167.931 170.771 153.745  1.00  0.00    -0.031 C 
ENDROOT
BRANCH   1   3
ATOM      3  C   UNL     1     168.598 169.269 151.821  1.00  0.00     0.027 C 
BRANCH   3   4
ATOM      4  C   UNL     1     169.272 169.408 150.449  1.00  0.00     0.004 C 
BRANCH   4   5
ATOM      5  C   UNL     1     170.069 170.716 150.322  1.00  0.00     0.000 C 
BRANCH   5   6
ATOM      6  C   UNL     1     171.510 170.439 149.872  1.00  0.00     0.000 C 
BRANCH   6   7
ATOM      7  C   UNL     1     171.857 168.940 149.850  1.00  0.00     0.000 C 
BRANCH   7   8
ATOM      8  C   UNL     1     172.397 168.416 148.507  1.00  0.00     0.006 C 
BRANCH   8   9
ATOM      9  C   UNL     1     171.775 169.122 147.295  1.00  0.00     0.053 C 
BRANCH   9  10
ATOM     10  C   UNL     1     170.760 168.241 146.641  1.00  0.00     0.041 C 
ATOM     11  O   UNL     1     169.851 167.702 147.327  1.00  0.00    -0.550 OA
ATOM     12  O   UNL     1     170.789 168.047 145.264  1.00  0.00    -0.550 OA
ENDBRANCH   9  10
ENDBRANCH   8   9
ENDBRANCH   7   8
ENDBRANCH   6   7
ENDBRANCH   5   6
ENDBRANCH   4   5
ENDBRANCH   3   4
ENDBRANCH   1   3
BRANCH   2  13
ATOM     13  C   UNL     1     167.377 169.662 154.603  1.00  0.00     0.027 C 
BRANCH  13  14
ATOM     14  C   UNL     1     165.872 169.851 154.825  1.00  0.00     0.004 C 
BRANCH  14  15
ATOM     15  C   UNL     1     165.061 169.107 153.753  1.00  0.00     0.000 C 
BRANCH  15  16
ATOM     16  C   UNL     1     164.202 170.055 152.899  1.00  0.00     0.000 C 
BRANCH  16  17
ATOM     17  C   UNL     1     164.850 170.379 151.544  1.00  0.00    -0.000 C 
BRANCH  17  18
ATOM     18  C   UNL     1     165.062 169.102 150.718  1.00  0.00    -0.000 C 
BRANCH  18  19
ATOM     19  C   UNL     1     165.696 169.384 149.346  1.00  0.00    -0.003 C 
ATOM     20  C   UNL     1     165.316 168.342 148.294  1.00  0.00     0.004 C 
ENDBRANCH  18  19
ENDBRANCH  17  18
ENDBRANCH  16  17
ENDBRANCH  15  16
ENDBRANCH  14  15
ENDBRANCH  13  14
ENDBRANCH   2  13
TORSDOF 15
ENDMDL
MODEL 3
REMARK VINA RESULT:    -3.309      2.969      6.294
REMARK INTER + INTRA:          -8.493
REMARK INTER:                  -5.799
REMARK INTRA:                  -2.695
REMARK UNBOUND:                -2.282
REMARK SMILES CCCCCCCCC=CCCCCCCCC(=O)[O-]
REMARK SMILES IDX 10 1 9 2 11 3 12 4 13 5 14 6 15 7 16 8 17 9 18 10 19 11
REMARK SMILES IDX 20 12 8 13 7 14 6 15 5 16 4 17 3 18 2 19 1 20
REMARK H PARENT
REMARK Flexibility Score: inf
ROOT
ATOM      1  C   UNL     1     167.870 169.179 152.624  1.00  0.00    -0.031 C 
ATOM      2  C   UNL     1     168.572 169.304 151.483  1.00  0.00    -0.031 C 
ENDROOT
BRANCH   1   3
ATOM      3  C   UNL     1     167.426 170.333 153.490  1.00  0.00     0.027 C 
BRANCH   3   4
ATOM      4  C   UNL     1     166.126 170.969 152.977  1.00  0.00     0.004 C 
BRANCH   4   5
ATOM      5  C   UNL     1     164.912 170.049 153.175  1.00  0.00     0.000 C 
BRANCH   5   6
ATOM      6  C   UNL     1     164.086 169.944 151.885  1.00  0.00     0.000 C 
BRANCH   6   7
ATOM      7  C   UNL     1     164.854 170.418 150.638  1.00  0.00     0.000 C 
BRANCH   7   8
ATOM      8  C   UNL     1     165.054 169.348 149.550  1.00  0.00     0.006 C 
BRANCH   8   9
ATOM      9  C   UNL     1     165.298 167.947 150.126  1.00  0.00     0.053 C 
BRANCH   9  10
ATOM     10  C   UNL     1     164.408 166.945 149.463  1.00  0.00     0.041 C 
ATOM     11  O   UNL     1     163.159 167.112 149.457  1.00  0.00    -0.550 OA
ATOM     12  O   UNL     1     164.958 165.848 148.810  1.00  0.00    -0.550 OA
ENDBRANCH   9  10
ENDBRANCH   8   9
ENDBRANCH   7   8
ENDBRANCH   6   7
ENDBRANCH   5   6
ENDBRANCH   4   5
ENDBRANCH   3   4
ENDBRANCH   1   3
BRANCH   2  13
ATOM     13  C   UNL     1     169.113 170.606 150.948  1.00  0.00     0.027 C 
BRANCH  13  14
ATOM     14  C   UNL     1     169.045 170.631 149.417  1.00  0.00     0.004 C 
BRANCH  14  15
ATOM     15  C   UNL     1     168.610 169.266 148.863  1.00  0.00     0.000 C 
BRANCH  15  16
ATOM     16  C   UNL     1     169.018 169.067 147.394  1.00  0.00     0.000 C 
BRANCH  16  17
ATOM     17  C   UNL     1     170.531 169.228 147.174  1.00  0.00    -0.000 C 
BRANCH  17  18
ATOM     18  C   UNL     1     171.293 167.993 147.676  1.00  0.00    -0.000 C 
BRANCH  18  19
ATOM     19  C   UNL     1     172.498 168.359 148.556  1.00  0.00    -0.003 C 
ATOM     20  C   UNL     1     172.128 168.516 150.031  1.00  0.00     0.004 C 
ENDBRANCH  18  19
ENDBRANCH  17  18
ENDBRANCH  16  17
ENDBRANCH  15  16
ENDBRANCH  14  15
ENDBRANCH  13  14
ENDBRANCH   2  13
TORSDOF 15
ENDMDL
MODEL 4
REMARK VINA RESULT:    -3.291     15.391     16.567
REMARK INTER + INTRA:          -8.460
REMARK INTER:                  -5.580
REMARK INTRA:                  -2.880
REMARK UNBOUND:                -2.282
REMARK SMILES CCCCCCCCC=CCCCCCCCC(=O)[O-]
REMARK SMILES IDX 10 1 9 2 11 3 12 4 13 5 14 6 15 7 16 8 17 9 18 10 19 11
REMARK SMILES IDX 20 12 8 13 7 14 6 15 5 16 4 17 3 18 2 19 1 20
REMARK H PARENT
REMARK Flexibility Score: inf
ROOT
ATOM      1  C   UNL     1     172.659 155.245 155.702  1.00  0.00    -0.031 C 
ATOM      2  C   UNL     1     172.697 154.120 156.439  1.00  0.00    -0.031 C 
ENDROOT
BRANCH   1   3
ATOM      3  C   UNL     1     172.774 155.289 154.197  1.00  0.00     0.027 C 
BRANCH   3   4
ATOM      4  C   UNL     1     172.366 156.657 153.630  1.00  0.00     0.004 C 
BRANCH   4   5
ATOM      5  C   UNL     1     170.929 156.655 153.087  1.00  0.00     0.000 C 
BRANCH   5   6
ATOM      6  C   UNL     1     170.910 156.339 151.585  1.00  0.00     0.000 C 
BRANCH   6   7
ATOM      7  C   UNL     1     169.843 155.298 151.202  1.00  0.00     0.000 C 
BRANCH   7   8
ATOM      8  C   UNL     1     170.396 153.977 150.638  1.00  0.00     0.006 C 
BRANCH   8   9
ATOM      9  C   UNL     1     171.913 153.835 150.821  1.00  0.00     0.053 C 
BRANCH   9  10
ATOM     10  C   UNL     1     172.263 152.438 151.221  1.00  0.00     0.041 C 
ATOM     11  O   UNL     1     172.203 151.503 150.378  1.00  0.00    -0.550 OA
ATOM     12  O   UNL     1     172.701 152.171 152.513  1.00  0.00    -0.550 OA
ENDBRANCH   9  10
ENDBRANCH   8   9
ENDBRANCH   7   8
ENDBRANCH   6   7
ENDBRANCH   5   6
ENDBRANCH   4   5
ENDBRANCH   3   4
ENDBRANCH   1   3
BRANCH   2  13
ATOM     13  C   UNL     1     172.963 152.742 155.888  1.00  0.00     0.027 C 
BRANCH  13  14
ATOM     14  C   UNL     1     172.067 151.703 156.572  1.00  0.00     0.004 C 
BRANCH  14  15
ATOM     15  C   UNL     1     171.265 150.901 155.536  1.00  0.00     0.000 C 
BRANCH  15  16
ATOM     16  C   UNL     1     169.760 151.210 155.586  1.00  0.00     0.000 C 
BRANCH  16  17
ATOM     17  C   UNL     1     169.248 151.863 154.293  1.00  0.00    -0.000 C 
BRANCH  17  18
ATOM     18  C   UNL     1     169.634 153.348 154.237  1.00  0.00    -0.000 C 
BRANCH  18  19
ATOM     19  C   UNL     1     168.534 154.266 154.791  1.00  0.00    -0.003 C 
ATOM     20  C   UNL     1     169.035 155.185 155.905  1.00  0.00     0.004 C 
ENDBRANCH  18  19
ENDBRANCH  17  18
ENDBRANCH  16  17
ENDBRANCH  15  16
ENDBRANCH  14  15
ENDBRANCH  13  14
ENDBRANCH   2  13
TORSDOF 15
ENDMDL
MODEL 5
REMARK VINA RESULT:    -3.277     14.962     16.175
REMARK INTER + INTRA:          -8.433
REMARK INTER:                  -5.248
REMARK INTRA:                  -3.186
REMARK UNBOUND:                -2.282
REMARK SMILES CCCCCCCCC=CCCCCCCCC(=O)[O-]
REMARK SMILES IDX 10 1 9 2 11 3 12 4 13 5 14 6 15 7 16 8 17 9 18 10 19 11
REMARK SMILES IDX 20 12 8 13 7 14 6 15 5 16 4 17 3 18 2 19 1 20
REMARK H PARENT
REMARK Flexibility Score: inf
ROOT
ATOM      1  C   UNL     1     169.297 154.039 155.675  1.00  0.00    -0.031 C 
ATOM      2  C   UNL     1     169.348 152.785 155.188  1.00  0.00    -0.031 C 
ENDROOT
BRANCH   1   3
ATOM      3  C   UNL     1     169.673 154.428 157.084  1.00  0.00     0.027 C 
BRANCH   3   4
ATOM      4  C   UNL     1     170.968 155.253 157.125  1.00  0.00     0.004 C 
BRANCH   4   5
ATOM      5  C   UNL     1     170.694 156.765 157.124  1.00  0.00     0.000 C 
BRANCH   5   6
ATOM      6  C   UNL     1     171.716 157.508 156.253  1.00  0.00     0.000 C 
BRANCH   6   7
ATOM      7  C   UNL     1     172.271 156.644 155.106  1.00  0.00     0.000 C 
BRANCH   7   8
ATOM      8  C   UNL     1     171.845 157.084 153.694  1.00  0.00     0.006 C 
BRANCH   8   9
ATOM      9  C   UNL     1     170.401 156.690 153.354  1.00  0.00     0.053 C 
BRANCH   9  10
ATOM     10  C   UNL     1     169.584 157.904 153.051  1.00  0.00     0.041 C 
ATOM     11  O   UNL     1     169.186 158.124 151.876  1.00  0.00    -0.550 OA
ATOM     12  O   UNL     1     169.223 158.774 154.074  1.00  0.00    -0.550 OA
ENDBRANCH   9  10
ENDBRANCH   8   9
ENDBRANCH   7   8
ENDBRANCH   6   7
ENDBRANCH   5   6
ENDBRANCH   4   5
ENDBRANCH   3   4
ENDBRANCH   1   3
BRANCH   2  13
ATOM     13  C   UNL     1     169.689 151.563 156.002  1.00  0.00     0.027 C 
BRANCH  13  14
ATOM     14  C   UNL     1     171.082 151.039 155.634  1.00  0.00     0.004 C 
BRANCH  14  15
ATOM     15  C   UNL     1     172.173 151.777 156.425  1.00  0.00     0.000 C 
BRANCH  15  16
ATOM     16  C   UNL     1     173.104 152.600 155.520  1.00  0.00     0.000 C 
BRANCH  16  17
ATOM     17  C   UNL     1     172.905 152.289 154.028  1.00  0.00    -0.000 C 
BRANCH  17  18
ATOM     18  C   UNL     1     172.470 153.545 153.259  1.00  0.00    -0.000 C 
BRANCH  18  19
ATOM     19  C   UNL     1     171.455 153.235 152.147  1.00  0.00    -0.003 C 
ATOM     20  C   UNL     1     171.255 151.736 151.930  1.00  0.00     0.004 C 
ENDBRANCH  18  19
ENDBRANCH  17  18
ENDBRANCH  16  17
ENDBRANCH  15  16
ENDBRANCH  14  15
ENDBRANCH  13  14
ENDBRANCH   2  13
TORSDOF 15
ENDMDL
MODEL 6
REMARK VINA RESULT:    -3.275      4.106      6.854
REMARK INTER + INTRA:          -8.429
REMARK INTER:                  -5.984
REMARK INTRA:                  -2.446
REMARK UNBOUND:                -2.282
REMARK SMILES CCCCCCCCC=CCCCCCCCC(=O)[O-]
REMARK SMILES IDX 10 1 9 2 11 3 12 4 13 5 14 6 15 7 16 8 17 9 18 10 19 11
REMARK SMILES IDX 20 12 8 13 7 14 6 15 5 16 4 17 3 18 2 19 1 20
REMARK H PARENT
REMARK Flexibility Score: inf
ROOT
ATOM      1  C   UNL     1     168.006 169.512 152.523  1.00  0.00    -0.031 C 
ATOM      2  C   UNL     1     168.645 168.856 151.537  1.00  0.00    -0.031 C 
ENDROOT
BRANCH   1   3
ATOM      3  C   UNL     1     168.289 170.938 152.928  1.00  0.00     0.027 C 
BRANCH   3   4
ATOM      4  C   UNL     1     168.264 171.118 154.453  1.00  0.00     0.004 C 
BRANCH   4   5
ATOM      5  C   UNL     1     167.524 169.973 155.161  1.00  0.00     0.000 C 
BRANCH   5   6
ATOM      6  C   UNL     1     166.155 170.437 155.674  1.00  0.00     0.000 C 
BRANCH   6   7
ATOM      7  C   UNL     1     165.033 170.268 154.634  1.00  0.00     0.000 C 
BRANCH   7   8
ATOM      8  C   UNL     1     164.771 168.818 154.189  1.00  0.00     0.006 C 
BRANCH   8   9
ATOM      9  C   UNL     1     163.574 168.178 154.906  1.00  0.00     0.053 C 
BRANCH   9  10
ATOM     10  C   UNL     1     163.014 167.057 154.091  1.00  0.00     0.041 C 
ATOM     11  O   UNL     1     161.818 167.096 153.695  1.00  0.00    -0.550 OA
ATOM     12  O   UNL     1     163.823 165.986 153.729  1.00  0.00    -0.550 OA
ENDBRANCH   9  10
ENDBRANCH   8   9
ENDBRANCH   7   8
ENDBRANCH   6   7
ENDBRANCH   5   6
ENDBRANCH   4   5
ENDBRANCH   3   4
ENDBRANCH   1   3
BRANCH   2  13
ATOM     13  C   UNL     1     169.809 169.407 150.754  1.00  0.00     0.027 C 
BRANCH  13  14
ATOM     14  C   UNL     1     169.787 168.887 149.312  1.00  0.00     0.004 C 
BRANCH  14  15
ATOM     15  C   UNL     1     168.522 169.356 148.578  1.00  0.00     0.000 C 
BRANCH  15  16
ATOM     16  C   UNL     1     168.245 170.854 148.777  1.00  0.00     0.000 C 
BRANCH  16  17
ATOM     17  C   UNL     1     166.849 171.125 149.362  1.00  0.00    -0.000 C 
BRANCH  17  18
ATOM     18  C   UNL     1     165.946 169.892 149.218  1.00  0.00    -0.000 C 
BRANCH  18  19
ATOM     19  C   UNL     1     164.920 169.774 150.355  1.00  0.00    -0.003 C 
ATOM     20  C   UNL     1     164.798 171.056 151.178  1.00  0.00     0.004 C 
ENDBRANCH  18  19
ENDBRANCH  17  18
ENDBRANCH  16  17
ENDBRANCH  15  16
ENDBRANCH  14  15
ENDBRANCH  13  14
ENDBRANCH   2  13
TORSDOF 15
ENDMDL
MODEL 7
REMARK VINA RESULT:    -3.255      7.153      9.535
REMARK INTER + INTRA:          -8.391
REMARK INTER:                  -5.259
REMARK INTRA:                  -3.132
REMARK UNBOUND:                -2.282
REMARK SMILES CCCCCCCCC=CCCCCCCCC(=O)[O-]
REMARK SMILES IDX 10 1 9 2 11 3 12 4 13 5 14 6 15 7 16 8 17 9 18 10 19 11
REMARK SMILES IDX 20 12 8 13 7 14 6 15 5 16 4 17 3 18 2 19 1 20
REMARK H PARENT
REMARK Flexibility Score: inf
ROOT
ATOM      1  C   UNL     1     171.707 162.762 143.247  1.00  0.00    -0.031 C 
ATOM      2  C   UNL     1     171.299 161.498 143.459  1.00  0.00    -0.031 C 
ENDROOT
BRANCH   1   3
ATOM      3  C   UNL     1     173.062 163.303 143.636  1.00  0.00     0.027 C 
BRANCH   3   4
ATOM      4  C   UNL     1     173.044 163.948 145.030  1.00  0.00     0.004 C 
BRANCH   4   5
ATOM      5  C   UNL     1     173.125 165.480 144.962  1.00  0.00     0.000 C 
BRANCH   5   6
ATOM      6  C   UNL     1     171.945 166.126 145.701  1.00  0.00     0.000 C 
BRANCH   6   7
ATOM      7  C   UNL     1     171.173 167.138 144.836  1.00  0.00     0.000 C 
BRANCH   7   8
ATOM      8  C   UNL     1     171.358 166.971 143.317  1.00  0.00     0.006 C 
BRANCH   8   9
ATOM      9  C   UNL     1     170.190 166.234 142.648  1.00  0.00     0.053 C 
BRANCH   9  10
ATOM     10  C   UNL     1     169.052 167.171 142.401  1.00  0.00     0.041 C 
ATOM     11  O   UNL     1     167.876 166.834 142.704  1.00  0.00    -0.550 OA
ATOM     12  O   UNL     1     169.292 168.435 141.876  1.00  0.00    -0.550 OA
ENDBRANCH   9  10
ENDBRANCH   8   9
ENDBRANCH   7   8
ENDBRANCH   6   7
ENDBRANCH   5   6
ENDBRANCH   4   5
ENDBRANCH   3   4
ENDBRANCH   1   3
BRANCH   2  13
ATOM     13  C   UNL     1     172.089 160.455 144.207  1.00  0.00     0.027 C 
BRANCH  13  14
ATOM     14  C   UNL     1     171.777 160.513 145.707  1.00  0.00     0.004 C 
BRANCH  14  15
ATOM     15  C   UNL     1     170.271 160.345 145.962  1.00  0.00     0.000 C 
BRANCH  15  16
ATOM     16  C   UNL     1     169.769 161.210 147.129  1.00  0.00     0.000 C 
BRANCH  16  17
ATOM     17  C   UNL     1     170.238 162.671 147.026  1.00  0.00    -0.000 C 
BRANCH  17  18
ATOM     18  C   UNL     1     169.058 163.605 146.721  1.00  0.00    -0.000 C 
BRANCH  18  19
ATOM     19  C   UNL     1     169.017 164.046 145.250  1.00  0.00    -0.003 C 
ATOM     20  C   UNL     1     168.105 163.167 144.394  1.00  0.00     0.004 C 
ENDBRANCH  18  19
ENDBRANCH  17  18
ENDBRANCH  16  17
ENDBRANCH  15  16
ENDBRANCH  14  15
ENDBRANCH  13  14
ENDBRANCH   2  13
TORSDOF 15
ENDMDL
MODEL 8
REMARK VINA RESULT:    -3.239     15.054     16.193
REMARK INTER + INTRA:          -8.361
REMARK INTER:                  -5.433
REMARK INTRA:                  -2.927
REMARK UNBOUND:                -2.282
REMARK SMILES CCCCCCCCC=CCCCCCCCC(=O)[O-]
REMARK SMILES IDX 10 1 9 2 11 3 12 4 13 5 14 6 15 7 16 8 17 9 18 10 19 11
REMARK SMILES IDX 20 12 8 13 7 14 6 15 5 16 4 17 3 18 2 19 1 20
REMARK H PARENT
REMARK Flexibility Score: inf
ROOT
ATOM      1  C   UNL     1     169.259 152.718 154.810  1.00  0.00    -0.031 C 
ATOM      2  C   UNL     1     169.718 152.471 153.570  1.00  0.00    -0.031 C 
ENDROOT
BRANCH   1   3
ATOM      3  C   UNL     1     169.741 152.021 156.059  1.00  0.00     0.027 C 
BRANCH   3   4
ATOM      4  C   UNL     1     170.759 152.871 156.833  1.00  0.00     0.004 C 
BRANCH   4   5
ATOM      5  C   UNL     1     172.207 152.431 156.565  1.00  0.00     0.000 C 
BRANCH   5   6
ATOM      6  C   UNL     1     173.125 153.646 156.379  1.00  0.00     0.000 C 
BRANCH   6   7
ATOM      7  C   UNL     1     173.057 154.242 154.961  1.00  0.00     0.000 C 
BRANCH   7   8
ATOM      8  C   UNL     1     172.471 155.663 154.880  1.00  0.00     0.006 C 
BRANCH   8   9
ATOM      9  C   UNL     1     171.247 155.754 153.959  1.00  0.00     0.053 C 
BRANCH   9  10
ATOM     10  C   UNL     1     171.013 157.169 153.537  1.00  0.00     0.041 C 
ATOM     11  O   UNL     1     171.519 157.604 152.468  1.00  0.00    -0.550 OA
ATOM     12  O   UNL     1     170.201 157.999 154.301  1.00  0.00    -0.550 OA
ENDBRANCH   9  10
ENDBRANCH   8   9
ENDBRANCH   7   8
ENDBRANCH   6   7
ENDBRANCH   5   6
ENDBRANCH   4   5
ENDBRANCH   3   4
ENDBRANCH   1   3
BRANCH   2  13
ATOM     13  C   UNL     1     170.709 151.389 153.223  1.00  0.00     0.027 C 
BRANCH  13  14
ATOM     14  C   UNL     1     171.961 151.990 152.572  1.00  0.00     0.004 C 
BRANCH  14  15
ATOM     15  C   UNL     1     171.707 152.318 151.093  1.00  0.00     0.000 C 
BRANCH  15  16
ATOM     16  C   UNL     1     172.011 153.786 150.753  1.00  0.00     0.000 C 
BRANCH  16  17
ATOM     17  C   UNL     1     170.743 154.652 150.684  1.00  0.00    -0.000 C 
BRANCH  17  18
ATOM     18  C   UNL     1     169.590 153.884 150.023  1.00  0.00    -0.000 C 
BRANCH  18  19
ATOM     19  C   UNL     1     168.210 154.421 150.432  1.00  0.00    -0.003 C 
ATOM     20  C   UNL     1     168.297 155.693 151.276  1.00  0.00     0.004 C 
ENDBRANCH  18  19
ENDBRANCH  17  18
ENDBRANCH  16  17
ENDBRANCH  15  16
ENDBRANCH  14  15
ENDBRANCH  13  14
ENDBRANCH   2  13
TORSDOF 15
ENDMDL
MODEL 9
REMARK VINA RESULT:    -3.229      4.311      6.294
REMARK INTER + INTRA:          -8.344
REMARK INTER:                  -5.724
REMARK INTRA:                  -2.619
REMARK UNBOUND:                -2.282
REMARK SMILES CCCCCCCCC=CCCCCCCCC(=O)[O-]
REMARK SMILES IDX 10 1 9 2 11 3 12 4 13 5 14 6 15 7 16 8 17 9 18 10 19 11
REMARK SMILES IDX 20 12 8 13 7 14 6 15 5 16 4 17 3 18 2 19 1 20
REMARK H PARENT
REMARK Flexibility Score: inf
ROOT
ATOM      1  C   UNL     1     168.710 170.376 149.870  1.00  0.00    -0.031 C 
ATOM      2  C   UNL     1     167.649 170.456 149.046  1.00  0.00    -0.031 C 
ENDROOT
BRANCH   1   3
ATOM      3  C   UNL     1     169.008 169.204 150.773  1.00  0.00     0.027 C 
BRANCH   3   4
ATOM      4  C   UNL     1     168.579 169.473 152.223  1.00  0.00     0.004 C 
BRANCH   4   5
ATOM      5  C   UNL     1     168.278 170.958 152.474  1.00  0.00     0.000 C 
BRANCH   5   6
ATOM      6  C   UNL     1     167.194 171.125 153.548  1.00  0.00     0.000 C 
BRANCH   6   7
ATOM      7  C   UNL     1     167.481 170.314 154.824  1.00  0.00     0.000 C 
BRANCH   7   8
ATOM      8  C   UNL     1     166.274 169.547 155.393  1.00  0.00     0.006 C 
BRANCH   8   9
ATOM      9  C   UNL     1     164.955 170.320 155.259  1.00  0.00     0.053 C 
BRANCH   9  10
ATOM     10  C   UNL     1     163.844 169.398 154.873  1.00  0.00     0.041 C 
ATOM     11  O   UNL     1     163.108 169.668 153.887  1.00  0.00    -0.550 OA
ATOM     12  O   UNL     1     163.645 168.214 155.575  1.00  0.00    -0.550 OA
ENDBRANCH   9  10
ENDBRANCH   8   9
ENDBRANCH   7   8
ENDBRANCH   6   7
ENDBRANCH   5   6
ENDBRANCH   4   5
ENDBRANCH   3   4
ENDBRANCH   1   3
BRANCH   2  13
ATOM     13  C   UNL     1     166.541 169.436 148.973  1.00  0.00     0.027 C 
BRANCH  13  14
ATOM     14  C   UNL     1     165.190 170.081 149.301  1.00  0.00     0.004 C 
BRANCH  14  15
ATOM     15  C   UNL     1     164.845 169.908 150.788  1.00  0.00     0.000 C 
BRANCH  15  16
ATOM     16  C   UNL     1     165.255 168.530 151.332  1.00  0.00     0.000 C 
BRANCH  16  17
ATOM     17  C   UNL     1     164.132 167.488 151.212  1.00  0.00    -0.000 C 
BRANCH  17  18
ATOM     18  C   UNL     1     164.413 166.508 150.064  1.00  0.00    -0.000 C 
BRANCH  18  19
ATOM     19  C   UNL     1     163.508 166.749 148.846  1.00  0.00    -0.003 C 
ATOM     20  C   UNL     1     164.246 166.584 147.518  1.00  0.00     0.004 C 
ENDBRANCH  18  19
ENDBRANCH  17  18
ENDBRANCH  16  17
ENDBRANCH  15  16
ENDBRANCH  14  15
ENDBRANCH  13  14
ENDBRANCH   2  13
TORSDOF 15
ENDMDL
