MODEL 1
REMARK VINA RESULT:     0.000      0.000      0.000
REMARK INTER + INTRA:          -2.539
REMARK INTER:                   0.000
REMARK INTRA:                  -2.539
REMARK UNBOUND:                -2.539
REMARK SMILES CCCCCCCCCCCCCC(=O)[O-]
REMARK SMILES IDX 8 1 9 2 10 3 11 4 12 5 13 6 14 7 15 8 16 9 7 10 6 11 5 12
REMARK SMILES IDX 4 13 3 14 2 15 1 16
REMARK H PARENT
REMARK Flexibility Score: inf
ROOT
ATOM      1  C   UNL     1     180.819 187.835 191.077  1.00  0.00     0.000 C 
ENDROOT
BRANCH   1   2
ATOM      2  C   UNL     1     180.450 187.002 189.836  1.00  0.00     0.000 C 
BRANCH   2   3
ATOM      3  C   UNL     1     180.662 187.776 188.525  1.00  0.00     0.000 C 
BRANCH   3   4
ATOM      4  C   UNL     1     181.792 187.184 187.667  1.00  0.00     0.000 C 
BRANCH   4   5
ATOM      5  C   UNL     1     182.713 188.257 187.057  1.00  0.00     0.006 C 
BRANCH   5   6
ATOM      6  C   UNL     1     182.167 189.691 187.178  1.00  0.00     0.053 C 
BRANCH   6   7
ATOM      7  C   UNL     1     183.204 190.662 187.655  1.00  0.00     0.041 C 
ATOM      8  O   UNL     1     182.863 191.685 188.305  1.00  0.00    -0.550 OA
ATOM      9  O   UNL     1     184.552 190.420 187.415  1.00  0.00    -0.550 OA
ENDBRANCH   6   7
ENDBRANCH   5   6
ENDBRANCH   4   5
ENDBRANCH   3   4
ENDBRANCH   2   3
ENDBRANCH   1   2
BRANCH   1  10
ATOM     10  C   UNL     1     181.187 189.285 190.725  1.00  0.00     0.000 C 
BRANCH  10  11
ATOM     11  C   UNL     1     182.572 189.691 191.251  1.00  0.00    -0.000 C 
BRANCH  11  12
ATOM     12  C   UNL     1     183.475 188.460 191.423  1.00  0.00    -0.000 C 
BRANCH  12  13
ATOM     13  C   UNL     1     184.516 188.327 190.300  1.00  0.00    -0.000 C 
BRANCH  13  14
ATOM     14  C   UNL     1     184.757 186.864 189.890  1.00  0.00    -0.000 C 
BRANCH  14  15
ATOM     15  C   UNL     1     183.952 185.873 190.743  1.00  0.00    -0.003 C 
ATOM     16  C   UNL     1     183.408 184.699 189.929  1.00  0.00     0.004 C 
ENDBRANCH  14  15
ENDBRANCH  13  14
ENDBRANCH  12  13
ENDBRANCH  11  12
ENDBRANCH  10  11
ENDBRANCH   1  10
TORSDOF 12
ENDMDL
MODEL 2
REMARK VINA RESULT:     0.000      2.542      4.877
REMARK INTER + INTRA:          -2.539
REMARK INTER:                   0.000
REMARK INTRA:                  -2.539
REMARK UNBOUND:                -2.539
REMARK SMILES CCCCCCCCCCCCCC(=O)[O-]
REMARK SMILES IDX 8 1 9 2 10 3 11 4 12 5 13 6 14 7 15 8 16 9 7 10 6 11 5 12
REMARK SMILES IDX 4 13 3 14 2 15 1 16
REMARK H PARENT
REMARK Flexibility Score: inf
ROOT
ATOM      1  C   UNL     1     181.609 192.084 191.336  1.00  0.00     0.000 C 
ENDROOT
BRANCH   1   2
ATOM      2  C   UNL     1     180.450 191.161 190.919  1.00  0.00     0.000 C 
BRANCH   2   3
ATOM      3  C   UNL     1     180.939 189.894 190.198  1.00  0.00     0.000 C 
BRANCH   3   4
ATOM      4  C   UNL     1     180.468 189.828 188.736  1.00  0.00     0.000 C 
BRANCH   4   5
ATOM      5  C   UNL     1     181.592 189.442 187.757  1.00  0.00     0.006 C 
BRANCH   5   6
ATOM      6  C   UNL     1     182.845 188.866 188.439  1.00  0.00     0.053 C 
BRANCH   6   7
ATOM      7  C   UNL     1     184.116 189.359 187.817  1.00  0.00     0.041 C 
ATOM      8  O   UNL     1     185.175 189.411 188.496  1.00  0.00    -0.550 OA
ATOM      9  O   UNL     1     184.143 189.725 186.476  1.00  0.00    -0.550 OA
ENDBRANCH   6   7
ENDBRANCH   5   6
ENDBRANCH   4   5
ENDBRANCH   3   4
ENDBRANCH   2   3
ENDBRANCH   1   2
BRANCH   1  10
ATOM     10  C   UNL     1     182.987 191.445 191.100  1.00  0.00     0.000 C 
BRANCH  10  11
ATOM     11  C   UNL     1     183.881 192.284 190.176  1.00  0.00    -0.000 C 
BRANCH  11  12
ATOM     12  C   UNL     1     183.042 193.272 189.351  1.00  0.00    -0.000 C 
BRANCH  12  13
ATOM     13  C   UNL     1     182.990 192.905 187.860  1.00  0.00    -0.000 C 
BRANCH  13  14
ATOM     14  C   UNL     1     181.586 193.084 187.256  1.00  0.00    -0.000 C 
BRANCH  14  15
ATOM     15  C   UNL     1     180.625 193.813 188.208  1.00  0.00    -0.003 C 
ATOM     16  C   UNL     1     179.192 193.289 188.115  1.00  0.00     0.004 C 
ENDBRANCH  14  15
ENDBRANCH  13  14
ENDBRANCH  12  13
ENDBRANCH  11  12
ENDBRANCH  10  11
ENDBRANCH   1  10
TORSDOF 12
ENDMDL
MODEL 3
REMARK VINA RESULT:     0.003      3.738      5.746
REMARK INTER + INTRA:          -2.534
REMARK INTER:                   0.000
REMARK INTRA:                  -2.534
REMARK UNBOUND:                -2.539
REMARK SMILES CCCCCCCCCCCCCC(=O)[O-]
REMARK SMILES IDX 8 1 9 2 10 3 11 4 12 5 13 6 14 7 15 8 16 9 7 10 6 11 5 12
REMARK SMILES IDX 4 13 3 14 2 15 1 16
REMARK H PARENT
REMARK Flexibility Score: inf
ROOT
ATOM      1  C   UNL     1     180.082 190.482 194.646  1.00  0.00     0.000 C 
ENDROOT
BRANCH   1   2
ATOM      2  C   UNL     1     180.419 188.984 194.534  1.00  0.00     0.000 C 
BRANCH   2   3
ATOM      3  C   UNL     1     181.919 188.704 194.726  1.00  0.00     0.000 C 
BRANCH   3   4
ATOM      4  C   UNL     1     182.618 188.310 193.414  1.00  0.00     0.000 C 
BRANCH   4   5
ATOM      5  C   UNL     1     184.036 188.895 193.287  1.00  0.00     0.006 C 
BRANCH   5   6
ATOM      6  C   UNL     1     184.496 189.694 194.519  1.00  0.00     0.053 C 
BRANCH   6   7
ATOM      7  C   UNL     1     185.140 190.997 194.153  1.00  0.00     0.041 C 
ATOM      8  O   UNL     1     185.179 191.941 194.985  1.00  0.00    -0.550 OA
ATOM      9  O   UNL     1     185.732 191.158 192.905  1.00  0.00    -0.550 OA
ENDBRANCH   6   7
ENDBRANCH   5   6
ENDBRANCH   4   5
ENDBRANCH   3   4
ENDBRANCH   2   3
ENDBRANCH   1   2
BRANCH   1  10
ATOM     10  C   UNL     1     181.224 191.299 195.271  1.00  0.00     0.000 C 
BRANCH  10  11
ATOM     11  C   UNL     1     181.696 192.448 194.368  1.00  0.00    -0.000 C 
BRANCH  11  12
ATOM     12  C   UNL     1     181.184 192.262 192.932  1.00  0.00    -0.000 C 
BRANCH  12  13
ATOM     13  C   UNL     1     182.305 191.897 191.946  1.00  0.00    -0.000 C 
BRANCH  13  14
ATOM     14  C   UNL     1     181.839 190.910 190.861  1.00  0.00    -0.000 C 
BRANCH  14  15
ATOM     15  C   UNL     1     180.340 190.588 190.964  1.00  0.00    -0.003 C 
ATOM     16  C   UNL     1     180.047 189.094 190.824  1.00  0.00     0.004 C 
ENDBRANCH  14  15
ENDBRANCH  13  14
ENDBRANCH  12  13
ENDBRANCH  11  12
ENDBRANCH  10  11
ENDBRANCH   1  10
TORSDOF 12
ENDMDL
MODEL 4
REMARK VINA RESULT:     0.004      4.918      7.525
REMARK INTER + INTRA:          -2.533
REMARK INTER:                   0.000
REMARK INTRA:                  -2.533
REMARK UNBOUND:                -2.539
REMARK SMILES CCCCCCCCCCCCCC(=O)[O-]
REMARK SMILES IDX 8 1 9 2 10 3 11 4 12 5 13 6 14 7 15 8 16 9 7 10 6 11 5 12
REMARK SMILES IDX 4 13 3 14 2 15 1 16
REMARK H PARENT
REMARK Flexibility Score: inf
ROOT
ATOM      1  C   UNL     1     182.917 191.864 194.990  1.00  0.00     0.000 C 
ENDROOT
BRANCH   1   2
ATOM      2  C   UNL     1     182.197 191.029 196.064  1.00  0.00     0.000 C 
BRANCH   2   3
ATOM      3  C   UNL     1     181.188 190.038 195.460  1.00  0.00     0.000 C 
BRANCH   3   4
ATOM      4  C   UNL     1     179.734 190.516 195.604  1.00  0.00     0.000 C 
BRANCH   4   5
ATOM      5  C   UNL     1     178.875 190.218 194.362  1.00  0.00     0.006 C 
BRANCH   5   6
ATOM      6  C   UNL     1     179.629 189.481 193.241  1.00  0.00     0.053 C 
BRANCH   6   7
ATOM      7  C   UNL     1     179.273 189.989 191.877  1.00  0.00     0.041 C 
ATOM      8  O   UNL     1     180.050 189.795 190.906  1.00  0.00    -0.550 OA
ATOM      9  O   UNL     1     178.065 190.644 191.668  1.00  0.00    -0.550 OA
ENDBRANCH   6   7
ENDBRANCH   5   6
ENDBRANCH   4   5
ENDBRANCH   3   4
ENDBRANCH   2   3
ENDBRANCH   1   2
BRANCH   1  10
ATOM     10  C   UNL     1     182.907 191.186 193.611  1.00  0.00     0.000 C 
BRANCH  10  11
ATOM     11  C   UNL     1     182.296 192.073 192.516  1.00  0.00    -0.000 C 
BRANCH  11  12
ATOM     12  C   UNL     1     181.686 193.347 193.121  1.00  0.00    -0.000 C 
BRANCH  12  13
ATOM     13  C   UNL     1     180.164 193.426 192.924  1.00  0.00    -0.000 C 
BRANCH  13  14
ATOM     14  C   UNL     1     179.431 193.922 194.183  1.00  0.00    -0.000 C 
BRANCH  14  15
ATOM     15  C   UNL     1     180.382 194.568 195.201  1.00  0.00    -0.003 C 
ATOM     16  C   UNL     1     180.131 194.088 196.631  1.00  0.00     0.004 C 
ENDBRANCH  14  15
ENDBRANCH  13  14
ENDBRANCH  12  13
ENDBRANCH  11  12
ENDBRANCH  10  11
ENDBRANCH   1  10
TORSDOF 12
ENDMDL
MODEL 5
REMARK VINA RESULT:     0.009      4.192      6.414
REMARK INTER + INTRA:          -2.524
REMARK INTER:                   0.000
REMARK INTRA:                  -2.524
REMARK UNBOUND:                -2.539
REMARK SMILES CCCCCCCCCCCCCC(=O)[O-]
REMARK SMILES IDX 8 1 9 2 10 3 11 4 12 5 13 6 14 7 15 8 16 9 7 10 6 11 5 12
REMARK SMILES IDX 4 13 3 14 2 15 1 16
REMARK H PARENT
REMARK Flexibility Score: inf
ROOT
ATOM      1  C   UNL     1     184.027 183.214 190.273  1.00  0.00     0.000 C 
ENDROOT
BRANCH   1   2
ATOM      2  C   UNL     1     183.432 181.994 190.997  1.00  0.00     0.000 C 
BRANCH   2   3
ATOM      3  C   UNL     1     182.285 182.377 191.948  1.00  0.00     0.000 C 
BRANCH   3   4
ATOM      4  C   UNL     1     180.930 181.806 191.495  1.00  0.00     0.000 C 
BRANCH   4   5
ATOM      5  C   UNL     1     179.773 182.811 191.643  1.00  0.00     0.006 C 
BRANCH   5   6
ATOM      6  C   UNL     1     180.185 184.152 192.278  1.00  0.00     0.053 C 
BRANCH   6   7
ATOM      7  C   UNL     1     179.365 185.301 191.777  1.00  0.00     0.041 C 
ATOM      8  O   UNL     1     179.891 186.434 191.619  1.00  0.00    -0.550 OA
ATOM      9  O   UNL     1     178.028 185.115 191.445  1.00  0.00    -0.550 OA
ENDBRANCH   6   7
ENDBRANCH   5   6
ENDBRANCH   4   5
ENDBRANCH   3   4
ENDBRANCH   2   3
ENDBRANCH   1   2
BRANCH   1  10
ATOM     10  C   UNL     1     183.583 184.546 190.899  1.00  0.00     0.000 C 
BRANCH  10  11
ATOM     11  C   UNL     1     182.838 185.451 189.907  1.00  0.00    -0.000 C 
BRANCH  11  12
ATOM     12  C   UNL     1     182.439 184.669 188.646  1.00  0.00    -0.000 C 
BRANCH  12  13
ATOM     13  C   UNL     1     180.918 184.505 188.506  1.00  0.00    -0.000 C 
BRANCH  13  14
ATOM     14  C   UNL     1     180.517 183.100 188.023  1.00  0.00    -0.000 C 
BRANCH  14  15
ATOM     15  C   UNL     1     181.726 182.265 187.576  1.00  0.00    -0.003 C 
ATOM     16  C   UNL     1     181.604 180.792 187.968  1.00  0.00     0.004 C 
ENDBRANCH  14  15
ENDBRANCH  13  14
ENDBRANCH  12  13
ENDBRANCH  11  12
ENDBRANCH  10  11
ENDBRANCH   1  10
TORSDOF 12
ENDMDL
MODEL 6
REMARK VINA RESULT:     0.020      5.046      7.110
REMARK INTER + INTRA:          -2.504
REMARK INTER:                   0.000
REMARK INTRA:                  -2.504
REMARK UNBOUND:                -2.539
REMARK SMILES CCCCCCCCCCCCCC(=O)[O-]
REMARK SMILES IDX 8 1 9 2 10 3 11 4 12 5 13 6 14 7 15 8 16 9 7 10 6 11 5 12
REMARK SMILES IDX 4 13 3 14 2 15 1 16
REMARK H PARENT
REMARK Flexibility Score: inf
ROOT
ATOM      1  C   UNL     1     176.909 188.197 186.023  1.00  0.00     0.000 C 
ENDROOT
BRANCH   1   2
ATOM      2  C   UNL     1     176.234 187.402 187.154  1.00  0.00     0.000 C 
BRANCH   2   3
ATOM      3  C   UNL     1     176.670 187.880 188.549  1.00  0.00     0.000 C 
BRANCH   3   4
ATOM      4  C   UNL     1     176.831 186.720 189.546  1.00  0.00     0.000 C 
BRANCH   4   5
ATOM      5  C   UNL     1     176.593 185.340 188.908  1.00  0.00     0.006 C 
BRANCH   5   6
ATOM      6  C   UNL     1     177.399 184.202 189.559  1.00  0.00     0.053 C 
BRANCH   6   7
ATOM      7  C   UNL     1     177.781 183.134 188.579  1.00  0.00     0.041 C 
ATOM      8  O   UNL     1     176.974 182.781 187.680  1.00  0.00    -0.550 OA
ATOM      9  O   UNL     1     179.043 182.554 188.632  1.00  0.00    -0.550 OA
ENDBRANCH   6   7
ENDBRANCH   5   6
ENDBRANCH   4   5
ENDBRANCH   3   4
ENDBRANCH   2   3
ENDBRANCH   1   2
BRANCH   1  10
ATOM     10  C   UNL     1     177.842 187.327 185.165  1.00  0.00     0.000 C 
BRANCH  10  11
ATOM     11  C   UNL     1     177.659 185.824 185.424  1.00  0.00    -0.000 C 
BRANCH  11  12
ATOM     12  C   UNL     1     178.994 185.168 185.808  1.00  0.00    -0.000 C 
BRANCH  12  13
ATOM     13  C   UNL     1     180.000 186.170 186.395  1.00  0.00    -0.000 C 
BRANCH  13  14
ATOM     14  C   UNL     1     180.212 185.977 187.907  1.00  0.00    -0.000 C 
BRANCH  14  15
ATOM     15  C   UNL     1     180.360 187.311 188.655  1.00  0.00    -0.003 C 
ATOM     16  C   UNL     1     180.286 188.521 187.724  1.00  0.00     0.004 C 
ENDBRANCH  14  15
ENDBRANCH  13  14
ENDBRANCH  12  13
ENDBRANCH  11  12
ENDBRANCH  10  11
ENDBRANCH   1  10
TORSDOF 12
ENDMDL
MODEL 7
REMARK VINA RESULT:     0.022      8.597     10.593
REMARK INTER + INTRA:          -2.501
REMARK INTER:                   0.000
REMARK INTRA:                  -2.501
REMARK UNBOUND:                -2.539
REMARK SMILES CCCCCCCCCCCCCC(=O)[O-]
REMARK SMILES IDX 8 1 9 2 10 3 11 4 12 5 13 6 14 7 15 8 16 9 7 10 6 11 5 12
REMARK SMILES IDX 4 13 3 14 2 15 1 16
REMARK H PARENT
REMARK Flexibility Score: inf
ROOT
ATOM      1  C   UNL     1     186.616 182.155 200.093  1.00  0.00     0.000 C 
ENDROOT
BRANCH   1   2
ATOM      2  C   UNL     1     186.391 182.060 198.574  1.00  0.00     0.000 C 
BRANCH   2   3
ATOM      3  C   UNL     1     187.574 182.624 197.769  1.00  0.00     0.000 C 
BRANCH   3   4
ATOM      4  C   UNL     1     187.119 183.473 196.570  1.00  0.00     0.000 C 
BRANCH   4   5
ATOM      5  C   UNL     1     185.606 183.374 196.301  1.00  0.00     0.006 C 
BRANCH   5   6
ATOM      6  C   UNL     1     184.929 184.729 196.028  1.00  0.00     0.053 C 
BRANCH   6   7
ATOM      7  C   UNL     1     185.640 185.526 194.977  1.00  0.00     0.041 C 
ATOM      8  O   UNL     1     185.618 185.153 193.775  1.00  0.00    -0.550 OA
ATOM      9  O   UNL     1     186.297 186.704 195.316  1.00  0.00    -0.550 OA
ENDBRANCH   6   7
ENDBRANCH   5   6
ENDBRANCH   4   5
ENDBRANCH   3   4
ENDBRANCH   2   3
ENDBRANCH   1   2
BRANCH   1  10
ATOM     10  C   UNL     1     185.662 183.154 200.769  1.00  0.00     0.000 C 
BRANCH  10  11
ATOM     11  C   UNL     1     184.545 183.637 199.832  1.00  0.00    -0.000 C 
BRANCH  11  12
ATOM     12  C   UNL     1     184.551 185.169 199.718  1.00  0.00    -0.000 C 
BRANCH  12  13
ATOM     13  C   UNL     1     185.911 185.785 200.080  1.00  0.00    -0.000 C 
BRANCH  13  14
ATOM     14  C   UNL     1     186.627 186.392 198.861  1.00  0.00    -0.000 C 
BRANCH  14  15
ATOM     15  C   UNL     1     188.146 186.164 198.897  1.00  0.00    -0.003 C 
ATOM     16  C   UNL     1     188.595 185.376 200.128  1.00  0.00     0.004 C 
ENDBRANCH  14  15
ENDBRANCH  13  14
ENDBRANCH  12  13
ENDBRANCH  11  12
ENDBRANCH  10  11
ENDBRANCH   1  10
TORSDOF 12
ENDMDL
MODEL 8
REMARK VINA RESULT:     0.024      5.207      7.253
REMARK INTER + INTRA:          -2.499
REMARK INTER:                   0.000
REMARK INTRA:                  -2.499
REMARK UNBOUND:                -2.539
REMARK SMILES CCCCCCCCCCCCCC(=O)[O-]
REMARK SMILES IDX 8 1 9 2 10 3 11 4 12 5 13 6 14 7 15 8 16 9 7 10 6 11 5 12
REMARK SMILES IDX 4 13 3 14 2 15 1 16
REMARK H PARENT
REMARK Flexibility Score: inf
ROOT
ATOM      1  C   UNL     1     185.709 185.650 192.034  1.00  0.00     0.000 C 
ENDROOT
BRANCH   1   2
ATOM      2  C   UNL     1     184.275 186.200 192.139  1.00  0.00     0.000 C 
BRANCH   2   3
ATOM      3  C   UNL     1     184.055 187.026 193.417  1.00  0.00     0.000 C 
BRANCH   3   4
ATOM      4  C   UNL     1     182.666 186.795 194.036  1.00  0.00     0.000 C 
BRANCH   4   5
ATOM      5  C   UNL     1     181.805 185.804 193.231  1.00  0.00     0.006 C 
BRANCH   5   6
ATOM      6  C   UNL     1     180.864 184.947 194.096  1.00  0.00     0.053 C 
BRANCH   6   7
ATOM      7  C   UNL     1     180.705 183.554 193.566  1.00  0.00     0.041 C 
ATOM      8  O   UNL     1     180.605 182.581 194.359  1.00  0.00    -0.550 OA
ATOM      9  O   UNL     1     180.626 183.332 192.196  1.00  0.00    -0.550 OA
ENDBRANCH   6   7
ENDBRANCH   5   6
ENDBRANCH   4   5
ENDBRANCH   3   4
ENDBRANCH   2   3
ENDBRANCH   1   2
BRANCH   1  10
ATOM     10  C   UNL     1     185.752 184.114 192.016  1.00  0.00     0.000 C 
BRANCH  10  11
ATOM     11  C   UNL     1     184.354 183.480 191.951  1.00  0.00    -0.000 C 
BRANCH  11  12
ATOM     12  C   UNL     1     184.163 182.458 193.082  1.00  0.00    -0.000 C 
BRANCH  12  13
ATOM     13  C   UNL     1     184.922 182.841 194.362  1.00  0.00    -0.000 C 
BRANCH  13  14
ATOM     14  C   UNL     1     184.017 183.523 195.403  1.00  0.00    -0.000 C 
BRANCH  14  15
ATOM     15  C   UNL     1     184.746 184.627 196.183  1.00  0.00    -0.003 C 
ATOM     16  C   UNL     1     186.168 184.869 195.676  1.00  0.00     0.004 C 
ENDBRANCH  14  15
ENDBRANCH  13  14
ENDBRANCH  12  13
ENDBRANCH  11  12
ENDBRANCH  10  11
ENDBRANCH   1  10
TORSDOF 12
ENDMDL
MODEL 9
REMARK VINA RESULT:     0.025      5.092      7.049
REMARK INTER + INTRA:          -2.496
REMARK INTER:                   0.000
REMARK INTRA:                  -2.496
REMARK UNBOUND:                -2.539
REMARK SMILES CCCCCCCCCCCCCC(=O)[O-]
REMARK SMILES IDX 8 1 9 2 10 3 11 4 12 5 13 6 14 7 15 8 16 9 7 10 6 11 5 12
REMARK SMILES IDX 4 13 3 14 2 15 1 16
REMARK H PARENT
REMARK Flexibility Score: inf
ROOT
ATOM      1  C   UNL     1     180.829 184.422 190.896  1.00  0.00     0.000 C 
ENDROOT
BRANCH   1   2
ATOM      2  C   UNL     1     181.178 183.055 191.510  1.00  0.00     0.000 C 
BRANCH   2   3
ATOM      3  C   UNL     1     180.778 182.957 192.992  1.00  0.00     0.000 C 
BRANCH   3   4
ATOM      4  C   UNL     1     181.794 182.158 193.825  1.00  0.00     0.000 C 
BRANCH   4   5
ATOM      5  C   UNL     1     183.025 181.716 193.013  1.00  0.00     0.006 C 
BRANCH   5   6
ATOM      6  C   UNL     1     184.309 181.574 193.849  1.00  0.00     0.053 C 
BRANCH   6   7
ATOM      7  C   UNL     1     185.541 181.942 193.079  1.00  0.00     0.041 C 
ATOM      8  O   UNL     1     186.462 182.599 193.632  1.00  0.00    -0.550 OA
ATOM      9  O   UNL     1     185.691 181.529 191.760  1.00  0.00    -0.550 OA
ENDBRANCH   6   7
ENDBRANCH   5   6
ENDBRANCH   4   5
ENDBRANCH   3   4
ENDBRANCH   2   3
ENDBRANCH   1   2
BRANCH   1  10
ATOM     10  C   UNL     1     182.078 185.244 190.538  1.00  0.00     0.000 C 
BRANCH  10  11
ATOM     11  C   UNL     1     183.356 184.395 190.493  1.00  0.00    -0.000 C 
BRANCH  11  12
ATOM     12  C   UNL     1     184.437 184.983 191.414  1.00  0.00    -0.000 C 
BRANCH  12  13
ATOM     13  C   UNL     1     183.854 185.900 192.501  1.00  0.00    -0.000 C 
BRANCH  13  14
ATOM     14  C   UNL     1     183.937 185.277 193.906  1.00  0.00    -0.000 C 
BRANCH  14  15
ATOM     15  C   UNL     1     182.713 185.613 194.771  1.00  0.00    -0.003 C 
ATOM     16  C   UNL     1     181.672 186.446 194.023  1.00  0.00     0.004 C 
ENDBRANCH  14  15
ENDBRANCH  13  14
ENDBRANCH  12  13
ENDBRANCH  11  12
ENDBRANCH  10  11
ENDBRANCH   1  10
TORSDOF 12
ENDMDL
