MODEL 1
REMARK VINA RESULT:    -3.763      0.000      0.000
REMARK INTER + INTRA:          -4.853
REMARK INTER:                  -4.643
REMARK INTRA:                  -0.210
REMARK UNBOUND:                -0.210
REMARK SMILES C=CC[C@H](C)C(=O)CC
REMARK SMILES IDX 4 1 5 2 6 3 7 4 8 5 9 6 3 7 2 8 1 9
REMARK H PARENT
REMARK Flexibility Score: inf
ROOT
ATOM      1  C   UNL     1       1.784   9.470  16.523  1.00  0.00     0.057 C 
ATOM      2  C   UNL     1       3.132   8.792  16.789  1.00  0.00     0.016 C 
ENDROOT
BRANCH   1   3
ATOM      3  C   UNL     1       1.992  10.733  15.710  1.00  0.00     0.135 C 
ATOM      4  O   UNL     1       2.691  10.700  14.708  1.00  0.00    -0.299 OA
BRANCH   3   5
ATOM      5  C   UNL     1       1.336  12.030  16.106  1.00  0.00     0.072 C 
ATOM      6  C   UNL     1       0.756  12.743  14.888  1.00  0.00     0.012 C 
ENDBRANCH   3   5
ENDBRANCH   1   3
BRANCH   1   7
ATOM      7  C   UNL     1       1.061   9.772  17.852  1.00  0.00     0.038 C 
BRANCH   7   8
ATOM      8  C   UNL     1       0.307   8.577  18.374  1.00  0.00    -0.034 C 
ATOM      9  C   UNL     1       0.509   8.099  19.605  1.00  0.00     0.004 C 
ENDBRANCH   7   8
ENDBRANCH   1   7
TORSDOF 4
ENDMDL
MODEL 2
REMARK VINA RESULT:    -3.614      1.304      1.611
REMARK INTER + INTRA:          -4.669
REMARK INTER:                  -4.381
REMARK INTRA:                  -0.288
REMARK UNBOUND:                -0.210
REMARK SMILES C=CC[C@H](C)C(=O)CC
REMARK SMILES IDX 4 1 5 2 6 3 7 4 8 5 9 6 3 7 2 8 1 9
REMARK H PARENT
REMARK Flexibility Score: inf
ROOT
ATOM      1  C   UNL     1       2.829  10.112  17.442  1.00  0.00     0.057 C 
ATOM      2  C   UNL     1       2.549  10.952  18.693  1.00  0.00     0.016 C 
ENDROOT
BRANCH   1   3
ATOM      3  C   UNL     1       2.967  11.017  16.232  1.00  0.00     0.135 C 
ATOM      4  O   UNL     1       3.913  11.788  16.158  1.00  0.00    -0.299 OA
BRANCH   3   5
ATOM      5  C   UNL     1       1.967  10.970  15.107  1.00  0.00     0.072 C 
ATOM      6  C   UNL     1       1.167  12.267  15.033  1.00  0.00     0.012 C 
ENDBRANCH   3   5
ENDBRANCH   1   3
BRANCH   1   7
ATOM      7  C   UNL     1       1.714   9.067  17.234  1.00  0.00     0.038 C 
BRANCH   7   8
ATOM      8  C   UNL     1       1.148   8.572  18.540  1.00  0.00    -0.034 C 
ATOM      9  C   UNL     1      -0.148   8.280  18.681  1.00  0.00     0.004 C 
ENDBRANCH   7   8
ENDBRANCH   1   7
TORSDOF 4
ENDMDL
MODEL 3
REMARK VINA RESULT:    -3.595      1.527      4.062
REMARK INTER + INTRA:          -4.645
REMARK INTER:                  -4.394
REMARK INTRA:                  -0.252
REMARK UNBOUND:                -0.210
REMARK SMILES C=CC[C@H](C)C(=O)CC
REMARK SMILES IDX 4 1 5 2 6 3 7 4 8 5 9 6 3 7 2 8 1 9
REMARK H PARENT
REMARK Flexibility Score: inf
ROOT
ATOM      1  C   UNL     1       2.470  10.067  16.851  1.00  0.00     0.057 C 
ATOM      2  C   UNL     1       3.298   8.776  16.853  1.00  0.00     0.016 C 
ENDROOT
BRANCH   1   3
ATOM      3  C   UNL     1       1.399   9.994  17.922  1.00  0.00     0.135 C 
ATOM      4  O   UNL     1       0.671  10.958  18.116  1.00  0.00    -0.299 OA
BRANCH   3   5
ATOM      5  C   UNL     1       1.201   8.747  18.743  1.00  0.00     0.072 C 
ATOM      6  C   UNL     1      -0.235   8.244  18.636  1.00  0.00     0.012 C 
ENDBRANCH   3   5
ENDBRANCH   1   3
BRANCH   1   7
ATOM      7  C   UNL     1       1.854  10.309  15.459  1.00  0.00     0.038 C 
BRANCH   7   8
ATOM      8  C   UNL     1       2.027  11.734  15.001  1.00  0.00    -0.034 C 
ATOM      9  C   UNL     1       1.000  12.587  14.950  1.00  0.00     0.004 C 
ENDBRANCH   7   8
ENDBRANCH   1   7
TORSDOF 4
ENDMDL
MODEL 4
REMARK VINA RESULT:    -3.553      7.060      7.864
REMARK INTER + INTRA:          -4.594
REMARK INTER:                  -4.295
REMARK INTRA:                  -0.299
REMARK UNBOUND:                -0.210
REMARK SMILES C=CC[C@H](C)C(=O)CC
REMARK SMILES IDX 4 1 5 2 6 3 7 4 8 5 9 6 3 7 2 8 1 9
REMARK H PARENT
REMARK Flexibility Score: inf
ROOT
ATOM      1  C   UNL     1       1.618  16.642  21.347  1.00  0.00     0.057 C 
ATOM      2  C   UNL     1       0.454  16.967  22.290  1.00  0.00     0.016 C 
ENDROOT
BRANCH   1   3
ATOM      3  C   UNL     1       1.240  15.488  20.438  1.00  0.00     0.135 C 
ATOM      4  O   UNL     1       0.529  14.589  20.865  1.00  0.00    -0.299 OA
BRANCH   3   5
ATOM      5  C   UNL     1       1.712  15.436  19.009  1.00  0.00     0.072 C 
ATOM      6  C   UNL     1       2.124  16.821  18.519  1.00  0.00     0.012 C 
ENDBRANCH   3   5
ENDBRANCH   1   3
BRANCH   1   7
ATOM      7  C   UNL     1       2.893  16.323  22.155  1.00  0.00     0.038 C 
BRANCH   7   8
ATOM      8  C   UNL     1       2.578  15.829  23.543  1.00  0.00    -0.034 C 
ATOM      9  C   UNL     1       3.267  14.834  24.109  1.00  0.00     0.004 C 
ENDBRANCH   7   8
ENDBRANCH   1   7
TORSDOF 4
ENDMDL
MODEL 5
REMARK VINA RESULT:    -3.548      7.060      7.944
REMARK INTER + INTRA:          -4.587
REMARK INTER:                  -4.063
REMARK INTRA:                  -0.524
REMARK UNBOUND:                -0.210
REMARK SMILES C=CC[C@H](C)C(=O)CC
REMARK SMILES IDX 4 1 5 2 6 3 7 4 8 5 9 6 3 7 2 8 1 9
REMARK H PARENT
REMARK Flexibility Score: inf
ROOT
ATOM      1  C   UNL     1       1.919  16.363  21.570  1.00  0.00     0.057 C 
ATOM      2  C   UNL     1       0.619  16.785  22.262  1.00  0.00     0.016 C 
ENDROOT
BRANCH   1   3
ATOM      3  C   UNL     1       1.734  15.014  20.901  1.00  0.00     0.135 C 
ATOM      4  O   UNL     1       2.651  14.527  20.256  1.00  0.00    -0.299 OA
BRANCH   3   5
ATOM      5  C   UNL     1       0.441  14.252  21.032  1.00  0.00     0.072 C 
ATOM      6  C   UNL     1       0.598  13.068  21.982  1.00  0.00     0.012 C 
ENDBRANCH   3   5
ENDBRANCH   1   3
BRANCH   1   7
ATOM      7  C   UNL     1       3.083  16.330  22.581  1.00  0.00     0.038 C 
BRANCH   7   8
ATOM      8  C   UNL     1       2.740  15.538  23.816  1.00  0.00    -0.034 C 
ATOM      9  C   UNL     1       3.448  14.467  24.186  1.00  0.00     0.004 C 
ENDBRANCH   7   8
ENDBRANCH   1   7
TORSDOF 4
ENDMDL
MODEL 6
REMARK VINA RESULT:    -3.542      7.525      8.603
REMARK INTER + INTRA:          -4.580
REMARK INTER:                  -4.247
REMARK INTRA:                  -0.333
REMARK UNBOUND:                -0.210
REMARK SMILES C=CC[C@H](C)C(=O)CC
REMARK SMILES IDX 4 1 5 2 6 3 7 4 8 5 9 6 3 7 2 8 1 9
REMARK H PARENT
REMARK Flexibility Score: inf
ROOT
ATOM      1  C   UNL     1       3.344  15.161  22.148  1.00  0.00     0.057 C 
ATOM      2  C   UNL     1       2.698  14.571  20.889  1.00  0.00     0.016 C 
ENDROOT
BRANCH   1   3
ATOM      3  C   UNL     1       3.741  14.046  23.096  1.00  0.00     0.135 C 
ATOM      4  O   UNL     1       4.483  13.156  22.706  1.00  0.00    -0.299 OA
BRANCH   3   5
ATOM      5  C   UNL     1       3.251  14.023  24.520  1.00  0.00     0.072 C 
ATOM      6  C   UNL     1       2.372  12.802  24.776  1.00  0.00     0.012 C 
ENDBRANCH   3   5
ENDBRANCH   1   3
BRANCH   1   7
ATOM      7  C   UNL     1       2.384  16.158  22.829  1.00  0.00     0.038 C 
BRANCH   7   8
ATOM      8  C   UNL     1       0.996  16.101  22.245  1.00  0.00    -0.034 C 
ATOM      9  C   UNL     1       0.200  17.173  22.215  1.00  0.00     0.004 C 
ENDBRANCH   7   8
ENDBRANCH   1   7
TORSDOF 4
ENDMDL
MODEL 7
REMARK VINA RESULT:    -3.521      1.951      3.437
REMARK INTER + INTRA:          -4.554
REMARK INTER:                  -4.026
REMARK INTRA:                  -0.528
REMARK UNBOUND:                -0.210
REMARK SMILES C=CC[C@H](C)C(=O)CC
REMARK SMILES IDX 4 1 5 2 6 3 7 4 8 5 9 6 3 7 2 8 1 9
REMARK H PARENT
REMARK Flexibility Score: inf
ROOT
ATOM      1  C   UNL     1       1.735   9.026  18.477  1.00  0.00     0.057 C 
ATOM      2  C   UNL     1       0.319   8.447  18.381  1.00  0.00     0.016 C 
ENDROOT
BRANCH   1   3
ATOM      3  C   UNL     1       1.675  10.463  18.958  1.00  0.00     0.135 C 
ATOM      4  O   UNL     1       2.712  11.078  19.158  1.00  0.00    -0.299 OA
BRANCH   3   5
ATOM      5  C   UNL     1       0.355  11.155  19.178  1.00  0.00     0.072 C 
ATOM      6  C   UNL     1       0.116  12.226  18.118  1.00  0.00     0.012 C 
ENDBRANCH   3   5
ENDBRANCH   1   3
BRANCH   1   7
ATOM      7  C   UNL     1       2.453   8.922  17.116  1.00  0.00     0.038 C 
BRANCH   7   8
ATOM      8  C   UNL     1       1.651   9.540  16.001  1.00  0.00    -0.034 C 
ATOM      9  C   UNL     1       2.102  10.588  15.306  1.00  0.00     0.004 C 
ENDBRANCH   7   8
ENDBRANCH   1   7
TORSDOF 4
ENDMDL
MODEL 8
REMARK VINA RESULT:    -3.514      1.781      2.212
REMARK INTER + INTRA:          -4.545
REMARK INTER:                  -4.039
REMARK INTRA:                  -0.506
REMARK UNBOUND:                -0.210
REMARK SMILES C=CC[C@H](C)C(=O)CC
REMARK SMILES IDX 4 1 5 2 6 3 7 4 8 5 9 6 3 7 2 8 1 9
REMARK H PARENT
REMARK Flexibility Score: inf
ROOT
ATOM      1  C   UNL     1       1.706  10.378  16.697  1.00  0.00     0.057 C 
ATOM      2  C   UNL     1       2.067  10.611  15.225  1.00  0.00     0.016 C 
ENDROOT
BRANCH   1   3
ATOM      3  C   UNL     1       2.503  11.318  17.580  1.00  0.00     0.135 C 
ATOM      4  O   UNL     1       3.725  11.279  17.558  1.00  0.00    -0.299 OA
BRANCH   3   5
ATOM      5  C   UNL     1       1.816  12.314  18.476  1.00  0.00     0.072 C 
ATOM      6  C   UNL     1       0.301  12.242  18.314  1.00  0.00     0.012 C 
ENDBRANCH   3   5
ENDBRANCH   1   3
BRANCH   1   7
ATOM      7  C   UNL     1       1.949   8.905  17.084  1.00  0.00     0.038 C 
BRANCH   7   8
ATOM      8  C   UNL     1       1.366   8.568  18.432  1.00  0.00    -0.034 C 
ATOM      9  C   UNL     1       0.052   8.411  18.612  1.00  0.00     0.004 C 
ENDBRANCH   7   8
ENDBRANCH   1   7
TORSDOF 4
ENDMDL
MODEL 9
REMARK VINA RESULT:    -3.499      7.132      7.973
REMARK INTER + INTRA:          -4.526
REMARK INTER:                  -4.122
REMARK INTRA:                  -0.404
REMARK UNBOUND:                -0.210
REMARK SMILES C=CC[C@H](C)C(=O)CC
REMARK SMILES IDX 4 1 5 2 6 3 7 4 8 5 9 6 3 7 2 8 1 9
REMARK H PARENT
REMARK Flexibility Score: inf
ROOT
ATOM      1  C   UNL     1       2.617  14.767  23.040  1.00  0.00     0.057 C 
ATOM      2  C   UNL     1       3.328  14.564  24.383  1.00  0.00     0.016 C 
ENDROOT
BRANCH   1   3
ATOM      3  C   UNL     1       3.436  14.148  21.924  1.00  0.00     0.135 C 
ATOM      4  O   UNL     1       4.438  13.501  22.195  1.00  0.00    -0.299 OA
BRANCH   3   5
ATOM      5  C   UNL     1       3.028  14.301  20.482  1.00  0.00     0.072 C 
ATOM      6  C   UNL     1       1.721  13.566  20.203  1.00  0.00     0.012 C 
ENDBRANCH   3   5
ENDBRANCH   1   3
BRANCH   1   7
ATOM      7  C   UNL     1       2.367  16.267  22.784  1.00  0.00     0.038 C 
BRANCH   7   8
ATOM      8  C   UNL     1       0.929  16.552  22.435  1.00  0.00    -0.034 C 
ATOM      9  C   UNL     1       0.587  17.149  21.290  1.00  0.00     0.004 C 
ENDBRANCH   7   8
ENDBRANCH   1   7
TORSDOF 4
ENDMDL
