MODEL 1
REMARK VINA RESULT:    -5.364      0.000      0.000
REMARK INTER + INTRA:          -6.126
REMARK INTER:                  -5.991
REMARK INTRA:                  -0.135
REMARK UNBOUND:                -0.135
REMARK SMILES O=C([O-])C=Cc1ccccc1
REMARK SMILES IDX 4 1 5 2 2 3 1 4 3 5 6 6 7 7 11 8 8 9 10 10 9 11
REMARK H PARENT
REMARK Flexibility Score: inf
ROOT
ATOM      1  C   UNL     1      20.722  30.176  36.217  1.00  0.00     0.025 C 
ATOM      2  C   UNL     1      19.798  29.621  37.012  1.00  0.00     0.010 C 
ENDROOT
BRANCH   1   3
ATOM      3  C   UNL     1      21.286  31.512  36.480  1.00  0.00     0.064 C 
ATOM      4  O   UNL     1      20.636  32.377  37.125  1.00  0.00    -0.545 OA
ATOM      5  O   UNL     1      22.555  31.821  36.011  1.00  0.00    -0.545 OA
ENDBRANCH   1   3
BRANCH   2   6
ATOM      6  C   UNL     1      19.199  28.284  36.773  1.00  0.00    -0.026 A 
ATOM      7  C   UNL     1      17.820  28.115  36.990  1.00  0.00     0.008 A 
ATOM      8  C   UNL     1      19.965  27.170  36.371  1.00  0.00     0.008 A 
ATOM      9  C   UNL     1      17.216  26.871  36.786  1.00  0.00     0.001 A 
ATOM     10  C   UNL     1      19.354  25.928  36.170  1.00  0.00     0.001 A 
ATOM     11  C   UNL     1      17.981  25.779  36.374  1.00  0.00     0.000 A 
ENDBRANCH   2   6
TORSDOF 2
ENDMDL
MODEL 2
REMARK VINA RESULT:    -5.129      3.725      5.059
REMARK INTER + INTRA:          -5.863
REMARK INTER:                  -5.720
REMARK INTRA:                  -0.143
REMARK UNBOUND:                -0.135
REMARK SMILES O=C([O-])C=Cc1ccccc1
REMARK SMILES IDX 4 1 5 2 2 3 1 4 3 5 6 6 7 7 11 8 8 9 10 10 9 11
REMARK H PARENT
REMARK Flexibility Score: inf
ROOT
ATOM      1  C   UNL     1      19.134  25.802  35.585  1.00  0.00     0.025 C 
ATOM      2  C   UNL     1      19.613  26.695  36.462  1.00  0.00     0.010 C 
ENDROOT
BRANCH   1   3
ATOM      3  C   UNL     1      19.774  24.494  35.366  1.00  0.00     0.064 C 
ATOM      4  O   UNL     1      19.193  23.422  35.684  1.00  0.00    -0.545 OA
ATOM      5  O   UNL     1      21.039  24.439  34.798  1.00  0.00    -0.545 OA
ENDBRANCH   1   3
BRANCH   2   6
ATOM      6  C   UNL     1      19.003  28.027  36.701  1.00  0.00    -0.026 A 
ATOM      7  C   UNL     1      17.603  28.140  36.676  1.00  0.00     0.008 A 
ATOM      8  C   UNL     1      19.775  29.188  36.917  1.00  0.00     0.008 A 
ATOM      9  C   UNL     1      16.986  29.377  36.886  1.00  0.00     0.001 A 
ATOM     10  C   UNL     1      19.152  30.422  37.125  1.00  0.00     0.001 A 
ATOM     11  C   UNL     1      17.760  30.516  37.113  1.00  0.00     0.000 A 
ENDBRANCH   2   6
TORSDOF 2
ENDMDL
MODEL 3
REMARK VINA RESULT:    -4.188     17.371     18.404
REMARK INTER + INTRA:          -4.812
REMARK INTER:                  -4.676
REMARK INTRA:                  -0.136
REMARK UNBOUND:                -0.135
REMARK SMILES O=C([O-])C=Cc1ccccc1
REMARK SMILES IDX 4 1 5 2 2 3 1 4 3 5 6 6 7 7 11 8 8 9 10 10 9 11
REMARK H PARENT
REMARK Flexibility Score: inf
ROOT
ATOM      1  C   UNL     1      18.630  22.428  21.432  1.00  0.00     0.025 C 
ATOM      2  C   UNL     1      18.374  22.502  20.119  1.00  0.00     0.010 C 
ENDROOT
BRANCH   1   3
ATOM      3  C   UNL     1      17.636  21.932  22.399  1.00  0.00     0.064 C 
ATOM      4  O   UNL     1      17.460  22.506  23.507  1.00  0.00    -0.545 OA
ATOM      5  O   UNL     1      16.876  20.814  22.084  1.00  0.00    -0.545 OA
ENDBRANCH   1   3
BRANCH   2   6
ATOM      6  C   UNL     1      19.346  23.008  19.116  1.00  0.00    -0.026 A 
ATOM      7  C   UNL     1      20.548  22.304  18.929  1.00  0.00     0.008 A 
ATOM      8  C   UNL     1      19.124  24.185  18.371  1.00  0.00     0.008 A 
ATOM      9  C   UNL     1      21.496  22.749  18.003  1.00  0.00     0.001 A 
ATOM     10  C   UNL     1      20.076  24.625  17.447  1.00  0.00     0.001 A 
ATOM     11  C   UNL     1      21.259  23.908  17.260  1.00  0.00     0.000 A 
ENDBRANCH   2   6
TORSDOF 2
ENDMDL
MODEL 4
REMARK VINA RESULT:    -4.181     16.976     18.120
REMARK INTER + INTRA:          -4.804
REMARK INTER:                  -4.671
REMARK INTRA:                  -0.133
REMARK UNBOUND:                -0.135
REMARK SMILES O=C([O-])C=Cc1ccccc1
REMARK SMILES IDX 4 1 5 2 2 3 1 4 3 5 6 6 7 7 11 8 8 9 10 10 9 11
REMARK H PARENT
REMARK Flexibility Score: inf
ROOT
ATOM      1  C   UNL     1      22.523  20.760  21.163  1.00  0.00     0.025 C 
ATOM      2  C   UNL     1      21.345  21.122  20.636  1.00  0.00     0.010 C 
ENDROOT
BRANCH   1   3
ATOM      3  C   UNL     1      22.865  19.352  21.430  1.00  0.00     0.064 C 
ATOM      4  O   UNL     1      21.986  18.525  21.791  1.00  0.00    -0.545 OA
ATOM      5  O   UNL     1      24.177  18.927  21.277  1.00  0.00    -0.545 OA
ENDBRANCH   1   3
BRANCH   2   6
ATOM      6  C   UNL     1      20.961  22.530  20.365  1.00  0.00    -0.026 A 
ATOM      7  C   UNL     1      21.374  23.120  19.158  1.00  0.00     0.008 A 
ATOM      8  C   UNL     1      20.228  23.308  21.286  1.00  0.00     0.008 A 
ATOM      9  C   UNL     1      21.043  24.447  18.865  1.00  0.00     0.001 A 
ATOM     10  C   UNL     1      19.901  24.634  20.987  1.00  0.00     0.001 A 
ATOM     11  C   UNL     1      20.304  25.202  19.778  1.00  0.00     0.000 A 
ENDBRANCH   2   6
TORSDOF 2
ENDMDL
MODEL 5
REMARK VINA RESULT:    -4.112     17.137     18.262
REMARK INTER + INTRA:          -4.728
REMARK INTER:                  -4.578
REMARK INTRA:                  -0.150
REMARK UNBOUND:                -0.135
REMARK SMILES O=C([O-])C=Cc1ccccc1
REMARK SMILES IDX 4 1 5 2 2 3 1 4 3 5 6 6 7 7 11 8 8 9 10 10 9 11
REMARK H PARENT
REMARK Flexibility Score: inf
ROOT
ATOM      1  C   UNL     1      22.820  20.378  21.067  1.00  0.00     0.025 C 
ATOM      2  C   UNL     1      22.773  21.348  20.143  1.00  0.00     0.010 C 
ENDROOT
BRANCH   1   3
ATOM      3  C   UNL     1      23.722  19.220  20.945  1.00  0.00     0.064 C 
ATOM      4  O   UNL     1      23.669  18.264  21.763  1.00  0.00    -0.545 OA
ATOM      5  O   UNL     1      24.645  19.180  19.909  1.00  0.00    -0.545 OA
ENDBRANCH   1   3
BRANCH   2   6
ATOM      6  C   UNL     1      21.869  22.523  20.225  1.00  0.00    -0.026 A 
ATOM      7  C   UNL     1      21.217  22.787  21.441  1.00  0.00     0.008 A 
ATOM      8  C   UNL     1      21.613  23.362  19.120  1.00  0.00     0.008 A 
ATOM      9  C   UNL     1      20.350  23.878  21.561  1.00  0.00     0.001 A 
ATOM     10  C   UNL     1      20.745  24.450  19.246  1.00  0.00     0.001 A 
ATOM     11  C   UNL     1      20.116  24.710  20.465  1.00  0.00     0.000 A 
ENDBRANCH   2   6
TORSDOF 2
ENDMDL
MODEL 6
REMARK VINA RESULT:    -3.885     16.801     17.709
REMARK INTER + INTRA:          -4.474
REMARK INTER:                  -4.326
REMARK INTRA:                  -0.148
REMARK UNBOUND:                -0.135
REMARK SMILES O=C([O-])C=Cc1ccccc1
REMARK SMILES IDX 4 1 5 2 2 3 1 4 3 5 6 6 7 7 11 8 8 9 10 10 9 11
REMARK H PARENT
REMARK Flexibility Score: inf
ROOT
ATOM      1  C   UNL     1      20.056  23.843  19.038  1.00  0.00     0.025 C 
ATOM      2  C   UNL     1      19.098  22.930  19.247  1.00  0.00     0.010 C 
ENDROOT
BRANCH   1   3
ATOM      3  C   UNL     1      20.643  24.076  17.707  1.00  0.00     0.064 C 
ATOM      4  O   UNL     1      21.639  23.416  17.309  1.00  0.00    -0.545 OA
ATOM      5  O   UNL     1      20.086  25.038  16.875  1.00  0.00    -0.545 OA
ENDBRANCH   1   3
BRANCH   2   6
ATOM      6  C   UNL     1      18.492  22.658  20.575  1.00  0.00    -0.026 A 
ATOM      7  C   UNL     1      18.974  23.362  21.692  1.00  0.00     0.008 A 
ATOM      8  C   UNL     1      17.476  21.697  20.763  1.00  0.00     0.008 A 
ATOM      9  C   UNL     1      18.439  23.131  22.962  1.00  0.00     0.001 A 
ATOM     10  C   UNL     1      16.946  21.470  22.037  1.00  0.00     0.001 A 
ATOM     11  C   UNL     1      17.424  22.188  23.134  1.00  0.00     0.000 A 
ENDBRANCH   2   6
TORSDOF 2
ENDMDL
MODEL 7
REMARK VINA RESULT:    -3.731     17.616     18.728
REMARK INTER + INTRA:          -4.302
REMARK INTER:                  -4.172
REMARK INTRA:                  -0.130
REMARK UNBOUND:                -0.135
REMARK SMILES O=C([O-])C=Cc1ccccc1
REMARK SMILES IDX 4 1 5 2 2 3 1 4 3 5 6 6 7 7 11 8 8 9 10 10 9 11
REMARK H PARENT
REMARK Flexibility Score: inf
ROOT
ATOM      1  C   UNL     1      19.047  20.454  20.256  1.00  0.00     0.025 C 
ATOM      2  C   UNL     1      20.042  21.284  20.600  1.00  0.00     0.010 C 
ENDROOT
BRANCH   1   3
ATOM      3  C   UNL     1      18.771  19.210  20.994  1.00  0.00     0.064 C 
ATOM      4  O   UNL     1      17.850  19.151  21.852  1.00  0.00    -0.545 OA
ATOM      5  O   UNL     1      19.536  18.080  20.737  1.00  0.00    -0.545 OA
ENDBRANCH   1   3
BRANCH   2   6
ATOM      6  C   UNL     1      20.359  22.539  19.874  1.00  0.00    -0.026 A 
ATOM      7  C   UNL     1      19.943  23.761  20.430  1.00  0.00     0.008 A 
ATOM      8  C   UNL     1      21.028  22.550  18.633  1.00  0.00     0.008 A 
ATOM      9  C   UNL     1      20.211  24.968  19.776  1.00  0.00     0.001 A 
ATOM     10  C   UNL     1      21.293  23.760  17.984  1.00  0.00     0.001 A 
ATOM     11  C   UNL     1      20.888  24.967  18.555  1.00  0.00     0.000 A 
ENDBRANCH   2   6
TORSDOF 2
ENDMDL
MODEL 8
REMARK VINA RESULT:    -3.679     16.968     18.123
REMARK INTER + INTRA:          -4.244
REMARK INTER:                  -4.106
REMARK INTRA:                  -0.138
REMARK UNBOUND:                -0.135
REMARK SMILES O=C([O-])C=Cc1ccccc1
REMARK SMILES IDX 4 1 5 2 2 3 1 4 3 5 6 6 7 7 11 8 8 9 10 10 9 11
REMARK H PARENT
REMARK Flexibility Score: inf
ROOT
ATOM      1  C   UNL     1      21.369  21.642  20.630  1.00  0.00     0.025 C 
ATOM      2  C   UNL     1      22.396  21.094  21.295  1.00  0.00     0.010 C 
ENDROOT
BRANCH   1   3
ATOM      3  C   UNL     1      21.037  23.073  20.740  1.00  0.00     0.064 C 
ATOM      4  O   UNL     1      20.628  23.566  21.825  1.00  0.00    -0.545 OA
ATOM      5  O   UNL     1      21.180  23.894  19.630  1.00  0.00    -0.545 OA
ENDBRANCH   1   3
BRANCH   2   6
ATOM      6  C   UNL     1      22.753  19.655  21.220  1.00  0.00    -0.026 A 
ATOM      7  C   UNL     1      21.751  18.699  21.456  1.00  0.00     0.008 A 
ATOM      8  C   UNL     1      24.066  19.212  20.955  1.00  0.00     0.008 A 
ATOM      9  C   UNL     1      22.045  17.333  21.405  1.00  0.00     0.001 A 
ATOM     10  C   UNL     1      24.354  17.845  20.906  1.00  0.00     0.001 A 
ATOM     11  C   UNL     1      23.345  16.906  21.127  1.00  0.00     0.000 A 
ENDBRANCH   2   6
TORSDOF 2
ENDMDL
MODEL 9
REMARK VINA RESULT:    -3.635     18.713     20.184
REMARK INTER + INTRA:          -4.195
REMARK INTER:                  -4.058
REMARK INTRA:                  -0.137
REMARK UNBOUND:                -0.135
REMARK SMILES O=C([O-])C=Cc1ccccc1
REMARK SMILES IDX 4 1 5 2 2 3 1 4 3 5 6 6 7 7 11 8 8 9 10 10 9 11
REMARK H PARENT
REMARK Flexibility Score: inf
ROOT
ATOM      1  C   UNL     1      21.128  17.813  21.370  1.00  0.00     0.025 C 
ATOM      2  C   UNL     1      22.082  16.875  21.286  1.00  0.00     0.010 C 
ENDROOT
BRANCH   1   3
ATOM      3  C   UNL     1      19.803  17.536  21.950  1.00  0.00     0.064 C 
ATOM      4  O   UNL     1      18.768  18.108  21.513  1.00  0.00    -0.545 OA
ATOM      5  O   UNL     1      19.691  16.628  22.993  1.00  0.00    -0.545 OA
ENDBRANCH   1   3
BRANCH   2   6
ATOM      6  C   UNL     1      23.424  17.113  20.697  1.00  0.00    -0.026 A 
ATOM      7  C   UNL     1      24.288  18.019  21.336  1.00  0.00     0.008 A 
ATOM      8  C   UNL     1      23.851  16.492  19.505  1.00  0.00     0.008 A 
ATOM      9  C   UNL     1      25.558  18.280  20.811  1.00  0.00     0.001 A 
ATOM     10  C   UNL     1      25.121  16.758  18.985  1.00  0.00     0.001 A 
ATOM     11  C   UNL     1      25.975  17.648  19.639  1.00  0.00     0.000 A 
ENDBRANCH   2   6
TORSDOF 2
ENDMDL
