MODEL 1
REMARK VINA RESULT:    -2.980      0.000      0.000
REMARK INTER + INTRA:          -4.307
REMARK INTER:                  -4.199
REMARK INTRA:                  -0.107
REMARK UNBOUND:                -0.107
REMARK SMILES CCCCCCCCC(=O)[O-]
REMARK SMILES IDX 6 1 7 2 8 3 9 4 10 5 11 6 5 7 4 8 3 9 2 10 1 11
REMARK H PARENT
REMARK Flexibility Score: inf
ROOT
ATOM      1  C   UNL     1      13.469  13.748  15.905  1.00  0.00     0.000 C 
ENDROOT
BRANCH   1   2
ATOM      2  C   UNL     1      12.907  14.806  14.940  1.00  0.00     0.006 C 
BRANCH   2   3
ATOM      3  C   UNL     1      13.499  14.676  13.530  1.00  0.00     0.053 C 
BRANCH   3   4
ATOM      4  C   UNL     1      13.549  15.997  12.823  1.00  0.00     0.041 C 
ATOM      5  O   UNL     1      13.997  17.014  13.413  1.00  0.00    -0.550 OA
ATOM      6  O   UNL     1      13.075  16.107  11.522  1.00  0.00    -0.550 OA
ENDBRANCH   3   4
ENDBRANCH   2   3
ENDBRANCH   1   2
BRANCH   1   7
ATOM      7  C   UNL     1      13.037  12.320  15.535  1.00  0.00     0.000 C 
BRANCH   7   8
ATOM      8  C   UNL     1      11.657  12.274  14.861  1.00  0.00    -0.000 C 
BRANCH   8   9
ATOM      9  C   UNL     1      11.736  11.572  13.499  1.00  0.00    -0.000 C 
BRANCH   9  10
ATOM     10  C   UNL     1      11.332  12.522  12.366  1.00  0.00    -0.003 C 
ATOM     11  C   UNL     1      12.136  12.243  11.099  1.00  0.00     0.004 C 
ENDBRANCH   9  10
ENDBRANCH   8   9
ENDBRANCH   7   8
ENDBRANCH   1   7
TORSDOF 7
ENDMDL
MODEL 2
REMARK VINA RESULT:    -2.705      1.750      3.655
REMARK INTER + INTRA:          -3.919
REMARK INTER:                  -3.640
REMARK INTRA:                  -0.279
REMARK UNBOUND:                -0.107
REMARK SMILES CCCCCCCCC(=O)[O-]
REMARK SMILES IDX 6 1 7 2 8 3 9 4 10 5 11 6 5 7 4 8 3 9 2 10 1 11
REMARK H PARENT
REMARK Flexibility Score: inf
ROOT
ATOM      1  C   UNL     1      12.240  12.338  15.374  1.00  0.00     0.000 C 
ENDROOT
BRANCH   1   2
ATOM      2  C   UNL     1      12.448  11.709  13.986  1.00  0.00     0.006 C 
BRANCH   2   3
ATOM      3  C   UNL     1      11.313  12.061  13.015  1.00  0.00     0.053 C 
BRANCH   3   4
ATOM      4  C   UNL     1      11.836  12.628  11.730  1.00  0.00     0.041 C 
ATOM      5  O   UNL     1      12.729  12.019  11.084  1.00  0.00    -0.550 OA
ATOM      6  O   UNL     1      11.355  13.844  11.261  1.00  0.00    -0.550 OA
ENDBRANCH   3   4
ENDBRANCH   2   3
ENDBRANCH   1   2
BRANCH   1   7
ATOM      7  C   UNL     1      13.276  13.429  15.692  1.00  0.00     0.000 C 
BRANCH   7   8
ATOM      8  C   UNL     1      12.924  14.783  15.058  1.00  0.00    -0.000 C 
BRANCH   8   9
ATOM      9  C   UNL     1      13.629  14.955  13.707  1.00  0.00    -0.000 C 
BRANCH   9  10
ATOM     10  C   UNL     1      13.570  16.413  13.237  1.00  0.00    -0.003 C 
ATOM     11  C   UNL     1      13.228  16.501  11.753  1.00  0.00     0.004 C 
ENDBRANCH   9  10
ENDBRANCH   8   9
ENDBRANCH   7   8
ENDBRANCH   1   7
TORSDOF 7
ENDMDL
MODEL 3
REMARK VINA RESULT:    -2.502      0.881      2.920
REMARK INTER + INTRA:          -3.633
REMARK INTER:                  -3.106
REMARK INTRA:                  -0.527
REMARK UNBOUND:                -0.107
REMARK SMILES CCCCCCCCC(=O)[O-]
REMARK SMILES IDX 6 1 7 2 8 3 9 4 10 5 11 6 5 7 4 8 3 9 2 10 1 11
REMARK H PARENT
REMARK Flexibility Score: inf
ROOT
ATOM      1  C   UNL     1      11.737  12.515  11.636  1.00  0.00     0.000 C 
ENDROOT
BRANCH   1   2
ATOM      2  C   UNL     1      12.058  14.016  11.555  1.00  0.00     0.006 C 
BRANCH   2   3
ATOM      3  C   UNL     1      13.181  14.421  12.520  1.00  0.00     0.053 C 
BRANCH   3   4
ATOM      4  C   UNL     1      13.296  15.910  12.647  1.00  0.00     0.041 C 
ATOM      5  O   UNL     1      13.195  16.460  13.774  1.00  0.00    -0.550 OA
ATOM      6  O   UNL     1      13.488  16.691  11.514  1.00  0.00    -0.550 OA
ENDBRANCH   3   4
ENDBRANCH   2   3
ENDBRANCH   1   2
BRANCH   1   7
ATOM      7  C   UNL     1      12.271  11.862  12.922  1.00  0.00     0.000 C 
BRANCH   7   8
ATOM      8  C   UNL     1      11.220  11.813  14.041  1.00  0.00    -0.000 C 
BRANCH   8   9
ATOM      9  C   UNL     1      11.686  12.611  15.265  1.00  0.00    -0.000 C 
BRANCH   9  10
ATOM     10  C   UNL     1      13.199  12.469  15.471  1.00  0.00    -0.003 C 
ATOM     11  C   UNL     1      13.804  13.757  16.023  1.00  0.00     0.004 C 
ENDBRANCH   9  10
ENDBRANCH   8   9
ENDBRANCH   7   8
ENDBRANCH   1   7
TORSDOF 7
ENDMDL
MODEL 4
REMARK VINA RESULT:    -2.390      4.204      5.302
REMARK INTER + INTRA:          -3.476
REMARK INTER:                  -3.297
REMARK INTRA:                  -0.178
REMARK UNBOUND:                -0.107
REMARK SMILES CCCCCCCCC(=O)[O-]
REMARK SMILES IDX 6 1 7 2 8 3 9 4 10 5 11 6 5 7 4 8 3 9 2 10 1 11
REMARK H PARENT
REMARK Flexibility Score: inf
ROOT
ATOM      1  C   UNL     1      12.636   9.739  15.015  1.00  0.00     0.000 C 
ENDROOT
BRANCH   1   2
ATOM      2  C   UNL     1      12.940  11.239  15.165  1.00  0.00     0.006 C 
BRANCH   2   3
ATOM      3  C   UNL     1      11.967  12.110  14.359  1.00  0.00     0.053 C 
BRANCH   3   4
ATOM      4  C   UNL     1      12.686  13.156  13.562  1.00  0.00     0.041 C 
ATOM      5  O   UNL     1      13.334  14.064  14.144  1.00  0.00    -0.550 OA
ATOM      6  O   UNL     1      12.617  13.142  12.174  1.00  0.00    -0.550 OA
ENDBRANCH   3   4
ENDBRANCH   2   3
ENDBRANCH   1   2
BRANCH   1   7
ATOM      7  C   UNL     1      13.850   8.853  15.342  1.00  0.00     0.000 C 
BRANCH   7   8
ATOM      8  C   UNL     1      13.507   7.355  15.340  1.00  0.00    -0.000 C 
BRANCH   8   9
ATOM      9  C   UNL     1      12.503   7.022  16.450  1.00  0.00    -0.000 C 
BRANCH   9  10
ATOM     10  C   UNL     1      12.881   5.717  17.161  1.00  0.00    -0.003 C 
ATOM     11  C   UNL     1      12.748   5.854  18.674  1.00  0.00     0.004 C 
ENDBRANCH   9  10
ENDBRANCH   8   9
ENDBRANCH   7   8
ENDBRANCH   1   7
TORSDOF 7
ENDMDL
MODEL 5
REMARK VINA RESULT:    -2.331      4.301      5.243
REMARK INTER + INTRA:          -3.392
REMARK INTER:                  -3.183
REMARK INTRA:                  -0.209
REMARK UNBOUND:                -0.107
REMARK SMILES CCCCCCCCC(=O)[O-]
REMARK SMILES IDX 6 1 7 2 8 3 9 4 10 5 11 6 5 7 4 8 3 9 2 10 1 11
REMARK H PARENT
REMARK Flexibility Score: inf
ROOT
ATOM      1  C   UNL     1      12.611   9.699  14.940  1.00  0.00     0.000 C 
ENDROOT
BRANCH   1   2
ATOM      2  C   UNL     1      12.896  11.161  15.322  1.00  0.00     0.006 C 
BRANCH   2   3
ATOM      3  C   UNL     1      12.423  12.144  14.244  1.00  0.00     0.053 C 
BRANCH   3   4
ATOM      4  C   UNL     1      13.009  13.510  14.440  1.00  0.00     0.041 C 
ATOM      5  O   UNL     1      13.215  13.951  15.601  1.00  0.00    -0.550 OA
ATOM      6  O   UNL     1      13.300  14.305  13.339  1.00  0.00    -0.550 OA
ENDBRANCH   3   4
ENDBRANCH   2   3
ENDBRANCH   1   2
BRANCH   1   7
ATOM      7  C   UNL     1      13.752   8.748  15.340  1.00  0.00     0.000 C 
BRANCH   7   8
ATOM      8  C   UNL     1      13.290   7.287  15.459  1.00  0.00    -0.000 C 
BRANCH   8   9
ATOM      9  C   UNL     1      12.443   7.082  16.722  1.00  0.00    -0.000 C 
BRANCH   9  10
ATOM     10  C   UNL     1      12.854   5.802  17.458  1.00  0.00    -0.003 C 
ATOM     11  C   UNL     1      13.391   4.755  16.486  1.00  0.00     0.004 C 
ENDBRANCH   9  10
ENDBRANCH   8   9
ENDBRANCH   7   8
ENDBRANCH   1   7
TORSDOF 7
ENDMDL
MODEL 6
REMARK VINA RESULT:    -2.318      3.418      4.383
REMARK INTER + INTRA:          -3.373
REMARK INTER:                  -3.212
REMARK INTRA:                  -0.162
REMARK UNBOUND:                -0.107
REMARK SMILES CCCCCCCCC(=O)[O-]
REMARK SMILES IDX 6 1 7 2 8 3 9 4 10 5 11 6 5 7 4 8 3 9 2 10 1 11
REMARK H PARENT
REMARK Flexibility Score: inf
ROOT
ATOM      1  C   UNL     1      12.923  11.245  15.367  1.00  0.00     0.000 C 
ENDROOT
BRANCH   1   2
ATOM      2  C   UNL     1      12.494  12.267  14.301  1.00  0.00     0.006 C 
BRANCH   2   3
ATOM      3  C   UNL     1      12.982  13.685  14.628  1.00  0.00     0.053 C 
BRANCH   3   4
ATOM      4  C   UNL     1      13.117  14.525  13.394  1.00  0.00     0.041 C 
ATOM      5  O   UNL     1      12.879  14.032  12.261  1.00  0.00    -0.550 OA
ATOM      6  O   UNL     1      13.533  15.847  13.496  1.00  0.00    -0.550 OA
ENDBRANCH   3   4
ENDBRANCH   2   3
ENDBRANCH   1   2
BRANCH   1   7
ATOM      7  C   UNL     1      12.674   9.792  14.930  1.00  0.00     0.000 C 
BRANCH   7   8
ATOM      8  C   UNL     1      13.811   8.846  15.344  1.00  0.00    -0.000 C 
BRANCH   8   9
ATOM      9  C   UNL     1      13.339   7.387  15.338  1.00  0.00    -0.000 C 
BRANCH   9  10
ATOM     10  C   UNL     1      12.562   7.055  16.617  1.00  0.00    -0.003 C 
ATOM     11  C   UNL     1      12.904   5.657  17.123  1.00  0.00     0.004 C 
ENDBRANCH   9  10
ENDBRANCH   8   9
ENDBRANCH   7   8
ENDBRANCH   1   7
TORSDOF 7
ENDMDL
MODEL 7
REMARK VINA RESULT:    -2.264      6.258      7.580
REMARK INTER + INTRA:          -3.299
REMARK INTER:                  -3.081
REMARK INTRA:                  -0.217
REMARK UNBOUND:                -0.107
REMARK SMILES CCCCCCCCC(=O)[O-]
REMARK SMILES IDX 6 1 7 2 8 3 9 4 10 5 11 6 5 7 4 8 3 9 2 10 1 11
REMARK H PARENT
REMARK Flexibility Score: inf
ROOT
ATOM      1  C   UNL     1      13.842   8.864  15.316  1.00  0.00     0.000 C 
ENDROOT
BRANCH   1   2
ATOM      2  C   UNL     1      13.522   7.361  15.379  1.00  0.00     0.006 C 
BRANCH   2   3
ATOM      3  C   UNL     1      12.476   7.037  16.455  1.00  0.00     0.053 C 
BRANCH   3   4
ATOM      4  C   UNL     1      12.854   5.824  17.250  1.00  0.00     0.041 C 
ATOM      5  O   UNL     1      13.264   4.786  16.668  1.00  0.00    -0.550 OA
ATOM      6  O   UNL     1      12.724   5.832  18.633  1.00  0.00    -0.550 OA
ENDBRANCH   3   4
ENDBRANCH   2   3
ENDBRANCH   1   2
BRANCH   1   7
ATOM      7  C   UNL     1      12.617   9.716  14.946  1.00  0.00     0.000 C 
BRANCH   7   8
ATOM      8  C   UNL     1      12.805  11.202  15.288  1.00  0.00    -0.000 C 
BRANCH   8   9
ATOM      9  C   UNL     1      12.364  12.093  14.120  1.00  0.00    -0.000 C 
BRANCH   9  10
ATOM     10  C   UNL     1      12.871  13.529  14.300  1.00  0.00    -0.003 C 
ATOM     11  C   UNL     1      13.405  13.751  15.712  1.00  0.00     0.004 C 
ENDBRANCH   9  10
ENDBRANCH   8   9
ENDBRANCH   7   8
ENDBRANCH   1   7
TORSDOF 7
ENDMDL
MODEL 8
REMARK VINA RESULT:    -2.201      9.034     10.434
REMARK INTER + INTRA:          -3.209
REMARK INTER:                  -2.937
REMARK INTRA:                  -0.272
REMARK UNBOUND:                -0.107
REMARK SMILES CCCCCCCCC(=O)[O-]
REMARK SMILES IDX 6 1 7 2 8 3 9 4 10 5 11 6 5 7 4 8 3 9 2 10 1 11
REMARK H PARENT
REMARK Flexibility Score: inf
ROOT
ATOM      1  C   UNL     1      13.340   4.392  16.472  1.00  0.00     0.000 C 
ENDROOT
BRANCH   1   2
ATOM      2  C   UNL     1      14.642   4.390  15.654  1.00  0.00     0.006 C 
BRANCH   2   3
ATOM      3  C   UNL     1      14.645   5.473  14.567  1.00  0.00     0.053 C 
BRANCH   3   4
ATOM      4  C   UNL     1      15.377   5.027  13.338  1.00  0.00     0.041 C 
ATOM      5  O   UNL     1      14.770   4.921  12.241  1.00  0.00    -0.550 OA
ATOM      6  O   UNL     1      16.726   4.701  13.413  1.00  0.00    -0.550 OA
ENDBRANCH   3   4
ENDBRANCH   2   3
ENDBRANCH   1   2
BRANCH   1   7
ATOM      7  C   UNL     1      12.950   5.797  16.961  1.00  0.00     0.000 C 
BRANCH   7   8
ATOM      8  C   UNL     1      12.584   5.824  18.453  1.00  0.00    -0.000 C 
BRANCH   8   9
ATOM      9  C   UNL     1      12.481   4.402  19.017  1.00  0.00    -0.000 C 
BRANCH   9  10
ATOM     10  C   UNL     1      11.397   4.316  20.098  1.00  0.00    -0.003 C 
ATOM     11  C   UNL     1      11.657   3.152  21.049  1.00  0.00     0.004 C 
ENDBRANCH   9  10
ENDBRANCH   8   9
ENDBRANCH   7   8
ENDBRANCH   1   7
TORSDOF 7
ENDMDL
MODEL 9
REMARK VINA RESULT:    -2.140      9.357     10.392
REMARK INTER + INTRA:          -3.123
REMARK INTER:                  -2.833
REMARK INTRA:                  -0.290
REMARK UNBOUND:                -0.107
REMARK SMILES CCCCCCCCC(=O)[O-]
REMARK SMILES IDX 6 1 7 2 8 3 9 4 10 5 11 6 5 7 4 8 3 9 2 10 1 11
REMARK H PARENT
REMARK Flexibility Score: inf
ROOT
ATOM      1  C   UNL     1      14.624   5.506  14.624  1.00  0.00     0.000 C 
ENDROOT
BRANCH   1   2
ATOM      2  C   UNL     1      15.352   5.009  13.364  1.00  0.00     0.006 C 
BRANCH   2   3
ATOM      3  C   UNL     1      16.831   4.700  13.633  1.00  0.00     0.053 C 
BRANCH   3   4
ATOM      4  C   UNL     1      17.450   3.921  12.513  1.00  0.00     0.041 C 
ATOM      5  O   UNL     1      18.638   3.515  12.603  1.00  0.00    -0.550 OA
ATOM      6  O   UNL     1      16.722   3.668  11.357  1.00  0.00    -0.550 OA
ENDBRANCH   3   4
ENDBRANCH   2   3
ENDBRANCH   1   2
BRANCH   1   7
ATOM      7  C   UNL     1      14.534   4.430  15.719  1.00  0.00     0.000 C 
BRANCH   7   8
ATOM      8  C   UNL     1      13.215   4.494  16.504  1.00  0.00    -0.000 C 
BRANCH   8   9
ATOM      9  C   UNL     1      12.823   5.947  16.798  1.00  0.00    -0.000 C 
BRANCH   9  10
ATOM     10  C   UNL     1      12.787   6.213  18.308  1.00  0.00    -0.003 C 
ATOM     11  C   UNL     1      12.481   4.936  19.085  1.00  0.00     0.004 C 
ENDBRANCH   9  10
ENDBRANCH   8   9
ENDBRANCH   7   8
ENDBRANCH   1   7
TORSDOF 7
ENDMDL
