MODEL 1
REMARK VINA RESULT:    32.808      0.000      0.000
REMARK INTER + INTRA:          40.224
REMARK INTER:                  40.480
REMARK INTRA:                  -0.256
REMARK UNBOUND:                -0.256
REMARK SMILES O=c1c(O)c(-c2cc(O)c(O)c(O)c2)oc2cc(O)cc(O)c12
REMARK SMILES IDX 5 1 3 2 2 3 1 4 23 5 21 6 20 7 18 8 17 9 16 10 15 11 6 12
REMARK SMILES IDX 7 13 8 14 14 15 10 16 12 17 9 18 11 20 13 22 4 24 22 26
REMARK SMILES IDX 19 28
REMARK H PARENT 9 19 11 21 13 23 4 25 22 27 19 29
REMARK Flexibility Score: inf
ROOT
ATOM      1  C   UNL     1      12.277   5.355  17.827  1.00  0.00     0.180 A 
ATOM      2  C   UNL     1      11.380   5.624  16.779  1.00  0.00     0.208 A 
ATOM      3  C   UNL     1      11.134   6.959  16.418  1.00  0.00     0.238 A 
ATOM      4  O   UNL     1      10.372   7.191  15.444  1.00  0.00    -0.285 OA
ATOM      5  C   UNL     1      11.777   8.008  17.119  1.00  0.00     0.111 A 
ATOM      6  C   UNL     1      11.572   9.397  16.864  1.00  0.00     0.134 A 
ATOM      7  C   UNL     1      12.358  10.345  17.531  1.00  0.00     0.093 A 
ATOM      8  C   UNL     1      13.296   9.956  18.490  1.00  0.00     0.123 A 
ATOM      9  C   UNL     1      13.461   8.606  18.789  1.00  0.00     0.094 A 
ATOM     10  C   UNL     1      12.717   7.635  18.114  1.00  0.00     0.146 A 
ATOM     11  O   UNL     1      12.914   6.358  18.421  1.00  0.00    -0.452 OA
ENDROOT
BRANCH   1  12
ATOM     12  C   UNL     1      12.568   3.977  18.281  1.00  0.00     0.029 A 
ATOM     13  C   UNL     1      12.046   3.526  19.501  1.00  0.00     0.062 A 
ATOM     14  C   UNL     1      12.283   2.222  19.951  1.00  0.00     0.162 A 
ATOM     15  C   UNL     1      13.310   3.088  17.487  1.00  0.00     0.062 A 
ATOM     16  C   UNL     1      13.052   1.338  19.156  1.00  0.00     0.200 A 
ATOM     17  C   UNL     1      13.557   1.783  17.920  1.00  0.00     0.162 A 
BRANCH  14  18
ATOM     18  O   UNL     1      11.737   1.852  21.181  1.00  0.00    -0.504 OA
ATOM     19  H   UNL     1      11.800   0.923  21.572  1.00  0.00     0.293 HD
ENDBRANCH  14  18
BRANCH  16  20
ATOM     20  O   UNL     1      13.329   0.028  19.555  1.00  0.00    -0.502 OA
ATOM     21  H   UNL     1      12.750  -0.509  20.185  1.00  0.00     0.293 HD
ENDBRANCH  16  20
BRANCH  17  22
ATOM     22  O   UNL     1      14.306   0.936  17.101  1.00  0.00    -0.504 OA
ATOM     23  H   UNL     1      13.874   0.276  16.467  1.00  0.00     0.293 HD
ENDBRANCH  17  22
ENDBRANCH   1  12
BRANCH   2  24
ATOM     24  O   UNL     1      10.773   4.573  16.085  1.00  0.00    -0.502 OA
ATOM     25  H   UNL     1      11.231   3.681  15.942  1.00  0.00     0.293 HD
ENDBRANCH   2  24
BRANCH   6  26
ATOM     26  O   UNL     1      10.597   9.896  15.994  1.00  0.00    -0.507 OA
ATOM     27  H   UNL     1      10.448   9.569  15.051  1.00  0.00     0.293 HD
ENDBRANCH   6  26
BRANCH   8  28
ATOM     28  O   UNL     1      14.064  10.907  19.160  1.00  0.00    -0.508 OA
ATOM     29  H   UNL     1      15.030  10.729  19.406  1.00  0.00     0.293 HD
ENDBRANCH   8  28
TORSDOF 7
ENDMDL
MODEL 2
REMARK VINA RESULT:    33.184      4.522      7.900
REMARK INTER + INTRA:          40.689
REMARK INTER:                  40.944
REMARK INTRA:                  -0.256
REMARK UNBOUND:                -0.256
REMARK SMILES O=c1c(O)c(-c2cc(O)c(O)c(O)c2)oc2cc(O)cc(O)c12
REMARK SMILES IDX 5 1 3 2 2 3 1 4 23 5 21 6 20 7 18 8 17 9 16 10 15 11 6 12
REMARK SMILES IDX 7 13 8 14 14 15 10 16 12 17 9 18 11 20 13 22 4 24 22 26
REMARK SMILES IDX 19 28
REMARK H PARENT 9 19 11 21 13 23 4 25 22 27 19 29
REMARK Flexibility Score: inf
ROOT
ATOM      1  C   UNL     1      10.111   9.964  19.561  1.00  0.00     0.180 A 
ATOM      2  C   UNL     1      11.457  10.160  19.920  1.00  0.00     0.208 A 
ATOM      3  C   UNL     1      12.465   9.664  19.078  1.00  0.00     0.238 A 
ATOM      4  O   UNL     1      13.666   9.890  19.376  1.00  0.00    -0.285 OA
ATOM      5  C   UNL     1      12.116   8.964  17.897  1.00  0.00     0.111 A 
ATOM      6  C   UNL     1      13.055   8.384  16.993  1.00  0.00     0.134 A 
ATOM      7  C   UNL     1      12.602   7.828  15.790  1.00  0.00     0.093 A 
ATOM      8  C   UNL     1      11.239   7.774  15.490  1.00  0.00     0.123 A 
ATOM      9  C   UNL     1      10.311   8.284  16.394  1.00  0.00     0.094 A 
ATOM     10  C   UNL     1      10.735   8.878  17.585  1.00  0.00     0.146 A 
ATOM     11  O   UNL     1       9.818   9.362  18.415  1.00  0.00    -0.452 OA
ENDROOT
BRANCH   1  12
ATOM     12  C   UNL     1       8.993  10.436  20.409  1.00  0.00     0.029 A 
ATOM     13  C   UNL     1       8.244   9.507  21.145  1.00  0.00     0.062 A 
ATOM     14  C   UNL     1       7.193   9.920  21.972  1.00  0.00     0.162 A 
ATOM     15  C   UNL     1       8.701  11.802  20.538  1.00  0.00     0.062 A 
ATOM     16  C   UNL     1       6.890  11.299  22.080  1.00  0.00     0.200 A 
ATOM     17  C   UNL     1       7.656  12.233  21.360  1.00  0.00     0.162 A 
BRANCH  14  18
ATOM     18  O   UNL     1       6.488   8.934  22.665  1.00  0.00    -0.504 OA
ATOM     19  H   UNL     1       5.694   9.119  23.261  1.00  0.00     0.293 HD
ENDBRANCH  14  18
BRANCH  16  20
ATOM     20  O   UNL     1       5.849  11.771  22.884  1.00  0.00    -0.502 OA
ATOM     21  H   UNL     1       5.350  12.635  22.720  1.00  0.00     0.293 HD
ENDBRANCH  16  20
BRANCH  17  22
ATOM     22  O   UNL     1       7.397  13.602  21.453  1.00  0.00    -0.504 OA
ATOM     23  H   UNL     1       7.618  14.139  22.282  1.00  0.00     0.293 HD
ENDBRANCH  17  22
ENDBRANCH   1  12
BRANCH   2  24
ATOM     24  O   UNL     1      11.778  10.873  21.079  1.00  0.00    -0.502 OA
ATOM     25  H   UNL     1      12.730  11.128  21.313  1.00  0.00     0.293 HD
ENDBRANCH   2  24
BRANCH   6  26
ATOM     26  O   UNL     1      14.430   8.304  17.239  1.00  0.00    -0.507 OA
ATOM     27  H   UNL     1      14.840   8.012  18.112  1.00  0.00     0.293 HD
ENDBRANCH   6  26
BRANCH   8  28
ATOM     28  O   UNL     1      10.796   7.205  14.297  1.00  0.00    -0.508 OA
ATOM     29  H   UNL     1      11.440   6.962  13.555  1.00  0.00     0.293 HD
ENDBRANCH   8  28
TORSDOF 7
ENDMDL
MODEL 3
REMARK VINA RESULT:    34.099      1.195      3.291
REMARK INTER + INTRA:          41.817
REMARK INTER:                  42.140
REMARK INTRA:                  -0.322
REMARK UNBOUND:                -0.256
REMARK SMILES O=c1c(O)c(-c2cc(O)c(O)c(O)c2)oc2cc(O)cc(O)c12
REMARK SMILES IDX 5 1 3 2 2 3 1 4 23 5 21 6 20 7 18 8 17 9 16 10 15 11 6 12
REMARK SMILES IDX 7 13 8 14 14 15 10 16 12 17 9 18 11 20 13 22 4 24 22 26
REMARK SMILES IDX 19 28
REMARK H PARENT 9 19 11 21 13 23 4 25 22 27 19 29
REMARK Flexibility Score: inf
ROOT
ATOM      1  C   UNL     1      12.798   5.189  18.246  1.00  0.00     0.180 A 
ATOM      2  C   UNL     1      13.673   6.089  18.880  1.00  0.00     0.208 A 
ATOM      3  C   UNL     1      13.597   7.454  18.558  1.00  0.00     0.238 A 
ATOM      4  O   UNL     1      14.346   8.260  19.168  1.00  0.00    -0.285 OA
ATOM      5  C   UNL     1      12.660   7.899  17.595  1.00  0.00     0.111 A 
ATOM      6  C   UNL     1      12.524   9.253  17.164  1.00  0.00     0.134 A 
ATOM      7  C   UNL     1      11.476   9.601  16.302  1.00  0.00     0.093 A 
ATOM      8  C   UNL     1      10.599   8.634  15.807  1.00  0.00     0.123 A 
ATOM      9  C   UNL     1      10.760   7.300  16.176  1.00  0.00     0.094 A 
ATOM     10  C   UNL     1      11.774   6.928  17.062  1.00  0.00     0.146 A 
ATOM     11  O   UNL     1      11.886   5.647  17.397  1.00  0.00    -0.452 OA
ENDROOT
BRANCH   1  12
ATOM     12  C   UNL     1      12.833   3.734  18.514  1.00  0.00     0.029 A 
ATOM     13  C   UNL     1      13.521   2.886  17.635  1.00  0.00     0.062 A 
ATOM     14  C   UNL     1      13.593   1.507  17.869  1.00  0.00     0.162 A 
ATOM     15  C   UNL     1      12.241   3.189  19.663  1.00  0.00     0.062 A 
ATOM     16  C   UNL     1      12.973   0.961  19.019  1.00  0.00     0.200 A 
ATOM     17  C   UNL     1      12.303   1.815  19.914  1.00  0.00     0.162 A 
BRANCH  14  18
ATOM     18  O   UNL     1      14.287   0.728  16.942  1.00  0.00    -0.504 OA
ATOM     19  H   UNL     1      14.923  -0.016  17.190  1.00  0.00     0.293 HD
ENDBRANCH  14  18
BRANCH  16  20
ATOM     20  O   UNL     1      13.004  -0.407  19.302  1.00  0.00    -0.502 OA
ATOM     21  H   UNL     1      13.473  -0.812  20.100  1.00  0.00     0.293 HD
ENDBRANCH  16  20
BRANCH  17  22
ATOM     22  O   UNL     1      11.694   1.316  21.066  1.00  0.00    -0.504 OA
ATOM     23  H   UNL     1      11.358   0.363  21.131  1.00  0.00     0.293 HD
ENDBRANCH  17  22
ENDBRANCH   1  12
BRANCH   2  24
ATOM     24  O   UNL     1      14.575   5.630  19.843  1.00  0.00    -0.502 OA
ATOM     25  H   UNL     1      14.325   4.933  20.535  1.00  0.00     0.293 HD
ENDBRANCH   2  24
BRANCH   6  26
ATOM     26  O   UNL     1      13.402  10.280  17.526  1.00  0.00    -0.507 OA
ATOM     27  H   UNL     1      13.478  11.165  17.048  1.00  0.00     0.293 HD
ENDBRANCH   6  26
BRANCH   8  28
ATOM     28  O   UNL     1       9.568   8.986  14.938  1.00  0.00    -0.508 OA
ATOM     29  H   UNL     1       9.458   8.537  14.037  1.00  0.00     0.293 HD
ENDBRANCH   8  28
TORSDOF 7
ENDMDL
MODEL 4
REMARK VINA RESULT:    34.717      4.876      7.609
REMARK INTER + INTRA:          42.580
REMARK INTER:                  42.898
REMARK INTRA:                  -0.318
REMARK UNBOUND:                -0.256
REMARK SMILES O=c1c(O)c(-c2cc(O)c(O)c(O)c2)oc2cc(O)cc(O)c12
REMARK SMILES IDX 5 1 3 2 2 3 1 4 23 5 21 6 20 7 18 8 17 9 16 10 15 11 6 12
REMARK SMILES IDX 7 13 8 14 14 15 10 16 12 17 9 18 11 20 13 22 4 24 22 26
REMARK SMILES IDX 19 28
REMARK H PARENT 9 19 11 21 13 23 4 25 22 27 19 29
REMARK Flexibility Score: inf
ROOT
ATOM      1  C   UNL     1       9.454   9.950  19.375  1.00  0.00     0.180 A 
ATOM      2  C   UNL     1       8.951   9.435  18.167  1.00  0.00     0.208 A 
ATOM      3  C   UNL     1       9.854   8.976  17.194  1.00  0.00     0.238 A 
ATOM      4  O   UNL     1       9.396   8.467  16.138  1.00  0.00    -0.285 OA
ATOM      5  C   UNL     1      11.247   9.051  17.435  1.00  0.00     0.111 A 
ATOM      6  C   UNL     1      12.252   8.651  16.503  1.00  0.00     0.134 A 
ATOM      7  C   UNL     1      13.596   8.648  16.898  1.00  0.00     0.093 A 
ATOM      8  C   UNL     1      13.976   9.092  18.166  1.00  0.00     0.123 A 
ATOM      9  C   UNL     1      13.007   9.540  19.061  1.00  0.00     0.094 A 
ATOM     10  C   UNL     1      11.655   9.520  18.710  1.00  0.00     0.146 A 
ATOM     11  O   UNL     1      10.763   9.946  19.597  1.00  0.00    -0.452 OA
ENDROOT
BRANCH   1  12
ATOM     12  C   UNL     1       8.567  10.476  20.437  1.00  0.00     0.029 A 
ATOM     13  C   UNL     1       8.368  11.858  20.549  1.00  0.00     0.062 A 
ATOM     14  C   UNL     1       7.519  12.389  21.528  1.00  0.00     0.162 A 
ATOM     15  C   UNL     1       7.873   9.615  21.301  1.00  0.00     0.062 A 
ATOM     16  C   UNL     1       6.840  11.515  22.412  1.00  0.00     0.200 A 
ATOM     17  C   UNL     1       7.022  10.126  22.284  1.00  0.00     0.162 A 
BRANCH  14  18
ATOM     18  O   UNL     1       7.381  13.777  21.583  1.00  0.00    -0.504 OA
ATOM     19  H   UNL     1       7.851  14.367  22.254  1.00  0.00     0.293 HD
ENDBRANCH  14  18
BRANCH  16  20
ATOM     20  O   UNL     1       5.987  11.985  23.413  1.00  0.00    -0.502 OA
ATOM     21  H   UNL     1       5.087  12.410  23.241  1.00  0.00     0.293 HD
ENDBRANCH  16  20
BRANCH  17  22
ATOM     22  O   UNL     1       6.358   9.233  23.126  1.00  0.00    -0.504 OA
ATOM     23  H   UNL     1       5.398   8.951  22.967  1.00  0.00     0.293 HD
ENDBRANCH  17  22
ENDBRANCH   1  12
BRANCH   2  24
ATOM     24  O   UNL     1       7.571   9.350  17.959  1.00  0.00    -0.502 OA
ATOM     25  H   UNL     1       6.971  10.166  17.955  1.00  0.00     0.293 HD
ENDBRANCH   2  24
BRANCH   6  26
ATOM     26  O   UNL     1      11.989   8.279  15.181  1.00  0.00    -0.507 OA
ATOM     27  H   UNL     1      12.553   7.641  14.641  1.00  0.00     0.293 HD
ENDBRANCH   6  26
BRANCH   8  28
ATOM     28  O   UNL     1      15.317   9.099  18.545  1.00  0.00    -0.508 OA
ATOM     29  H   UNL     1      15.892   9.926  18.440  1.00  0.00     0.293 HD
ENDBRANCH   8  28
TORSDOF 7
ENDMDL
