MODEL 1
REMARK VINA RESULT:    -3.684      0.000      0.000
REMARK INTER + INTRA:          -5.951
REMARK INTER:                  -5.407
REMARK INTRA:                  -0.544
REMARK UNBOUND:                -0.544
REMARK SMILES C=C1C=C[C@@H](C(C)C)CCC(C)=CCC1
REMARK SMILES IDX 3 1 4 2 5 3 9 4 10 5 11 6 12 7 13 8 6 10 7 11 8 12 2 13 1 14
REMARK SMILES IDX 15 15 14 16
REMARK H PARENT
REMARK Flexibility Score: 70.00
ROOT
ATOM      1  C   UNL     1      31.738  25.438  12.516  1.00  0.00    -0.001 C 
ATOM      2  C   UNL     1      31.481  24.300  13.179  1.00  0.00    -0.023 C 
ENDROOT
BRANCH   2   3
ATOM      3  C   UNL     1      30.717  23.115  12.626  1.00  0.00     0.014 C 
BRANCH   3   4
ATOM      4  C   UNL     1      29.455  22.853  13.482  1.00  0.00     0.012 C 
BRANCH   4   5
ATOM      5  C   UNL     1      28.567  24.099  13.658  1.00  0.00     0.031 C 
BRANCH   5   6
ATOM      6  C   UNL     1      27.800  24.448  12.394  1.00  0.00    -0.077 C 
ATOM      7  C   UNL     1      26.816  23.435  11.863  1.00  0.00     0.039 C 
ATOM      8  C   UNL     1      27.959  25.599  11.697  1.00  0.00    -0.028 CG0
ATOM      9  G   UNL     1      28.945  26.704  11.995  1.00  0.00     0.000 G0
ENDBRANCH   5   6
ENDBRANCH   4   5
ENDBRANCH   3   4
BRANCH   3  10
ATOM     10  C   UNL     1      31.662  21.880  12.510  1.00  0.00    -0.010 C 
ATOM     11  C   UNL     1      32.077  21.608  11.056  1.00  0.00     0.008 C 
ATOM     12  C   UNL     1      31.088  20.599  13.144  1.00  0.00     0.008 C 
ENDBRANCH   3  10
ENDBRANCH   2   3
BRANCH   1  13
ATOM     13  C   UNL     1      31.241  25.784  11.164  1.00  0.00    -0.055 C 
ATOM     14  C   UNL     1      31.883  25.263  10.114  1.00  0.00     0.012 C 
BRANCH  13  15
ATOM     15  C   UNL     1      30.071  26.723  10.912  1.00  0.00     0.039 C 
BRANCH  15  16
ATOM     16  C   UNL     1      28.951  26.686  11.980  1.00  0.00     0.032 CG0
ATOM     17  G   UNL     1      27.947  25.597  11.678  1.00  0.00     0.000 G0
ENDBRANCH  15  16
ENDBRANCH  13  15
ENDBRANCH   1  13
TORSDOF 1
ENDMDL
MODEL 2
REMARK VINA RESULT:    -3.479      1.340      3.540
REMARK INTER + INTRA:          -5.650
REMARK INTER:                  -4.955
REMARK INTRA:                  -0.695
REMARK UNBOUND:                -0.544
REMARK SMILES C=C1C=C[C@@H](C(C)C)CCC(C)=CCC1
REMARK SMILES IDX 3 1 4 2 5 3 9 4 10 5 11 6 12 7 13 8 6 10 7 11 8 12 2 13 1 14
REMARK SMILES IDX 15 15 14 16
REMARK H PARENT
REMARK Flexibility Score: 70.00
ROOT
ATOM      1  C   UNL     1      29.025  24.042  11.029  1.00  0.00    -0.001 C 
ATOM      2  C   UNL     1      30.364  24.019  11.100  1.00  0.00    -0.023 C 
ENDROOT
BRANCH   2   3
ATOM      3  C   UNL     1      31.198  24.670  12.184  1.00  0.00     0.014 C 
BRANCH   3   4
ATOM      4  C   UNL     1      32.122  25.746  11.564  1.00  0.00     0.012 C 
BRANCH   4   5
ATOM      5  C   UNL     1      31.757  27.182  11.988  1.00  0.00     0.031 C 
BRANCH   5   6
ATOM      6  C   UNL     1      30.838  27.865  10.991  1.00  0.00    -0.077 C 
ATOM      7  C   UNL     1      31.471  28.587   9.827  1.00  0.00     0.039 C 
ATOM      8  C   UNL     1      29.487  27.891  11.090  1.00  0.00    -0.028 CG0
ATOM      9  G   UNL     1      28.655  27.314  12.212  1.00  0.00     0.000 G0
ENDBRANCH   5   6
ENDBRANCH   4   5
ENDBRANCH   3   4
BRANCH   3  10
ATOM     10  C   UNL     1      31.963  23.580  12.994  1.00  0.00    -0.010 C 
ATOM     11  C   UNL     1      32.109  22.271  12.202  1.00  0.00     0.008 C 
ATOM     12  C   UNL     1      31.353  23.295  14.378  1.00  0.00     0.008 C 
ENDBRANCH   3  10
ENDBRANCH   2   3
BRANCH   1  13
ATOM     13  C   UNL     1      28.122  24.788  11.936  1.00  0.00    -0.055 C 
ATOM     14  C   UNL     1      27.648  24.146  13.008  1.00  0.00     0.012 C 
BRANCH  13  15
ATOM     15  C   UNL     1      27.683  26.225  11.693  1.00  0.00     0.039 C 
BRANCH  15  16
ATOM     16  C   UNL     1      28.657  27.311  12.211  1.00  0.00     0.032 CG0
ATOM     17  G   UNL     1      29.477  27.889  11.081  1.00  0.00     0.000 G0
ENDBRANCH  15  16
ENDBRANCH  13  15
ENDBRANCH   1  13
TORSDOF 1
ENDMDL
MODEL 3
REMARK VINA RESULT:    -3.343      2.135      5.071
REMARK INTER + INTRA:          -5.450
REMARK INTER:                  -4.913
REMARK INTRA:                  -0.537
REMARK UNBOUND:                -0.544
REMARK SMILES C=C1C=C[C@@H](C(C)C)CCC(C)=CCC1
REMARK SMILES IDX 3 1 4 2 5 3 9 4 10 5 11 6 12 7 13 8 6 10 7 11 8 12 2 13 1 14
REMARK SMILES IDX 15 15 14 16
REMARK H PARENT
REMARK Flexibility Score: 70.00
ROOT
ATOM      1  C   UNL     1      29.776  28.025  12.620  1.00  0.00    -0.001 C 
ATOM      2  C   UNL     1      30.977  28.117  12.030  1.00  0.00    -0.023 C 
ENDROOT
BRANCH   2   3
ATOM      3  C   UNL     1      31.258  27.868  10.563  1.00  0.00     0.014 C 
BRANCH   3   4
ATOM      4  C   UNL     1      32.122  26.594  10.400  1.00  0.00     0.012 C 
BRANCH   4   5
ATOM      5  C   UNL     1      31.935  25.578  11.542  1.00  0.00     0.031 C 
BRANCH   5   6
ATOM      6  C   UNL     1      31.037  24.419  11.145  1.00  0.00    -0.077 C 
ATOM      7  C   UNL     1      31.553  23.447  10.113  1.00  0.00     0.039 C 
ATOM      8  C   UNL     1      29.793  24.212  11.639  1.00  0.00    -0.028 CG0
ATOM      9  G   UNL     1      29.049  25.101  12.608  1.00  0.00     0.000 G0
ENDBRANCH   5   6
ENDBRANCH   4   5
ENDBRANCH   3   4
BRANCH   3  10
ATOM     10  C   UNL     1      31.887  29.139   9.916  1.00  0.00    -0.010 C 
ATOM     11  C   UNL     1      31.270  30.432  10.472  1.00  0.00     0.008 C 
ATOM     12  C   UNL     1      31.830  29.145   8.378  1.00  0.00     0.008 C 
ENDBRANCH   3  10
ENDBRANCH   2   3
BRANCH   1  13
ATOM     13  C   UNL     1      28.526  27.565  11.971  1.00  0.00    -0.055 C 
ATOM     14  C   UNL     1      27.700  28.496  11.484  1.00  0.00     0.012 C 
BRANCH  13  15
ATOM     15  C   UNL     1      28.121  26.102  11.863  1.00  0.00     0.039 C 
BRANCH  15  16
ATOM     16  C   UNL     1      29.041  25.104  12.607  1.00  0.00     0.032 CG0
ATOM     17  G   UNL     1      29.765  24.203  11.634  1.00  0.00     0.000 G0
ENDBRANCH  15  16
ENDBRANCH  13  15
ENDBRANCH   1  13
TORSDOF 1
ENDMDL
MODEL 4
REMARK VINA RESULT:    -2.963      2.083      5.212
REMARK INTER + INTRA:          -4.893
REMARK INTER:                  -5.274
REMARK INTRA:                   0.381
REMARK UNBOUND:                -0.544
REMARK SMILES C=C1C=C[C@@H](C(C)C)CCC(C)=CCC1
REMARK SMILES IDX 3 1 4 2 5 3 9 4 10 5 11 6 12 7 13 8 6 10 7 11 8 12 2 13 1 14
REMARK SMILES IDX 15 15 14 16
REMARK H PARENT
REMARK Flexibility Score: 70.00
ROOT
ATOM      1  C   UNL     1      28.510  24.623  12.159  1.00  0.00    -0.001 C 
ATOM      2  C   UNL     1      28.406  25.930  11.874  1.00  0.00    -0.023 C 
ENDROOT
BRANCH   2   3
ATOM      3  C   UNL     1      29.553  26.840  11.487  1.00  0.00     0.014 C 
BRANCH   3   4
ATOM      4  C   UNL     1      30.654  26.792  12.574  1.00  0.00     0.012 C 
BRANCH   4   5
ATOM      5  C   UNL     1      32.082  26.773  11.997  1.00  0.00     0.031 C 
BRANCH   5   6
ATOM      6  C   UNL     1      32.109  26.383  10.529  1.00  0.00    -0.077 C 
ATOM      7  C   UNL     1      32.124  27.490   9.504  1.00  0.00     0.039 C 
ATOM      8  C   UNL     1      32.097  25.105  10.078  1.00  0.00    -0.028 CG0
ATOM      9  G   UNL     1      31.993  23.854  10.919  1.00  0.00     0.000 G0
ENDBRANCH   5   6
ENDBRANCH   4   5
ENDBRANCH   3   4
BRANCH   3  10
ATOM     10  C   UNL     1      29.021  28.276  11.198  1.00  0.00    -0.010 C 
ATOM     11  C   UNL     1      29.898  29.356  11.850  1.00  0.00     0.008 C 
ATOM     12  C   UNL     1      27.547  28.482  11.594  1.00  0.00     0.008 C 
ENDBRANCH   3  10
ENDBRANCH   2   3
BRANCH   1  13
ATOM     13  C   UNL     1      29.774  23.854  12.245  1.00  0.00    -0.055 C 
ATOM     14  C   UNL     1      30.281  23.627  13.460  1.00  0.00     0.012 C 
BRANCH  13  15
ATOM     15  C   UNL     1      30.534  23.344  11.030  1.00  0.00     0.039 C 
BRANCH  15  16
ATOM     16  C   UNL     1      31.995  23.841  10.907  1.00  0.00     0.032 CG0
ATOM     17  G   UNL     1      32.074  25.093  10.064  1.00  0.00     0.000 G0
ENDBRANCH  15  16
ENDBRANCH  13  15
ENDBRANCH   1  13
TORSDOF 1
ENDMDL
MODEL 5
REMARK VINA RESULT:    -2.728      1.587      3.942
REMARK INTER + INTRA:          -4.547
REMARK INTER:                  -4.452
REMARK INTRA:                  -0.095
REMARK UNBOUND:                -0.544
REMARK SMILES C=C1C=C[C@@H](C(C)C)CCC(C)=CCC1
REMARK SMILES IDX 3 1 4 2 5 3 9 4 10 5 11 6 12 7 13 8 6 10 7 11 8 12 2 13 1 14
REMARK SMILES IDX 15 15 14 16
REMARK H PARENT
REMARK Flexibility Score: 70.00
ROOT
ATOM      1  C   UNL     1      28.802  25.920  11.922  1.00  0.00    -0.001 C 
ATOM      2  C   UNL     1      30.121  26.150  11.993  1.00  0.00    -0.023 C 
ENDROOT
BRANCH   2   3
ATOM      3  C   UNL     1      31.202  25.090  11.941  1.00  0.00     0.014 C 
BRANCH   3   4
ATOM      4  C   UNL     1      32.019  25.105  13.256  1.00  0.00     0.012 C 
BRANCH   4   5
ATOM      5  C   UNL     1      31.792  23.858  14.130  1.00  0.00     0.031 C 
BRANCH   5   6
ATOM      6  C   UNL     1      31.097  22.738  13.375  1.00  0.00    -0.077 C 
ATOM      7  C   UNL     1      31.947  21.825  12.527  1.00  0.00     0.039 C 
ATOM      8  C   UNL     1      29.760  22.519  13.393  1.00  0.00    -0.028 CG0
ATOM      9  G   UNL     1      28.719  23.358  14.098  1.00  0.00     0.000 G0
ENDBRANCH   5   6
ENDBRANCH   4   5
ENDBRANCH   3   4
BRANCH   3  10
ATOM     10  C   UNL     1      32.072  25.278  10.661  1.00  0.00    -0.010 C 
ATOM     11  C   UNL     1      31.834  26.645  10.000  1.00  0.00     0.008 C 
ATOM     12  C   UNL     1      31.900  24.152   9.625  1.00  0.00     0.008 C 
ENDBRANCH   3  10
ENDBRANCH   2   3
BRANCH   1  13
ATOM     13  C   UNL     1      28.156  24.587  11.883  1.00  0.00    -0.055 C 
ATOM     14  C   UNL     1      27.999  24.007  10.689  1.00  0.00     0.012 C 
BRANCH  13  15
ATOM     15  C   UNL     1      27.634  23.867  13.118  1.00  0.00     0.039 C 
BRANCH  15  16
ATOM     16  C   UNL     1      28.721  23.376  14.106  1.00  0.00     0.032 CG0
ATOM     17  G   UNL     1      29.758  22.534  13.399  1.00  0.00     0.000 G0
ENDBRANCH  15  16
ENDBRANCH  13  15
ENDBRANCH   1  13
TORSDOF 1
ENDMDL
MODEL 6
REMARK VINA RESULT:    -2.645      1.752      4.351
REMARK INTER + INTRA:          -4.426
REMARK INTER:                  -3.961
REMARK INTRA:                  -0.465
REMARK UNBOUND:                -0.544
REMARK SMILES C=C1C=C[C@@H](C(C)C)CCC(C)=CCC1
REMARK SMILES IDX 3 1 4 2 5 3 9 4 10 5 11 6 12 7 13 8 6 10 7 11 8 12 2 13 1 14
REMARK SMILES IDX 15 15 14 16
REMARK H PARENT
REMARK Flexibility Score: 70.00
ROOT
ATOM      1  C   UNL     1      31.857  25.500  11.369  1.00  0.00    -0.001 C 
ATOM      2  C   UNL     1      30.990  26.357  10.812  1.00  0.00    -0.023 C 
ENDROOT
BRANCH   2   3
ATOM      3  C   UNL     1      29.824  27.014  11.523  1.00  0.00     0.014 C 
BRANCH   3   4
ATOM      4  C   UNL     1      28.548  26.154  11.349  1.00  0.00     0.012 C 
BRANCH   4   5
ATOM      5  C   UNL     1      28.120  25.430  12.640  1.00  0.00     0.031 C 
BRANCH   5   6
ATOM      6  C   UNL     1      28.028  23.925  12.457  1.00  0.00    -0.077 C 
ATOM      7  C   UNL     1      26.872  23.380  11.657  1.00  0.00     0.039 C 
ATOM      8  C   UNL     1      28.904  23.037  12.986  1.00  0.00    -0.028 CG0
ATOM      9  G   UNL     1      30.075  23.354  13.888  1.00  0.00     0.000 G0
ENDBRANCH   5   6
ENDBRANCH   4   5
ENDBRANCH   3   4
BRANCH   3  10
ATOM     10  C   UNL     1      29.659  28.484  11.031  1.00  0.00    -0.010 C 
ATOM     11  C   UNL     1      30.936  29.011  10.357  1.00  0.00     0.008 C 
ATOM     12  C   UNL     1      29.202  29.458  12.132  1.00  0.00     0.008 C 
ENDBRANCH   3  10
ENDBRANCH   2   3
BRANCH   1  13
ATOM     13  C   UNL     1      31.778  24.960  12.747  1.00  0.00    -0.055 C 
ATOM     14  C   UNL     1      32.096  25.779  13.754  1.00  0.00     0.012 C 
BRANCH  13  15
ATOM     15  C   UNL     1      31.392  23.524  13.069  1.00  0.00     0.039 C 
BRANCH  15  16
ATOM     16  C   UNL     1      30.090  23.357  13.890  1.00  0.00     0.032 CG0
ATOM     17  G   UNL     1      28.917  23.042  12.991  1.00  0.00     0.000 G0
ENDBRANCH  15  16
ENDBRANCH  13  15
ENDBRANCH   1  13
TORSDOF 1
ENDMDL
MODEL 7
REMARK VINA RESULT:    -2.640      1.774      3.111
REMARK INTER + INTRA:          -4.418
REMARK INTER:                  -4.400
REMARK INTRA:                  -0.019
REMARK UNBOUND:                -0.544
REMARK SMILES C=C1C=C[C@@H](C(C)C)CCC(C)=CCC1
REMARK SMILES IDX 3 1 4 2 5 3 9 4 10 5 11 6 12 7 13 8 6 10 7 11 8 12 2 13 1 14
REMARK SMILES IDX 15 15 14 16
REMARK H PARENT
REMARK Flexibility Score: 70.00
ROOT
ATOM      1  C   UNL     1      31.951  26.020  12.006  1.00  0.00    -0.001 C 
ATOM      2  C   UNL     1      31.003  25.255  12.569  1.00  0.00    -0.023 C 
ENDROOT
BRANCH   2   3
ATOM      3  C   UNL     1      29.794  24.687  11.856  1.00  0.00     0.014 C 
BRANCH   3   4
ATOM      4  C   UNL     1      28.663  25.743  11.812  1.00  0.00     0.012 C 
BRANCH   4   5
ATOM      5  C   UNL     1      29.006  27.038  12.574  1.00  0.00     0.031 C 
BRANCH   5   6
ATOM      6  C   UNL     1      28.737  28.284  11.749  1.00  0.00    -0.077 C 
ATOM      7  C   UNL     1      27.302  28.632  11.441  1.00  0.00     0.039 C 
ATOM      8  C   UNL     1      29.703  29.092  11.249  1.00  0.00    -0.028 CG0
ATOM      9  G   UNL     1      31.196  28.886  11.358  1.00  0.00     0.000 G0
ENDBRANCH   5   6
ENDBRANCH   4   5
ENDBRANCH   3   4
BRANCH   3  10
ATOM     10  C   UNL     1      29.368  23.342  12.518  1.00  0.00    -0.010 C 
ATOM     11  C   UNL     1      28.523  23.565  13.783  1.00  0.00     0.008 C 
ATOM     12  C   UNL     1      30.548  22.403  12.830  1.00  0.00     0.008 C 
ENDBRANCH   3  10
ENDBRANCH   2   3
BRANCH   1  13
ATOM     13  C   UNL     1      31.937  26.532  10.616  1.00  0.00    -0.055 C 
ATOM     14  C   UNL     1      32.092  25.648   9.626  1.00  0.00     0.012 C 
BRANCH  13  15
ATOM     15  C   UNL     1      31.793  28.005  10.262  1.00  0.00     0.039 C 
BRANCH  15  16
ATOM     16  C   UNL     1      31.218  28.902  11.386  1.00  0.00     0.032 CG0
ATOM     17  G   UNL     1      29.724  29.074  11.233  1.00  0.00     0.000 G0
ENDBRANCH  15  16
ENDBRANCH  13  15
ENDBRANCH   1  13
TORSDOF 1
ENDMDL
MODEL 8
REMARK VINA RESULT:    -2.544      2.012      3.947
REMARK INTER + INTRA:          -4.278
REMARK INTER:                  -3.770
REMARK INTRA:                  -0.508
REMARK UNBOUND:                -0.544
REMARK SMILES C=C1C=C[C@@H](C(C)C)CCC(C)=CCC1
REMARK SMILES IDX 3 1 4 2 5 3 9 4 10 5 11 6 12 7 13 8 6 10 7 11 8 12 2 13 1 14
REMARK SMILES IDX 15 15 14 16
REMARK H PARENT
REMARK Flexibility Score: 70.00
ROOT
ATOM      1  C   UNL     1      28.202  27.090  11.525  1.00  0.00    -0.001 C 
ATOM      2  C   UNL     1      27.838  25.847  11.873  1.00  0.00    -0.023 C 
ENDROOT
BRANCH   2   3
ATOM      3  C   UNL     1      28.758  24.791  12.450  1.00  0.00     0.014 C 
BRANCH   3   4
ATOM      4  C   UNL     1      29.469  24.027  11.307  1.00  0.00     0.012 C 
BRANCH   4   5
ATOM      5  C   UNL     1      30.998  23.959  11.476  1.00  0.00     0.031 C 
BRANCH   5   6
ATOM      6  C   UNL     1      31.740  24.332  10.204  1.00  0.00    -0.077 C 
ATOM      7  C   UNL     1      32.123  23.220   9.259  1.00  0.00     0.039 C 
ATOM      8  C   UNL     1      32.101  25.594   9.872  1.00  0.00    -0.028 CG0
ATOM      9  G   UNL     1      31.899  26.838  10.707  1.00  0.00     0.000 G0
ENDBRANCH   5   6
ENDBRANCH   4   5
ENDBRANCH   3   4
BRANCH   3  10
ATOM     10  C   UNL     1      27.964  23.866  13.422  1.00  0.00    -0.010 C 
ATOM     11  C   UNL     1      28.898  22.996  14.279  1.00  0.00     0.008 C 
ATOM     12  C   UNL     1      26.916  22.984  12.720  1.00  0.00     0.008 C 
ENDBRANCH   3  10
ENDBRANCH   2   3
BRANCH   1  13
ATOM     13  C   UNL     1      29.583  27.626  11.547  1.00  0.00    -0.055 C 
ATOM     14  C   UNL     1      29.987  28.260  12.651  1.00  0.00     0.012 C 
BRANCH  13  15
ATOM     15  C   UNL     1      30.545  27.524  10.372  1.00  0.00     0.039 C 
BRANCH  15  16
ATOM     16  C   UNL     1      31.904  26.852  10.687  1.00  0.00     0.032 CG0
ATOM     17  G   UNL     1      32.098  25.603   9.858  1.00  0.00     0.000 G0
ENDBRANCH  15  16
ENDBRANCH  13  15
ENDBRANCH   1  13
TORSDOF 1
ENDMDL
MODEL 9
REMARK VINA RESULT:    -1.655      2.355      4.723
REMARK INTER + INTRA:          -2.972
REMARK INTER:                  -2.749
REMARK INTRA:                  -0.223
REMARK UNBOUND:                -0.544
REMARK SMILES C=C1C=C[C@@H](C(C)C)CCC(C)=CCC1
REMARK SMILES IDX 3 1 4 2 5 3 9 4 10 5 11 6 12 7 13 8 6 10 7 11 8 12 2 13 1 14
REMARK SMILES IDX 15 15 14 16
REMARK H PARENT
REMARK Flexibility Score: 70.00
ROOT
ATOM      1  C   UNL     1      29.848  24.532  10.665  1.00  0.00    -0.001 C 
ATOM      2  C   UNL     1      29.753  25.533  11.552  1.00  0.00    -0.023 C 
ENDROOT
BRANCH   2   3
ATOM      3  C   UNL     1      30.921  26.231  12.218  1.00  0.00     0.014 C 
BRANCH   3   4
ATOM      4  C   UNL     1      31.124  25.673  13.648  1.00  0.00     0.012 C 
BRANCH   4   5
ATOM      5  C   UNL     1      32.003  24.409  13.691  1.00  0.00     0.031 C 
BRANCH   5   6
ATOM      6  C   UNL     1      31.184  23.137  13.823  1.00  0.00    -0.077 C 
ATOM      7  C   UNL     1      30.271  23.006  15.017  1.00  0.00     0.039 C 
ATOM      8  C   UNL     1      31.237  22.100  12.953  1.00  0.00    -0.028 CG0
ATOM      9  G   UNL     1      32.140  21.981  11.747  1.00  0.00     0.000 G0
ENDBRANCH   5   6
ENDBRANCH   4   5
ENDBRANCH   3   4
BRANCH   3  10
ATOM     10  C   UNL     1      30.716  27.775  12.173  1.00  0.00    -0.010 C 
ATOM     11  C   UNL     1      29.228  28.155  12.108  1.00  0.00     0.008 C 
ATOM     12  C   UNL     1      31.489  28.470  11.037  1.00  0.00     0.008 C 
ENDBRANCH   3  10
ENDBRANCH   2   3
BRANCH   1  13
ATOM     13  C   UNL     1      31.101  23.858  10.249  1.00  0.00    -0.055 C 
ATOM     14  C   UNL     1      32.038  24.602   9.654  1.00  0.00     0.012 C 
BRANCH  13  15
ATOM     15  C   UNL     1      31.358  22.370  10.432  1.00  0.00     0.039 C 
BRANCH  15  16
ATOM     16  C   UNL     1      32.118  21.984  11.725  1.00  0.00     0.032 CG0
ATOM     17  G   UNL     1      31.227  22.111  12.938  1.00  0.00     0.000 G0
ENDBRANCH  15  16
ENDBRANCH  13  15
ENDBRANCH   1  13
TORSDOF 1
ENDMDL
