MODEL 1
REMARK VINA RESULT:    -4.723      0.000      0.000
REMARK INTER + INTRA:          -6.594
REMARK INTER:                  -6.380
REMARK INTRA:                  -0.214
REMARK UNBOUND:                -0.214
REMARK SMILES CCCCCCCC(=O)[O-]
REMARK SMILES IDX 5 1 6 2 7 3 8 4 9 5 10 6 4 7 3 8 2 9 1 10
REMARK H PARENT
REMARK Flexibility Score: inf
ROOT
ATOM      1  C   UNL     1      52.223  21.410  51.394  1.00  0.00     0.000 C 
ENDROOT
BRANCH   1   2
ATOM      2  C   UNL     1      51.113  20.635  50.670  1.00  0.00     0.006 C 
BRANCH   2   3
ATOM      3  C   UNL     1      49.713  21.137  51.048  1.00  0.00     0.053 C 
BRANCH   3   4
ATOM      4  C   UNL     1      48.638  20.368  50.339  1.00  0.00     0.041 C 
ATOM      5  O   UNL     1      48.819  19.161  50.032  1.00  0.00    -0.550 OA
ATOM      6  O   UNL     1      47.425  20.979  50.048  1.00  0.00    -0.550 OA
ENDBRANCH   3   4
ENDBRANCH   2   3
ENDBRANCH   1   2
BRANCH   1   7
ATOM      7  C   UNL     1      53.557  21.289  50.642  1.00  0.00     0.000 C 
BRANCH   7   8
ATOM      8  C   UNL     1      53.503  20.274  49.485  1.00  0.00    -0.000 C 
BRANCH   8   9
ATOM      9  C   UNL     1      54.830  20.086  48.727  1.00  0.00    -0.003 C 
ATOM     10  C   UNL     1      55.310  21.362  48.037  1.00  0.00     0.004 C 
ENDBRANCH   8   9
ENDBRANCH   7   8
ENDBRANCH   1   7
TORSDOF 6
ENDMDL
MODEL 2
REMARK VINA RESULT:    -4.616      1.111      1.282
REMARK INTER + INTRA:          -6.449
REMARK INTER:                  -6.301
REMARK INTRA:                  -0.148
REMARK UNBOUND:                -0.214
REMARK SMILES CCCCCCCC(=O)[O-]
REMARK SMILES IDX 5 1 6 2 7 3 8 4 9 5 10 6 4 7 3 8 2 9 1 10
REMARK H PARENT
REMARK Flexibility Score: inf
ROOT
ATOM      1  C   UNL     1      51.697  20.933  50.902  1.00  0.00     0.000 C 
ENDROOT
BRANCH   1   2
ATOM      2  C   UNL     1      50.411  20.097  50.982  1.00  0.00     0.006 C 
BRANCH   2   3
ATOM      3  C   UNL     1      49.366  20.538  49.948  1.00  0.00     0.053 C 
BRANCH   3   4
ATOM      4  C   UNL     1      48.091  20.978  50.602  1.00  0.00     0.041 C 
ATOM      5  O   UNL     1      48.111  21.480  51.756  1.00  0.00    -0.550 OA
ATOM      6  O   UNL     1      46.887  20.863  49.921  1.00  0.00    -0.550 OA
ENDBRANCH   3   4
ENDBRANCH   2   3
ENDBRANCH   1   2
BRANCH   1   7
ATOM      7  C   UNL     1      52.492  20.598  49.631  1.00  0.00     0.000 C 
BRANCH   7   8
ATOM      8  C   UNL     1      54.015  20.601  49.858  1.00  0.00    -0.000 C 
BRANCH   8   9
ATOM      9  C   UNL     1      54.853  20.206  48.629  1.00  0.00    -0.003 C 
ATOM     10  C   UNL     1      55.408  21.412  47.872  1.00  0.00     0.004 C 
ENDBRANCH   8   9
ENDBRANCH   7   8
ENDBRANCH   1   7
TORSDOF 6
ENDMDL
MODEL 3
REMARK VINA RESULT:    -4.600      3.079      3.658
REMARK INTER + INTRA:          -6.428
REMARK INTER:                  -6.243
REMARK INTRA:                  -0.185
REMARK UNBOUND:                -0.214
REMARK SMILES CCCCCCCC(=O)[O-]
REMARK SMILES IDX 5 1 6 2 7 3 8 4 9 5 10 6 4 7 3 8 2 9 1 10
REMARK H PARENT
REMARK Flexibility Score: inf
ROOT
ATOM      1  C   UNL     1      51.425  20.939  50.672  1.00  0.00     0.000 C 
ENDROOT
BRANCH   1   2
ATOM      2  C   UNL     1      52.156  21.214  51.994  1.00  0.00     0.006 C 
BRANCH   2   3
ATOM      3  C   UNL     1      51.215  21.145  53.204  1.00  0.00     0.053 C 
BRANCH   3   4
ATOM      4  C   UNL     1      51.933  20.696  54.441  1.00  0.00     0.041 C 
ATOM      5  O   UNL     1      52.642  21.507  55.092  1.00  0.00    -0.550 OA
ATOM      6  O   UNL     1      51.791  19.390  54.890  1.00  0.00    -0.550 OA
ENDBRANCH   3   4
ENDBRANCH   2   3
ENDBRANCH   1   2
BRANCH   1   7
ATOM      7  C   UNL     1      52.374  20.313  49.640  1.00  0.00     0.000 C 
BRANCH   7   8
ATOM      8  C   UNL     1      53.848  20.692  49.873  1.00  0.00    -0.000 C 
BRANCH   8   9
ATOM      9  C   UNL     1      54.818  20.231  48.770  1.00  0.00    -0.003 C 
ATOM     10  C   UNL     1      55.366  21.387  47.934  1.00  0.00     0.004 C 
ENDBRANCH   8   9
ENDBRANCH   7   8
ENDBRANCH   1   7
TORSDOF 6
ENDMDL
MODEL 4
REMARK VINA RESULT:    -4.500      2.787      3.340
REMARK INTER + INTRA:          -6.292
REMARK INTER:                  -6.100
REMARK INTRA:                  -0.192
REMARK UNBOUND:                -0.214
REMARK SMILES CCCCCCCC(=O)[O-]
REMARK SMILES IDX 5 1 6 2 7 3 8 4 9 5 10 6 4 7 3 8 2 9 1 10
REMARK H PARENT
REMARK Flexibility Score: inf
ROOT
ATOM      1  C   UNL     1      51.525  20.988  51.209  1.00  0.00     0.000 C 
ENDROOT
BRANCH   1   2
ATOM      2  C   UNL     1      52.408  21.908  52.066  1.00  0.00     0.006 C 
BRANCH   2   3
ATOM      3  C   UNL     1      52.881  21.222  53.355  1.00  0.00     0.053 C 
BRANCH   3   4
ATOM      4  C   UNL     1      51.729  20.826  54.228  1.00  0.00     0.041 C 
ATOM      5  O   UNL     1      51.682  19.674  54.733  1.00  0.00    -0.550 OA
ATOM      6  O   UNL     1      50.724  21.743  54.510  1.00  0.00    -0.550 OA
ENDBRANCH   3   4
ENDBRANCH   2   3
ENDBRANCH   1   2
BRANCH   1   7
ATOM      7  C   UNL     1      52.246  20.587  49.914  1.00  0.00     0.000 C 
BRANCH   7   8
ATOM      8  C   UNL     1      53.774  20.749  50.004  1.00  0.00    -0.000 C 
BRANCH   8   9
ATOM      9  C   UNL     1      54.553  20.237  48.778  1.00  0.00    -0.003 C 
ATOM     10  C   UNL     1      55.216  21.358  47.980  1.00  0.00     0.004 C 
ENDBRANCH   8   9
ENDBRANCH   7   8
ENDBRANCH   1   7
TORSDOF 6
ENDMDL
MODEL 5
REMARK VINA RESULT:    -4.388      3.489      5.528
REMARK INTER + INTRA:          -6.141
REMARK INTER:                  -5.903
REMARK INTRA:                  -0.238
REMARK UNBOUND:                -0.214
REMARK SMILES CCCCCCCC(=O)[O-]
REMARK SMILES IDX 5 1 6 2 7 3 8 4 9 5 10 6 4 7 3 8 2 9 1 10
REMARK H PARENT
REMARK Flexibility Score: inf
ROOT
ATOM      1  C   UNL     1      51.918  21.132  51.108  1.00  0.00     0.000 C 
ENDROOT
BRANCH   1   2
ATOM      2  C   UNL     1      53.386  21.053  50.662  1.00  0.00     0.006 C 
BRANCH   2   3
ATOM      3  C   UNL     1      53.542  20.357  49.302  1.00  0.00     0.053 C 
BRANCH   3   4
ATOM      4  C   UNL     1      54.946  20.455  48.788  1.00  0.00     0.041 C 
ATOM      5  O   UNL     1      55.779  19.546  49.042  1.00  0.00    -0.550 OA
ATOM      6  O   UNL     1      55.323  21.534  47.999  1.00  0.00    -0.550 OA
ENDBRANCH   3   4
ENDBRANCH   2   3
ENDBRANCH   1   2
BRANCH   1   7
ATOM      7  C   UNL     1      50.974  20.740  49.962  1.00  0.00     0.000 C 
BRANCH   7   8
ATOM      8  C   UNL     1      49.998  19.614  50.349  1.00  0.00    -0.000 C 
BRANCH   8   9
ATOM      9  C   UNL     1      48.507  19.977  50.225  1.00  0.00    -0.003 C 
ATOM     10  C   UNL     1      48.144  21.270  50.954  1.00  0.00     0.004 C 
ENDBRANCH   8   9
ENDBRANCH   7   8
ENDBRANCH   1   7
TORSDOF 6
ENDMDL
MODEL 6
REMARK VINA RESULT:    -4.344      3.316      3.908
REMARK INTER + INTRA:          -6.082
REMARK INTER:                  -5.809
REMARK INTRA:                  -0.273
REMARK UNBOUND:                -0.214
REMARK SMILES CCCCCCCC(=O)[O-]
REMARK SMILES IDX 5 1 6 2 7 3 8 4 9 5 10 6 4 7 3 8 2 9 1 10
REMARK H PARENT
REMARK Flexibility Score: inf
ROOT
ATOM      1  C   UNL     1      51.326  20.597  50.641  1.00  0.00     0.000 C 
ENDROOT
BRANCH   1   2
ATOM      2  C   UNL     1      51.470  21.834  51.540  1.00  0.00     0.006 C 
BRANCH   2   3
ATOM      3  C   UNL     1      51.706  21.460  53.010  1.00  0.00     0.053 C 
BRANCH   3   4
ATOM      4  C   UNL     1      53.082  21.842  53.465  1.00  0.00     0.041 C 
ATOM      5  O   UNL     1      53.611  22.909  53.058  1.00  0.00    -0.550 OA
ATOM      6  O   UNL     1      53.764  21.035  54.365  1.00  0.00    -0.550 OA
ENDBRANCH   3   4
ENDBRANCH   2   3
ENDBRANCH   1   2
BRANCH   1   7
ATOM      7  C   UNL     1      52.350  20.629  49.496  1.00  0.00     0.000 C 
BRANCH   7   8
ATOM      8  C   UNL     1      53.807  20.623  49.995  1.00  0.00    -0.000 C 
BRANCH   8   9
ATOM      9  C   UNL     1      54.850  20.206  48.942  1.00  0.00    -0.003 C 
ATOM     10  C   UNL     1      55.216  21.338  47.982  1.00  0.00     0.004 C 
ENDBRANCH   8   9
ENDBRANCH   7   8
ENDBRANCH   1   7
TORSDOF 6
ENDMDL
MODEL 7
REMARK VINA RESULT:    -4.148      2.825      3.287
REMARK INTER + INTRA:          -5.816
REMARK INTER:                  -5.468
REMARK INTRA:                  -0.348
REMARK UNBOUND:                -0.214
REMARK SMILES CCCCCCCC(=O)[O-]
REMARK SMILES IDX 5 1 6 2 7 3 8 4 9 5 10 6 4 7 3 8 2 9 1 10
REMARK H PARENT
REMARK Flexibility Score: inf
ROOT
ATOM      1  C   UNL     1      53.139  21.749  51.628  1.00  0.00     0.000 C 
ENDROOT
BRANCH   1   2
ATOM      2  C   UNL     1      52.964  21.398  53.113  1.00  0.00     0.006 C 
BRANCH   2   3
ATOM      3  C   UNL     1      51.530  20.963  53.442  1.00  0.00     0.053 C 
BRANCH   3   4
ATOM      4  C   UNL     1      50.698  22.112  53.924  1.00  0.00     0.041 C 
ATOM      5  O   UNL     1      50.057  22.819  53.102  1.00  0.00    -0.550 OA
ATOM      6  O   UNL     1      50.605  22.381  55.283  1.00  0.00    -0.550 OA
ENDBRANCH   3   4
ENDBRANCH   2   3
ENDBRANCH   1   2
BRANCH   1   7
ATOM      7  C   UNL     1      52.118  20.995  50.762  1.00  0.00     0.000 C 
BRANCH   7   8
ATOM      8  C   UNL     1      52.742  20.389  49.492  1.00  0.00    -0.000 C 
BRANCH   8   9
ATOM      9  C   UNL     1      54.280  20.320  49.495  1.00  0.00    -0.003 C 
ATOM     10  C   UNL     1      54.918  21.121  48.361  1.00  0.00     0.004 C 
ENDBRANCH   8   9
ENDBRANCH   7   8
ENDBRANCH   1   7
TORSDOF 6
ENDMDL
MODEL 8
REMARK VINA RESULT:    -4.050      1.950      2.954
REMARK INTER + INTRA:          -5.684
REMARK INTER:                  -5.351
REMARK INTRA:                  -0.334
REMARK UNBOUND:                -0.214
REMARK SMILES CCCCCCCC(=O)[O-]
REMARK SMILES IDX 5 1 6 2 7 3 8 4 9 5 10 6 4 7 3 8 2 9 1 10
REMARK H PARENT
REMARK Flexibility Score: inf
ROOT
ATOM      1  C   UNL     1      49.314  19.455  49.887  1.00  0.00     0.000 C 
ENDROOT
BRANCH   1   2
ATOM      2  C   UNL     1      48.587  20.807  49.890  1.00  0.00     0.006 C 
BRANCH   2   3
ATOM      3  C   UNL     1      47.612  20.940  51.068  1.00  0.00     0.053 C 
BRANCH   3   4
ATOM      4  C   UNL     1      48.154  21.838  52.139  1.00  0.00     0.041 C 
ATOM      5  O   UNL     1      47.698  21.775  53.310  1.00  0.00    -0.550 OA
ATOM      6  O   UNL     1      49.186  22.720  51.847  1.00  0.00    -0.550 OA
ENDBRANCH   3   4
ENDBRANCH   2   3
ENDBRANCH   1   2
BRANCH   1   7
ATOM      7  C   UNL     1      50.745  19.599  50.428  1.00  0.00     0.000 C 
BRANCH   7   8
ATOM      8  C   UNL     1      51.471  20.840  49.877  1.00  0.00    -0.000 C 
BRANCH   8   9
ATOM      9  C   UNL     1      52.924  21.006  50.357  1.00  0.00    -0.003 C 
ATOM     10  C   UNL     1      53.941  20.352  49.423  1.00  0.00     0.004 C 
ENDBRANCH   8   9
ENDBRANCH   7   8
ENDBRANCH   1   7
TORSDOF 6
ENDMDL
MODEL 9
REMARK VINA RESULT:    -3.967      1.780      3.513
REMARK INTER + INTRA:          -5.572
REMARK INTER:                  -5.188
REMARK INTRA:                  -0.385
REMARK UNBOUND:                -0.214
REMARK SMILES CCCCCCCC(=O)[O-]
REMARK SMILES IDX 5 1 6 2 7 3 8 4 9 5 10 6 4 7 3 8 2 9 1 10
REMARK H PARENT
REMARK Flexibility Score: inf
ROOT
ATOM      1  C   UNL     1      53.423  21.027  50.577  1.00  0.00     0.000 C 
ENDROOT
BRANCH   1   2
ATOM      2  C   UNL     1      52.300  20.373  49.758  1.00  0.00     0.006 C 
BRANCH   2   3
ATOM      3  C   UNL     1      50.946  21.061  49.976  1.00  0.00     0.053 C 
BRANCH   3   4
ATOM      4  C   UNL     1      49.867  20.071  50.298  1.00  0.00     0.041 C 
ATOM      5  O   UNL     1      50.092  18.836  50.206  1.00  0.00    -0.550 OA
ATOM      6  O   UNL     1      48.624  20.515  50.731  1.00  0.00    -0.550 OA
ENDBRANCH   3   4
ENDBRANCH   2   3
ENDBRANCH   1   2
BRANCH   1   7
ATOM      7  C   UNL     1      52.847  21.976  51.638  1.00  0.00     0.000 C 
BRANCH   7   8
ATOM      8  C   UNL     1      53.006  21.438  53.072  1.00  0.00    -0.000 C 
BRANCH   8   9
ATOM      9  C   UNL     1      51.700  20.959  53.733  1.00  0.00    -0.003 C 
ATOM     10  C   UNL     1      51.917  19.822  54.730  1.00  0.00     0.004 C 
ENDBRANCH   8   9
ENDBRANCH   7   8
ENDBRANCH   1   7
TORSDOF 6
ENDMDL
