MODEL 1
REMARK VINA RESULT:    -6.139      0.000      0.000
REMARK INTER + INTRA:          -6.318
REMARK INTER:                  -6.318
REMARK INTRA:                   0.000
REMARK UNBOUND:                 0.000
REMARK SMILES C=C1CCC[C@]2(C)C[C@]3(O)OC(=O)C(C)=C3C[C@@H]12
REMARK SMILES IDX 15 1 14 2 16 3 17 4 18 5 2 6 1 7 3 8 4 9 5 10 6 11 8 12 9 13
REMARK SMILES IDX 11 14 12 15 13 16 7 17 10 18
REMARK H PARENT 10 19
REMARK Flexibility Score: inf
ROOT
ATOM      1  C   UNL     1      -7.584  -1.081  -4.159  1.00  0.00     0.052 C 
ATOM      2  C   UNL     1      -6.222  -0.754  -4.691  1.00  0.00     0.040 C 
ATOM      3  C   UNL     1      -5.401  -1.576  -5.347  1.00  0.00     0.012 C 
ATOM      4  C   UNL     1      -5.626  -3.035  -5.614  1.00  0.00     0.047 C 
ATOM      5  C   UNL     1      -4.533  -3.837  -4.869  1.00  0.00     0.025 C 
ATOM      6  C   UNL     1      -4.619  -5.352  -4.998  1.00  0.00    -0.073 C 
ATOM      7  C   UNL     1      -5.482  -5.991  -5.810  1.00  0.00     0.008 C 
ATOM      8  C   UNL     1      -3.641  -6.138  -4.157  1.00  0.00     0.031 C 
ATOM      9  C   UNL     1      -2.206  -5.659  -4.414  1.00  0.00     0.005 C 
ATOM     10  C   UNL     1      -2.074  -4.126  -4.312  1.00  0.00     0.008 C 
ATOM     11  C   UNL     1      -3.083  -3.351  -5.217  1.00  0.00    -0.019 C 
ATOM     12  C   UNL     1      -2.947  -1.825  -4.898  1.00  0.00     0.092 C 
ATOM     13  C   UNL     1      -4.046  -0.944  -5.542  1.00  0.00     0.235 C 
ATOM     14  O   UNL     1      -4.167   0.307  -4.864  1.00  0.00    -0.426 OA
ATOM     15  C   UNL     1      -5.454   0.431  -4.379  1.00  0.00     0.336 C 
ATOM     16  O   UNL     1      -5.869   1.428  -3.733  1.00  0.00    -0.246 OA
ATOM     17  C   UNL     1      -2.729  -3.611  -6.707  1.00  0.00     0.012 C 
ENDROOT
BRANCH  13  18
ATOM     18  O   UNL     1      -3.812  -0.723  -6.908  1.00  0.00    -0.353 OA
ATOM     19  H   UNL     1      -3.054  -0.086  -6.970  1.00  0.00     0.215 HD
ENDBRANCH  13  18
TORSDOF 1
ENDMDL
MODEL 2
REMARK VINA RESULT:    -6.105      2.312      5.511
REMARK INTER + INTRA:          -6.283
REMARK INTER:                  -6.283
REMARK INTRA:                   0.000
REMARK UNBOUND:                 0.000
REMARK SMILES C=C1CCC[C@]2(C)C[C@]3(O)OC(=O)C(C)=C3C[C@@H]12
REMARK SMILES IDX 15 1 14 2 16 3 17 4 18 5 2 6 1 7 3 8 4 9 5 10 6 11 8 12 9 13
REMARK SMILES IDX 11 14 12 15 13 16 7 17 10 18
REMARK H PARENT 10 19
REMARK Flexibility Score: inf
ROOT
ATOM      1  C   UNL     1      -6.394  -4.404  -6.762  1.00  0.00     0.052 C 
ATOM      2  C   UNL     1      -5.644  -3.660  -5.700  1.00  0.00     0.040 C 
ATOM      3  C   UNL     1      -6.000  -2.510  -5.126  1.00  0.00     0.012 C 
ATOM      4  C   UNL     1      -7.185  -1.663  -5.486  1.00  0.00     0.047 C 
ATOM      5  C   UNL     1      -6.667  -0.308  -6.020  1.00  0.00     0.025 C 
ATOM      6  C   UNL     1      -7.737   0.680  -6.469  1.00  0.00    -0.073 C 
ATOM      7  C   UNL     1      -9.058   0.488  -6.297  1.00  0.00     0.008 C 
ATOM      8  C   UNL     1      -7.230   1.943  -7.124  1.00  0.00     0.031 C 
ATOM      9  C   UNL     1      -6.203   2.640  -6.220  1.00  0.00     0.005 C 
ATOM     10  C   UNL     1      -5.108   1.673  -5.725  1.00  0.00     0.008 C 
ATOM     11  C   UNL     1      -5.673   0.393  -5.032  1.00  0.00    -0.019 C 
ATOM     12  C   UNL     1      -4.472  -0.562  -4.725  1.00  0.00     0.092 C 
ATOM     13  C   UNL     1      -4.893  -1.976  -4.252  1.00  0.00     0.235 C 
ATOM     14  O   UNL     1      -3.839  -2.919  -4.445  1.00  0.00    -0.426 OA
ATOM     15  C   UNL     1      -4.285  -3.924  -5.282  1.00  0.00     0.336 C 
ATOM     16  O   UNL     1      -3.581  -4.904  -5.642  1.00  0.00    -0.246 OA
ATOM     17  C   UNL     1      -6.370   0.803  -3.705  1.00  0.00     0.012 C 
ENDROOT
BRANCH  13  18
ATOM     18  O   UNL     1      -5.297  -1.984  -2.909  1.00  0.00    -0.353 OA
ATOM     19  H   UNL     1      -6.115  -1.425  -2.851  1.00  0.00     0.215 HD
ENDBRANCH  13  18
TORSDOF 1
ENDMDL
MODEL 3
REMARK VINA RESULT:    -6.040     11.255     13.351
REMARK INTER + INTRA:          -6.216
REMARK INTER:                  -6.216
REMARK INTRA:                   0.000
REMARK UNBOUND:                 0.000
REMARK SMILES C=C1CCC[C@]2(C)C[C@]3(O)OC(=O)C(C)=C3C[C@@H]12
REMARK SMILES IDX 15 1 14 2 16 3 17 4 18 5 2 6 1 7 3 8 4 9 5 10 6 11 8 12 9 13
REMARK SMILES IDX 11 14 12 15 13 16 7 17 10 18
REMARK H PARENT 10 19
REMARK Flexibility Score: inf
ROOT
ATOM      1  C   UNL     1       9.125   1.745  -0.708  1.00  0.00     0.052 C 
ATOM      2  C   UNL     1       8.248   0.834  -1.510  1.00  0.00     0.040 C 
ATOM      3  C   UNL     1       8.051   0.869  -2.829  1.00  0.00     0.012 C 
ATOM      4  C   UNL     1       8.594   1.892  -3.784  1.00  0.00     0.047 C 
ATOM      5  C   UNL     1       7.402   2.665  -4.394  1.00  0.00     0.025 C 
ATOM      6  C   UNL     1       7.763   3.776  -5.372  1.00  0.00    -0.073 C 
ATOM      7  C   UNL     1       9.011   4.010  -5.817  1.00  0.00     0.008 C 
ATOM      8  C   UNL     1       6.610   4.623  -5.856  1.00  0.00     0.031 C 
ATOM      9  C   UNL     1       5.501   3.737  -6.438  1.00  0.00     0.005 C 
ATOM     10  C   UNL     1       5.113   2.585  -5.488  1.00  0.00     0.008 C 
ATOM     11  C   UNL     1       6.328   1.717  -5.032  1.00  0.00    -0.019 C 
ATOM     12  C   UNL     1       5.820   0.697  -3.960  1.00  0.00     0.092 C 
ATOM     13  C   UNL     1       6.951  -0.076  -3.237  1.00  0.00     0.235 C 
ATOM     14  O   UNL     1       6.497  -0.609  -1.993  1.00  0.00    -0.426 OA
ATOM     15  C   UNL     1       7.273  -0.090  -0.974  1.00  0.00     0.336 C 
ATOM     16  O   UNL     1       7.115  -0.370   0.243  1.00  0.00    -0.246 OA
ATOM     17  C   UNL     1       6.892   0.952  -6.261  1.00  0.00     0.012 C 
ENDROOT
BRANCH  13  18
ATOM     18  O   UNL     1       7.475  -1.108  -4.031  1.00  0.00    -0.353 OA
ATOM     19  H   UNL     1       8.142  -1.588  -3.474  1.00  0.00     0.215 HD
ENDBRANCH  13  18
TORSDOF 1
ENDMDL
MODEL 4
REMARK VINA RESULT:    -5.958      2.307      5.787
REMARK INTER + INTRA:          -6.132
REMARK INTER:                  -6.132
REMARK INTRA:                   0.000
REMARK UNBOUND:                 0.000
REMARK SMILES C=C1CCC[C@]2(C)C[C@]3(O)OC(=O)C(C)=C3C[C@@H]12
REMARK SMILES IDX 15 1 14 2 16 3 17 4 18 5 2 6 1 7 3 8 4 9 5 10 6 11 8 12 9 13
REMARK SMILES IDX 11 14 12 15 13 16 7 17 10 18
REMARK H PARENT 10 19
REMARK Flexibility Score: inf
ROOT
ATOM      1  C   UNL     1      -5.164  -3.372  -4.873  1.00  0.00     0.052 C 
ATOM      2  C   UNL     1      -5.000  -1.900  -4.646  1.00  0.00     0.040 C 
ATOM      3  C   UNL     1      -5.971  -1.009  -4.442  1.00  0.00     0.012 C 
ATOM      4  C   UNL     1      -7.448  -1.273  -4.489  1.00  0.00     0.047 C 
ATOM      5  C   UNL     1      -8.047  -0.462  -5.660  1.00  0.00     0.025 C 
ATOM      6  C   UNL     1      -9.545  -0.630  -5.884  1.00  0.00    -0.073 C 
ATOM      7  C   UNL     1     -10.357  -1.313  -5.058  1.00  0.00     0.008 C 
ATOM      8  C   UNL     1     -10.103   0.048  -7.113  1.00  0.00     0.031 C 
ATOM      9  C   UNL     1      -9.724   1.535  -7.125  1.00  0.00     0.005 C 
ATOM     10  C   UNL     1      -8.217   1.756  -6.883  1.00  0.00     0.008 C 
ATOM     11  C   UNL     1      -7.684   1.062  -5.590  1.00  0.00    -0.019 C 
ATOM     12  C   UNL     1      -6.129   1.233  -5.553  1.00  0.00     0.092 C 
ATOM     13  C   UNL     1      -5.427   0.397  -4.455  1.00  0.00     0.235 C 
ATOM     14  O   UNL     1      -4.044   0.210  -4.755  1.00  0.00    -0.426 OA
ATOM     15  C   UNL     1      -3.784  -1.144  -4.848  1.00  0.00     0.336 C 
ATOM     16  O   UNL     1      -2.650  -1.626  -5.105  1.00  0.00    -0.246 OA
ATOM     17  C   UNL     1      -8.318   1.750  -4.349  1.00  0.00     0.012 C 
ENDROOT
BRANCH  13  18
ATOM     18  O   UNL     1      -5.562   0.975  -3.184  1.00  0.00    -0.353 OA
ATOM     19  H   UNL     1      -6.530   1.146  -3.048  1.00  0.00     0.215 HD
ENDBRANCH  13  18
TORSDOF 1
ENDMDL
MODEL 5
REMARK VINA RESULT:    -5.685      5.670      8.324
REMARK INTER + INTRA:          -5.851
REMARK INTER:                  -5.851
REMARK INTRA:                   0.000
REMARK UNBOUND:                 0.000
REMARK SMILES C=C1CCC[C@]2(C)C[C@]3(O)OC(=O)C(C)=C3C[C@@H]12
REMARK SMILES IDX 15 1 14 2 16 3 17 4 18 5 2 6 1 7 3 8 4 9 5 10 6 11 8 12 9 13
REMARK SMILES IDX 11 14 12 15 13 16 7 17 10 18
REMARK H PARENT 10 19
REMARK Flexibility Score: inf
ROOT
ATOM      1  C   UNL     1       3.719  -7.382  -1.926  1.00  0.00     0.052 C 
ATOM      2  C   UNL     1       2.276  -7.700  -1.678  1.00  0.00     0.040 C 
ATOM      3  C   UNL     1       1.296  -7.727  -2.582  1.00  0.00     0.012 C 
ATOM      4  C   UNL     1       1.409  -7.354  -4.031  1.00  0.00     0.047 C 
ATOM      5  C   UNL     1       0.518  -6.116  -4.282  1.00  0.00     0.025 C 
ATOM      6  C   UNL     1       0.530  -5.569  -5.704  1.00  0.00    -0.073 C 
ATOM      7  C   UNL     1       1.144  -6.172  -6.738  1.00  0.00     0.008 C 
ATOM      8  C   UNL     1      -0.225  -4.277  -5.915  1.00  0.00     0.031 C 
ATOM      9  C   UNL     1      -1.666  -4.409  -5.405  1.00  0.00     0.005 C 
ATOM     10  C   UNL     1      -1.730  -4.978  -3.972  1.00  0.00     0.008 C 
ATOM     11  C   UNL     1      -0.960  -6.325  -3.802  1.00  0.00    -0.019 C 
ATOM     12  C   UNL     1      -0.973  -6.702  -2.283  1.00  0.00     0.092 C 
ATOM     13  C   UNL     1      -0.048  -7.890  -1.918  1.00  0.00     0.235 C 
ATOM     14  O   UNL     1       0.271  -7.886  -0.526  1.00  0.00    -0.426 OA
ATOM     15  C   UNL     1       1.642  -7.795  -0.381  1.00  0.00     0.336 C 
ATOM     16  O   UNL     1       2.231  -7.768   0.730  1.00  0.00    -0.246 OA
ATOM     17  C   UNL     1      -1.683  -7.428  -4.623  1.00  0.00     0.012 C 
ENDROOT
BRANCH  13  18
ATOM     18  O   UNL     1      -0.611  -9.125  -2.272  1.00  0.00    -0.353 OA
ATOM     19  H   UNL     1      -0.644  -9.152  -3.264  1.00  0.00     0.215 HD
ENDBRANCH  13  18
TORSDOF 1
ENDMDL
MODEL 6
REMARK VINA RESULT:    -5.679      1.961      5.093
REMARK INTER + INTRA:          -5.845
REMARK INTER:                  -5.845
REMARK INTRA:                   0.000
REMARK UNBOUND:                 0.000
REMARK SMILES C=C1CCC[C@]2(C)C[C@]3(O)OC(=O)C(C)=C3C[C@@H]12
REMARK SMILES IDX 15 1 14 2 16 3 17 4 18 5 2 6 1 7 3 8 4 9 5 10 6 11 8 12 9 13
REMARK SMILES IDX 11 14 12 15 13 16 7 17 10 18
REMARK H PARENT 10 19
REMARK Flexibility Score: inf
ROOT
ATOM      1  C   UNL     1      -4.776  -5.227  -4.866  1.00  0.00     0.052 C 
ATOM      2  C   UNL     1      -3.876  -4.040  -5.024  1.00  0.00     0.040 C 
ATOM      3  C   UNL     1      -4.184  -2.765  -4.784  1.00  0.00     0.012 C 
ATOM      4  C   UNL     1      -5.530  -2.231  -4.391  1.00  0.00     0.047 C 
ATOM      5  C   UNL     1      -6.031  -1.303  -5.522  1.00  0.00     0.025 C 
ATOM      6  C   UNL     1      -7.409  -0.688  -5.312  1.00  0.00    -0.073 C 
ATOM      7  C   UNL     1      -8.118  -0.800  -4.174  1.00  0.00     0.008 C 
ATOM      8  C   UNL     1      -7.958   0.102  -6.477  1.00  0.00     0.031 C 
ATOM      9  C   UNL     1      -6.954   1.175  -6.918  1.00  0.00     0.005 C 
ATOM     10  C   UNL     1      -5.537   0.602  -7.125  1.00  0.00     0.008 C 
ATOM     11  C   UNL     1      -4.996  -0.184  -5.889  1.00  0.00    -0.019 C 
ATOM     12  C   UNL     1      -3.632  -0.838  -6.291  1.00  0.00     0.092 C 
ATOM     13  C   UNL     1      -3.083  -1.846  -5.250  1.00  0.00     0.235 C 
ATOM     14  O   UNL     1      -2.140  -2.738  -5.844  1.00  0.00    -0.426 OA
ATOM     15  C   UNL     1      -2.595  -4.034  -5.695  1.00  0.00     0.336 C 
ATOM     16  O   UNL     1      -1.980  -5.048  -6.118  1.00  0.00    -0.246 OA
ATOM     17  C   UNL     1      -4.777   0.809  -4.715  1.00  0.00     0.012 C 
ENDROOT
BRANCH  13  18
ATOM     18  O   UNL     1      -2.498  -1.202  -4.149  1.00  0.00    -0.353 OA
ATOM     19  H   UNL     1      -2.970  -0.336  -4.039  1.00  0.00     0.215 HD
ENDBRANCH  13  18
TORSDOF 1
ENDMDL
MODEL 7
REMARK VINA RESULT:    -5.620      1.621      3.099
REMARK INTER + INTRA:          -5.784
REMARK INTER:                  -5.784
REMARK INTRA:                   0.000
REMARK UNBOUND:                 0.000
REMARK SMILES C=C1CCC[C@]2(C)C[C@]3(O)OC(=O)C(C)=C3C[C@@H]12
REMARK SMILES IDX 15 1 14 2 16 3 17 4 18 5 2 6 1 7 3 8 4 9 5 10 6 11 8 12 9 13
REMARK SMILES IDX 11 14 12 15 13 16 7 17 10 18
REMARK H PARENT 10 19
REMARK Flexibility Score: inf
ROOT
ATOM      1  C   UNL     1      -2.939   0.928  -6.472  1.00  0.00     0.052 C 
ATOM      2  C   UNL     1      -3.991   0.134  -5.763  1.00  0.00     0.040 C 
ATOM      3  C   UNL     1      -3.848  -1.072  -5.210  1.00  0.00     0.012 C 
ATOM      4  C   UNL     1      -2.621  -1.936  -5.262  1.00  0.00     0.047 C 
ATOM      5  C   UNL     1      -2.968  -3.222  -6.047  1.00  0.00     0.025 C 
ATOM      6  C   UNL     1      -1.827  -4.214  -6.231  1.00  0.00    -0.073 C 
ATOM      7  C   UNL     1      -0.621  -4.091  -5.646  1.00  0.00     0.008 C 
ATOM      8  C   UNL     1      -2.125  -5.399  -7.118  1.00  0.00     0.031 C 
ATOM      9  C   UNL     1      -3.391  -6.122  -6.639  1.00  0.00     0.005 C 
ATOM     10  C   UNL     1      -4.571  -5.153  -6.420  1.00  0.00     0.008 C 
ATOM     11  C   UNL     1      -4.230  -3.957  -5.477  1.00  0.00    -0.019 C 
ATOM     12  C   UNL     1      -5.453  -2.980  -5.471  1.00  0.00     0.092 C 
ATOM     13  C   UNL     1      -5.178  -1.627  -4.769  1.00  0.00     0.235 C 
ATOM     14  O   UNL     1      -6.106  -0.629  -5.192  1.00  0.00    -0.426 OA
ATOM     15  C   UNL     1      -5.409   0.420  -5.760  1.00  0.00     0.336 C 
ATOM     16  O   UNL     1      -5.952   1.453  -6.230  1.00  0.00    -0.246 OA
ATOM     17  C   UNL     1      -3.983  -4.499  -4.042  1.00  0.00     0.012 C 
ENDROOT
BRANCH  13  18
ATOM     18  O   UNL     1      -5.209  -1.742  -3.371  1.00  0.00    -0.353 OA
ATOM     19  H   UNL     1      -6.154  -1.617  -3.094  1.00  0.00     0.215 HD
ENDBRANCH  13  18
TORSDOF 1
ENDMDL
MODEL 8
REMARK VINA RESULT:    -5.562      3.752      7.619
REMARK INTER + INTRA:          -5.724
REMARK INTER:                  -5.724
REMARK INTRA:                   0.000
REMARK UNBOUND:                 0.000
REMARK SMILES C=C1CCC[C@]2(C)C[C@]3(O)OC(=O)C(C)=C3C[C@@H]12
REMARK SMILES IDX 15 1 14 2 16 3 17 4 18 5 2 6 1 7 3 8 4 9 5 10 6 11 8 12 9 13
REMARK SMILES IDX 11 14 12 15 13 16 7 17 10 18
REMARK H PARENT 10 19
REMARK Flexibility Score: inf
ROOT
ATOM      1  C   UNL     1      -3.533   1.412  -6.039  1.00  0.00     0.052 C 
ATOM      2  C   UNL     1      -4.844   0.786  -5.673  1.00  0.00     0.040 C 
ATOM      3  C   UNL     1      -6.060   1.280  -5.910  1.00  0.00     0.012 C 
ATOM      4  C   UNL     1      -6.377   2.618  -6.513  1.00  0.00     0.047 C 
ATOM      5  C   UNL     1      -7.117   3.463  -5.451  1.00  0.00     0.025 C 
ATOM      6  C   UNL     1      -7.496   4.876  -5.876  1.00  0.00    -0.073 C 
ATOM      7  C   UNL     1      -7.345   5.353  -7.125  1.00  0.00     0.008 C 
ATOM      8  C   UNL     1      -8.088   5.749  -4.794  1.00  0.00     0.031 C 
ATOM      9  C   UNL     1      -9.286   5.049  -4.137  1.00  0.00     0.005 C 
ATOM     10  C   UNL     1      -8.955   3.605  -3.707  1.00  0.00     0.008 C 
ATOM     11  C   UNL     1      -8.370   2.729  -4.859  1.00  0.00    -0.019 C 
ATOM     12  C   UNL     1      -7.937   1.354  -4.250  1.00  0.00     0.092 C 
ATOM     13  C   UNL     1      -7.121   0.463  -5.218  1.00  0.00     0.235 C 
ATOM     14  O   UNL     1      -6.365  -0.517  -4.505  1.00  0.00    -0.426 OA
ATOM     15  C   UNL     1      -5.024  -0.342  -4.787  1.00  0.00     0.336 C 
ATOM     16  O   UNL     1      -4.106  -1.054  -4.305  1.00  0.00    -0.246 OA
ATOM     17  C   UNL     1      -9.470   2.505  -5.933  1.00  0.00     0.012 C 
ENDROOT
BRANCH  13  18
ATOM     18  O   UNL     1      -7.936  -0.168  -6.169  1.00  0.00    -0.353 OA
ATOM     19  H   UNL     1      -7.410  -0.921  -6.545  1.00  0.00     0.215 HD
ENDBRANCH  13  18
TORSDOF 1
ENDMDL
MODEL 9
REMARK VINA RESULT:    -5.470      1.787      2.519
REMARK INTER + INTRA:          -5.630
REMARK INTER:                  -5.630
REMARK INTRA:                   0.000
REMARK UNBOUND:                 0.000
REMARK SMILES C=C1CCC[C@]2(C)C[C@]3(O)OC(=O)C(C)=C3C[C@@H]12
REMARK SMILES IDX 15 1 14 2 16 3 17 4 18 5 2 6 1 7 3 8 4 9 5 10 6 11 8 12 9 13
REMARK SMILES IDX 11 14 12 15 13 16 7 17 10 18
REMARK H PARENT 10 19
REMARK Flexibility Score: inf
ROOT
ATOM      1  C   UNL     1      -6.549  -3.522  -5.932  1.00  0.00     0.052 C 
ATOM      2  C   UNL     1      -5.254  -2.948  -5.445  1.00  0.00     0.040 C 
ATOM      3  C   UNL     1      -4.032  -3.440  -5.654  1.00  0.00     0.012 C 
ATOM      4  C   UNL     1      -3.697  -4.729  -6.345  1.00  0.00     0.047 C 
ATOM      5  C   UNL     1      -3.026  -5.669  -5.317  1.00  0.00     0.025 C 
ATOM      6  C   UNL     1      -2.640  -7.049  -5.834  1.00  0.00    -0.073 C 
ATOM      7  C   UNL     1      -2.725  -7.420  -7.125  1.00  0.00     0.008 C 
ATOM      8  C   UNL     1      -2.118  -8.015  -4.797  1.00  0.00     0.031 C 
ATOM      9  C   UNL     1      -0.952  -7.389  -4.020  1.00  0.00     0.005 C 
ATOM     10  C   UNL     1      -1.291  -5.980  -3.491  1.00  0.00     0.008 C 
ATOM     11  C   UNL     1      -1.801  -5.005  -4.598  1.00  0.00    -0.019 C 
ATOM     12  C   UNL     1      -2.252  -3.677  -3.904  1.00  0.00     0.092 C 
ATOM     13  C   UNL     1      -3.003  -2.698  -4.840  1.00  0.00     0.235 C 
ATOM     14  O   UNL     1      -3.787  -1.768  -4.091  1.00  0.00    -0.426 OA
ATOM     15  C   UNL     1      -5.112  -1.898  -4.460  1.00  0.00     0.336 C 
ATOM     16  O   UNL     1      -6.048  -1.213  -3.973  1.00  0.00    -0.246 OA
ATOM     17  C   UNL     1      -0.640  -4.712  -5.588  1.00  0.00     0.012 C 
ENDROOT
BRANCH  13  18
ATOM     18  O   UNL     1      -2.128  -2.005  -5.690  1.00  0.00    -0.353 OA
ATOM     19  H   UNL     1      -1.534  -2.682  -6.105  1.00  0.00     0.215 HD
ENDBRANCH  13  18
TORSDOF 1
ENDMDL
