MODEL 1
REMARK VINA RESULT:    -4.649      0.000      0.000
REMARK INTER + INTRA:         -10.880
REMARK INTER:                  -8.726
REMARK INTRA:                  -2.153
REMARK UNBOUND:                -2.153
REMARK SMILES O=C([O-])CCCCCCCCCCCCCCC(=O)[O-]
REMARK SMILES IDX 10 1 9 2 8 3 7 4 6 5 5 6 4 7 2 8 1 9 3 10 11 11 12 12 13 13
REMARK SMILES IDX 14 14 15 15 16 16 17 17 18 18 19 19 20 20
REMARK H PARENT
REMARK Flexibility Score: inf
ROOT
ATOM      1  C   UNL     1      14.663 -30.665  23.511  1.00  0.00     0.000 C 
ENDROOT
BRANCH   1   2
ATOM      2  C   UNL     1      16.045 -30.007  23.356  1.00  0.00     0.000 C 
BRANCH   2   3
ATOM      3  C   UNL     1      16.330 -29.544  21.916  1.00  0.00     0.000 C 
BRANCH   3   4
ATOM      4  C   UNL     1      17.628 -30.094  21.294  1.00  0.00     0.000 C 
BRANCH   4   5
ATOM      5  C   UNL     1      17.497 -31.549  20.821  1.00  0.00     0.000 C 
BRANCH   5   6
ATOM      6  C   UNL     1      18.345 -32.489  21.691  1.00  0.00     0.006 C 
BRANCH   6   7
ATOM      7  C   UNL     1      17.484 -33.359  22.614  1.00  0.00     0.053 C 
BRANCH   7   8
ATOM      8  C   UNL     1      18.073 -33.469  23.987  1.00  0.00     0.041 C 
ATOM      9  O   UNL     1      17.598 -32.790  24.936  1.00  0.00    -0.550 OA
ATOM     10  O   UNL     1      19.124 -34.345  24.227  1.00  0.00    -0.550 OA
ENDBRANCH   7   8
ENDBRANCH   6   7
ENDBRANCH   5   6
ENDBRANCH   4   5
ENDBRANCH   3   4
ENDBRANCH   2   3
ENDBRANCH   1   2
BRANCH   1  11
ATOM     11  C   UNL     1      13.590 -30.022  22.612  1.00  0.00     0.000 C 
BRANCH  11  12
ATOM     12  C   UNL     1      12.747 -31.009  21.778  1.00  0.00     0.000 C 
BRANCH  12  13
ATOM     13  C   UNL     1      13.479 -31.667  20.594  1.00  0.00     0.000 C 
BRANCH  13  14
ATOM     14  C   UNL     1      14.250 -32.934  20.997  1.00  0.00     0.000 C 
BRANCH  14  15
ATOM     15  C   UNL     1      14.631 -33.805  19.787  1.00  0.00     0.000 C 
BRANCH  15  16
ATOM     16  C   UNL     1      15.385 -35.099  20.168  1.00  0.00     0.006 C 
BRANCH  16  17
ATOM     17  C   UNL     1      16.726 -35.255  19.432  1.00  0.00     0.053 C 
BRANCH  17  18
ATOM     18  C   UNL     1      17.467 -36.474  19.888  1.00  0.00     0.041 C 
ATOM     19  O   UNL     1      17.782 -37.372  19.063  1.00  0.00    -0.550 OA
ATOM     20  O   UNL     1      17.792 -36.628  21.230  1.00  0.00    -0.550 OA
ENDBRANCH  17  18
ENDBRANCH  16  17
ENDBRANCH  15  16
ENDBRANCH  14  15
ENDBRANCH  13  14
ENDBRANCH  12  13
ENDBRANCH  11  12
ENDBRANCH   1  11
TORSDOF 15
ENDMDL
MODEL 2
REMARK VINA RESULT:    -4.644      2.479      5.042
REMARK INTER + INTRA:         -10.870
REMARK INTER:                  -8.446
REMARK INTRA:                  -2.423
REMARK UNBOUND:                -2.153
REMARK SMILES O=C([O-])CCCCCCCCCCCCCCC(=O)[O-]
REMARK SMILES IDX 10 1 9 2 8 3 7 4 6 5 5 6 4 7 2 8 1 9 3 10 11 11 12 12 13 13
REMARK SMILES IDX 14 14 15 15 16 16 17 17 18 18 19 19 20 20
REMARK H PARENT
REMARK Flexibility Score: inf
ROOT
ATOM      1  C   UNL     1      18.630 -33.282  20.920  1.00  0.00     0.000 C 
ENDROOT
BRANCH   1   2
ATOM      2  C   UNL     1      18.708 -31.850  21.475  1.00  0.00     0.000 C 
BRANCH   2   3
ATOM      3  C   UNL     1      17.789 -30.866  20.728  1.00  0.00     0.000 C 
BRANCH   3   4
ATOM      4  C   UNL     1      16.387 -30.685  21.341  1.00  0.00     0.000 C 
BRANCH   4   5
ATOM      5  C   UNL     1      16.423 -30.127  22.771  1.00  0.00     0.000 C 
BRANCH   5   6
ATOM      6  C   UNL     1      15.112 -29.404  23.113  1.00  0.00     0.006 C 
BRANCH   6   7
ATOM      7  C   UNL     1      14.001 -30.380  23.522  1.00  0.00     0.053 C 
BRANCH   7   8
ATOM      8  C   UNL     1      12.830 -30.314  22.589  1.00  0.00     0.041 C 
ATOM      9  O   UNL     1      11.884 -29.515  22.817  1.00  0.00    -0.550 OA
ATOM     10  O   UNL     1      12.801 -31.110  21.451  1.00  0.00    -0.550 OA
ENDBRANCH   7   8
ENDBRANCH   6   7
ENDBRANCH   5   6
ENDBRANCH   4   5
ENDBRANCH   3   4
ENDBRANCH   2   3
ENDBRANCH   1   2
BRANCH   1  11
ATOM     11  C   UNL     1      18.103 -33.335  19.473  1.00  0.00     0.000 C 
BRANCH  11  12
ATOM     12  C   UNL     1      16.917 -34.292  19.236  1.00  0.00     0.000 C 
BRANCH  12  13
ATOM     13  C   UNL     1      16.233 -34.825  20.509  1.00  0.00     0.000 C 
BRANCH  13  14
ATOM     14  C   UNL     1      14.974 -34.030  20.888  1.00  0.00     0.000 C 
BRANCH  14  15
ATOM     15  C   UNL     1      14.903 -33.716  22.393  1.00  0.00     0.000 C 
BRANCH  15  16
ATOM     16  C   UNL     1      16.157 -34.161  23.179  1.00  0.00     0.006 C 
BRANCH  16  17
ATOM     17  C   UNL     1      16.387 -33.346  24.462  1.00  0.00     0.053 C 
BRANCH  17  18
ATOM     18  C   UNL     1      17.249 -34.085  25.439  1.00  0.00     0.041 C 
ATOM     19  O   UNL     1      16.894 -35.213  25.874  1.00  0.00    -0.550 OA
ATOM     20  O   UNL     1      18.437 -33.519  25.884  1.00  0.00    -0.550 OA
ENDBRANCH  17  18
ENDBRANCH  16  17
ENDBRANCH  15  16
ENDBRANCH  14  15
ENDBRANCH  13  14
ENDBRANCH  12  13
ENDBRANCH  11  12
ENDBRANCH   1  11
TORSDOF 15
ENDMDL
MODEL 3
REMARK VINA RESULT:    -4.632      3.503      4.466
REMARK INTER + INTRA:         -10.848
REMARK INTER:                  -9.576
REMARK INTRA:                  -1.272
REMARK UNBOUND:                -2.153
REMARK SMILES O=C([O-])CCCCCCCCCCCCCCC(=O)[O-]
REMARK SMILES IDX 10 1 9 2 8 3 7 4 6 5 5 6 4 7 2 8 1 9 3 10 11 11 12 12 13 13
REMARK SMILES IDX 14 14 15 15 16 16 17 17 18 18 19 19 20 20
REMARK H PARENT
REMARK Flexibility Score: inf
ROOT
ATOM      1  C   UNL     1      15.918 -29.241  21.855  1.00  0.00     0.000 C 
ENDROOT
BRANCH   1   2
ATOM      2  C   UNL     1      17.424 -29.257  21.544  1.00  0.00     0.000 C 
BRANCH   2   3
ATOM      3  C   UNL     1      17.882 -30.557  20.859  1.00  0.00     0.000 C 
BRANCH   3   4
ATOM      4  C   UNL     1      19.322 -30.997  21.181  1.00  0.00     0.000 C 
BRANCH   4   5
ATOM      5  C   UNL     1      20.166 -29.879  21.811  1.00  0.00     0.000 C 
BRANCH   5   6
ATOM      6  C   UNL     1      20.942 -29.103  20.736  1.00  0.00     0.006 C 
BRANCH   6   7
ATOM      7  C   UNL     1      20.647 -27.598  20.779  1.00  0.00     0.053 C 
BRANCH   7   8
ATOM      8  C   UNL     1      21.898 -26.789  20.936  1.00  0.00     0.041 C 
ATOM      9  O   UNL     1      22.028 -26.008  21.915  1.00  0.00    -0.550 OA
ATOM     10  O   UNL     1      22.933 -26.922  20.020  1.00  0.00    -0.550 OA
ENDBRANCH   7   8
ENDBRANCH   6   7
ENDBRANCH   5   6
ENDBRANCH   4   5
ENDBRANCH   3   4
ENDBRANCH   2   3
ENDBRANCH   1   2
BRANCH   1  11
ATOM     11  C   UNL     1      15.578 -29.905  23.202  1.00  0.00     0.000 C 
BRANCH  11  12
ATOM     12  C   UNL     1      14.078 -29.953  23.556  1.00  0.00     0.000 C 
BRANCH  12  13
ATOM     13  C   UNL     1      13.322 -31.200  23.062  1.00  0.00     0.000 C 
BRANCH  13  14
ATOM     14  C   UNL     1      12.656 -30.993  21.693  1.00  0.00     0.000 C 
BRANCH  14  15
ATOM     15  C   UNL     1      13.397 -31.721  20.557  1.00  0.00     0.000 C 
BRANCH  15  16
ATOM     16  C   UNL     1      14.383 -32.801  21.054  1.00  0.00     0.006 C 
BRANCH  16  17
ATOM     17  C   UNL     1      14.666 -33.889  20.004  1.00  0.00     0.053 C 
BRANCH  17  18
ATOM     18  C   UNL     1      15.681 -34.876  20.492  1.00  0.00     0.041 C 
ATOM     19  O   UNL     1      16.208 -34.737  21.628  1.00  0.00    -0.550 OA
ATOM     20  O   UNL     1      16.062 -35.939  19.684  1.00  0.00    -0.550 OA
ENDBRANCH  17  18
ENDBRANCH  16  17
ENDBRANCH  15  16
ENDBRANCH  14  15
ENDBRANCH  13  14
ENDBRANCH  12  13
ENDBRANCH  11  12
ENDBRANCH   1  11
TORSDOF 15
ENDMDL
MODEL 4
REMARK VINA RESULT:    -4.598      2.729      6.074
REMARK INTER + INTRA:         -10.784
REMARK INTER:                  -8.826
REMARK INTRA:                  -1.958
REMARK UNBOUND:                -2.153
REMARK SMILES O=C([O-])CCCCCCCCCCCCCCC(=O)[O-]
REMARK SMILES IDX 10 1 9 2 8 3 7 4 6 5 5 6 4 7 2 8 1 9 3 10 11 11 12 12 13 13
REMARK SMILES IDX 14 14 15 15 16 16 17 17 18 18 19 19 20 20
REMARK H PARENT
REMARK Flexibility Score: inf
ROOT
ATOM      1  C   UNL     1      19.245 -33.991  23.182  1.00  0.00     0.000 C 
ENDROOT
BRANCH   1   2
ATOM      2  C   UNL     1      19.365 -35.011  22.037  1.00  0.00     0.000 C 
BRANCH   2   3
ATOM      3  C   UNL     1      18.283 -36.105  22.093  1.00  0.00     0.000 C 
BRANCH   3   4
ATOM      4  C   UNL     1      17.576 -36.397  20.756  1.00  0.00     0.000 C 
BRANCH   4   5
ATOM      5  C   UNL     1      17.819 -35.311  19.698  1.00  0.00     0.000 C 
BRANCH   5   6
ATOM      6  C   UNL     1      16.496 -34.674  19.248  1.00  0.00     0.006 C 
BRANCH   6   7
ATOM      7  C   UNL     1      15.342 -34.996  20.206  1.00  0.00     0.053 C 
BRANCH   7   8
ATOM      8  C   UNL     1      14.967 -33.812  21.045  1.00  0.00     0.041 C 
ATOM      9  O   UNL     1      14.219 -32.915  20.574  1.00  0.00    -0.550 OA
ATOM     10  O   UNL     1      15.415 -33.717  22.356  1.00  0.00    -0.550 OA
ENDBRANCH   7   8
ENDBRANCH   6   7
ENDBRANCH   5   6
ENDBRANCH   4   5
ENDBRANCH   3   4
ENDBRANCH   2   3
ENDBRANCH   1   2
BRANCH   1  11
ATOM     11  C   UNL     1      18.658 -32.643  22.723  1.00  0.00     0.000 C 
BRANCH  11  12
ATOM     12  C   UNL     1      18.779 -32.348  21.214  1.00  0.00     0.000 C 
BRANCH  12  13
ATOM     13  C   UNL     1      17.860 -31.233  20.683  1.00  0.00     0.000 C 
BRANCH  13  14
ATOM     14  C   UNL     1      17.391 -30.269  21.785  1.00  0.00     0.000 C 
BRANCH  14  15
ATOM     15  C   UNL     1      15.872 -30.027  21.753  1.00  0.00     0.000 C 
BRANCH  15  16
ATOM     16  C   UNL     1      15.271 -29.676  23.132  1.00  0.00     0.006 C 
BRANCH  16  17
ATOM     17  C   UNL     1      14.120 -30.609  23.544  1.00  0.00     0.053 C 
BRANCH  17  18
ATOM     18  C   UNL     1      12.785 -30.022  23.201  1.00  0.00     0.041 C 
ATOM     19  O   UNL     1      12.174 -30.396  22.165  1.00  0.00    -0.550 OA
ATOM     20  O   UNL     1      12.225 -29.045  24.015  1.00  0.00    -0.550 OA
ENDBRANCH  17  18
ENDBRANCH  16  17
ENDBRANCH  15  16
ENDBRANCH  14  15
ENDBRANCH  13  14
ENDBRANCH  12  13
ENDBRANCH  11  12
ENDBRANCH   1  11
TORSDOF 15
ENDMDL
MODEL 5
REMARK VINA RESULT:    -4.590      2.687      5.639
REMARK INTER + INTRA:         -10.769
REMARK INTER:                  -8.560
REMARK INTRA:                  -2.209
REMARK UNBOUND:                -2.153
REMARK SMILES O=C([O-])CCCCCCCCCCCCCCC(=O)[O-]
REMARK SMILES IDX 10 1 9 2 8 3 7 4 6 5 5 6 4 7 2 8 1 9 3 10 11 11 12 12 13 13
REMARK SMILES IDX 14 14 15 15 16 16 17 17 18 18 19 19 20 20
REMARK H PARENT
REMARK Flexibility Score: inf
ROOT
ATOM      1  C   UNL     1      17.944 -34.083  19.562  1.00  0.00     0.000 C 
ENDROOT
BRANCH   1   2
ATOM      2  C   UNL     1      16.463 -34.071  19.150  1.00  0.00     0.000 C 
BRANCH   2   3
ATOM      3  C   UNL     1      15.567 -34.876  20.109  1.00  0.00     0.000 C 
BRANCH   3   4
ATOM      4  C   UNL     1      15.055 -34.100  21.337  1.00  0.00     0.000 C 
BRANCH   4   5
ATOM      5  C   UNL     1      14.285 -32.825  20.964  1.00  0.00     0.000 C 
BRANCH   5   6
ATOM      6  C   UNL     1      15.008 -31.573  21.485  1.00  0.00     0.006 C 
BRANCH   6   7
ATOM      7  C   UNL     1      15.304 -31.658  22.988  1.00  0.00     0.053 C 
BRANCH   7   8
ATOM      8  C   UNL     1      14.052 -31.590  23.808  1.00  0.00     0.041 C 
ATOM      9  O   UNL     1      13.683 -32.588  24.483  1.00  0.00    -0.550 OA
ATOM     10  O   UNL     1      13.311 -30.417  23.853  1.00  0.00    -0.550 OA
ENDBRANCH   7   8
ENDBRANCH   6   7
ENDBRANCH   5   6
ENDBRANCH   4   5
ENDBRANCH   3   4
ENDBRANCH   2   3
ENDBRANCH   1   2
BRANCH   1  11
ATOM     11  C   UNL     1      18.326 -32.891  20.459  1.00  0.00     0.000 C 
BRANCH  11  12
ATOM     12  C   UNL     1      18.810 -33.257  21.877  1.00  0.00     0.000 C 
BRANCH  12  13
ATOM     13  C   UNL     1      19.047 -34.757  22.127  1.00  0.00     0.000 C 
BRANCH  13  14
ATOM     14  C   UNL     1      18.003 -35.378  23.068  1.00  0.00     0.000 C 
BRANCH  14  15
ATOM     15  C   UNL     1      17.518 -34.394  24.147  1.00  0.00     0.000 C 
BRANCH  15  16
ATOM     16  C   UNL     1      17.787 -34.875  25.590  1.00  0.00     0.006 C 
BRANCH  16  17
ATOM     17  C   UNL     1      16.845 -36.005  26.036  1.00  0.00     0.053 C 
BRANCH  17  18
ATOM     18  C   UNL     1      17.607 -37.204  26.513  1.00  0.00     0.041 C 
ATOM     19  O   UNL     1      17.473 -37.613  27.697  1.00  0.00    -0.550 OA
ATOM     20  O   UNL     1      18.482 -37.857  25.655  1.00  0.00    -0.550 OA
ENDBRANCH  17  18
ENDBRANCH  16  17
ENDBRANCH  15  16
ENDBRANCH  14  15
ENDBRANCH  13  14
ENDBRANCH  12  13
ENDBRANCH  11  12
ENDBRANCH   1  11
TORSDOF 15
ENDMDL
MODEL 6
REMARK VINA RESULT:    -4.548      4.024      6.145
REMARK INTER + INTRA:         -10.689
REMARK INTER:                  -9.149
REMARK INTRA:                  -1.540
REMARK UNBOUND:                -2.153
REMARK SMILES O=C([O-])CCCCCCCCCCCCCCC(=O)[O-]
REMARK SMILES IDX 10 1 9 2 8 3 7 4 6 5 5 6 4 7 2 8 1 9 3 10 11 11 12 12 13 13
REMARK SMILES IDX 14 14 15 15 16 16 17 17 18 18 19 19 20 20
REMARK H PARENT
REMARK Flexibility Score: inf
ROOT
ATOM      1  C   UNL     1      18.368 -33.056  21.627  1.00  0.00     0.000 C 
ENDROOT
BRANCH   1   2
ATOM      2  C   UNL     1      17.747 -31.718  22.063  1.00  0.00     0.000 C 
BRANCH   2   3
ATOM      3  C   UNL     1      17.631 -30.706  20.909  1.00  0.00     0.000 C 
BRANCH   3   4
ATOM      4  C   UNL     1      18.367 -29.371  21.130  1.00  0.00     0.000 C 
BRANCH   4   5
ATOM      5  C   UNL     1      19.895 -29.511  21.078  1.00  0.00     0.000 C 
BRANCH   5   6
ATOM      6  C   UNL     1      20.575 -28.134  21.081  1.00  0.00     0.006 C 
BRANCH   6   7
ATOM      7  C   UNL     1      19.733 -27.069  20.367  1.00  0.00     0.053 C 
BRANCH   7   8
ATOM      8  C   UNL     1      20.293 -25.693  20.559  1.00  0.00     0.041 C 
ATOM      9  O   UNL     1      19.822 -24.937  21.450  1.00  0.00    -0.550 OA
ATOM     10  O   UNL     1      21.357 -25.259  19.779  1.00  0.00    -0.550 OA
ENDBRANCH   7   8
ENDBRANCH   6   7
ENDBRANCH   5   6
ENDBRANCH   4   5
ENDBRANCH   3   4
ENDBRANCH   2   3
ENDBRANCH   1   2
BRANCH   1  11
ATOM     11  C   UNL     1      18.236 -33.311  20.114  1.00  0.00     0.000 C 
BRANCH  11  12
ATOM     12  C   UNL     1      16.996 -34.122  19.685  1.00  0.00     0.000 C 
BRANCH  12  13
ATOM     13  C   UNL     1      16.256 -34.849  20.823  1.00  0.00     0.000 C 
BRANCH  13  14
ATOM     14  C   UNL     1      15.015 -34.087  21.313  1.00  0.00     0.000 C 
BRANCH  14  15
ATOM     15  C   UNL     1      14.488 -33.083  20.273  1.00  0.00     0.000 C 
BRANCH  15  16
ATOM     16  C   UNL     1      13.570 -31.994  20.873  1.00  0.00     0.006 C 
BRANCH  16  17
ATOM     17  C   UNL     1      14.066 -31.467  22.230  1.00  0.00     0.053 C 
BRANCH  17  18
ATOM     18  C   UNL     1      13.077 -30.528  22.851  1.00  0.00     0.041 C 
ATOM     19  O   UNL     1      13.334 -29.973  23.953  1.00  0.00    -0.550 OA
ATOM     20  O   UNL     1      11.862 -30.283  22.224  1.00  0.00    -0.550 OA
ENDBRANCH  17  18
ENDBRANCH  16  17
ENDBRANCH  15  16
ENDBRANCH  14  15
ENDBRANCH  13  14
ENDBRANCH  12  13
ENDBRANCH  11  12
ENDBRANCH   1  11
TORSDOF 15
ENDMDL
MODEL 7
REMARK VINA RESULT:    -4.525      2.624      5.612
REMARK INTER + INTRA:         -10.646
REMARK INTER:                  -8.406
REMARK INTRA:                  -2.240
REMARK UNBOUND:                -2.153
REMARK SMILES O=C([O-])CCCCCCCCCCCCCCC(=O)[O-]
REMARK SMILES IDX 10 1 9 2 8 3 7 4 6 5 5 6 4 7 2 8 1 9 3 10 11 11 12 12 13 13
REMARK SMILES IDX 14 14 15 15 16 16 17 17 18 18 19 19 20 20
REMARK H PARENT
REMARK Flexibility Score: inf
ROOT
ATOM      1  C   UNL     1      19.662 -31.676  22.626  1.00  0.00     0.000 C 
ENDROOT
BRANCH   1   2
ATOM      2  C   UNL     1      19.474 -32.822  23.634  1.00  0.00     0.000 C 
BRANCH   2   3
ATOM      3  C   UNL     1      18.161 -32.712  24.429  1.00  0.00     0.000 C 
BRANCH   3   4
ATOM      4  C   UNL     1      17.186 -33.891  24.253  1.00  0.00     0.000 C 
BRANCH   4   5
ATOM      5  C   UNL     1      17.801 -35.071  23.486  1.00  0.00     0.000 C 
BRANCH   5   6
ATOM      6  C   UNL     1      17.207 -35.178  22.073  1.00  0.00     0.006 C 
BRANCH   6   7
ATOM      7  C   UNL     1      15.973 -34.285  21.893  1.00  0.00     0.053 C 
BRANCH   7   8
ATOM      8  C   UNL     1      15.305 -34.517  20.572  1.00  0.00     0.041 C 
ATOM      9  O   UNL     1      14.493 -33.669  20.116  1.00  0.00    -0.550 OA
ATOM     10  O   UNL     1      15.604 -35.652  19.830  1.00  0.00    -0.550 OA
ENDBRANCH   7   8
ENDBRANCH   6   7
ENDBRANCH   5   6
ENDBRANCH   4   5
ENDBRANCH   3   4
ENDBRANCH   2   3
ENDBRANCH   1   2
BRANCH   1  11
ATOM     11  C   UNL     1      19.056 -31.987  21.245  1.00  0.00     0.000 C 
BRANCH  11  12
ATOM     12  C   UNL     1      17.765 -31.216  20.900  1.00  0.00     0.000 C 
BRANCH  12  13
ATOM     13  C   UNL     1      17.528 -29.929  21.710  1.00  0.00     0.000 C 
BRANCH  13  14
ATOM     14  C   UNL     1      16.050 -29.509  21.748  1.00  0.00     0.000 C 
BRANCH  14  15
ATOM     15  C   UNL     1      15.425 -29.667  23.145  1.00  0.00     0.000 C 
BRANCH  15  16
ATOM     16  C   UNL     1      15.006 -31.117  23.477  1.00  0.00     0.006 C 
BRANCH  16  17
ATOM     17  C   UNL     1      13.493 -31.273  23.698  1.00  0.00     0.053 C 
BRANCH  17  18
ATOM     18  C   UNL     1      12.706 -30.621  22.602  1.00  0.00     0.041 C 
ATOM     19  O   UNL     1      12.723 -31.099  21.436  1.00  0.00    -0.550 OA
ATOM     20  O   UNL     1      11.968 -29.474  22.864  1.00  0.00    -0.550 OA
ENDBRANCH  17  18
ENDBRANCH  16  17
ENDBRANCH  15  16
ENDBRANCH  14  15
ENDBRANCH  13  14
ENDBRANCH  12  13
ENDBRANCH  11  12
ENDBRANCH   1  11
TORSDOF 15
ENDMDL
MODEL 8
REMARK VINA RESULT:    -4.509      2.438      4.928
REMARK INTER + INTRA:         -10.617
REMARK INTER:                  -8.202
REMARK INTRA:                  -2.415
REMARK UNBOUND:                -2.153
REMARK SMILES O=C([O-])CCCCCCCCCCCCCCC(=O)[O-]
REMARK SMILES IDX 10 1 9 2 8 3 7 4 6 5 5 6 4 7 2 8 1 9 3 10 11 11 12 12 13 13
REMARK SMILES IDX 14 14 15 15 16 16 17 17 18 18 19 19 20 20
REMARK H PARENT
REMARK Flexibility Score: inf
ROOT
ATOM      1  C   UNL     1      18.215 -32.891  20.126  1.00  0.00     0.000 C 
ENDROOT
BRANCH   1   2
ATOM      2  C   UNL     1      17.205 -32.183  21.044  1.00  0.00     0.000 C 
BRANCH   2   3
ATOM      3  C   UNL     1      17.778 -31.869  22.438  1.00  0.00     0.000 C 
BRANCH   3   4
ATOM      4  C   UNL     1      16.814 -32.114  23.614  1.00  0.00     0.000 C 
BRANCH   4   5
ATOM      5  C   UNL     1      15.770 -33.201  23.320  1.00  0.00     0.000 C 
BRANCH   5   6
ATOM      6  C   UNL     1      14.362 -32.732  23.713  1.00  0.00     0.006 C 
BRANCH   6   7
ATOM      7  C   UNL     1      14.142 -31.243  23.417  1.00  0.00     0.053 C 
BRANCH   7   8
ATOM      8  C   UNL     1      13.218 -31.035  22.257  1.00  0.00     0.041 C 
ATOM      9  O   UNL     1      13.475 -31.560  21.141  1.00  0.00    -0.550 OA
ATOM     10  O   UNL     1      12.056 -30.290  22.416  1.00  0.00    -0.550 OA
ENDBRANCH   7   8
ENDBRANCH   6   7
ENDBRANCH   5   6
ENDBRANCH   4   5
ENDBRANCH   3   4
ENDBRANCH   2   3
ENDBRANCH   1   2
BRANCH   1  11
ATOM     11  C   UNL     1      17.539 -33.761  19.050  1.00  0.00     0.000 C 
BRANCH  11  12
ATOM     12  C   UNL     1      16.090 -34.190  19.361  1.00  0.00     0.000 C 
BRANCH  12  13
ATOM     13  C   UNL     1      15.942 -35.538  20.089  1.00  0.00     0.000 C 
BRANCH  13  14
ATOM     14  C   UNL     1      17.050 -36.539  19.726  1.00  0.00     0.000 C 
BRANCH  14  15
ATOM     15  C   UNL     1      17.930 -36.910  20.932  1.00  0.00     0.000 C 
BRANCH  15  16
ATOM     16  C   UNL     1      17.859 -35.889  22.090  1.00  0.00     0.006 C 
BRANCH  16  17
ATOM     17  C   UNL     1      19.242 -35.497  22.635  1.00  0.00     0.053 C 
BRANCH  17  18
ATOM     18  C   UNL     1      19.158 -35.003  24.047  1.00  0.00     0.041 C 
ATOM     19  O   UNL     1      18.269 -35.443  24.823  1.00  0.00    -0.550 OA
ATOM     20  O   UNL     1      20.051 -34.040  24.501  1.00  0.00    -0.550 OA
ENDBRANCH  17  18
ENDBRANCH  16  17
ENDBRANCH  15  16
ENDBRANCH  14  15
ENDBRANCH  13  14
ENDBRANCH  12  13
ENDBRANCH  11  12
ENDBRANCH   1  11
TORSDOF 15
ENDMDL
MODEL 9
REMARK VINA RESULT:    -4.485      2.987      6.008
REMARK INTER + INTRA:         -10.571
REMARK INTER:                  -8.225
REMARK INTRA:                  -2.347
REMARK UNBOUND:                -2.153
REMARK SMILES O=C([O-])CCCCCCCCCCCCCCC(=O)[O-]
REMARK SMILES IDX 10 1 9 2 8 3 7 4 6 5 5 6 4 7 2 8 1 9 3 10 11 11 12 12 13 13
REMARK SMILES IDX 14 14 15 15 16 16 17 17 18 18 19 19 20 20
REMARK H PARENT
REMARK Flexibility Score: inf
ROOT
ATOM      1  C   UNL     1      16.873 -36.371  20.131  1.00  0.00     0.000 C 
ENDROOT
BRANCH   1   2
ATOM      2  C   UNL     1      17.352 -35.098  19.413  1.00  0.00     0.000 C 
BRANCH   2   3
ATOM      3  C   UNL     1      16.279 -33.994  19.372  1.00  0.00     0.000 C 
BRANCH   3   4
ATOM      4  C   UNL     1      14.985 -34.307  20.147  1.00  0.00     0.000 C 
BRANCH   4   5
ATOM      5  C   UNL     1      14.634 -33.235  21.189  1.00  0.00     0.000 C 
BRANCH   5   6
ATOM      6  C   UNL     1      13.740 -32.146  20.577  1.00  0.00     0.006 C 
BRANCH   6   7
ATOM      7  C   UNL     1      13.149 -31.213  21.643  1.00  0.00     0.053 C 
BRANCH   7   8
ATOM      8  C   UNL     1      14.217 -30.549  22.457  1.00  0.00     0.041 C 
ATOM      9  O   UNL     1      14.361 -30.843  23.674  1.00  0.00    -0.550 OA
ATOM     10  O   UNL     1      15.076 -29.632  21.865  1.00  0.00    -0.550 OA
ENDBRANCH   7   8
ENDBRANCH   6   7
ENDBRANCH   5   6
ENDBRANCH   4   5
ENDBRANCH   3   4
ENDBRANCH   2   3
ENDBRANCH   1   2
BRANCH   1  11
ATOM     11  C   UNL     1      17.976 -37.029  20.982  1.00  0.00     0.000 C 
BRANCH  11  12
ATOM     12  C   UNL     1      18.755 -36.073  21.909  1.00  0.00     0.000 C 
BRANCH  12  13
ATOM     13  C   UNL     1      18.030 -35.675  23.207  1.00  0.00     0.000 C 
BRANCH  13  14
ATOM     14  C   UNL     1      17.434 -34.260  23.149  1.00  0.00     0.000 C 
BRANCH  14  15
ATOM     15  C   UNL     1      18.367 -33.253  22.454  1.00  0.00     0.000 C 
BRANCH  15  16
ATOM     16  C   UNL     1      17.785 -31.823  22.373  1.00  0.00     0.006 C 
BRANCH  16  17
ATOM     17  C   UNL     1      18.052 -31.139  21.022  1.00  0.00     0.053 C 
BRANCH  17  18
ATOM     18  C   UNL     1      18.898 -29.913  21.182  1.00  0.00     0.041 C 
ATOM     19  O   UNL     1      20.055 -29.999  21.675  1.00  0.00    -0.550 OA
ATOM     20  O   UNL     1      18.401 -28.672  20.807  1.00  0.00    -0.550 OA
ENDBRANCH  17  18
ENDBRANCH  16  17
ENDBRANCH  15  16
ENDBRANCH  14  15
ENDBRANCH  13  14
ENDBRANCH  12  13
ENDBRANCH  11  12
ENDBRANCH   1  11
TORSDOF 15
ENDMDL
