MODEL 1
REMARK VINA RESULT:    14.312      0.000      0.000
REMARK INTER + INTRA:          22.888
REMARK INTER:                  20.587
REMARK INTRA:                   2.301
REMARK UNBOUND:                 2.301
REMARK SMILES O=c1c(O[C@H]2O[C@H](CO)[C@H](O)[C@@H](O)[C@H]2O)c(-c2ccc(O)cc2)oc2cc(O)cc(O)c12
REMARK SMILES IDX 4 1 3 2 16 3 24 4 2 5 25 6 1 7 32 8 26 9 30 10 27 11 29 12
REMARK SMILES IDX 17 13 18 14 19 15 20 16 23 17 22 18 21 19 31 21 28 23 5 25
REMARK SMILES IDX 14 26 6 27 12 28 7 29 10 30 15 31 13 33 8 35 9 36 11 38
REMARK H PARENT 21 20 31 22 28 24 15 32 13 34 9 37 11 39
REMARK Flexibility Score: inf
ROOT
ATOM      1  O   UNL     1      -7.785  -6.816  -9.179  1.00  0.00    -0.454 OA
ENDROOT
BRANCH   1   2
ATOM      2  C   UNL     1      -8.277  -5.570  -9.625  1.00  0.00     0.214 A 
ATOM      3  C   UNL     1      -8.901  -5.516 -10.888  1.00  0.00     0.180 A 
ATOM      4  O   UNL     1      -9.326  -4.359 -11.382  1.00  0.00    -0.452 OA
ATOM      5  C   UNL     1      -8.155  -4.363  -8.893  1.00  0.00     0.239 A 
ATOM      6  C   UNL     1      -9.223  -3.209 -10.732  1.00  0.00     0.146 A 
ATOM      7  O   UNL     1      -7.616  -4.359  -7.755  1.00  0.00    -0.285 OA
ATOM      8  C   UNL     1      -8.636  -3.158  -9.447  1.00  0.00     0.111 A 
ATOM      9  C   UNL     1      -9.708  -2.043 -11.334  1.00  0.00     0.094 A 
ATOM     10  C   UNL     1      -8.550  -1.909  -8.781  1.00  0.00     0.134 A 
ATOM     11  C   UNL     1      -9.620  -0.816 -10.671  1.00  0.00     0.123 A 
ATOM     12  C   UNL     1      -9.044  -0.753  -9.401  1.00  0.00     0.093 A 
BRANCH   3  13
ATOM     13  C   UNL     1      -9.088  -6.728 -11.711  1.00  0.00     0.021 A 
ATOM     14  C   UNL     1      -8.522  -6.791 -12.995  1.00  0.00     0.016 A 
ATOM     15  C   UNL     1      -8.706  -7.925 -13.791  1.00  0.00     0.047 A 
ATOM     16  C   UNL     1      -9.468  -9.000 -13.322  1.00  0.00     0.115 A 
ATOM     17  C   UNL     1      -9.874  -7.799 -11.253  1.00  0.00     0.016 A 
ATOM     18  C   UNL     1     -10.056  -8.932 -12.051  1.00  0.00     0.047 A 
BRANCH  16  19
ATOM     19  O   UNL     1      -9.640 -10.125 -14.125  1.00  0.00    -0.508 OA
ATOM     20  H   UNL     1      -9.492 -11.061 -13.765  1.00  0.00     0.293 HD
ENDBRANCH  16  19
ENDBRANCH   3  13
BRANCH  10  21
ATOM     21  O   UNL     1      -7.979  -1.811  -7.512  1.00  0.00    -0.507 OA
ATOM     22  H   UNL     1      -7.198  -2.393  -7.231  1.00  0.00     0.293 HD
ENDBRANCH  10  21
BRANCH  11  23
ATOM     23  O   UNL     1     -10.102   0.349 -11.265  1.00  0.00    -0.508 OA
ATOM     24  H   UNL     1      -9.749   0.673 -12.158  1.00  0.00     0.293 HD
ENDBRANCH  11  23
ENDBRANCH   1   2
BRANCH   1  25
ATOM     25  C   UNL     1      -6.512  -7.401  -9.483  1.00  0.00     0.339 C 
ATOM     26  C   UNL     1      -6.681  -8.833 -10.032  1.00  0.00     0.214 C 
ATOM     27  O   UNL     1      -5.648  -7.381  -8.356  1.00  0.00    -0.332 OA
ATOM     28  C   UNL     1      -7.123  -9.814  -8.928  1.00  0.00     0.180 C 
ATOM     29  C   UNL     1      -6.172  -8.153  -7.288  1.00  0.00     0.179 C 
ATOM     30  C   UNL     1      -6.236  -9.646  -7.679  1.00  0.00     0.177 C 
BRANCH  26  31
ATOM     31  O   UNL     1      -7.608  -8.828 -11.088  1.00  0.00    -0.384 OA
ATOM     32  H   UNL     1      -8.158  -9.648 -10.989  1.00  0.00     0.211 HD
ENDBRANCH  26  31
BRANCH  28  33
ATOM     33  O   UNL     1      -8.471  -9.590  -8.601  1.00  0.00    -0.387 OA
ATOM     34  H   UNL     1      -8.852 -10.466  -8.332  1.00  0.00     0.211 HD
ENDBRANCH  28  33
BRANCH  29  35
ATOM     35  C   UNL     1      -5.295  -7.944  -6.046  1.00  0.00     0.191 C 
BRANCH  35  36
ATOM     36  O   UNL     1      -5.247  -9.117  -5.278  1.00  0.00    -0.394 OA
ATOM     37  H   UNL     1      -5.522  -9.860  -5.877  1.00  0.00     0.210 HD
ENDBRANCH  35  36
ENDBRANCH  29  35
BRANCH  30  38
ATOM     38  O   UNL     1      -4.941 -10.124  -7.946  1.00  0.00    -0.387 OA
ATOM     39  H   UNL     1      -4.395  -9.939  -7.138  1.00  0.00     0.211 HD
ENDBRANCH  30  38
ENDBRANCH   1  25
TORSDOF 11
ENDMDL
