MODEL 1
REMARK VINA RESULT:    -7.282      0.000      0.000
REMARK INTER + INTRA:          -8.137
REMARK INTER:                  -7.920
REMARK INTRA:                  -0.217
REMARK UNBOUND:                -0.217
REMARK SMILES C=C1C[C@@]2(O)O[C@@]3(C[C@@H]2C(C)C)[C@H](C)CC[C@@H]13
REMARK SMILES IDX 14 1 13 2 15 3 16 4 17 5 7 6 8 7 9 8 4 9 6 10 3 11 2 12 1 13
REMARK SMILES IDX 10 14 11 15 12 16 5 17
REMARK H PARENT 5 18
REMARK Flexibility Score: inf
ROOT
ATOM      1  C   UNL     1      -5.104  -7.236  -3.374  1.00  0.00     0.011 C 
ATOM      2  C   UNL     1      -5.992  -6.006  -3.643  1.00  0.00     0.019 C 
ATOM      3  C   UNL     1      -6.930  -5.754  -2.458  1.00  0.00     0.007 C 
ATOM      4  C   UNL     1      -8.251  -6.461  -2.775  1.00  0.00     0.011 C 
ATOM      5  C   UNL     1      -8.181  -6.919  -4.241  1.00  0.00     0.047 C 
ATOM      6  C   UNL     1      -6.950  -6.188  -4.834  1.00  0.00     0.081 C 
ATOM      7  C   UNL     1      -6.355  -6.884  -6.055  1.00  0.00     0.046 C 
ATOM      8  C   UNL     1      -7.282  -6.433  -7.180  1.00  0.00     0.054 C 
ATOM      9  C   UNL     1      -8.025  -5.223  -6.518  1.00  0.00     0.173 C 
ATOM     10  O   UNL     1      -7.352  -4.929  -5.313  1.00  0.00    -0.342 OA
ATOM     11  C   UNL     1      -9.473  -5.617  -6.149  1.00  0.00     0.096 C 
ATOM     12  C   UNL     1      -9.469  -6.617  -5.006  1.00  0.00    -0.066 C 
ATOM     13  C   UNL     1     -10.608  -7.239  -4.671  1.00  0.00     0.008 C 
ENDROOT
BRANCH   8  14
ATOM     14  C   UNL     1      -6.547  -6.135  -8.526  1.00  0.00    -0.009 C 
ATOM     15  C   UNL     1      -5.104  -6.679  -8.528  1.00  0.00     0.008 C 
ATOM     16  C   UNL     1      -7.297  -6.774  -9.712  1.00  0.00     0.008 C 
ENDBRANCH   8  14
BRANCH   9  17
ATOM     17  O   UNL     1      -8.023  -4.084  -7.342  1.00  0.00    -0.365 OA
ATOM     18  H   UNL     1      -8.951  -3.948  -7.665  1.00  0.00     0.214 HD
ENDBRANCH   9  17
TORSDOF 2
ENDMDL
MODEL 2
REMARK VINA RESULT:    -6.491      1.770      3.540
REMARK INTER + INTRA:          -7.277
REMARK INTER:                  -7.088
REMARK INTRA:                  -0.189
REMARK UNBOUND:                -0.217
REMARK SMILES C=C1C[C@@]2(O)O[C@@]3(C[C@@H]2C(C)C)[C@H](C)CC[C@@H]13
REMARK SMILES IDX 14 1 13 2 15 3 16 4 17 5 7 6 8 7 9 8 4 9 6 10 3 11 2 12 1 13
REMARK SMILES IDX 10 14 11 15 12 16 5 17
REMARK H PARENT 5 18
REMARK Flexibility Score: inf
ROOT
ATOM      1  C   UNL     1     -11.114  -7.167  -3.751  1.00  0.00     0.011 C 
ATOM      2  C   UNL     1      -9.766  -7.879  -3.527  1.00  0.00     0.019 C 
ATOM      3  C   UNL     1      -9.522  -8.102  -2.031  1.00  0.00     0.007 C 
ATOM      4  C   UNL     1      -8.689  -6.918  -1.533  1.00  0.00     0.011 C 
ATOM      5  C   UNL     1      -8.237  -6.127  -2.771  1.00  0.00     0.047 C 
ATOM      6  C   UNL     1      -8.550  -7.050  -3.976  1.00  0.00     0.081 C 
ATOM      7  C   UNL     1      -8.717  -6.299  -5.294  1.00  0.00     0.046 C 
ATOM      8  C   UNL     1      -7.274  -6.064  -5.729  1.00  0.00     0.054 C 
ATOM      9  C   UNL     1      -6.495  -7.067  -4.813  1.00  0.00     0.173 C 
ATOM     10  O   UNL     1      -7.454  -7.901  -4.197  1.00  0.00    -0.342 OA
ATOM     11  C   UNL     1      -5.760  -6.307  -3.686  1.00  0.00     0.096 C 
ATOM     12  C   UNL     1      -6.762  -5.731  -2.700  1.00  0.00    -0.066 C 
ATOM     13  C   UNL     1      -6.345  -4.867  -1.766  1.00  0.00     0.008 C 
ENDROOT
BRANCH   8  14
ATOM     14  C   UNL     1      -7.042  -6.216  -7.267  1.00  0.00    -0.009 C 
ATOM     15  C   UNL     1      -8.334  -5.969  -8.071  1.00  0.00     0.008 C 
ATOM     16  C   UNL     1      -5.977  -5.217  -7.762  1.00  0.00     0.008 C 
ENDBRANCH   8  14
BRANCH   9  17
ATOM     17  O   UNL     1      -5.589  -7.858  -5.540  1.00  0.00    -0.365 OA
ATOM     18  H   UNL     1      -4.955  -8.259  -4.891  1.00  0.00     0.214 HD
ENDBRANCH   9  17
TORSDOF 2
ENDMDL
MODEL 3
REMARK VINA RESULT:    -6.030      1.358      4.778
REMARK INTER + INTRA:          -6.775
REMARK INTER:                  -6.556
REMARK INTRA:                  -0.219
REMARK UNBOUND:                -0.217
REMARK SMILES C=C1C[C@@]2(O)O[C@@]3(C[C@@H]2C(C)C)[C@H](C)CC[C@@H]13
REMARK SMILES IDX 14 1 13 2 15 3 16 4 17 5 7 6 8 7 9 8 4 9 6 10 3 11 2 12 1 13
REMARK SMILES IDX 10 14 11 15 12 16 5 17
REMARK H PARENT 5 18
REMARK Flexibility Score: inf
ROOT
ATOM      1  C   UNL     1     -10.884  -6.669  -6.374  1.00  0.00     0.011 C 
ATOM      2  C   UNL     1     -10.082  -5.398  -6.713  1.00  0.00     0.019 C 
ATOM      3  C   UNL     1     -10.159  -5.103  -8.214  1.00  0.00     0.007 C 
ATOM      4  C   UNL     1      -8.928  -5.744  -8.860  1.00  0.00     0.011 C 
ATOM      5  C   UNL     1      -8.004  -6.204  -7.720  1.00  0.00     0.047 C 
ATOM      6  C   UNL     1      -8.573  -5.532  -6.445  1.00  0.00     0.081 C 
ATOM      7  C   UNL     1      -8.197  -6.254  -5.153  1.00  0.00     0.046 C 
ATOM      8  C   UNL     1      -6.778  -5.757  -4.895  1.00  0.00     0.054 C 
ATOM      9  C   UNL     1      -6.695  -4.514  -5.844  1.00  0.00     0.173 C 
ATOM     10  O   UNL     1      -8.003  -4.255  -6.307  1.00  0.00    -0.342 OA
ATOM     11  C   UNL     1      -5.828  -4.839  -7.082  1.00  0.00     0.096 C 
ATOM     12  C   UNL     1      -6.542  -5.839  -7.975  1.00  0.00    -0.066 C 
ATOM     13  C   UNL     1      -5.878  -6.407  -8.991  1.00  0.00     0.008 C 
ENDROOT
BRANCH   8  14
ATOM     14  C   UNL     1      -6.463  -5.493  -3.388  1.00  0.00    -0.009 C 
ATOM     15  C   UNL     1      -7.577  -6.025  -2.464  1.00  0.00     0.008 C 
ATOM     16  C   UNL     1      -5.142  -6.175  -2.977  1.00  0.00     0.008 C 
ENDBRANCH   8  14
BRANCH   9  17
ATOM     17  O   UNL     1      -6.199  -3.376  -5.186  1.00  0.00    -0.365 OA
ATOM     18  H   UNL     1      -6.941  -2.998  -4.645  1.00  0.00     0.214 HD
ENDBRANCH   9  17
TORSDOF 2
ENDMDL
MODEL 4
REMARK VINA RESULT:    -5.965      2.182      2.749
REMARK INTER + INTRA:          -6.705
REMARK INTER:                  -6.474
REMARK INTRA:                  -0.231
REMARK UNBOUND:                -0.217
REMARK SMILES C=C1C[C@@]2(O)O[C@@]3(C[C@@H]2C(C)C)[C@H](C)CC[C@@H]13
REMARK SMILES IDX 14 1 13 2 15 3 16 4 17 5 7 6 8 7 9 8 4 9 6 10 3 11 2 12 1 13
REMARK SMILES IDX 10 14 11 15 12 16 5 17
REMARK H PARENT 5 18
REMARK Flexibility Score: inf
ROOT
ATOM      1  C   UNL     1      -6.725  -6.884  -2.728  1.00  0.00     0.011 C 
ATOM      2  C   UNL     1      -8.117  -6.247  -2.549  1.00  0.00     0.019 C 
ATOM      3  C   UNL     1      -8.874  -6.931  -1.407  1.00  0.00     0.007 C 
ATOM      4  C   UNL     1      -9.738  -8.027  -2.037  1.00  0.00     0.011 C 
ATOM      5  C   UNL     1      -9.680  -7.833  -3.560  1.00  0.00     0.047 C 
ATOM      6  C   UNL     1      -9.041  -6.436  -3.765  1.00  0.00     0.081 C 
ATOM      7  C   UNL     1      -8.378  -6.260  -5.128  1.00  0.00     0.046 C 
ATOM      8  C   UNL     1      -9.564  -5.954  -6.039  1.00  0.00     0.054 C 
ATOM      9  C   UNL     1     -10.680  -5.594  -5.001  1.00  0.00     0.173 C 
ATOM     10  O   UNL     1     -10.054  -5.462  -3.743  1.00  0.00    -0.342 OA
ATOM     11  C   UNL     1     -11.699  -6.751  -4.885  1.00  0.00     0.096 C 
ATOM     12  C   UNL     1     -11.056  -7.952  -4.214  1.00  0.00    -0.066 C 
ATOM     13  C   UNL     1     -11.704  -9.125  -4.202  1.00  0.00     0.008 C 
ENDROOT
BRANCH   8  14
ATOM     14  C   UNL     1      -9.265  -4.876  -7.128  1.00  0.00    -0.009 C 
ATOM     15  C   UNL     1      -7.899  -4.194  -6.906  1.00  0.00     0.008 C 
ATOM     16  C   UNL     1      -9.256  -5.506  -8.535  1.00  0.00     0.008 C 
ENDBRANCH   8  14
BRANCH   9  17
ATOM     17  O   UNL     1     -11.337  -4.395  -5.323  1.00  0.00    -0.365 OA
ATOM     18  H   UNL     1     -10.941  -3.678  -4.763  1.00  0.00     0.214 HD
ENDBRANCH   9  17
TORSDOF 2
ENDMDL
MODEL 5
REMARK VINA RESULT:    -5.958      5.842      8.732
REMARK INTER + INTRA:          -6.697
REMARK INTER:                  -6.582
REMARK INTRA:                  -0.115
REMARK UNBOUND:                -0.217
REMARK SMILES C=C1C[C@@]2(O)O[C@@]3(C[C@@H]2C(C)C)[C@H](C)CC[C@@H]13
REMARK SMILES IDX 14 1 13 2 15 3 16 4 17 5 7 6 8 7 9 8 4 9 6 10 3 11 2 12 1 13
REMARK SMILES IDX 10 14 11 15 12 16 5 17
REMARK H PARENT 5 18
REMARK Flexibility Score: inf
ROOT
ATOM      1  C   UNL     1     -17.612  -8.345  -6.716  1.00  0.00     0.011 C 
ATOM      2  C   UNL     1     -16.405  -7.628  -7.351  1.00  0.00     0.019 C 
ATOM      3  C   UNL     1     -15.566  -8.615  -8.168  1.00  0.00     0.007 C 
ATOM      4  C   UNL     1     -14.454  -9.125  -7.246  1.00  0.00     0.011 C 
ATOM      5  C   UNL     1     -14.487  -8.264  -5.974  1.00  0.00     0.047 C 
ATOM      6  C   UNL     1     -15.409  -7.068  -6.320  1.00  0.00     0.081 C 
ATOM      7  C   UNL     1     -16.035  -6.403  -5.097  1.00  0.00     0.046 C 
ATOM      8  C   UNL     1     -14.908  -5.508  -4.591  1.00  0.00     0.054 C 
ATOM      9  C   UNL     1     -13.945  -5.476  -5.826  1.00  0.00     0.173 C 
ATOM     10  O   UNL     1     -14.639  -6.052  -6.911  1.00  0.00    -0.342 OA
ATOM     11  C   UNL     1     -12.701  -6.354  -5.561  1.00  0.00     0.096 C 
ATOM     12  C   UNL     1     -13.091  -7.822  -5.535  1.00  0.00    -0.066 C 
ATOM     13  C   UNL     1     -12.201  -8.733  -5.119  1.00  0.00     0.008 C 
ENDROOT
BRANCH   8  14
ATOM     14  C   UNL     1     -15.390  -4.120  -4.060  1.00  0.00    -0.009 C 
ATOM     15  C   UNL     1     -16.498  -3.517  -4.946  1.00  0.00     0.008 C 
ATOM     16  C   UNL     1     -15.944  -4.245  -2.626  1.00  0.00     0.008 C 
ENDBRANCH   8  14
BRANCH   9  17
ATOM     17  O   UNL     1     -13.556  -4.168  -6.162  1.00  0.00    -0.365 OA
ATOM     18  H   UNL     1     -14.296  -3.762  -6.685  1.00  0.00     0.214 HD
ENDBRANCH   9  17
TORSDOF 2
ENDMDL
MODEL 6
REMARK VINA RESULT:    -5.642      1.469      4.349
REMARK INTER + INTRA:          -6.354
REMARK INTER:                  -6.147
REMARK INTRA:                  -0.207
REMARK UNBOUND:                -0.217
REMARK SMILES C=C1C[C@@]2(O)O[C@@]3(C[C@@H]2C(C)C)[C@H](C)CC[C@@H]13
REMARK SMILES IDX 14 1 13 2 15 3 16 4 17 5 7 6 8 7 9 8 4 9 6 10 3 11 2 12 1 13
REMARK SMILES IDX 10 14 11 15 12 16 5 17
REMARK H PARENT 5 18
REMARK Flexibility Score: inf
ROOT
ATOM      1  C   UNL     1      -5.528  -5.362  -8.031  1.00  0.00     0.011 C 
ATOM      2  C   UNL     1      -6.396  -6.529  -7.521  1.00  0.00     0.019 C 
ATOM      3  C   UNL     1      -7.494  -6.862  -8.536  1.00  0.00     0.007 C 
ATOM      4  C   UNL     1      -8.743  -6.083  -8.115  1.00  0.00     0.011 C 
ATOM      5  C   UNL     1      -8.461  -5.488  -6.726  1.00  0.00     0.047 C 
ATOM      6  C   UNL     1      -7.175  -6.200  -6.236  1.00  0.00     0.081 C 
ATOM      7  C   UNL     1      -6.402  -5.410  -5.182  1.00  0.00     0.046 C 
ATOM      8  C   UNL     1      -7.174  -5.719  -3.903  1.00  0.00     0.054 C 
ATOM      9  C   UNL     1      -8.026  -6.960  -4.332  1.00  0.00     0.173 C 
ATOM     10  O   UNL     1      -7.533  -7.392  -5.583  1.00  0.00    -0.342 OA
ATOM     11  C   UNL     1      -9.502  -6.554  -4.539  1.00  0.00     0.096 C 
ATOM     12  C   UNL     1      -9.637  -5.670  -5.767  1.00  0.00    -0.066 C 
ATOM     13  C   UNL     1     -10.797  -5.044  -6.004  1.00  0.00     0.008 C 
ENDROOT
BRANCH   8  14
ATOM     14  C   UNL     1      -6.266  -5.910  -2.646  1.00  0.00    -0.009 C 
ATOM     15  C   UNL     1      -4.886  -6.492  -3.015  1.00  0.00     0.008 C 
ATOM     16  C   UNL     1      -6.036  -4.566  -1.926  1.00  0.00     0.008 C 
ENDBRANCH   8  14
BRANCH   9  17
ATOM     17  O   UNL     1      -7.934  -8.014  -3.406  1.00  0.00    -0.365 OA
ATOM     18  H   UNL     1      -8.807  -8.078  -2.940  1.00  0.00     0.214 HD
ENDBRANCH   9  17
TORSDOF 2
ENDMDL
MODEL 7
REMARK VINA RESULT:    -5.632      1.569      3.315
REMARK INTER + INTRA:          -6.343
REMARK INTER:                  -7.014
REMARK INTRA:                   0.672
REMARK UNBOUND:                -0.217
REMARK SMILES C=C1C[C@@]2(O)O[C@@]3(C[C@@H]2C(C)C)[C@H](C)CC[C@@H]13
REMARK SMILES IDX 14 1 13 2 15 3 16 4 17 5 7 6 8 7 9 8 4 9 6 10 3 11 2 12 1 13
REMARK SMILES IDX 10 14 11 15 12 16 5 17
REMARK H PARENT 5 18
REMARK Flexibility Score: inf
ROOT
ATOM      1  C   UNL     1     -11.255  -6.749  -4.177  1.00  0.00     0.011 C 
ATOM      2  C   UNL     1      -9.954  -7.565  -4.052  1.00  0.00     0.019 C 
ATOM      3  C   UNL     1      -9.745  -8.021  -2.605  1.00  0.00     0.007 C 
ATOM      4  C   UNL     1      -8.854  -6.974  -1.931  1.00  0.00     0.011 C 
ATOM      5  C   UNL     1      -8.338  -6.037  -3.034  1.00  0.00     0.047 C 
ATOM      6  C   UNL     1      -8.685  -6.752  -4.365  1.00  0.00     0.081 C 
ATOM      7  C   UNL     1      -8.789  -5.806  -5.558  1.00  0.00     0.046 C 
ATOM      8  C   UNL     1      -7.328  -5.595  -5.944  1.00  0.00     0.054 C 
ATOM      9  C   UNL     1      -6.622  -6.767  -5.182  1.00  0.00     0.173 C 
ATOM     10  O   UNL     1      -7.637  -7.624  -4.703  1.00  0.00    -0.342 OA
ATOM     11  C   UNL     1      -5.862  -6.227  -3.950  1.00  0.00     0.096 C 
ATOM     12  C   UNL     1      -6.844  -5.744  -2.897  1.00  0.00    -0.066 C 
ATOM     13  C   UNL     1      -6.392  -5.054  -1.841  1.00  0.00     0.008 C 
ENDROOT
BRANCH   8  14
ATOM     14  C   UNL     1      -7.082  -5.532  -7.486  1.00  0.00    -0.009 C 
ATOM     15  C   UNL     1      -5.591  -5.331  -7.824  1.00  0.00     0.008 C 
ATOM     16  C   UNL     1      -7.552  -6.832  -8.169  1.00  0.00     0.008 C 
ENDBRANCH   8  14
BRANCH   9  17
ATOM     17  O   UNL     1      -5.753  -7.494  -6.013  1.00  0.00    -0.365 OA
ATOM     18  H   UNL     1      -6.225  -7.655  -6.871  1.00  0.00     0.214 HD
ENDBRANCH   9  17
TORSDOF 2
ENDMDL
MODEL 8
REMARK VINA RESULT:    -5.526      1.848      4.730
REMARK INTER + INTRA:          -6.227
REMARK INTER:                  -6.076
REMARK INTRA:                  -0.151
REMARK UNBOUND:                -0.217
REMARK SMILES C=C1C[C@@]2(O)O[C@@]3(C[C@@H]2C(C)C)[C@H](C)CC[C@@H]13
REMARK SMILES IDX 14 1 13 2 15 3 16 4 17 5 7 6 8 7 9 8 4 9 6 10 3 11 2 12 1 13
REMARK SMILES IDX 10 14 11 15 12 16 5 17
REMARK H PARENT 5 18
REMARK Flexibility Score: inf
ROOT
ATOM      1  C   UNL     1      -8.614  -5.781  -9.078  1.00  0.00     0.011 C 
ATOM      2  C   UNL     1      -8.528  -5.000  -7.752  1.00  0.00     0.019 C 
ATOM      3  C   UNL     1      -7.069  -4.684  -7.411  1.00  0.00     0.007 C 
ATOM      4  C   UNL     1      -6.573  -5.803  -6.490  1.00  0.00     0.011 C 
ATOM      5  C   UNL     1      -7.798  -6.641  -6.092  1.00  0.00     0.047 C 
ATOM      6  C   UNL     1      -9.023  -5.800  -6.534  1.00  0.00     0.081 C 
ATOM      7  C   UNL     1     -10.284  -6.629  -6.761  1.00  0.00     0.046 C 
ATOM      8  C   UNL     1     -10.813  -6.825  -5.343  1.00  0.00     0.054 C 
ATOM      9  C   UNL     1     -10.011  -5.740  -4.548  1.00  0.00     0.173 C 
ATOM     10  O   UNL     1      -9.369  -4.917  -5.498  1.00  0.00    -0.342 OA
ATOM     11  C   UNL     1      -8.904  -6.405  -3.698  1.00  0.00     0.096 C 
ATOM     12  C   UNL     1      -7.818  -6.968  -4.599  1.00  0.00    -0.066 C 
ATOM     13  C   UNL     1      -6.873  -7.761  -4.075  1.00  0.00     0.008 C 
ENDROOT
BRANCH   8  14
ATOM     14  C   UNL     1     -12.369  -6.748  -5.230  1.00  0.00    -0.009 C 
ATOM     15  C   UNL     1     -12.962  -5.674  -6.165  1.00  0.00     0.008 C 
ATOM     16  C   UNL     1     -13.013  -8.101  -5.595  1.00  0.00     0.008 C 
ENDBRANCH   8  14
BRANCH   9  17
ATOM     17  O   UNL     1     -10.844  -4.953  -3.735  1.00  0.00    -0.365 OA
ATOM     18  H   UNL     1     -11.082  -5.495  -2.939  1.00  0.00     0.214 HD
ENDBRANCH   9  17
TORSDOF 2
ENDMDL
MODEL 9
REMARK VINA RESULT:    -5.374      2.128      4.289
REMARK INTER + INTRA:          -6.062
REMARK INTER:                  -6.000
REMARK INTRA:                  -0.062
REMARK UNBOUND:                -0.217
REMARK SMILES C=C1C[C@@]2(O)O[C@@]3(C[C@@H]2C(C)C)[C@H](C)CC[C@@H]13
REMARK SMILES IDX 14 1 13 2 15 3 16 4 17 5 7 6 8 7 9 8 4 9 6 10 3 11 2 12 1 13
REMARK SMILES IDX 10 14 11 15 12 16 5 17
REMARK H PARENT 5 18
REMARK Flexibility Score: inf
ROOT
ATOM      1  C   UNL     1      -8.619  -7.248  -2.008  1.00  0.00     0.011 C 
ATOM      2  C   UNL     1      -8.467  -7.671  -3.482  1.00  0.00     0.019 C 
ATOM      3  C   UNL     1      -6.991  -7.894  -3.826  1.00  0.00     0.007 C 
ATOM      4  C   UNL     1      -6.466  -6.580  -4.413  1.00  0.00     0.011 C 
ATOM      5  C   UNL     1      -7.680  -5.667  -4.643  1.00  0.00     0.047 C 
ATOM      6  C   UNL     1      -8.915  -6.589  -4.481  1.00  0.00     0.081 C 
ATOM      7  C   UNL     1     -10.193  -5.841  -4.111  1.00  0.00     0.046 C 
ATOM      8  C   UNL     1     -10.661  -5.294  -5.456  1.00  0.00     0.054 C 
ATOM      9  C   UNL     1      -9.814  -6.146  -6.461  1.00  0.00     0.173 C 
ATOM     10  O   UNL     1      -9.207  -7.184  -5.721  1.00  0.00    -0.342 OA
ATOM     11  C   UNL     1      -8.677  -5.292  -7.066  1.00  0.00     0.096 C 
ATOM     12  C   UNL     1      -7.637  -4.975  -6.005  1.00  0.00    -0.066 C 
ATOM     13  C   UNL     1      -6.678  -4.078  -6.269  1.00  0.00     0.008 C 
ENDROOT
BRANCH   8  14
ATOM     14  C   UNL     1     -12.210  -5.337  -5.655  1.00  0.00    -0.009 C 
ATOM     15  C   UNL     1     -12.812  -6.683  -5.200  1.00  0.00     0.008 C 
ATOM     16  C   UNL     1     -12.896  -4.215  -4.850  1.00  0.00     0.008 C 
ENDBRANCH   8  14
BRANCH   9  17
ATOM     17  O   UNL     1     -10.603  -6.702  -7.482  1.00  0.00    -0.365 OA
ATOM     18  H   UNL     1      -9.987  -7.065  -8.171  1.00  0.00     0.214 HD
ENDBRANCH   9  17
TORSDOF 2
ENDMDL
