MODEL 1
REMARK VINA RESULT:    -5.649      0.000      0.000
REMARK INTER + INTRA:          -6.179
REMARK INTER:                  -5.979
REMARK INTRA:                  -0.200
REMARK UNBOUND:                -0.200
REMARK SMILES C=C(C)[C@@H]1CC[C@H](C)[C@@]12CC=C(C)CC2
REMARK SMILES IDX 8 1 7 2 6 3 5 4 4 5 9 6 15 7 14 8 12 9 11 10 10 11 13 12
REMARK SMILES IDX 2 13 1 14 3 15
REMARK H PARENT
REMARK Flexibility Score: inf
ROOT
ATOM      1  C   UNL     1     143.443 143.043 165.203  1.00  0.00     0.008 C 
ATOM      2  C   UNL     1     143.664 144.107 164.116  1.00  0.00    -0.007 C 
ATOM      3  C   UNL     1     143.618 143.502 162.724  1.00  0.00     0.004 C 
ATOM      4  C   UNL     1     143.524 144.695 161.796  1.00  0.00     0.009 C 
ATOM      5  C   UNL     1     142.753 145.783 162.570  1.00  0.00     0.021 C 
ATOM      6  C   UNL     1     142.678 145.320 164.080  1.00  0.00    -0.017 C 
ATOM      7  C   UNL     1     141.251 144.932 164.592  1.00  0.00     0.012 C 
ATOM      8  C   UNL     1     140.275 146.118 164.755  1.00  0.00     0.031 C 
ATOM      9  C   UNL     1     140.933 147.456 165.029  1.00  0.00    -0.077 C 
ATOM     10  C   UNL     1     142.270 147.598 165.102  1.00  0.00    -0.027 C 
ATOM     11  C   UNL     1     143.206 146.426 165.029  1.00  0.00     0.035 C 
ATOM     12  C   UNL     1     140.062 148.675 165.161  1.00  0.00     0.039 C 
ENDROOT
BRANCH   5  13
ATOM     13  C   UNL     1     141.438 146.151 161.877  1.00  0.00    -0.077 C 
ATOM     14  C   UNL     1     140.546 145.216 161.504  1.00  0.00     0.008 C 
ATOM     15  C   UNL     1     141.151 147.591 161.532  1.00  0.00     0.039 C 
ENDBRANCH   5  13
TORSDOF 1
ENDMDL
MODEL 2
REMARK VINA RESULT:    -5.630      4.217      5.505
REMARK INTER + INTRA:          -6.159
REMARK INTER:                  -5.958
REMARK INTRA:                  -0.200
REMARK UNBOUND:                -0.200
REMARK SMILES C=C(C)[C@@H]1CC[C@H](C)[C@@]12CC=C(C)CC2
REMARK SMILES IDX 8 1 7 2 6 3 5 4 4 5 9 6 15 7 14 8 12 9 11 10 10 11 13 12
REMARK SMILES IDX 2 13 1 14 3 15
REMARK H PARENT
REMARK Flexibility Score: inf
ROOT
ATOM      1  C   UNL     1     147.711 143.412 165.115  1.00  0.00     0.008 C 
ATOM      2  C   UNL     1     146.643 143.635 164.032  1.00  0.00    -0.007 C 
ATOM      3  C   UNL     1     147.239 143.570 162.637  1.00  0.00     0.004 C 
ATOM      4  C   UNL     1     146.040 143.481 161.716  1.00  0.00     0.009 C 
ATOM      5  C   UNL     1     144.948 142.729 162.503  1.00  0.00     0.021 C 
ATOM      6  C   UNL     1     145.420 142.662 164.012  1.00  0.00    -0.017 C 
ATOM      7  C   UNL     1     145.795 141.235 164.534  1.00  0.00     0.012 C 
ATOM      8  C   UNL     1     144.599 140.274 164.713  1.00  0.00     0.031 C 
ATOM      9  C   UNL     1     143.270 140.949 164.988  1.00  0.00    -0.077 C 
ATOM     10  C   UNL     1     143.143 142.288 165.050  1.00  0.00    -0.027 C 
ATOM     11  C   UNL     1     144.324 143.210 164.962  1.00  0.00     0.035 C 
ATOM     12  C   UNL     1     142.042 140.093 165.135  1.00  0.00     0.039 C 
ENDROOT
BRANCH   5  13
ATOM     13  C   UNL     1     144.562 141.412 161.825  1.00  0.00    -0.077 C 
ATOM     14  C   UNL     1     145.485 140.505 161.457  1.00  0.00     0.008 C 
ATOM     15  C   UNL     1     143.117 141.139 161.487  1.00  0.00     0.039 C 
ENDBRANCH   5  13
TORSDOF 1
ENDMDL
MODEL 3
REMARK VINA RESULT:    -5.621      3.304      5.159
REMARK INTER + INTRA:          -6.150
REMARK INTER:                  -5.934
REMARK INTRA:                  -0.216
REMARK UNBOUND:                -0.200
REMARK SMILES C=C(C)[C@@H]1CC[C@H](C)[C@@]12CC=C(C)CC2
REMARK SMILES IDX 8 1 7 2 6 3 5 4 4 5 9 6 15 7 14 8 12 9 11 10 10 11 13 12
REMARK SMILES IDX 2 13 1 14 3 15
REMARK H PARENT
REMARK Flexibility Score: inf
ROOT
ATOM      1  C   UNL     1     142.785 140.458 164.984  1.00  0.00     0.008 C 
ATOM      2  C   UNL     1     143.780 141.576 164.633  1.00  0.00    -0.007 C 
ATOM      3  C   UNL     1     145.218 141.121 164.812  1.00  0.00     0.004 C 
ATOM      4  C   UNL     1     146.042 142.193 164.131  1.00  0.00     0.009 C 
ATOM      5  C   UNL     1     145.174 142.735 162.977  1.00  0.00     0.021 C 
ATOM      6  C   UNL     1     143.707 142.184 163.195  1.00  0.00    -0.017 C 
ATOM      7  C   UNL     1     143.220 141.137 162.139  1.00  0.00     0.012 C 
ATOM      8  C   UNL     1     142.951 141.713 160.730  1.00  0.00     0.031 C 
ATOM      9  C   UNL     1     142.570 143.180 160.700  1.00  0.00    -0.077 C 
ATOM     10  C   UNL     1     142.495 143.926 161.818  1.00  0.00    -0.027 C 
ATOM     11  C   UNL     1     142.672 143.339 163.188  1.00  0.00     0.035 C 
ATOM     12  C   UNL     1     142.330 143.836 159.368  1.00  0.00     0.039 C 
ENDROOT
BRANCH   5  13
ATOM     13  C   UNL     1     145.824 142.491 161.612  1.00  0.00    -0.077 C 
ATOM     14  C   UNL     1     146.300 141.285 161.257  1.00  0.00     0.008 C 
ATOM     15  C   UNL     1     146.008 143.643 160.655  1.00  0.00     0.039 C 
ENDBRANCH   5  13
TORSDOF 1
ENDMDL
MODEL 4
REMARK VINA RESULT:    -5.596      1.661      3.788
REMARK INTER + INTRA:          -6.124
REMARK INTER:                  -5.908
REMARK INTRA:                  -0.215
REMARK UNBOUND:                -0.200
REMARK SMILES C=C(C)[C@@H]1CC[C@H](C)[C@@]12CC=C(C)CC2
REMARK SMILES IDX 8 1 7 2 6 3 5 4 4 5 9 6 15 7 14 8 12 9 11 10 10 11 13 12
REMARK SMILES IDX 2 13 1 14 3 15
REMARK H PARENT
REMARK Flexibility Score: inf
ROOT
ATOM      1  C   UNL     1     140.459 147.925 165.020  1.00  0.00     0.008 C 
ATOM      2  C   UNL     1     141.609 146.961 164.684  1.00  0.00    -0.007 C 
ATOM      3  C   UNL     1     141.187 145.511 164.840  1.00  0.00     0.004 C 
ATOM      4  C   UNL     1     142.294 144.721 164.174  1.00  0.00     0.009 C 
ATOM      5  C   UNL     1     142.837 145.613 163.040  1.00  0.00     0.021 C 
ATOM      6  C   UNL     1     142.245 147.063 163.260  1.00  0.00    -0.017 C 
ATOM      7  C   UNL     1     141.209 147.534 162.186  1.00  0.00     0.012 C 
ATOM      8  C   UNL     1     141.806 147.831 160.793  1.00  0.00     0.031 C 
ATOM      9  C   UNL     1     143.264 148.249 160.797  1.00  0.00    -0.077 C 
ATOM     10  C   UNL     1     143.984 148.333 161.931  1.00  0.00    -0.027 C 
ATOM     11  C   UNL     1     143.373 148.127 163.286  1.00  0.00     0.035 C 
ATOM     12  C   UNL     1     143.941 148.518 159.481  1.00  0.00     0.039 C 
ENDROOT
BRANCH   5  13
ATOM     13  C   UNL     1     142.639 144.971 161.665  1.00  0.00    -0.077 C 
ATOM     14  C   UNL     1     141.456 144.457 161.284  1.00  0.00     0.008 C 
ATOM     15  C   UNL     1     143.812 144.836 160.725  1.00  0.00     0.039 C 
ENDBRANCH   5  13
TORSDOF 1
ENDMDL
MODEL 5
REMARK VINA RESULT:    -5.583      5.922      7.524
REMARK INTER + INTRA:          -6.109
REMARK INTER:                  -5.899
REMARK INTRA:                  -0.210
REMARK UNBOUND:                -0.200
REMARK SMILES C=C(C)[C@@H]1CC[C@H](C)[C@@]12CC=C(C)CC2
REMARK SMILES IDX 8 1 7 2 6 3 5 4 4 5 9 6 15 7 14 8 12 9 11 10 10 11 13 12
REMARK SMILES IDX 2 13 1 14 3 15
REMARK H PARENT
REMARK Flexibility Score: inf
ROOT
ATOM      1  C   UNL     1     150.312 142.781 164.976  1.00  0.00     0.008 C 
ATOM      2  C   UNL     1     149.173 143.763 164.654  1.00  0.00    -0.007 C 
ATOM      3  C   UNL     1     149.627 145.206 164.785  1.00  0.00     0.004 C 
ATOM      4  C   UNL     1     148.522 146.011 164.134  1.00  0.00     0.009 C 
ATOM      5  C   UNL     1     147.936 145.117 163.022  1.00  0.00     0.021 C 
ATOM      6  C   UNL     1     148.505 143.658 163.245  1.00  0.00    -0.017 C 
ATOM      7  C   UNL     1     149.508 143.155 162.155  1.00  0.00     0.012 C 
ATOM      8  C   UNL     1     148.874 142.855 160.778  1.00  0.00     0.031 C 
ATOM      9  C   UNL     1     147.409 142.466 160.819  1.00  0.00    -0.077 C 
ATOM     10  C   UNL     1     146.712 142.409 161.969  1.00  0.00    -0.027 C 
ATOM     11  C   UNL     1     147.357 142.617 163.309  1.00  0.00     0.035 C 
ATOM     12  C   UNL     1     146.698 142.195 159.522  1.00  0.00     0.039 C 
ENDROOT
BRANCH   5  13
ATOM     13  C   UNL     1     148.117 145.740 161.635  1.00  0.00    -0.077 C 
ATOM     14  C   UNL     1     149.306 146.208 161.216  1.00  0.00     0.008 C 
ATOM     15  C   UNL     1     146.922 145.909 160.729  1.00  0.00     0.039 C 
ENDBRANCH   5  13
TORSDOF 1
ENDMDL
MODEL 6
REMARK VINA RESULT:    -5.578      4.873      6.821
REMARK INTER + INTRA:          -6.104
REMARK INTER:                  -5.885
REMARK INTRA:                  -0.219
REMARK UNBOUND:                -0.200
REMARK SMILES C=C(C)[C@@H]1CC[C@H](C)[C@@]12CC=C(C)CC2
REMARK SMILES IDX 8 1 7 2 6 3 5 4 4 5 9 6 15 7 14 8 12 9 11 10 10 11 13 12
REMARK SMILES IDX 2 13 1 14 3 15
REMARK H PARENT
REMARK Flexibility Score: inf
ROOT
ATOM      1  C   UNL     1     147.967 150.366 165.009  1.00  0.00     0.008 C 
ATOM      2  C   UNL     1     146.975 149.246 164.652  1.00  0.00    -0.007 C 
ATOM      3  C   UNL     1     145.536 149.713 164.782  1.00  0.00     0.004 C 
ATOM      4  C   UNL     1     144.725 148.632 164.098  1.00  0.00     0.009 C 
ATOM      5  C   UNL     1     145.622 148.064 162.979  1.00  0.00     0.021 C 
ATOM      6  C   UNL     1     147.085 148.611 163.228  1.00  0.00    -0.017 C 
ATOM      7  C   UNL     1     147.607 149.634 162.166  1.00  0.00     0.012 C 
ATOM      8  C   UNL     1     147.912 149.030 160.777  1.00  0.00     0.031 C 
ATOM      9  C   UNL     1     148.285 147.560 160.786  1.00  0.00    -0.077 C 
ATOM     10  C   UNL     1     148.325 146.836 161.919  1.00  0.00    -0.027 C 
ATOM     11  C   UNL     1     148.113 147.451 163.272  1.00  0.00     0.035 C 
ATOM     12  C   UNL     1     148.558 146.878 159.474  1.00  0.00     0.039 C 
ENDROOT
BRANCH   5  13
ATOM     13  C   UNL     1     145.012 148.284 161.593  1.00  0.00    -0.077 C 
ATOM     14  C   UNL     1     144.521 149.478 161.214  1.00  0.00     0.008 C 
ATOM     15  C   UNL     1     144.883 147.123 160.638  1.00  0.00     0.039 C 
ENDBRANCH   5  13
TORSDOF 1
ENDMDL
MODEL 7
REMARK VINA RESULT:    -5.576      2.918      5.026
REMARK INTER + INTRA:          -6.102
REMARK INTER:                  -5.886
REMARK INTRA:                  -0.216
REMARK UNBOUND:                -0.200
REMARK SMILES C=C(C)[C@@H]1CC[C@H](C)[C@@]12CC=C(C)CC2
REMARK SMILES IDX 8 1 7 2 6 3 5 4 4 5 9 6 15 7 14 8 12 9 11 10 10 11 13 12
REMARK SMILES IDX 2 13 1 14 3 15
REMARK H PARENT
REMARK Flexibility Score: inf
ROOT
ATOM      1  C   UNL     1     142.700 141.808 160.479  1.00  0.00     0.008 C 
ATOM      2  C   UNL     1     143.417 141.400 161.777  1.00  0.00    -0.007 C 
ATOM      3  C   UNL     1     144.590 140.477 161.500  1.00  0.00     0.004 C 
ATOM      4  C   UNL     1     145.359 140.441 162.804  1.00  0.00     0.009 C 
ATOM      5  C   UNL     1     145.150 141.818 163.465  1.00  0.00     0.021 C 
ATOM      6  C   UNL     1     143.985 142.544 162.678  1.00  0.00    -0.017 C 
ATOM      7  C   UNL     1     144.419 143.792 161.840  1.00  0.00     0.012 C 
ATOM      8  C   UNL     1     144.821 145.028 162.676  1.00  0.00     0.031 C 
ATOM      9  C   UNL     1     144.172 145.115 164.043  1.00  0.00    -0.077 C 
ATOM     10  C   UNL     1     143.325 144.173 164.498  1.00  0.00    -0.027 C 
ATOM     11  C   UNL     1     142.873 143.023 163.646  1.00  0.00     0.035 C 
ATOM     12  C   UNL     1     144.536 146.264 164.942  1.00  0.00     0.039 C 
ENDROOT
BRANCH   5  13
ATOM     13  C   UNL     1     146.469 142.577 163.631  1.00  0.00    -0.077 C 
ATOM     14  C   UNL     1     147.343 142.714 162.618  1.00  0.00     0.008 C 
ATOM     15  C   UNL     1     146.849 143.131 164.982  1.00  0.00     0.039 C 
ENDBRANCH   5  13
TORSDOF 1
ENDMDL
MODEL 8
REMARK VINA RESULT:    -5.570      1.624      4.224
REMARK INTER + INTRA:          -6.096
REMARK INTER:                  -5.881
REMARK INTRA:                  -0.215
REMARK UNBOUND:                -0.200
REMARK SMILES C=C(C)[C@@H]1CC[C@H](C)[C@@]12CC=C(C)CC2
REMARK SMILES IDX 8 1 7 2 6 3 5 4 4 5 9 6 15 7 14 8 12 9 11 10 10 11 13 12
REMARK SMILES IDX 2 13 1 14 3 15
REMARK H PARENT
REMARK Flexibility Score: inf
ROOT
ATOM      1  C   UNL     1     141.798 148.071 160.445  1.00  0.00     0.008 C 
ATOM      2  C   UNL     1     141.390 147.342 161.736  1.00  0.00    -0.007 C 
ATOM      3  C   UNL     1     140.484 146.158 161.447  1.00  0.00     0.004 C 
ATOM      4  C   UNL     1     140.449 145.383 162.747  1.00  0.00     0.009 C 
ATOM      5  C   UNL     1     141.819 145.606 163.418  1.00  0.00     0.021 C 
ATOM      6  C   UNL     1     142.535 146.784 162.642  1.00  0.00    -0.017 C 
ATOM      7  C   UNL     1     143.795 146.370 161.811  1.00  0.00     0.012 C 
ATOM      8  C   UNL     1     145.029 145.980 162.654  1.00  0.00     0.031 C 
ATOM      9  C   UNL     1     145.098 146.623 164.025  1.00  0.00    -0.077 C 
ATOM     10  C   UNL     1     144.142 147.455 164.478  1.00  0.00    -0.027 C 
ATOM     11  C   UNL     1     142.992 147.898 163.620  1.00  0.00     0.035 C 
ATOM     12  C   UNL     1     146.245 146.269 164.931  1.00  0.00     0.039 C 
ENDROOT
BRANCH   5  13
ATOM     13  C   UNL     1     142.593 144.296 163.584  1.00  0.00    -0.077 C 
ATOM     14  C   UNL     1     142.750 143.430 162.566  1.00  0.00     0.008 C 
ATOM     15  C   UNL     1     143.140 143.915 164.937  1.00  0.00     0.039 C 
ENDBRANCH   5  13
TORSDOF 1
ENDMDL
MODEL 9
REMARK VINA RESULT:    -5.568      4.203      5.970
REMARK INTER + INTRA:          -6.093
REMARK INTER:                  -5.877
REMARK INTRA:                  -0.216
REMARK UNBOUND:                -0.200
REMARK SMILES C=C(C)[C@@H]1CC[C@H](C)[C@@]12CC=C(C)CC2
REMARK SMILES IDX 8 1 7 2 6 3 5 4 4 5 9 6 15 7 14 8 12 9 11 10 10 11 13 12
REMARK SMILES IDX 2 13 1 14 3 15
REMARK H PARENT
REMARK Flexibility Score: inf
ROOT
ATOM      1  C   UNL     1     148.101 148.943 160.460  1.00  0.00     0.008 C 
ATOM      2  C   UNL     1     147.358 149.361 161.740  1.00  0.00    -0.007 C 
ATOM      3  C   UNL     1     146.175 150.261 161.430  1.00  0.00     0.004 C 
ATOM      4  C   UNL     1     145.385 150.307 162.721  1.00  0.00     0.009 C 
ATOM      5  C   UNL     1     145.605 148.943 163.408  1.00  0.00     0.021 C 
ATOM      6  C   UNL     1     146.793 148.223 162.651  1.00  0.00    -0.017 C 
ATOM      7  C   UNL     1     146.392 146.955 161.828  1.00  0.00     0.012 C 
ATOM      8  C   UNL     1     145.996 145.727 162.678  1.00  0.00     0.031 C 
ATOM      9  C   UNL     1     146.625 145.672 164.056  1.00  0.00    -0.077 C 
ATOM     10  C   UNL     1     147.450 146.635 164.508  1.00  0.00    -0.027 C 
ATOM     11  C   UNL     1     147.898 147.779 163.644  1.00  0.00     0.035 C 
ATOM     12  C   UNL     1     146.264 144.533 164.969  1.00  0.00     0.039 C 
ENDROOT
BRANCH   5  13
ATOM     13  C   UNL     1     144.295 148.167 163.566  1.00  0.00    -0.077 C 
ATOM     14  C   UNL     1     143.430 148.017 162.548  1.00  0.00     0.008 C 
ATOM     15  C   UNL     1     143.914 147.610 164.916  1.00  0.00     0.039 C 
ENDBRANCH   5  13
TORSDOF 1
ENDMDL
