MODEL 1
REMARK VINA RESULT:    -5.379      0.000      0.000
REMARK INTER + INTRA:          -8.570
REMARK INTER:                  -7.894
REMARK INTRA:                  -0.676
REMARK UNBOUND:                -0.676
REMARK SMILES O=C([O-])CCCCCCCC(=O)[O-]
REMARK SMILES IDX 7 1 6 2 5 3 4 4 2 5 1 6 3 7 8 8 9 9 10 10 11 11 12 12 13 13
REMARK H PARENT
REMARK Flexibility Score: inf
ROOT
ATOM      1  C   UNL     1      10.675  36.969  23.940  1.00  0.00     0.000 C 
ENDROOT
BRANCH   1   2
ATOM      2  C   UNL     1      11.660  37.913  23.236  1.00  0.00     0.000 C 
BRANCH   2   3
ATOM      3  C   UNL     1      12.927  37.160  22.804  1.00  0.00     0.006 C 
BRANCH   3   4
ATOM      4  C   UNL     1      13.088  37.120  21.278  1.00  0.00     0.053 C 
BRANCH   4   5
ATOM      5  C   UNL     1      12.464  35.894  20.686  1.00  0.00     0.041 C 
ATOM      6  O   UNL     1      12.915  34.752  20.970  1.00  0.00    -0.550 OA
ATOM      7  O   UNL     1      11.406  36.013  19.794  1.00  0.00    -0.550 OA
ENDBRANCH   4   5
ENDBRANCH   3   4
ENDBRANCH   2   3
ENDBRANCH   1   2
BRANCH   1   8
ATOM      8  C   UNL     1       9.698  36.295  22.964  1.00  0.00     0.000 C 
BRANCH   8   9
ATOM      9  C   UNL     1       9.830  34.762  22.955  1.00  0.00     0.006 C 
BRANCH   9  10
ATOM     10  C   UNL     1      11.054  34.283  23.747  1.00  0.00     0.053 C 
BRANCH  10  11
ATOM     11  C   UNL     1      10.763  33.038  24.527  1.00  0.00     0.041 C 
ATOM     12  O   UNL     1      10.298  32.021  23.946  1.00  0.00    -0.550 OA
ATOM     13  O   UNL     1      10.974  33.009  25.899  1.00  0.00    -0.550 OA
ENDBRANCH  10  11
ENDBRANCH   9  10
ENDBRANCH   8   9
ENDBRANCH   1   8
TORSDOF 8
ENDMDL
MODEL 2
REMARK VINA RESULT:    -5.364      0.108      4.532
REMARK INTER + INTRA:          -8.549
REMARK INTER:                  -7.884
REMARK INTRA:                  -0.664
REMARK UNBOUND:                -0.676
REMARK SMILES O=C([O-])CCCCCCCC(=O)[O-]
REMARK SMILES IDX 7 1 6 2 5 3 4 4 2 5 1 6 3 7 8 8 9 9 10 10 11 11 12 12 13 13
REMARK H PARENT
REMARK Flexibility Score: inf
ROOT
ATOM      1  C   UNL     1      10.598  36.983  23.959  1.00  0.00     0.000 C 
ENDROOT
BRANCH   1   2
ATOM      2  C   UNL     1       9.702  36.279  22.930  1.00  0.00     0.000 C 
BRANCH   2   3
ATOM      3  C   UNL     1       9.921  34.758  22.963  1.00  0.00     0.006 C 
BRANCH   3   4
ATOM      4  C   UNL     1      11.078  34.358  23.888  1.00  0.00     0.053 C 
BRANCH   4   5
ATOM      5  C   UNL     1      10.790  33.080  24.614  1.00  0.00     0.041 C 
ATOM      6  O   UNL     1      10.988  32.996  25.855  1.00  0.00    -0.550 OA
ATOM      7  O   UNL     1      10.335  31.970  23.914  1.00  0.00    -0.550 OA
ENDBRANCH   4   5
ENDBRANCH   3   4
ENDBRANCH   2   3
ENDBRANCH   1   2
BRANCH   1   8
ATOM      8  C   UNL     1      11.615  37.934  23.308  1.00  0.00     0.000 C 
BRANCH   8   9
ATOM      9  C   UNL     1      12.920  37.223  22.909  1.00  0.00     0.006 C 
BRANCH   9  10
ATOM     10  C   UNL     1      13.120  37.193  21.388  1.00  0.00     0.053 C 
BRANCH  10  11
ATOM     11  C   UNL     1      12.531  35.961  20.771  1.00  0.00     0.041 C 
ATOM     12  O   UNL     1      12.986  34.825  21.067  1.00  0.00    -0.550 OA
ATOM     13  O   UNL     1      11.501  36.070  19.846  1.00  0.00    -0.550 OA
ENDBRANCH  10  11
ENDBRANCH   9  10
ENDBRANCH   8   9
ENDBRANCH   1   8
TORSDOF 8
ENDMDL
MODEL 3
REMARK VINA RESULT:    -5.167      1.930      2.658
REMARK INTER + INTRA:          -8.260
REMARK INTER:                  -7.499
REMARK INTRA:                  -0.761
REMARK UNBOUND:                -0.676
REMARK SMILES O=C([O-])CCCCCCCC(=O)[O-]
REMARK SMILES IDX 7 1 6 2 5 3 4 4 2 5 1 6 3 7 8 8 9 9 10 10 11 11 12 12 13 13
REMARK H PARENT
REMARK Flexibility Score: inf
ROOT
ATOM      1  C   UNL     1      10.060  35.186  22.485  1.00  0.00     0.000 C 
ENDROOT
BRANCH   1   2
ATOM      2  C   UNL     1       9.807  36.491  23.255  1.00  0.00     0.000 C 
BRANCH   2   3
ATOM      3  C   UNL     1      11.110  37.284  23.432  1.00  0.00     0.006 C 
BRANCH   3   4
ATOM      4  C   UNL     1      12.284  36.651  22.673  1.00  0.00     0.053 C 
BRANCH   4   5
ATOM      5  C   UNL     1      13.115  37.683  21.975  1.00  0.00     0.041 C 
ATOM      6  O   UNL     1      13.353  37.580  20.743  1.00  0.00    -0.550 OA
ATOM      7  O   UNL     1      13.655  38.743  22.693  1.00  0.00    -0.550 OA
ENDBRANCH   4   5
ENDBRANCH   3   4
ENDBRANCH   2   3
ENDBRANCH   1   2
BRANCH   1   8
ATOM      8  C   UNL     1       9.731  33.935  23.315  1.00  0.00     0.000 C 
BRANCH   8   9
ATOM      9  C   UNL     1      10.984  33.118  23.677  1.00  0.00     0.006 C 
BRANCH   9  10
ATOM     10  C   UNL     1      11.243  33.095  25.189  1.00  0.00     0.053 C 
BRANCH  10  11
ATOM     11  C   UNL     1      11.863  34.371  25.669  1.00  0.00     0.041 C 
ATOM     12  O   UNL     1      13.029  34.683  25.310  1.00  0.00    -0.550 OA
ATOM     13  O   UNL     1      11.166  35.202  26.537  1.00  0.00    -0.550 OA
ENDBRANCH  10  11
ENDBRANCH   9  10
ENDBRANCH   8   9
ENDBRANCH   1   8
TORSDOF 8
ENDMDL
MODEL 4
REMARK VINA RESULT:    -5.157      3.105      4.368
REMARK INTER + INTRA:          -8.244
REMARK INTER:                  -7.672
REMARK INTRA:                  -0.572
REMARK UNBOUND:                -0.676
REMARK SMILES O=C([O-])CCCCCCCC(=O)[O-]
REMARK SMILES IDX 7 1 6 2 5 3 4 4 2 5 1 6 3 7 8 8 9 9 10 10 11 11 12 12 13 13
REMARK H PARENT
REMARK Flexibility Score: inf
ROOT
ATOM      1  C   UNL     1      10.998  36.023  22.266  1.00  0.00     0.000 C 
ENDROOT
BRANCH   1   2
ATOM      2  C   UNL     1       9.704  36.331  23.033  1.00  0.00     0.000 C 
BRANCH   2   3
ATOM      3  C   UNL     1       9.924  37.466  24.045  1.00  0.00     0.006 C 
BRANCH   3   4
ATOM      4  C   UNL     1       8.699  38.383  24.165  1.00  0.00     0.053 C 
BRANCH   4   5
ATOM      5  C   UNL     1       8.695  39.136  25.460  1.00  0.00     0.041 C 
ATOM      6  O   UNL     1       9.109  40.324  25.505  1.00  0.00    -0.550 OA
ATOM      7  O   UNL     1       8.266  38.513  26.625  1.00  0.00    -0.550 OA
ENDBRANCH   4   5
ENDBRANCH   3   4
ENDBRANCH   2   3
ENDBRANCH   1   2
BRANCH   1   8
ATOM      8  C   UNL     1      12.254  36.162  23.141  1.00  0.00     0.000 C 
BRANCH   8   9
ATOM      9  C   UNL     1      12.748  34.810  23.686  1.00  0.00     0.006 C 
BRANCH   9  10
ATOM     10  C   UNL     1      12.293  34.567  25.131  1.00  0.00     0.053 C 
BRANCH  10  11
ATOM     11  C   UNL     1      11.254  33.492  25.216  1.00  0.00     0.041 C 
ATOM     12  O   UNL     1      10.863  32.904  24.173  1.00  0.00    -0.550 OA
ATOM     13  O   UNL     1      10.693  33.160  26.443  1.00  0.00    -0.550 OA
ENDBRANCH  10  11
ENDBRANCH   9  10
ENDBRANCH   8   9
ENDBRANCH   1   8
TORSDOF 8
ENDMDL
MODEL 5
REMARK VINA RESULT:    -5.131      3.089      4.908
REMARK INTER + INTRA:          -8.206
REMARK INTER:                  -7.807
REMARK INTRA:                  -0.400
REMARK UNBOUND:                -0.676
REMARK SMILES O=C([O-])CCCCCCCC(=O)[O-]
REMARK SMILES IDX 7 1 6 2 5 3 4 4 2 5 1 6 3 7 8 8 9 9 10 10 11 11 12 12 13 13
REMARK H PARENT
REMARK Flexibility Score: inf
ROOT
ATOM      1  C   UNL     1      11.577  37.030  23.004  1.00  0.00     0.000 C 
ENDROOT
BRANCH   1   2
ATOM      2  C   UNL     1      12.570  35.954  22.539  1.00  0.00     0.000 C 
BRANCH   2   3
ATOM      3  C   UNL     1      12.097  34.554  22.961  1.00  0.00     0.006 C 
BRANCH   3   4
ATOM      4  C   UNL     1      12.471  34.227  24.413  1.00  0.00     0.053 C 
BRANCH   4   5
ATOM      5  C   UNL     1      11.321  33.623  25.159  1.00  0.00     0.041 C 
ATOM      6  O   UNL     1      10.985  34.079  26.284  1.00  0.00    -0.550 OA
ATOM      7  O   UNL     1      10.643  32.533  24.628  1.00  0.00    -0.550 OA
ENDBRANCH   4   5
ENDBRANCH   3   4
ENDBRANCH   2   3
ENDBRANCH   1   2
BRANCH   1   8
ATOM      8  C   UNL     1      10.129  36.516  23.061  1.00  0.00     0.000 C 
BRANCH   8   9
ATOM      9  C   UNL     1       9.185  37.483  23.796  1.00  0.00     0.006 C 
BRANCH   9  10
ATOM     10  C   UNL     1       9.948  38.451  24.712  1.00  0.00     0.053 C 
BRANCH  10  11
ATOM     11  C   UNL     1       9.023  39.221  25.604  1.00  0.00     0.041 C 
ATOM     12  O   UNL     1       8.995  40.479  25.551  1.00  0.00    -0.550 OA
ATOM     13  O   UNL     1       8.215  38.553  26.514  1.00  0.00    -0.550 OA
ENDBRANCH  10  11
ENDBRANCH   9  10
ENDBRANCH   8   9
ENDBRANCH   1   8
TORSDOF 8
ENDMDL
MODEL 6
REMARK VINA RESULT:    -5.074      1.729      5.108
REMARK INTER + INTRA:          -8.123
REMARK INTER:                  -7.406
REMARK INTRA:                  -0.716
REMARK UNBOUND:                -0.676
REMARK SMILES O=C([O-])CCCCCCCC(=O)[O-]
REMARK SMILES IDX 7 1 6 2 5 3 4 4 2 5 1 6 3 7 8 8 9 9 10 10 11 11 12 12 13 13
REMARK H PARENT
REMARK Flexibility Score: inf
ROOT
ATOM      1  C   UNL     1      10.308  35.059  22.506  1.00  0.00     0.000 C 
ENDROOT
BRANCH   1   2
ATOM      2  C   UNL     1       9.417  33.891  22.956  1.00  0.00     0.000 C 
BRANCH   2   3
ATOM      3  C   UNL     1      10.261  32.763  23.569  1.00  0.00     0.006 C 
BRANCH   3   4
ATOM      4  C   UNL     1      11.516  33.294  24.276  1.00  0.00     0.053 C 
BRANCH   4   5
ATOM      5  C   UNL     1      11.233  33.674  25.696  1.00  0.00     0.041 C 
ATOM      6  O   UNL     1      10.817  32.811  26.514  1.00  0.00    -0.550 OA
ATOM      7  O   UNL     1      11.395  34.990  26.109  1.00  0.00    -0.550 OA
ENDBRANCH   4   5
ENDBRANCH   3   4
ENDBRANCH   2   3
ENDBRANCH   1   2
BRANCH   1   8
ATOM      8  C   UNL     1       9.834  36.413  23.057  1.00  0.00     0.000 C 
BRANCH   8   9
ATOM      9  C   UNL     1      11.000  37.307  23.516  1.00  0.00     0.006 C 
BRANCH   9  10
ATOM     10  C   UNL     1      12.363  36.749  23.082  1.00  0.00     0.053 C 
BRANCH  10  11
ATOM     11  C   UNL     1      13.095  37.699  22.184  1.00  0.00     0.041 C 
ATOM     12  O   UNL     1      13.238  37.432  20.961  1.00  0.00    -0.550 OA
ATOM     13  O   UNL     1      13.645  38.864  22.702  1.00  0.00    -0.550 OA
ENDBRANCH  10  11
ENDBRANCH   9  10
ENDBRANCH   8   9
ENDBRANCH   1   8
TORSDOF 8
ENDMDL
MODEL 7
REMARK VINA RESULT:    -5.060      2.662      3.638
REMARK INTER + INTRA:          -8.103
REMARK INTER:                  -7.630
REMARK INTRA:                  -0.473
REMARK UNBOUND:                -0.676
REMARK SMILES O=C([O-])CCCCCCCC(=O)[O-]
REMARK SMILES IDX 7 1 6 2 5 3 4 4 2 5 1 6 3 7 8 8 9 9 10 10 11 11 12 12 13 13
REMARK H PARENT
REMARK Flexibility Score: inf
ROOT
ATOM      1  C   UNL     1      12.743  36.885  21.582  1.00  0.00     0.000 C 
ENDROOT
BRANCH   1   2
ATOM      2  C   UNL     1      13.049  37.492  22.960  1.00  0.00     0.000 C 
BRANCH   2   3
ATOM      3  C   UNL     1      11.915  38.425  23.411  1.00  0.00     0.006 C 
BRANCH   3   4
ATOM      4  C   UNL     1      10.659  37.652  23.834  1.00  0.00     0.053 C 
BRANCH   4   5
ATOM      5  C   UNL     1       9.708  38.517  24.602  1.00  0.00     0.041 C 
ATOM      6  O   UNL     1      10.106  39.592  25.122  1.00  0.00    -0.550 OA
ATOM      7  O   UNL     1       8.388  38.119  24.772  1.00  0.00    -0.550 OA
ENDBRANCH   4   5
ENDBRANCH   3   4
ENDBRANCH   2   3
ENDBRANCH   1   2
BRANCH   1   8
ATOM      8  C   UNL     1      12.713  35.349  21.604  1.00  0.00     0.000 C 
BRANCH   8   9
ATOM      9  C   UNL     1      12.684  34.777  23.032  1.00  0.00     0.006 C 
BRANCH   9  10
ATOM     10  C   UNL     1      11.297  34.244  23.415  1.00  0.00     0.053 C 
BRANCH  10  11
ATOM     11  C   UNL     1      11.210  33.908  24.872  1.00  0.00     0.041 C 
ATOM     12  O   UNL     1      11.029  32.716  25.237  1.00  0.00    -0.550 OA
ATOM     13  O   UNL     1      11.298  34.913  25.826  1.00  0.00    -0.550 OA
ENDBRANCH  10  11
ENDBRANCH   9  10
ENDBRANCH   8   9
ENDBRANCH   1   8
TORSDOF 8
ENDMDL
MODEL 8
REMARK VINA RESULT:    -5.029      3.369      5.480
REMARK INTER + INTRA:          -8.057
REMARK INTER:                  -7.609
REMARK INTRA:                  -0.448
REMARK UNBOUND:                -0.676
REMARK SMILES O=C([O-])CCCCCCCC(=O)[O-]
REMARK SMILES IDX 7 1 6 2 5 3 4 4 2 5 1 6 3 7 8 8 9 9 10 10 11 11 12 12 13 13
REMARK H PARENT
REMARK Flexibility Score: inf
ROOT
ATOM      1  C   UNL     1      11.036  35.549  24.096  1.00  0.00     0.000 C 
ENDROOT
BRANCH   1   2
ATOM      2  C   UNL     1      10.115  36.555  23.388  1.00  0.00     0.000 C 
BRANCH   2   3
ATOM      3  C   UNL     1      10.106  37.902  24.125  1.00  0.00     0.006 C 
BRANCH   3   4
ATOM      4  C   UNL     1       8.683  38.397  24.416  1.00  0.00     0.053 C 
BRANCH   4   5
ATOM      5  C   UNL     1       8.629  39.233  25.657  1.00  0.00     0.041 C 
ATOM      6  O   UNL     1       8.141  38.762  26.719  1.00  0.00    -0.550 OA
ATOM      7  O   UNL     1       9.086  40.544  25.633  1.00  0.00    -0.550 OA
ENDBRANCH   4   5
ENDBRANCH   3   4
ENDBRANCH   2   3
ENDBRANCH   1   2
BRANCH   1   8
ATOM      8  C   UNL     1      11.661  34.533  23.127  1.00  0.00     0.000 C 
BRANCH   8   9
ATOM      9  C   UNL     1      12.976  35.037  22.508  1.00  0.00     0.006 C 
BRANCH   9  10
ATOM     10  C   UNL     1      12.755  35.707  21.145  1.00  0.00     0.053 C 
BRANCH  10  11
ATOM     11  C   UNL     1      13.104  37.164  21.175  1.00  0.00     0.041 C 
ATOM     12  O   UNL     1      13.315  37.787  20.101  1.00  0.00    -0.550 OA
ATOM     13  O   UNL     1      13.228  37.826  22.390  1.00  0.00    -0.550 OA
ENDBRANCH  10  11
ENDBRANCH   9  10
ENDBRANCH   8   9
ENDBRANCH   1   8
TORSDOF 8
ENDMDL
MODEL 9
REMARK VINA RESULT:    -4.695      2.137      4.502
REMARK INTER + INTRA:          -7.566
REMARK INTER:                  -6.947
REMARK INTRA:                  -0.619
REMARK UNBOUND:                -0.676
REMARK SMILES O=C([O-])CCCCCCCC(=O)[O-]
REMARK SMILES IDX 7 1 6 2 5 3 4 4 2 5 1 6 3 7 8 8 9 9 10 10 11 11 12 12 13 13
REMARK H PARENT
REMARK Flexibility Score: inf
ROOT
ATOM      1  C   UNL     1      12.511  36.319  21.304  1.00  0.00     0.000 C 
ENDROOT
BRANCH   1   2
ATOM      2  C   UNL     1      13.002  34.976  21.864  1.00  0.00     0.000 C 
BRANCH   2   3
ATOM      3  C   UNL     1      11.972  34.378  22.834  1.00  0.00     0.006 C 
BRANCH   3   4
ATOM      4  C   UNL     1      12.540  34.200  24.248  1.00  0.00     0.053 C 
BRANCH   4   5
ATOM      5  C   UNL     1      11.458  33.966  25.256  1.00  0.00     0.041 C 
ATOM      6  O   UNL     1      10.774  32.908  25.219  1.00  0.00    -0.550 OA
ATOM      7  O   UNL     1      11.180  34.931  26.216  1.00  0.00    -0.550 OA
ENDBRANCH   4   5
ENDBRANCH   3   4
ENDBRANCH   2   3
ENDBRANCH   1   2
BRANCH   1   8
ATOM      8  C   UNL     1      13.182  37.525  21.983  1.00  0.00     0.000 C 
BRANCH   8   9
ATOM      9  C   UNL     1      12.690  37.743  23.424  1.00  0.00     0.006 C 
BRANCH   9  10
ATOM     10  C   UNL     1      11.346  38.484  23.471  1.00  0.00     0.053 C 
BRANCH  10  11
ATOM     11  C   UNL     1      10.275  37.658  24.113  1.00  0.00     0.041 C 
ATOM     12  O   UNL     1       9.780  36.675  23.500  1.00  0.00    -0.550 OA
ATOM     13  O   UNL     1       9.799  37.991  25.374  1.00  0.00    -0.550 OA
ENDBRANCH  10  11
ENDBRANCH   9  10
ENDBRANCH   8   9
ENDBRANCH   1   8
TORSDOF 8
ENDMDL
