MODEL 1
REMARK VINA RESULT:    -6.842      0.000      0.000
REMARK INTER + INTRA:          -8.494
REMARK INTER:                  -8.242
REMARK INTRA:                  -0.251
REMARK UNBOUND:                -0.251
REMARK SMILES O=c1c(O)c(-c2ccc(O)c(O)c2)oc2cc(O)cc(O)c12
REMARK SMILES IDX 5 1 3 2 2 3 1 4 22 5 20 6 19 7 17 8 16 9 15 10 14 11 6 12
REMARK SMILES IDX 7 13 8 14 9 15 13 16 11 17 10 18 12 20 4 22 21 24 18 26
REMARK H PARENT 10 19 12 21 4 23 21 25 18 27
REMARK Flexibility Score: inf
ROOT
ATOM      1  C   UNL     1      -0.528   3.597  12.895  1.00  0.00     0.180 A 
ATOM      2  C   UNL     1       0.529   4.154  13.640  1.00  0.00     0.208 A 
ATOM      3  C   UNL     1       0.987   5.440  13.311  1.00  0.00     0.238 A 
ATOM      4  O   UNL     1       1.927   5.953  13.977  1.00  0.00    -0.285 OA
ATOM      5  C   UNL     1       0.396   6.137  12.236  1.00  0.00     0.111 A 
ATOM      6  C   UNL     1       0.800   7.434  11.838  1.00  0.00     0.134 A 
ATOM      7  C   UNL     1       0.168   8.056  10.752  1.00  0.00     0.093 A 
ATOM      8  C   UNL     1      -0.859   7.407  10.057  1.00  0.00     0.123 A 
ATOM      9  C   UNL     1      -1.261   6.129  10.447  1.00  0.00     0.094 A 
ATOM     10  C   UNL     1      -0.645   5.491  11.528  1.00  0.00     0.146 A 
ATOM     11  O   UNL     1      -1.051   4.277  11.879  1.00  0.00    -0.452 OA
ENDROOT
BRANCH   1  12
ATOM     12  C   UNL     1      -1.077   2.255  13.193  1.00  0.00     0.025 A 
ATOM     13  C   UNL     1      -1.874   2.072  14.334  1.00  0.00     0.016 A 
ATOM     14  C   UNL     1      -2.386   0.811  14.646  1.00  0.00     0.051 A 
ATOM     15  C   UNL     1      -2.098  -0.289  13.834  1.00  0.00     0.157 A 
ATOM     16  C   UNL     1      -0.771   1.143  12.389  1.00  0.00     0.062 A 
ATOM     17  C   UNL     1      -1.282  -0.126  12.701  1.00  0.00     0.158 A 
BRANCH  15  18
ATOM     18  O   UNL     1      -2.625  -1.537  14.169  1.00  0.00    -0.504 OA
ATOM     19  H   UNL     1      -3.243  -2.045  13.548  1.00  0.00     0.293 HD
ENDBRANCH  15  18
BRANCH  17  20
ATOM     20  O   UNL     1      -0.979  -1.222  11.895  1.00  0.00    -0.504 OA
ATOM     21  H   UNL     1      -0.267  -1.171  11.176  1.00  0.00     0.293 HD
ENDBRANCH  17  20
ENDBRANCH   1  12
BRANCH   2  22
ATOM     22  O   UNL     1       1.131   3.423  14.668  1.00  0.00    -0.502 OA
ATOM     23  H   UNL     1       1.587   2.534  14.506  1.00  0.00     0.293 HD
ENDBRANCH   2  22
BRANCH   6  24
ATOM     24  O   UNL     1       1.821   8.106  12.511  1.00  0.00    -0.507 OA
ATOM     25  H   UNL     1       2.173   7.783  13.404  1.00  0.00     0.293 HD
ENDBRANCH   6  24
BRANCH   8  26
ATOM     26  O   UNL     1      -1.486   8.025   8.978  1.00  0.00    -0.508 OA
ATOM     27  H   UNL     1      -1.388   9.019   8.805  1.00  0.00     0.293 HD
ENDBRANCH   8  26
TORSDOF 6
ENDMDL
MODEL 2
REMARK VINA RESULT:    -6.713      1.692      2.252
REMARK INTER + INTRA:          -8.338
REMARK INTER:                  -8.020
REMARK INTRA:                  -0.318
REMARK UNBOUND:                -0.251
REMARK SMILES O=c1c(O)c(-c2ccc(O)c(O)c2)oc2cc(O)cc(O)c12
REMARK SMILES IDX 5 1 3 2 2 3 1 4 22 5 20 6 19 7 17 8 16 9 15 10 14 11 6 12
REMARK SMILES IDX 7 13 8 14 9 15 13 16 11 17 10 18 12 20 4 22 21 24 18 26
REMARK H PARENT 10 19 12 21 4 23 21 25 18 27
REMARK Flexibility Score: inf
ROOT
ATOM      1  C   UNL     1      -1.545   3.558  12.077  1.00  0.00     0.180 A 
ATOM      2  C   UNL     1      -0.390   4.363  12.039  1.00  0.00     0.208 A 
ATOM      3  C   UNL     1      -0.445   5.598  11.372  1.00  0.00     0.238 A 
ATOM      4  O   UNL     1       0.580   6.332  11.340  1.00  0.00    -0.285 OA
ATOM      5  C   UNL     1      -1.642   5.997  10.742  1.00  0.00     0.111 A 
ATOM      6  C   UNL     1      -1.780   7.223  10.047  1.00  0.00     0.134 A 
ATOM      7  C   UNL     1      -3.002   7.543   9.438  1.00  0.00     0.093 A 
ATOM      8  C   UNL     1      -4.087   6.662   9.510  1.00  0.00     0.123 A 
ATOM      9  C   UNL     1      -3.956   5.453  10.195  1.00  0.00     0.094 A 
ATOM     10  C   UNL     1      -2.746   5.116  10.810  1.00  0.00     0.146 A 
ATOM     11  O   UNL     1      -2.651   3.961  11.458  1.00  0.00    -0.452 OA
ENDROOT
BRANCH   1  12
ATOM     12  C   UNL     1      -1.571   2.254  12.775  1.00  0.00     0.025 A 
ATOM     13  C   UNL     1      -1.817   2.214  14.157  1.00  0.00     0.016 A 
ATOM     14  C   UNL     1      -1.826   0.996  14.840  1.00  0.00     0.051 A 
ATOM     15  C   UNL     1      -1.573  -0.198  14.159  1.00  0.00     0.157 A 
ATOM     16  C   UNL     1      -1.295   1.053  12.095  1.00  0.00     0.062 A 
ATOM     17  C   UNL     1      -1.301  -0.171  12.780  1.00  0.00     0.158 A 
BRANCH  15  18
ATOM     18  O   UNL     1      -1.590  -1.400  14.867  1.00  0.00    -0.504 OA
ATOM     19  H   UNL     1      -1.056  -1.532  15.717  1.00  0.00     0.293 HD
ENDBRANCH  15  18
BRANCH  17  20
ATOM     20  O   UNL     1      -1.034  -1.357  12.098  1.00  0.00    -0.504 OA
ATOM     21  H   UNL     1      -0.213  -1.914  12.304  1.00  0.00     0.293 HD
ENDBRANCH  17  20
ENDBRANCH   1  12
BRANCH   2  22
ATOM     22  O   UNL     1       0.798   3.923  12.629  1.00  0.00    -0.502 OA
ATOM     23  H   UNL     1       1.548   3.507  12.092  1.00  0.00     0.293 HD
ENDBRANCH   2  22
BRANCH   6  24
ATOM     24  O   UNL     1      -0.716   8.122   9.958  1.00  0.00    -0.507 OA
ATOM     25  H   UNL     1       0.201   7.832   9.639  1.00  0.00     0.293 HD
ENDBRANCH   6  24
BRANCH   8  26
ATOM     26  O   UNL     1      -5.300   6.980   8.904  1.00  0.00    -0.508 OA
ATOM     27  H   UNL     1      -6.173   6.570   9.218  1.00  0.00     0.293 HD
ENDBRANCH   8  26
TORSDOF 6
ENDMDL
MODEL 3
REMARK VINA RESULT:    -6.641      1.192      2.968
REMARK INTER + INTRA:          -8.251
REMARK INTER:                  -7.976
REMARK INTRA:                  -0.276
REMARK UNBOUND:                -0.251
REMARK SMILES O=c1c(O)c(-c2ccc(O)c(O)c2)oc2cc(O)cc(O)c12
REMARK SMILES IDX 5 1 3 2 2 3 1 4 22 5 20 6 19 7 17 8 16 9 15 10 14 11 6 12
REMARK SMILES IDX 7 13 8 14 9 15 13 16 11 17 10 18 12 20 4 22 21 24 18 26
REMARK H PARENT 10 19 12 21 4 23 21 25 18 27
REMARK Flexibility Score: inf
ROOT
ATOM      1  C   UNL     1      -0.625   3.522  12.782  1.00  0.00     0.180 A 
ATOM      2  C   UNL     1      -1.112   4.278  11.698  1.00  0.00     0.208 A 
ATOM      3  C   UNL     1      -0.549   5.539  11.444  1.00  0.00     0.238 A 
ATOM      4  O   UNL     1      -0.969   6.220  10.469  1.00  0.00    -0.285 OA
ATOM      5  C   UNL     1       0.472   6.029  12.284  1.00  0.00     0.111 A 
ATOM      6  C   UNL     1       1.089   7.290  12.098  1.00  0.00     0.134 A 
ATOM      7  C   UNL     1       2.092   7.710  12.984  1.00  0.00     0.093 A 
ATOM      8  C   UNL     1       2.488   6.896  14.051  1.00  0.00     0.123 A 
ATOM      9  C   UNL     1       1.884   5.652  14.237  1.00  0.00     0.094 A 
ATOM     10  C   UNL     1       0.883   5.213  13.364  1.00  0.00     0.146 A 
ATOM     11  O   UNL     1       0.328   4.024  13.563  1.00  0.00    -0.452 OA
ENDROOT
BRANCH   1  12
ATOM     12  C   UNL     1      -1.154   2.178  13.104  1.00  0.00     0.025 A 
ATOM     13  C   UNL     1      -1.954   2.004  14.245  1.00  0.00     0.016 A 
ATOM     14  C   UNL     1      -2.447   0.741  14.578  1.00  0.00     0.051 A 
ATOM     15  C   UNL     1      -2.137  -0.370  13.789  1.00  0.00     0.157 A 
ATOM     16  C   UNL     1      -0.825   1.055  12.322  1.00  0.00     0.062 A 
ATOM     17  C   UNL     1      -1.318  -0.216  12.658  1.00  0.00     0.158 A 
BRANCH  15  18
ATOM     18  O   UNL     1      -2.645  -1.620  14.146  1.00  0.00    -0.504 OA
ATOM     19  H   UNL     1      -2.335  -2.474  13.700  1.00  0.00     0.293 HD
ENDBRANCH  15  18
BRANCH  17  20
ATOM     20  O   UNL     1      -0.993  -1.322  11.874  1.00  0.00    -0.504 OA
ATOM     21  H   UNL     1      -0.440  -1.230  11.030  1.00  0.00     0.293 HD
ENDBRANCH  17  20
ENDBRANCH   1  12
BRANCH   2  22
ATOM     22  O   UNL     1      -2.158   3.790  10.910  1.00  0.00    -0.502 OA
ATOM     23  H   UNL     1      -2.297   4.085   9.952  1.00  0.00     0.293 HD
ENDBRANCH   2  22
BRANCH   6  24
ATOM     24  O   UNL     1       0.714   8.125  11.045  1.00  0.00    -0.507 OA
ATOM     25  H   UNL     1       0.094   8.913  11.184  1.00  0.00     0.293 HD
ENDBRANCH   6  24
BRANCH   8  26
ATOM     26  O   UNL     1       3.484   7.314  14.931  1.00  0.00    -0.508 OA
ATOM     27  H   UNL     1       4.416   7.545  14.606  1.00  0.00     0.293 HD
ENDBRANCH   8  26
TORSDOF 6
ENDMDL
MODEL 4
REMARK VINA RESULT:    -6.278      1.903      6.792
REMARK INTER + INTRA:          -7.813
REMARK INTER:                  -7.530
REMARK INTRA:                  -0.283
REMARK UNBOUND:                -0.251
REMARK SMILES O=c1c(O)c(-c2ccc(O)c(O)c2)oc2cc(O)cc(O)c12
REMARK SMILES IDX 5 1 3 2 2 3 1 4 22 5 20 6 19 7 17 8 16 9 15 10 14 11 6 12
REMARK SMILES IDX 7 13 8 14 9 15 13 16 11 17 10 18 12 20 4 22 21 24 18 26
REMARK H PARENT 10 19 12 21 4 23 21 25 18 27
REMARK Flexibility Score: inf
ROOT
ATOM      1  C   UNL     1      -1.179   4.674  11.377  1.00  0.00     0.180 A 
ATOM      2  C   UNL     1      -1.235   5.181  12.690  1.00  0.00     0.208 A 
ATOM      3  C   UNL     1      -1.289   4.279  13.764  1.00  0.00     0.238 A 
ATOM      4  O   UNL     1      -1.328   4.721  14.945  1.00  0.00    -0.285 OA
ATOM      5  C   UNL     1      -1.304   2.891  13.510  1.00  0.00     0.111 A 
ATOM      6  C   UNL     1      -1.360   1.916  14.534  1.00  0.00     0.134 A 
ATOM      7  C   UNL     1      -1.382   0.555  14.198  1.00  0.00     0.093 A 
ATOM      8  C   UNL     1      -1.350   0.150  12.859  1.00  0.00     0.123 A 
ATOM      9  C   UNL     1      -1.294   1.108  11.845  1.00  0.00     0.094 A 
ATOM     10  C   UNL     1      -1.269   2.471  12.159  1.00  0.00     0.146 A 
ATOM     11  O   UNL     1      -1.212   3.360  11.175  1.00  0.00    -0.452 OA
ENDROOT
BRANCH   1  12
ATOM     12  C   UNL     1      -1.103   5.560  10.195  1.00  0.00     0.025 A 
ATOM     13  C   UNL     1       0.138   5.785   9.578  1.00  0.00     0.016 A 
ATOM     14  C   UNL     1       0.237   6.633   8.474  1.00  0.00     0.051 A 
ATOM     15  C   UNL     1      -0.897   7.284   7.978  1.00  0.00     0.157 A 
ATOM     16  C   UNL     1      -2.239   6.232   9.708  1.00  0.00     0.062 A 
ATOM     17  C   UNL     1      -2.142   7.088   8.600  1.00  0.00     0.158 A 
BRANCH  15  18
ATOM     18  O   UNL     1      -0.768   8.125   6.872  1.00  0.00    -0.504 OA
ATOM     19  H   UNL     1      -1.232   7.932   5.993  1.00  0.00     0.293 HD
ENDBRANCH  15  18
BRANCH  17  20
ATOM     20  O   UNL     1      -3.273   7.744   8.120  1.00  0.00    -0.504 OA
ATOM     21  H   UNL     1      -3.201   8.528   7.482  1.00  0.00     0.293 HD
ENDBRANCH  17  20
ENDBRANCH   1  12
BRANCH   2  22
ATOM     22  O   UNL     1      -1.268   6.560  12.913  1.00  0.00    -0.502 OA
ATOM     23  H   UNL     1      -1.822   6.976  13.652  1.00  0.00     0.293 HD
ENDBRANCH   2  22
BRANCH   6  24
ATOM     24  O   UNL     1      -1.394   2.288  15.879  1.00  0.00    -0.507 OA
ATOM     25  H   UNL     1      -2.267   2.456  16.364  1.00  0.00     0.293 HD
ENDBRANCH   6  24
BRANCH   8  26
ATOM     26  O   UNL     1      -1.372  -1.202  12.525  1.00  0.00    -0.508 OA
ATOM     27  H   UNL     1      -2.016  -1.566  11.832  1.00  0.00     0.293 HD
ENDBRANCH   8  26
TORSDOF 6
ENDMDL
MODEL 5
REMARK VINA RESULT:    -5.964      2.297      2.703
REMARK INTER + INTRA:          -7.435
REMARK INTER:                  -7.185
REMARK INTRA:                  -0.250
REMARK UNBOUND:                -0.251
REMARK SMILES O=c1c(O)c(-c2ccc(O)c(O)c2)oc2cc(O)cc(O)c12
REMARK SMILES IDX 5 1 3 2 2 3 1 4 22 5 20 6 19 7 17 8 16 9 15 10 14 11 6 12
REMARK SMILES IDX 7 13 8 14 9 15 13 16 11 17 10 18 12 20 4 22 21 24 18 26
REMARK H PARENT 10 19 12 21 4 23 21 25 18 27
REMARK Flexibility Score: inf
ROOT
ATOM      1  C   UNL     1      -1.411   3.116  13.339  1.00  0.00     0.180 A 
ATOM      2  C   UNL     1      -0.402   3.882  13.954  1.00  0.00     0.208 A 
ATOM      3  C   UNL     1      -0.580   5.270  14.071  1.00  0.00     0.238 A 
ATOM      4  O   UNL     1       0.312   5.965  14.629  1.00  0.00    -0.285 OA
ATOM      5  C   UNL     1      -1.749   5.868  13.558  1.00  0.00     0.111 A 
ATOM      6  C   UNL     1      -2.005   7.259  13.632  1.00  0.00     0.134 A 
ATOM      7  C   UNL     1      -3.188   7.779  13.089  1.00  0.00     0.093 A 
ATOM      8  C   UNL     1      -4.120   6.936  12.472  1.00  0.00     0.123 A 
ATOM      9  C   UNL     1      -3.873   5.564  12.398  1.00  0.00     0.094 A 
ATOM     10  C   UNL     1      -2.700   5.026  12.935  1.00  0.00     0.146 A 
ATOM     11  O   UNL     1      -2.493   3.717  12.853  1.00  0.00    -0.452 OA
ENDROOT
BRANCH   1  12
ATOM     12  C   UNL     1      -1.304   1.647  13.195  1.00  0.00     0.025 A 
ATOM     13  C   UNL     1      -1.151   1.087  11.917  1.00  0.00     0.016 A 
ATOM     14  C   UNL     1      -1.069  -0.297  11.755  1.00  0.00     0.051 A 
ATOM     15  C   UNL     1      -1.155  -1.145  12.863  1.00  0.00     0.157 A 
ATOM     16  C   UNL     1      -1.412   0.791  14.307  1.00  0.00     0.062 A 
ATOM     17  C   UNL     1      -1.333  -0.600  14.146  1.00  0.00     0.158 A 
BRANCH  15  18
ATOM     18  O   UNL     1      -1.068  -2.524  12.671  1.00  0.00    -0.504 OA
ATOM     19  H   UNL     1      -0.411  -2.937  12.020  1.00  0.00     0.293 HD
ENDBRANCH  15  18
BRANCH  17  20
ATOM     20  O   UNL     1      -1.434  -1.441  15.254  1.00  0.00    -0.504 OA
ATOM     21  H   UNL     1      -0.911  -2.307  15.312  1.00  0.00     0.293 HD
ENDBRANCH  17  20
ENDBRANCH   1  12
BRANCH   2  22
ATOM     22  O   UNL     1       0.769   3.272  14.411  1.00  0.00    -0.502 OA
ATOM     23  H   UNL     1       0.961   3.135  15.395  1.00  0.00     0.293 HD
ENDBRANCH   2  22
BRANCH   6  24
ATOM     24  O   UNL     1      -1.094   8.125  14.240  1.00  0.00    -0.507 OA
ATOM     25  H   UNL     1      -0.211   7.795  14.609  1.00  0.00     0.293 HD
ENDBRANCH   6  24
BRANCH   8  26
ATOM     26  O   UNL     1      -5.295   7.452  11.931  1.00  0.00    -0.508 OA
ATOM     27  H   UNL     1      -5.670   7.111  11.054  1.00  0.00     0.293 HD
ENDBRANCH   8  26
TORSDOF 6
ENDMDL
MODEL 6
REMARK VINA RESULT:    -5.761      1.863      6.923
REMARK INTER + INTRA:          -7.191
REMARK INTER:                  -6.866
REMARK INTRA:                  -0.325
REMARK UNBOUND:                -0.251
REMARK SMILES O=c1c(O)c(-c2ccc(O)c(O)c2)oc2cc(O)cc(O)c12
REMARK SMILES IDX 5 1 3 2 2 3 1 4 22 5 20 6 19 7 17 8 16 9 15 10 14 11 6 12
REMARK SMILES IDX 7 13 8 14 9 15 13 16 11 17 10 18 12 20 4 22 21 24 18 26
REMARK H PARENT 10 19 12 21 4 23 21 25 18 27
REMARK Flexibility Score: inf
ROOT
ATOM      1  C   UNL     1      -0.059   3.911  13.869  1.00  0.00     0.180 A 
ATOM      2  C   UNL     1      -1.157   4.037  14.742  1.00  0.00     0.208 A 
ATOM      3  C   UNL     1      -2.033   2.950  14.891  1.00  0.00     0.238 A 
ATOM      4  O   UNL     1      -3.013   3.046  15.679  1.00  0.00    -0.285 OA
ATOM      5  C   UNL     1      -1.809   1.768  14.155  1.00  0.00     0.111 A 
ATOM      6  C   UNL     1      -2.645   0.629  14.245  1.00  0.00     0.134 A 
ATOM      7  C   UNL     1      -2.360  -0.506  13.471  1.00  0.00     0.093 A 
ATOM      8  C   UNL     1      -1.258  -0.523  12.610  1.00  0.00     0.123 A 
ATOM      9  C   UNL     1      -0.430   0.597  12.519  1.00  0.00     0.094 A 
ATOM     10  C   UNL     1      -0.696   1.738  13.283  1.00  0.00     0.146 A 
ATOM     11  O   UNL     1       0.111   2.787  13.179  1.00  0.00    -0.452 OA
ENDROOT
BRANCH   1  12
ATOM     12  C   UNL     1       0.918   5.006  13.672  1.00  0.00     0.025 A 
ATOM     13  C   UNL     1       2.031   5.099  14.522  1.00  0.00     0.016 A 
ATOM     14  C   UNL     1       2.955   6.135  14.368  1.00  0.00     0.051 A 
ATOM     15  C   UNL     1       2.774   7.102  13.375  1.00  0.00     0.157 A 
ATOM     16  C   UNL     1       0.725   5.992  12.687  1.00  0.00     0.062 A 
ATOM     17  C   UNL     1       1.651   7.035  12.533  1.00  0.00     0.158 A 
BRANCH  15  18
ATOM     18  O   UNL     1       3.713   8.125  13.243  1.00  0.00    -0.504 OA
ATOM     19  H   UNL     1       4.236   8.269  12.388  1.00  0.00     0.293 HD
ENDBRANCH  15  18
BRANCH  17  20
ATOM     20  O   UNL     1       1.456   8.004  11.550  1.00  0.00    -0.504 OA
ATOM     21  H   UNL     1       0.527   8.299  11.272  1.00  0.00     0.293 HD
ENDBRANCH  17  20
ENDBRANCH   1  12
BRANCH   2  22
ATOM     22  O   UNL     1      -1.384   5.236  15.423  1.00  0.00    -0.502 OA
ATOM     23  H   UNL     1      -1.151   6.137  15.026  1.00  0.00     0.293 HD
ENDBRANCH   2  22
BRANCH   6  24
ATOM     24  O   UNL     1      -3.753   0.616  15.094  1.00  0.00    -0.507 OA
ATOM     25  H   UNL     1      -4.617   0.156  14.836  1.00  0.00     0.293 HD
ENDBRANCH   6  24
BRANCH   8  26
ATOM     26  O   UNL     1      -0.975  -1.650  11.841  1.00  0.00    -0.508 OA
ATOM     27  H   UNL     1      -1.686  -2.093  11.269  1.00  0.00     0.293 HD
ENDBRANCH   8  26
TORSDOF 6
ENDMDL
MODEL 7
REMARK VINA RESULT:    -5.724      3.691      6.326
REMARK INTER + INTRA:          -7.146
REMARK INTER:                  -6.873
REMARK INTRA:                  -0.273
REMARK UNBOUND:                -0.251
REMARK SMILES O=c1c(O)c(-c2ccc(O)c(O)c2)oc2cc(O)cc(O)c12
REMARK SMILES IDX 5 1 3 2 2 3 1 4 22 5 20 6 19 7 17 8 16 9 15 10 14 11 6 12
REMARK SMILES IDX 7 13 8 14 9 15 13 16 11 17 10 18 12 20 4 22 21 24 18 26
REMARK H PARENT 10 19 12 21 4 23 21 25 18 27
REMARK Flexibility Score: inf
ROOT
ATOM      1  C   UNL     1      -3.494   5.461  11.761  1.00  0.00     0.180 A 
ATOM      2  C   UNL     1      -2.337   6.187  11.420  1.00  0.00     0.208 A 
ATOM      3  C   UNL     1      -1.098   5.769  11.932  1.00  0.00     0.238 A 
ATOM      4  O   UNL     1      -0.053   6.405  11.624  1.00  0.00    -0.285 OA
ATOM      5  C   UNL     1      -1.039   4.649  12.788  1.00  0.00     0.111 A 
ATOM      6  C   UNL     1       0.167   4.166  13.349  1.00  0.00     0.134 A 
ATOM      7  C   UNL     1       0.141   3.051  14.200  1.00  0.00     0.093 A 
ATOM      8  C   UNL     1      -1.068   2.413  14.501  1.00  0.00     0.123 A 
ATOM      9  C   UNL     1      -2.259   2.886  13.949  1.00  0.00     0.094 A 
ATOM     10  C   UNL     1      -2.254   3.995  13.097  1.00  0.00     0.146 A 
ATOM     11  O   UNL     1      -3.402   4.420  12.584  1.00  0.00    -0.452 OA
ENDROOT
BRANCH   1  12
ATOM     12  C   UNL     1      -4.832   5.828  11.247  1.00  0.00     0.025 A 
ATOM     13  C   UNL     1      -5.522   6.906  11.824  1.00  0.00     0.016 A 
ATOM     14  C   UNL     1      -6.794   7.258  11.369  1.00  0.00     0.051 A 
ATOM     15  C   UNL     1      -7.405   6.530  10.343  1.00  0.00     0.157 A 
ATOM     16  C   UNL     1      -5.456   5.083  10.230  1.00  0.00     0.062 A 
ATOM     17  C   UNL     1      -6.736   5.434   9.773  1.00  0.00     0.158 A 
BRANCH  15  18
ATOM     18  O   UNL     1      -8.676   6.905   9.908  1.00  0.00    -0.504 OA
ATOM     19  H   UNL     1      -9.017   7.855   9.996  1.00  0.00     0.293 HD
ENDBRANCH  15  18
BRANCH  17  20
ATOM     20  O   UNL     1      -7.344   4.695   8.759  1.00  0.00    -0.504 OA
ATOM     21  H   UNL     1      -8.276   4.915   8.429  1.00  0.00     0.293 HD
ENDBRANCH  17  20
ENDBRANCH   1  12
BRANCH   2  22
ATOM     22  O   UNL     1      -2.428   7.322  10.609  1.00  0.00    -0.502 OA
ATOM     23  H   UNL     1      -2.864   7.302   9.696  1.00  0.00     0.293 HD
ENDBRANCH   2  22
BRANCH   6  24
ATOM     24  O   UNL     1       1.388   4.782  13.068  1.00  0.00    -0.507 OA
ATOM     25  H   UNL     1       2.262   4.272  13.102  1.00  0.00     0.293 HD
ENDBRANCH   6  24
BRANCH   8  26
ATOM     26  O   UNL     1      -1.094   1.306  15.347  1.00  0.00    -0.508 OA
ATOM     27  H   UNL     1      -0.283   0.710  15.466  1.00  0.00     0.293 HD
ENDBRANCH   8  26
TORSDOF 6
ENDMDL
MODEL 8
REMARK VINA RESULT:    -5.437      4.151      6.128
REMARK INTER + INTRA:          -6.801
REMARK INTER:                  -6.531
REMARK INTRA:                  -0.269
REMARK UNBOUND:                -0.251
REMARK SMILES O=c1c(O)c(-c2ccc(O)c(O)c2)oc2cc(O)cc(O)c12
REMARK SMILES IDX 5 1 3 2 2 3 1 4 22 5 20 6 19 7 17 8 16 9 15 10 14 11 6 12
REMARK SMILES IDX 7 13 8 14 9 15 13 16 11 17 10 18 12 20 4 22 21 24 18 26
REMARK H PARENT 10 19 12 21 4 23 21 25 18 27
REMARK Flexibility Score: inf
ROOT
ATOM      1  C   UNL     1      -3.535   5.319  10.692  1.00  0.00     0.180 A 
ATOM      2  C   UNL     1      -3.278   6.495   9.962  1.00  0.00     0.208 A 
ATOM      3  C   UNL     1      -4.315   7.066   9.206  1.00  0.00     0.238 A 
ATOM      4  O   UNL     1      -4.099   8.125   8.557  1.00  0.00    -0.285 OA
ATOM      5  C   UNL     1      -5.581   6.444   9.179  1.00  0.00     0.111 A 
ATOM      6  C   UNL     1      -6.677   6.951   8.441  1.00  0.00     0.134 A 
ATOM      7  C   UNL     1      -7.902   6.268   8.457  1.00  0.00     0.093 A 
ATOM      8  C   UNL     1      -8.050   5.088   9.195  1.00  0.00     0.123 A 
ATOM      9  C   UNL     1      -6.972   4.585   9.925  1.00  0.00     0.094 A 
ATOM     10  C   UNL     1      -5.743   5.252   9.923  1.00  0.00     0.146 A 
ATOM     11  O   UNL     1      -4.736   4.752  10.629  1.00  0.00    -0.452 OA
ENDROOT
BRANCH   1  12
ATOM     12  C   UNL     1      -2.499   4.669  11.525  1.00  0.00     0.025 A 
ATOM     13  C   UNL     1      -2.516   4.853  12.917  1.00  0.00     0.016 A 
ATOM     14  C   UNL     1      -1.537   4.265  13.721  1.00  0.00     0.051 A 
ATOM     15  C   UNL     1      -0.516   3.501  13.148  1.00  0.00     0.157 A 
ATOM     16  C   UNL     1      -1.459   3.918  10.948  1.00  0.00     0.062 A 
ATOM     17  C   UNL     1      -0.472   3.329  11.754  1.00  0.00     0.158 A 
BRANCH  15  18
ATOM     18  O   UNL     1       0.448   2.926  13.976  1.00  0.00    -0.504 OA
ATOM     19  H   UNL     1       0.220   2.551  14.889  1.00  0.00     0.293 HD
ENDBRANCH  15  18
BRANCH  17  20
ATOM     20  O   UNL     1       0.551   2.580  11.174  1.00  0.00    -0.504 OA
ATOM     21  H   UNL     1       1.311   3.022  10.670  1.00  0.00     0.293 HD
ENDBRANCH  17  20
ENDBRANCH   1  12
BRANCH   2  22
ATOM     22  O   UNL     1      -2.002   7.065   9.966  1.00  0.00    -0.502 OA
ATOM     23  H   UNL     1      -1.470   7.197  10.818  1.00  0.00     0.293 HD
ENDBRANCH   2  22
BRANCH   6  24
ATOM     24  O   UNL     1      -6.559   8.125   7.695  1.00  0.00    -0.507 OA
ATOM     25  H   UNL     1      -6.225   8.117   6.739  1.00  0.00     0.293 HD
ENDBRANCH   6  24
BRANCH   8  26
ATOM     26  O   UNL     1      -9.267   4.409   9.211  1.00  0.00    -0.508 OA
ATOM     27  H   UNL     1      -9.553   3.817   8.440  1.00  0.00     0.293 HD
ENDBRANCH   8  26
TORSDOF 6
ENDMDL
