MODEL 1
REMARK VINA RESULT:    -5.158      0.000      0.000
REMARK INTER + INTRA:         -15.165
REMARK INTER:                 -12.998
REMARK INTRA:                  -2.167
REMARK UNBOUND:                -2.167
REMARK SMILES CCCCCCCCCCCCCCCCCCCCCCCCCCCC(=O)[O-]
REMARK SMILES IDX 15 1 16 2 17 3 18 4 19 5 20 6 21 7 22 8 23 9 24 10 25 11
REMARK SMILES IDX 26 12 27 13 28 14 29 15 30 16 14 17 13 18 12 19 11 20 10 21
REMARK SMILES IDX 9 22 8 23 7 24 6 25 5 26 4 27 3 28 2 29 1 30
REMARK H PARENT
REMARK Flexibility Score: inf
ROOT
ATOM      1  C   UNL     1      24.333  -4.165  60.564  1.00  0.00     0.000 C 
ENDROOT
BRANCH   1   2
ATOM      2  C   UNL     1      25.642  -3.513  61.047  1.00  0.00     0.000 C 
BRANCH   2   3
ATOM      3  C   UNL     1      25.407  -2.413  62.097  1.00  0.00     0.000 C 
BRANCH   3   4
ATOM      4  C   UNL     1      25.884  -1.029  61.627  1.00  0.00     0.000 C 
BRANCH   4   5
ATOM      5  C   UNL     1      25.027   0.161  62.099  1.00  0.00     0.000 C 
BRANCH   5   6
ATOM      6  C   UNL     1      25.840   1.316  62.720  1.00  0.00     0.000 C 
BRANCH   6   7
ATOM      7  C   UNL     1      25.528   2.674  62.063  1.00  0.00     0.000 C 
BRANCH   7   8
ATOM      8  C   UNL     1      25.426   3.814  63.088  1.00  0.00     0.000 C 
BRANCH   8   9
ATOM      9  C   UNL     1      25.526   3.312  64.539  1.00  0.00     0.000 C 
BRANCH   9  10
ATOM     10  C   UNL     1      24.166   3.294  65.257  1.00  0.00     0.000 C 
BRANCH  10  11
ATOM     11  C   UNL     1      22.966   3.484  64.303  1.00  0.00     0.000 C 
BRANCH  11  12
ATOM     12  C   UNL     1      22.157   2.188  64.118  1.00  0.00     0.006 C 
BRANCH  12  13
ATOM     13  C   UNL     1      21.888   1.880  62.639  1.00  0.00     0.053 C 
BRANCH  13  14
ATOM     14  C   UNL     1      21.200   0.561  62.461  1.00  0.00     0.041 C 
ATOM     15  O   UNL     1      20.672  -0.016  63.448  1.00  0.00    -0.550 OA
ATOM     16  O   UNL     1      21.114  -0.015  61.199  1.00  0.00    -0.550 OA
ENDBRANCH  13  14
ENDBRANCH  12  13
ENDBRANCH  11  12
ENDBRANCH  10  11
ENDBRANCH   9  10
ENDBRANCH   8   9
ENDBRANCH   7   8
ENDBRANCH   6   7
ENDBRANCH   5   6
ENDBRANCH   4   5
ENDBRANCH   3   4
ENDBRANCH   2   3
ENDBRANCH   1   2
BRANCH   1  17
ATOM     17  C   UNL     1      23.086  -3.266  60.654  1.00  0.00     0.000 C 
BRANCH  17  18
ATOM     18  C   UNL     1      22.770  -2.552  59.331  1.00  0.00     0.000 C 
BRANCH  18  19
ATOM     19  C   UNL     1      23.711  -3.012  58.208  1.00  0.00     0.000 C 
BRANCH  19  20
ATOM     20  C   UNL     1      23.187  -2.645  56.810  1.00  0.00     0.000 C 
BRANCH  20  21
ATOM     21  C   UNL     1      23.615  -3.656  55.732  1.00  0.00     0.000 C 
BRANCH  21  22
ATOM     22  C   UNL     1      23.415  -3.122  54.296  1.00  0.00    -0.000 C 
BRANCH  22  23
ATOM     23  C   UNL     1      22.188  -2.202  54.140  1.00  0.00    -0.000 C 
BRANCH  23  24
ATOM     24  C   UNL     1      21.699  -2.027  52.690  1.00  0.00    -0.000 C 
BRANCH  24  25
ATOM     25  C   UNL     1      20.844  -0.755  52.481  1.00  0.00    -0.000 C 
BRANCH  25  26
ATOM     26  C   UNL     1      19.596  -0.733  53.376  1.00  0.00    -0.000 C 
BRANCH  26  27
ATOM     27  C   UNL     1      18.324  -0.327  52.613  1.00  0.00    -0.000 C 
BRANCH  27  28
ATOM     28  C   UNL     1      17.726   1.018  53.083  1.00  0.00    -0.000 C 
BRANCH  28  29
ATOM     29  C   UNL     1      17.499   1.053  54.600  1.00  0.00    -0.003 C 
ATOM     30  C   UNL     1      16.876   2.377  55.034  1.00  0.00     0.004 C 
ENDBRANCH  28  29
ENDBRANCH  27  28
ENDBRANCH  26  27
ENDBRANCH  25  26
ENDBRANCH  24  25
ENDBRANCH  23  24
ENDBRANCH  22  23
ENDBRANCH  21  22
ENDBRANCH  20  21
ENDBRANCH  19  20
ENDBRANCH  18  19
ENDBRANCH  17  18
ENDBRANCH   1  17
TORSDOF 26
ENDMDL
MODEL 2
REMARK VINA RESULT:    -5.144      4.725      8.172
REMARK INTER + INTRA:         -15.131
REMARK INTER:                 -12.732
REMARK INTRA:                  -2.399
REMARK UNBOUND:                -2.167
REMARK SMILES CCCCCCCCCCCCCCCCCCCCCCCCCCCC(=O)[O-]
REMARK SMILES IDX 15 1 16 2 17 3 18 4 19 5 20 6 21 7 22 8 23 9 24 10 25 11
REMARK SMILES IDX 26 12 27 13 28 14 29 15 30 16 14 17 13 18 12 19 11 20 10 21
REMARK SMILES IDX 9 22 8 23 7 24 6 25 5 26 4 27 3 28 2 29 1 30
REMARK H PARENT
REMARK Flexibility Score: inf
ROOT
ATOM      1  C   UNL     1      21.981   3.349  63.799  1.00  0.00     0.000 C 
ENDROOT
BRANCH   1   2
ATOM      2  C   UNL     1      22.049   2.572  65.126  1.00  0.00     0.000 C 
BRANCH   2   3
ATOM      3  C   UNL     1      23.314   2.894  65.941  1.00  0.00     0.000 C 
BRANCH   3   4
ATOM      4  C   UNL     1      23.168   2.544  67.432  1.00  0.00     0.000 C 
BRANCH   4   5
ATOM      5  C   UNL     1      23.617   3.642  68.414  1.00  0.00     0.000 C 
BRANCH   5   6
ATOM      6  C   UNL     1      23.383   3.292  69.899  1.00  0.00     0.000 C 
BRANCH   6   7
ATOM      7  C   UNL     1      22.462   2.071  70.078  1.00  0.00     0.000 C 
BRANCH   7   8
ATOM      8  C   UNL     1      21.700   2.098  71.413  1.00  0.00     0.000 C 
BRANCH   8   9
ATOM      9  C   UNL     1      20.933   0.792  71.680  1.00  0.00     0.000 C 
BRANCH   9  10
ATOM     10  C   UNL     1      19.633   0.688  70.865  1.00  0.00     0.000 C 
BRANCH  10  11
ATOM     11  C   UNL     1      18.416   0.245  71.705  1.00  0.00     0.000 C 
BRANCH  11  12
ATOM     12  C   UNL     1      17.644  -0.913  71.047  1.00  0.00     0.006 C 
BRANCH  12  13
ATOM     13  C   UNL     1      17.701  -0.850  69.514  1.00  0.00     0.053 C 
BRANCH  13  14
ATOM     14  C   UNL     1      16.509  -1.504  68.885  1.00  0.00     0.041 C 
ATOM     15  O   UNL     1      15.356  -1.298  69.347  1.00  0.00    -0.550 OA
ATOM     16  O   UNL     1      16.668  -2.315  67.768  1.00  0.00    -0.550 OA
ENDBRANCH  13  14
ENDBRANCH  12  13
ENDBRANCH  11  12
ENDBRANCH  10  11
ENDBRANCH   9  10
ENDBRANCH   8   9
ENDBRANCH   7   8
ENDBRANCH   6   7
ENDBRANCH   5   6
ENDBRANCH   4   5
ENDBRANCH   3   4
ENDBRANCH   2   3
ENDBRANCH   1   2
BRANCH   1  17
ATOM     17  C   UNL     1      23.346   3.700  63.179  1.00  0.00     0.000 C 
BRANCH  17  18
ATOM     18  C   UNL     1      23.987   2.515  62.442  1.00  0.00     0.000 C 
BRANCH  18  19
ATOM     19  C   UNL     1      25.505   2.466  62.674  1.00  0.00     0.000 C 
BRANCH  19  20
ATOM     20  C   UNL     1      26.070   1.039  62.588  1.00  0.00     0.000 C 
BRANCH  20  21
ATOM     21  C   UNL     1      25.070   0.039  61.984  1.00  0.00     0.000 C 
BRANCH  21  22
ATOM     22  C   UNL     1      25.638  -1.395  61.886  1.00  0.00    -0.000 C 
BRANCH  22  23
ATOM     23  C   UNL     1      26.007  -1.821  60.452  1.00  0.00    -0.000 C 
BRANCH  23  24
ATOM     24  C   UNL     1      25.029  -2.821  59.808  1.00  0.00    -0.000 C 
BRANCH  24  25
ATOM     25  C   UNL     1      24.487  -3.873  60.803  1.00  0.00    -0.000 C 
BRANCH  25  26
ATOM     26  C   UNL     1      22.966  -3.775  60.993  1.00  0.00    -0.000 C 
BRANCH  26  27
ATOM     27  C   UNL     1      22.281  -2.948  59.893  1.00  0.00    -0.000 C 
BRANCH  27  28
ATOM     28  C   UNL     1      21.414  -1.793  60.439  1.00  0.00    -0.000 C 
BRANCH  28  29
ATOM     29  C   UNL     1      21.826  -1.380  61.859  1.00  0.00    -0.003 C 
ATOM     30  C   UNL     1      21.161  -0.067  62.266  1.00  0.00     0.004 C 
ENDBRANCH  28  29
ENDBRANCH  27  28
ENDBRANCH  26  27
ENDBRANCH  25  26
ENDBRANCH  24  25
ENDBRANCH  23  24
ENDBRANCH  22  23
ENDBRANCH  21  22
ENDBRANCH  20  21
ENDBRANCH  19  20
ENDBRANCH  18  19
ENDBRANCH  17  18
ENDBRANCH   1  17
TORSDOF 26
ENDMDL
MODEL 3
REMARK VINA RESULT:    -5.053      2.289      9.722
REMARK INTER + INTRA:         -14.900
REMARK INTER:                 -12.922
REMARK INTRA:                  -1.978
REMARK UNBOUND:                -2.167
REMARK SMILES CCCCCCCCCCCCCCCCCCCCCCCCCCCC(=O)[O-]
REMARK SMILES IDX 15 1 16 2 17 3 18 4 19 5 20 6 21 7 22 8 23 9 24 10 25 11
REMARK SMILES IDX 26 12 27 13 28 14 29 15 30 16 14 17 13 18 12 19 11 20 10 21
REMARK SMILES IDX 9 22 8 23 7 24 6 25 5 26 4 27 3 28 2 29 1 30
REMARK H PARENT
REMARK Flexibility Score: inf
ROOT
ATOM      1  C   UNL     1      24.585  -3.688  59.983  1.00  0.00     0.000 C 
ENDROOT
BRANCH   1   2
ATOM      2  C   UNL     1      24.752  -3.003  58.615  1.00  0.00     0.000 C 
BRANCH   2   3
ATOM      3  C   UNL     1      23.435  -2.926  57.822  1.00  0.00     0.000 C 
BRANCH   3   4
ATOM      4  C   UNL     1      23.605  -3.308  56.343  1.00  0.00     0.000 C 
BRANCH   4   5
ATOM      5  C   UNL     1      22.855  -2.413  55.339  1.00  0.00     0.000 C 
BRANCH   5   6
ATOM      6  C   UNL     1      23.109  -2.775  53.860  1.00  0.00     0.000 C 
BRANCH   6   7
ATOM      7  C   UNL     1      22.001  -2.252  52.928  1.00  0.00     0.000 C 
BRANCH   7   8
ATOM      8  C   UNL     1      20.965  -1.392  53.670  1.00  0.00     0.000 C 
BRANCH   8   9
ATOM      9  C   UNL     1      19.968  -0.715  52.713  1.00  0.00     0.000 C 
BRANCH   9  10
ATOM     10  C   UNL     1      18.674  -0.274  53.418  1.00  0.00     0.000 C 
BRANCH  10  11
ATOM     11  C   UNL     1      17.581   0.216  52.443  1.00  0.00     0.000 C 
BRANCH  11  12
ATOM     12  C   UNL     1      16.995   1.576  52.862  1.00  0.00     0.006 C 
BRANCH  12  13
ATOM     13  C   UNL     1      15.754   1.422  53.753  1.00  0.00     0.053 C 
BRANCH  13  14
ATOM     14  C   UNL     1      15.987   1.965  55.130  1.00  0.00     0.041 C 
ATOM     15  O   UNL     1      17.152   2.261  55.506  1.00  0.00    -0.550 OA
ATOM     16  O   UNL     1      14.912   2.178  55.986  1.00  0.00    -0.550 OA
ENDBRANCH  13  14
ENDBRANCH  12  13
ENDBRANCH  11  12
ENDBRANCH  10  11
ENDBRANCH   9  10
ENDBRANCH   8   9
ENDBRANCH   7   8
ENDBRANCH   6   7
ENDBRANCH   5   6
ENDBRANCH   4   5
ENDBRANCH   3   4
ENDBRANCH   2   3
ENDBRANCH   1   2
BRANCH   1  17
ATOM     17  C   UNL     1      23.407  -3.173  60.830  1.00  0.00     0.000 C 
BRANCH  17  18
ATOM     18  C   UNL     1      23.860  -2.318  62.023  1.00  0.00     0.000 C 
BRANCH  18  19
ATOM     19  C   UNL     1      25.383  -2.121  62.024  1.00  0.00     0.000 C 
BRANCH  19  20
ATOM     20  C   UNL     1      25.801  -0.735  61.508  1.00  0.00     0.000 C 
BRANCH  20  21
ATOM     21  C   UNL     1      25.792   0.337  62.612  1.00  0.00     0.000 C 
BRANCH  21  22
ATOM     22  C   UNL     1      25.127   1.657  62.161  1.00  0.00    -0.000 C 
BRANCH  22  23
ATOM     23  C   UNL     1      25.774   2.917  62.769  1.00  0.00    -0.000 C 
BRANCH  23  24
ATOM     24  C   UNL     1      24.807   3.811  63.568  1.00  0.00    -0.000 C 
BRANCH  24  25
ATOM     25  C   UNL     1      24.655   3.382  65.046  1.00  0.00    -0.000 C 
BRANCH  25  26
ATOM     26  C   UNL     1      23.218   2.970  65.394  1.00  0.00    -0.000 C 
BRANCH  26  27
ATOM     27  C   UNL     1      22.237   3.186  64.230  1.00  0.00    -0.000 C 
BRANCH  27  28
ATOM     28  C   UNL     1      21.427   1.922  63.864  1.00  0.00    -0.000 C 
BRANCH  28  29
ATOM     29  C   UNL     1      21.733   1.428  62.443  1.00  0.00    -0.003 C 
ATOM     30  C   UNL     1      20.994   0.127  62.141  1.00  0.00     0.004 C 
ENDBRANCH  28  29
ENDBRANCH  27  28
ENDBRANCH  26  27
ENDBRANCH  25  26
ENDBRANCH  24  25
ENDBRANCH  23  24
ENDBRANCH  22  23
ENDBRANCH  21  22
ENDBRANCH  20  21
ENDBRANCH  19  20
ENDBRANCH  18  19
ENDBRANCH  17  18
ENDBRANCH   1  17
TORSDOF 26
ENDMDL
MODEL 4
REMARK VINA RESULT:    -5.042      1.268      2.602
REMARK INTER + INTRA:         -14.873
REMARK INTER:                 -12.699
REMARK INTRA:                  -2.174
REMARK UNBOUND:                -2.167
REMARK SMILES CCCCCCCCCCCCCCCCCCCCCCCCCCCC(=O)[O-]
REMARK SMILES IDX 15 1 16 2 17 3 18 4 19 5 20 6 21 7 22 8 23 9 24 10 25 11
REMARK SMILES IDX 26 12 27 13 28 14 29 15 30 16 14 17 13 18 12 19 11 20 10 21
REMARK SMILES IDX 9 22 8 23 7 24 6 25 5 26 4 27 3 28 2 29 1 30
REMARK H PARENT
REMARK Flexibility Score: inf
ROOT
ATOM      1  C   UNL     1      24.818  -1.661  62.020  1.00  0.00     0.000 C 
ENDROOT
BRANCH   1   2
ATOM      2  C   UNL     1      25.808  -0.541  61.652  1.00  0.00     0.000 C 
BRANCH   2   3
ATOM      3  C   UNL     1      25.889   0.559  62.725  1.00  0.00     0.000 C 
BRANCH   3   4
ATOM      4  C   UNL     1      25.525   1.951  62.181  1.00  0.00     0.000 C 
BRANCH   4   5
ATOM      5  C   UNL     1      25.802   3.126  63.137  1.00  0.00     0.000 C 
BRANCH   5   6
ATOM      6  C   UNL     1      25.874   2.724  64.625  1.00  0.00     0.000 C 
BRANCH   6   7
ATOM      7  C   UNL     1      24.761   3.376  65.465  1.00  0.00     0.000 C 
BRANCH   7   8
ATOM      8  C   UNL     1      23.493   3.660  64.644  1.00  0.00     0.000 C 
BRANCH   8   9
ATOM      9  C   UNL     1      22.360   2.664  64.947  1.00  0.00     0.000 C 
BRANCH   9  10
ATOM     10  C   UNL     1      21.430   2.437  63.744  1.00  0.00     0.000 C 
BRANCH  10  11
ATOM     11  C   UNL     1      22.144   1.817  62.524  1.00  0.00     0.000 C 
BRANCH  11  12
ATOM     12  C   UNL     1      21.871   0.308  62.394  1.00  0.00     0.006 C 
BRANCH  12  13
ATOM     13  C   UNL     1      20.820  -0.001  61.318  1.00  0.00     0.053 C 
BRANCH  13  14
ATOM     14  C   UNL     1      21.144  -1.255  60.567  1.00  0.00     0.041 C 
ATOM     15  O   UNL     1      20.901  -1.335  59.334  1.00  0.00    -0.550 OA
ATOM     16  O   UNL     1      21.746  -2.323  61.221  1.00  0.00    -0.550 OA
ENDBRANCH  13  14
ENDBRANCH  12  13
ENDBRANCH  11  12
ENDBRANCH  10  11
ENDBRANCH   9  10
ENDBRANCH   8   9
ENDBRANCH   7   8
ENDBRANCH   6   7
ENDBRANCH   5   6
ENDBRANCH   4   5
ENDBRANCH   3   4
ENDBRANCH   2   3
ENDBRANCH   1   2
BRANCH   1  17
ATOM     17  C   UNL     1      25.392  -3.088  61.946  1.00  0.00     0.000 C 
BRANCH  17  18
ATOM     18  C   UNL     1      25.750  -3.513  60.514  1.00  0.00     0.000 C 
BRANCH  18  19
ATOM     19  C   UNL     1      24.495  -3.637  59.638  1.00  0.00     0.000 C 
BRANCH  19  20
ATOM     20  C   UNL     1      24.677  -3.000  58.250  1.00  0.00     0.000 C 
BRANCH  20  21
ATOM     21  C   UNL     1      23.354  -2.879  57.474  1.00  0.00     0.000 C 
BRANCH  21  22
ATOM     22  C   UNL     1      23.502  -3.230  55.977  1.00  0.00    -0.000 C 
BRANCH  22  23
ATOM     23  C   UNL     1      22.821  -2.221  55.032  1.00  0.00    -0.000 C 
BRANCH  23  24
ATOM     24  C   UNL     1      22.686  -2.699  53.574  1.00  0.00    -0.000 C 
BRANCH  24  25
ATOM     25  C   UNL     1      21.713  -1.838  52.735  1.00  0.00    -0.000 C 
BRANCH  25  26
ATOM     26  C   UNL     1      20.714  -1.062  53.606  1.00  0.00    -0.000 C 
BRANCH  26  27
ATOM     27  C   UNL     1      19.438  -0.670  52.843  1.00  0.00    -0.000 C 
BRANCH  27  28
ATOM     28  C   UNL     1      18.418   0.107  53.706  1.00  0.00    -0.000 C 
BRANCH  28  29
ATOM     29  C   UNL     1      17.398   0.871  52.850  1.00  0.00    -0.003 C 
ATOM     30  C   UNL     1      16.384  -0.082  52.221  1.00  0.00     0.004 C 
ENDBRANCH  28  29
ENDBRANCH  27  28
ENDBRANCH  26  27
ENDBRANCH  25  26
ENDBRANCH  24  25
ENDBRANCH  23  24
ENDBRANCH  22  23
ENDBRANCH  21  22
ENDBRANCH  20  21
ENDBRANCH  19  20
ENDBRANCH  18  19
ENDBRANCH  17  18
ENDBRANCH   1  17
TORSDOF 26
ENDMDL
MODEL 5
REMARK VINA RESULT:    -5.034      3.140      9.907
REMARK INTER + INTRA:         -14.853
REMARK INTER:                 -12.563
REMARK INTRA:                  -2.290
REMARK UNBOUND:                -2.167
REMARK SMILES CCCCCCCCCCCCCCCCCCCCCCCCCCCC(=O)[O-]
REMARK SMILES IDX 15 1 16 2 17 3 18 4 19 5 20 6 21 7 22 8 23 9 24 10 25 11
REMARK SMILES IDX 26 12 27 13 28 14 29 15 30 16 14 17 13 18 12 19 11 20 10 21
REMARK SMILES IDX 9 22 8 23 7 24 6 25 5 26 4 27 3 28 2 29 1 30
REMARK H PARENT
REMARK Flexibility Score: inf
ROOT
ATOM      1  C   UNL     1      25.257  -3.685  60.032  1.00  0.00     0.000 C 
ENDROOT
BRANCH   1   2
ATOM      2  C   UNL     1      24.919  -3.019  58.686  1.00  0.00     0.000 C 
BRANCH   2   3
ATOM      3  C   UNL     1      23.404  -2.925  58.431  1.00  0.00     0.000 C 
BRANCH   3   4
ATOM      4  C   UNL     1      23.064  -2.623  56.962  1.00  0.00     0.000 C 
BRANCH   4   5
ATOM      5  C   UNL     1      23.856  -3.436  55.920  1.00  0.00     0.000 C 
BRANCH   5   6
ATOM      6  C   UNL     1      23.231  -3.432  54.509  1.00  0.00     0.000 C 
BRANCH   6   7
ATOM      7  C   UNL     1      22.546  -2.094  54.174  1.00  0.00     0.000 C 
BRANCH   7   8
ATOM      8  C   UNL     1      21.783  -2.141  52.841  1.00  0.00     0.000 C 
BRANCH   8   9
ATOM      9  C   UNL     1      20.991  -0.851  52.569  1.00  0.00     0.000 C 
BRANCH   9  10
ATOM     10  C   UNL     1      19.692  -0.766  53.389  1.00  0.00     0.000 C 
BRANCH  10  11
ATOM     11  C   UNL     1      18.474  -0.301  52.562  1.00  0.00     0.000 C 
BRANCH  11  12
ATOM     12  C   UNL     1      17.538   0.616  53.369  1.00  0.00     0.006 C 
BRANCH  12  13
ATOM     13  C   UNL     1      16.473   1.279  52.485  1.00  0.00     0.053 C 
BRANCH  13  14
ATOM     14  C   UNL     1      15.134   0.623  52.639  1.00  0.00     0.041 C 
ATOM     15  O   UNL     1      14.172   1.260  53.143  1.00  0.00    -0.550 OA
ATOM     16  O   UNL     1      14.942  -0.680  52.196  1.00  0.00    -0.550 OA
ENDBRANCH  13  14
ENDBRANCH  12  13
ENDBRANCH  11  12
ENDBRANCH  10  11
ENDBRANCH   9  10
ENDBRANCH   8   9
ENDBRANCH   7   8
ENDBRANCH   6   7
ENDBRANCH   5   6
ENDBRANCH   4   5
ENDBRANCH   3   4
ENDBRANCH   2   3
ENDBRANCH   1   2
BRANCH   1  17
ATOM     17  C   UNL     1      24.065  -4.346  60.749  1.00  0.00     0.000 C 
BRANCH  17  18
ATOM     18  C   UNL     1      23.675  -3.622  62.046  1.00  0.00     0.000 C 
BRANCH  18  19
ATOM     19  C   UNL     1      24.472  -2.321  62.223  1.00  0.00     0.000 C 
BRANCH  19  20
ATOM     20  C   UNL     1      23.600  -1.066  62.060  1.00  0.00     0.000 C 
BRANCH  20  21
ATOM     21  C   UNL     1      22.099  -1.393  61.974  1.00  0.00     0.000 C 
BRANCH  21  22
ATOM     22  C   UNL     1      21.204  -0.248  62.499  1.00  0.00    -0.000 C 
BRANCH  22  23
ATOM     23  C   UNL     1      21.717   1.159  62.133  1.00  0.00    -0.000 C 
BRANCH  23  24
ATOM     24  C   UNL     1      21.868   2.117  63.329  1.00  0.00    -0.000 C 
BRANCH  24  25
ATOM     25  C   UNL     1      22.831   3.295  63.052  1.00  0.00    -0.000 C 
BRANCH  25  26
ATOM     26  C   UNL     1      23.651   3.096  61.769  1.00  0.00    -0.000 C 
BRANCH  26  27
ATOM     27  C   UNL     1      25.155   2.933  62.043  1.00  0.00    -0.000 C 
BRANCH  27  28
ATOM     28  C   UNL     1      25.479   1.824  63.068  1.00  0.00    -0.000 C 
BRANCH  28  29
ATOM     29  C   UNL     1      26.333   2.343  64.233  1.00  0.00    -0.003 C 
ATOM     30  C   UNL     1      25.465   3.003  65.302  1.00  0.00     0.004 C 
ENDBRANCH  28  29
ENDBRANCH  27  28
ENDBRANCH  26  27
ENDBRANCH  25  26
ENDBRANCH  24  25
ENDBRANCH  23  24
ENDBRANCH  22  23
ENDBRANCH  21  22
ENDBRANCH  20  21
ENDBRANCH  19  20
ENDBRANCH  18  19
ENDBRANCH  17  18
ENDBRANCH   1  17
TORSDOF 26
ENDMDL
MODEL 6
REMARK VINA RESULT:    -5.005      1.613      2.961
REMARK INTER + INTRA:         -14.778
REMARK INTER:                 -12.614
REMARK INTRA:                  -2.165
REMARK UNBOUND:                -2.167
REMARK SMILES CCCCCCCCCCCCCCCCCCCCCCCCCCCC(=O)[O-]
REMARK SMILES IDX 15 1 16 2 17 3 18 4 19 5 20 6 21 7 22 8 23 9 24 10 25 11
REMARK SMILES IDX 26 12 27 13 28 14 29 15 30 16 14 17 13 18 12 19 11 20 10 21
REMARK SMILES IDX 9 22 8 23 7 24 6 25 5 26 4 27 3 28 2 29 1 30
REMARK H PARENT
REMARK Flexibility Score: inf
ROOT
ATOM      1  C   UNL     1      24.939  -3.588  62.059  1.00  0.00     0.000 C 
ENDROOT
BRANCH   1   2
ATOM      2  C   UNL     1      23.556  -3.094  62.521  1.00  0.00     0.000 C 
BRANCH   2   3
ATOM      3  C   UNL     1      22.505  -3.129  61.396  1.00  0.00     0.000 C 
BRANCH   3   4
ATOM      4  C   UNL     1      21.877  -1.752  61.124  1.00  0.00     0.000 C 
BRANCH   4   5
ATOM      5  C   UNL     1      22.216  -0.657  62.153  1.00  0.00     0.000 C 
BRANCH   5   6
ATOM      6  C   UNL     1      21.219   0.521  62.171  1.00  0.00     0.000 C 
BRANCH   6   7
ATOM      7  C   UNL     1      21.526   1.534  63.289  1.00  0.00     0.000 C 
BRANCH   7   8
ATOM      8  C   UNL     1      22.156   2.829  62.752  1.00  0.00     0.000 C 
BRANCH   8   9
ATOM      9  C   UNL     1      22.854   3.645  63.854  1.00  0.00     0.000 C 
BRANCH   9  10
ATOM     10  C   UNL     1      23.042   2.848  65.156  1.00  0.00     0.000 C 
BRANCH  10  11
ATOM     11  C   UNL     1      24.443   3.016  65.782  1.00  0.00     0.000 C 
BRANCH  11  12
ATOM     12  C   UNL     1      25.522   3.313  64.725  1.00  0.00     0.006 C 
BRANCH  12  13
ATOM     13  C   UNL     1      26.208   2.035  64.222  1.00  0.00     0.053 C 
BRANCH  13  14
ATOM     14  C   UNL     1      25.782   1.687  62.829  1.00  0.00     0.041 C 
ATOM     15  O   UNL     1      25.615   0.483  62.500  1.00  0.00    -0.550 OA
ATOM     16  O   UNL     1      25.536   2.694  61.903  1.00  0.00    -0.550 OA
ENDBRANCH  13  14
ENDBRANCH  12  13
ENDBRANCH  11  12
ENDBRANCH  10  11
ENDBRANCH   9  10
ENDBRANCH   8   9
ENDBRANCH   7   8
ENDBRANCH   6   7
ENDBRANCH   5   6
ENDBRANCH   4   5
ENDBRANCH   3   4
ENDBRANCH   2   3
ENDBRANCH   1   2
BRANCH   1  17
ATOM     17  C   UNL     1      25.530  -2.836  60.852  1.00  0.00     0.000 C 
BRANCH  17  18
ATOM     18  C   UNL     1      25.492  -3.663  59.558  1.00  0.00     0.000 C 
BRANCH  18  19
ATOM     19  C   UNL     1      24.979  -2.829  58.375  1.00  0.00     0.000 C 
BRANCH  19  20
ATOM     20  C   UNL     1      23.487  -3.062  58.091  1.00  0.00     0.000 C 
BRANCH  20  21
ATOM     21  C   UNL     1      23.082  -2.647  56.665  1.00  0.00     0.000 C 
BRANCH  21  22
ATOM     22  C   UNL     1      23.649  -3.592  55.582  1.00  0.00    -0.000 C 
BRANCH  22  23
ATOM     23  C   UNL     1      23.300  -3.165  54.142  1.00  0.00    -0.000 C 
BRANCH  23  24
ATOM     24  C   UNL     1      22.352  -1.956  54.044  1.00  0.00    -0.000 C 
BRANCH  24  25
ATOM     25  C   UNL     1      21.479  -1.964  52.767  1.00  0.00    -0.000 C 
BRANCH  25  26
ATOM     26  C   UNL     1      20.624  -0.696  52.631  1.00  0.00    -0.000 C 
BRANCH  26  27
ATOM     27  C   UNL     1      19.316  -0.770  53.435  1.00  0.00    -0.000 C 
BRANCH  27  28
ATOM     28  C   UNL     1      18.108  -0.140  52.707  1.00  0.00    -0.000 C 
BRANCH  28  29
ATOM     29  C   UNL     1      17.682   1.193  53.337  1.00  0.00    -0.003 C 
ATOM     30  C   UNL     1      16.625   1.892  52.486  1.00  0.00     0.004 C 
ENDBRANCH  28  29
ENDBRANCH  27  28
ENDBRANCH  26  27
ENDBRANCH  25  26
ENDBRANCH  24  25
ENDBRANCH  23  24
ENDBRANCH  22  23
ENDBRANCH  21  22
ENDBRANCH  20  21
ENDBRANCH  19  20
ENDBRANCH  18  19
ENDBRANCH  17  18
ENDBRANCH   1  17
TORSDOF 26
ENDMDL
MODEL 7
REMARK VINA RESULT:    -5.000      4.148     11.113
REMARK INTER + INTRA:         -14.768
REMARK INTER:                 -12.673
REMARK INTRA:                  -2.095
REMARK UNBOUND:                -2.167
REMARK SMILES CCCCCCCCCCCCCCCCCCCCCCCCCCCC(=O)[O-]
REMARK SMILES IDX 15 1 16 2 17 3 18 4 19 5 20 6 21 7 22 8 23 9 24 10 25 11
REMARK SMILES IDX 26 12 27 13 28 14 29 15 30 16 14 17 13 18 12 19 11 20 10 21
REMARK SMILES IDX 9 22 8 23 7 24 6 25 5 26 4 27 3 28 2 29 1 30
REMARK H PARENT
REMARK Flexibility Score: inf
ROOT
ATOM      1  C   UNL     1      23.128   3.450  62.672  1.00  0.00     0.000 C 
ENDROOT
BRANCH   1   2
ATOM      2  C   UNL     1      24.413   3.107  61.897  1.00  0.00     0.000 C 
BRANCH   2   3
ATOM      3  C   UNL     1      25.629   2.908  62.820  1.00  0.00     0.000 C 
BRANCH   3   4
ATOM      4  C   UNL     1      25.896   1.428  63.144  1.00  0.00     0.000 C 
BRANCH   4   5
ATOM      5  C   UNL     1      25.652   0.444  61.985  1.00  0.00     0.000 C 
BRANCH   5   6
ATOM      6  C   UNL     1      24.881  -0.830  62.392  1.00  0.00     0.000 C 
BRANCH   6   7
ATOM      7  C   UNL     1      25.533  -2.112  61.841  1.00  0.00     0.000 C 
BRANCH   7   8
ATOM      8  C   UNL     1      26.584  -1.820  60.759  1.00  0.00     0.000 C 
BRANCH   8   9
ATOM      9  C   UNL     1      26.134  -2.279  59.361  1.00  0.00     0.000 C 
BRANCH   9  10
ATOM     10  C   UNL     1      25.135  -3.447  59.413  1.00  0.00     0.000 C 
BRANCH  10  11
ATOM     11  C   UNL     1      23.709  -3.055  58.972  1.00  0.00     0.000 C 
BRANCH  11  12
ATOM     12  C   UNL     1      22.644  -3.476  60.001  1.00  0.00     0.006 C 
BRANCH  12  13
ATOM     13  C   UNL     1      21.429  -2.538  59.995  1.00  0.00     0.053 C 
BRANCH  13  14
ATOM     14  C   UNL     1      21.490  -1.542  61.112  1.00  0.00     0.041 C 
ATOM     15  O   UNL     1      21.971  -1.871  62.229  1.00  0.00    -0.550 OA
ATOM     16  O   UNL     1      21.046  -0.241  60.910  1.00  0.00    -0.550 OA
ENDBRANCH  13  14
ENDBRANCH  12  13
ENDBRANCH  11  12
ENDBRANCH  10  11
ENDBRANCH   9  10
ENDBRANCH   8   9
ENDBRANCH   7   8
ENDBRANCH   6   7
ENDBRANCH   5   6
ENDBRANCH   4   5
ENDBRANCH   3   4
ENDBRANCH   2   3
ENDBRANCH   1   2
BRANCH   1  17
ATOM     17  C   UNL     1      22.378   2.241  63.261  1.00  0.00     0.000 C 
BRANCH  17  18
ATOM     18  C   UNL     1      21.952   2.457  64.720  1.00  0.00     0.000 C 
BRANCH  18  19
ATOM     19  C   UNL     1      23.167   2.688  65.631  1.00  0.00     0.000 C 
BRANCH  19  20
ATOM     20  C   UNL     1      22.819   2.570  67.123  1.00  0.00     0.000 C 
BRANCH  20  21
ATOM     21  C   UNL     1      23.818   3.314  68.027  1.00  0.00     0.000 C 
BRANCH  21  22
ATOM     22  C   UNL     1      23.388   3.333  69.510  1.00  0.00    -0.000 C 
BRANCH  22  23
ATOM     23  C   UNL     1      22.393   2.215  69.883  1.00  0.00    -0.000 C 
BRANCH  23  24
ATOM     24  C   UNL     1      21.929   2.235  71.351  1.00  0.00    -0.000 C 
BRANCH  24  25
ATOM     25  C   UNL     1      21.054   1.018  71.733  1.00  0.00    -0.000 C 
BRANCH  25  26
ATOM     26  C   UNL     1      19.808   0.888  70.844  1.00  0.00    -0.000 C 
BRANCH  26  27
ATOM     27  C   UNL     1      18.691   0.061  71.502  1.00  0.00    -0.000 C 
BRANCH  27  28
ATOM     28  C   UNL     1      17.524  -0.269  70.546  1.00  0.00    -0.000 C 
BRANCH  28  29
ATOM     29  C   UNL     1      18.015  -0.816  69.198  1.00  0.00    -0.003 C 
ATOM     30  C   UNL     1      17.169  -2.003  68.744  1.00  0.00     0.004 C 
ENDBRANCH  28  29
ENDBRANCH  27  28
ENDBRANCH  26  27
ENDBRANCH  25  26
ENDBRANCH  24  25
ENDBRANCH  23  24
ENDBRANCH  22  23
ENDBRANCH  21  22
ENDBRANCH  20  21
ENDBRANCH  19  20
ENDBRANCH  18  19
ENDBRANCH  17  18
ENDBRANCH   1  17
TORSDOF 26
ENDMDL
MODEL 8
REMARK VINA RESULT:    -4.970      4.702     11.341
REMARK INTER + INTRA:         -14.691
REMARK INTER:                 -12.464
REMARK INTRA:                  -2.227
REMARK UNBOUND:                -2.167
REMARK SMILES CCCCCCCCCCCCCCCCCCCCCCCCCCCC(=O)[O-]
REMARK SMILES IDX 15 1 16 2 17 3 18 4 19 5 20 6 21 7 22 8 23 9 24 10 25 11
REMARK SMILES IDX 26 12 27 13 28 14 29 15 30 16 14 17 13 18 12 19 11 20 10 21
REMARK SMILES IDX 9 22 8 23 7 24 6 25 5 26 4 27 3 28 2 29 1 30
REMARK H PARENT
REMARK Flexibility Score: inf
ROOT
ATOM      1  C   UNL     1      21.413   2.541  63.536  1.00  0.00     0.000 C 
ENDROOT
BRANCH   1   2
ATOM      2  C   UNL     1      21.976   1.580  62.473  1.00  0.00     0.000 C 
BRANCH   2   3
ATOM      3  C   UNL     1      21.272   0.211  62.475  1.00  0.00     0.000 C 
BRANCH   3   4
ATOM      4  C   UNL     1      22.070  -0.871  61.730  1.00  0.00     0.000 C 
BRANCH   4   5
ATOM      5  C   UNL     1      21.306  -1.601  60.609  1.00  0.00     0.000 C 
BRANCH   5   6
ATOM      6  C   UNL     1      21.822  -3.026  60.318  1.00  0.00     0.000 C 
BRANCH   6   7
ATOM      7  C   UNL     1      22.978  -3.434  61.251  1.00  0.00     0.000 C 
BRANCH   7   8
ATOM      8  C   UNL     1      24.187  -3.990  60.481  1.00  0.00     0.000 C 
BRANCH   8   9
ATOM      9  C   UNL     1      25.528  -3.559  61.100  1.00  0.00     0.000 C 
BRANCH   9  10
ATOM     10  C   UNL     1      25.380  -2.380  62.077  1.00  0.00     0.000 C 
BRANCH  10  11
ATOM     11  C   UNL     1      25.792  -1.023  61.468  1.00  0.00     0.000 C 
BRANCH  11  12
ATOM     12  C   UNL     1      25.976   0.065  62.540  1.00  0.00     0.006 C 
BRANCH  12  13
ATOM     13  C   UNL     1      25.351   1.403  62.122  1.00  0.00     0.053 C 
BRANCH  13  14
ATOM     14  C   UNL     1      25.606   2.478  63.133  1.00  0.00     0.041 C 
ATOM     15  O   UNL     1      25.253   3.664  62.900  1.00  0.00    -0.550 OA
ATOM     16  O   UNL     1      26.204   2.164  64.348  1.00  0.00    -0.550 OA
ENDBRANCH  13  14
ENDBRANCH  12  13
ENDBRANCH  11  12
ENDBRANCH  10  11
ENDBRANCH   9  10
ENDBRANCH   8   9
ENDBRANCH   7   8
ENDBRANCH   6   7
ENDBRANCH   5   6
ENDBRANCH   4   5
ENDBRANCH   3   4
ENDBRANCH   2   3
ENDBRANCH   1   2
BRANCH   1  17
ATOM     17  C   UNL     1      21.578   2.069  64.992  1.00  0.00     0.000 C 
BRANCH  17  18
ATOM     18  C   UNL     1      22.845   2.626  65.659  1.00  0.00     0.000 C 
BRANCH  18  19
ATOM     19  C   UNL     1      22.864   2.323  67.165  1.00  0.00     0.000 C 
BRANCH  19  20
ATOM     20  C   UNL     1      23.692   3.343  67.963  1.00  0.00     0.000 C 
BRANCH  20  21
ATOM     21  C   UNL     1      23.291   3.402  69.447  1.00  0.00     0.000 C 
BRANCH  21  22
ATOM     22  C   UNL     1      22.541   2.136  69.917  1.00  0.00    -0.000 C 
BRANCH  22  23
ATOM     23  C   UNL     1      21.993   2.237  71.354  1.00  0.00    -0.000 C 
BRANCH  23  24
ATOM     24  C   UNL     1      21.099   1.058  71.783  1.00  0.00    -0.000 C 
BRANCH  24  25
ATOM     25  C   UNL     1      19.852   0.878  70.886  1.00  0.00    -0.000 C 
BRANCH  25  26
ATOM     26  C   UNL     1      18.646   0.325  71.661  1.00  0.00    -0.000 C 
BRANCH  26  27
ATOM     27  C   UNL     1      17.675  -0.463  70.767  1.00  0.00    -0.000 C 
BRANCH  27  28
ATOM     28  C   UNL     1      18.122  -0.542  69.291  1.00  0.00    -0.000 C 
BRANCH  28  29
ATOM     29  C   UNL     1      17.778  -1.895  68.652  1.00  0.00    -0.003 C 
ATOM     30  C   UNL     1      16.267  -2.088  68.549  1.00  0.00     0.004 C 
ENDBRANCH  28  29
ENDBRANCH  27  28
ENDBRANCH  26  27
ENDBRANCH  25  26
ENDBRANCH  24  25
ENDBRANCH  23  24
ENDBRANCH  22  23
ENDBRANCH  21  22
ENDBRANCH  20  21
ENDBRANCH  19  20
ENDBRANCH  18  19
ENDBRANCH  17  18
ENDBRANCH   1  17
TORSDOF 26
ENDMDL
MODEL 9
REMARK VINA RESULT:    -4.960      1.715      3.011
REMARK INTER + INTRA:         -14.666
REMARK INTER:                 -12.750
REMARK INTRA:                  -1.916
REMARK UNBOUND:                -2.167
REMARK SMILES CCCCCCCCCCCCCCCCCCCCCCCCCCCC(=O)[O-]
REMARK SMILES IDX 15 1 16 2 17 3 18 4 19 5 20 6 21 7 22 8 23 9 24 10 25 11
REMARK SMILES IDX 26 12 27 13 28 14 29 15 30 16 14 17 13 18 12 19 11 20 10 21
REMARK SMILES IDX 9 22 8 23 7 24 6 25 5 26 4 27 3 28 2 29 1 30
REMARK H PARENT
REMARK Flexibility Score: inf
ROOT
ATOM      1  C   UNL     1      25.350  -3.692  59.706  1.00  0.00     0.000 C 
ENDROOT
BRANCH   1   2
ATOM      2  C   UNL     1      24.251  -4.119  60.696  1.00  0.00     0.000 C 
BRANCH   2   3
ATOM      3  C   UNL     1      24.302  -3.334  62.019  1.00  0.00     0.000 C 
BRANCH   3   4
ATOM      4  C   UNL     1      22.957  -2.681  62.377  1.00  0.00     0.000 C 
BRANCH   4   5
ATOM      5  C   UNL     1      22.799  -1.213  61.940  1.00  0.00     0.000 C 
BRANCH   5   6
ATOM      6  C   UNL     1      21.367  -0.835  61.507  1.00  0.00     0.000 C 
BRANCH   6   7
ATOM      7  C   UNL     1      20.972   0.585  61.955  1.00  0.00     0.000 C 
BRANCH   7   8
ATOM      8  C   UNL     1      22.158   1.368  62.540  1.00  0.00     0.000 C 
BRANCH   8   9
ATOM      9  C   UNL     1      21.742   2.284  63.705  1.00  0.00     0.000 C 
BRANCH   9  10
ATOM     10  C   UNL     1      22.774   3.387  63.992  1.00  0.00     0.000 C 
BRANCH  10  11
ATOM     11  C   UNL     1      23.780   3.013  65.101  1.00  0.00     0.000 C 
BRANCH  11  12
ATOM     12  C   UNL     1      25.219   3.430  64.749  1.00  0.00     0.006 C 
BRANCH  12  13
ATOM     13  C   UNL     1      26.079   2.236  64.312  1.00  0.00     0.053 C 
BRANCH  13  14
ATOM     14  C   UNL     1      25.835   1.867  62.881  1.00  0.00     0.041 C 
ATOM     15  O   UNL     1      25.639   2.765  62.020  1.00  0.00    -0.550 OA
ATOM     16  O   UNL     1      25.858   0.533  62.492  1.00  0.00    -0.550 OA
ENDBRANCH  13  14
ENDBRANCH  12  13
ENDBRANCH  11  12
ENDBRANCH  10  11
ENDBRANCH   9  10
ENDBRANCH   8   9
ENDBRANCH   7   8
ENDBRANCH   6   7
ENDBRANCH   5   6
ENDBRANCH   4   5
ENDBRANCH   3   4
ENDBRANCH   2   3
ENDBRANCH   1   2
BRANCH   1  17
ATOM     17  C   UNL     1      24.874  -2.786  58.556  1.00  0.00     0.000 C 
BRANCH  17  18
ATOM     18  C   UNL     1      23.350  -2.813  58.368  1.00  0.00     0.000 C 
BRANCH  18  19
ATOM     19  C   UNL     1      22.964  -2.629  56.893  1.00  0.00     0.000 C 
BRANCH  19  20
ATOM     20  C   UNL     1      23.772  -3.538  55.952  1.00  0.00     0.000 C 
BRANCH  20  21
ATOM     21  C   UNL     1      23.475  -3.270  54.467  1.00  0.00     0.000 C 
BRANCH  21  22
ATOM     22  C   UNL     1      22.399  -2.182  54.257  1.00  0.00    -0.000 C 
BRANCH  22  23
ATOM     23  C   UNL     1      21.809  -2.159  52.833  1.00  0.00    -0.000 C 
BRANCH  23  24
ATOM     24  C   UNL     1      20.956  -0.917  52.513  1.00  0.00    -0.000 C 
BRANCH  24  25
ATOM     25  C   UNL     1      19.664  -0.828  53.359  1.00  0.00    -0.000 C 
BRANCH  25  26
ATOM     26  C   UNL     1      18.514  -0.145  52.605  1.00  0.00    -0.000 C 
BRANCH  26  27
ATOM     27  C   UNL     1      17.581   0.649  53.534  1.00  0.00    -0.000 C 
BRANCH  27  28
ATOM     28  C   UNL     1      16.097   0.601  53.106  1.00  0.00    -0.000 C 
BRANCH  28  29
ATOM     29  C   UNL     1      15.622   1.933  52.510  1.00  0.00    -0.003 C 
ATOM     30  C   UNL     1      15.502   3.008  53.587  1.00  0.00     0.004 C 
ENDBRANCH  28  29
ENDBRANCH  27  28
ENDBRANCH  26  27
ENDBRANCH  25  26
ENDBRANCH  24  25
ENDBRANCH  23  24
ENDBRANCH  22  23
ENDBRANCH  21  22
ENDBRANCH  20  21
ENDBRANCH  19  20
ENDBRANCH  18  19
ENDBRANCH  17  18
ENDBRANCH   1  17
TORSDOF 26
ENDMDL
