MODEL 1
REMARK VINA RESULT:    -5.915      0.000      0.000
REMARK INTER + INTRA:         -18.052
REMARK INTER:                 -15.598
REMARK INTRA:                  -2.454
REMARK UNBOUND:                -2.454
REMARK SMILES CCCCCCCCCCCCCCCCCCCCCCCCCCCCCC(=O)[O-]
REMARK SMILES IDX 16 1 17 2 18 3 19 4 20 5 21 6 22 7 23 8 24 9 25 10 26 11
REMARK SMILES IDX 27 12 28 13 29 14 30 15 31 16 32 17 15 18 14 19 13 20 12 21
REMARK SMILES IDX 11 22 10 23 9 24 8 25 7 26 6 27 5 28 4 29 3 30 2 31 1 32
REMARK H PARENT
REMARK Flexibility Score: inf
ROOT
ATOM      1  C   UNL     1      49.046  33.817  17.534  1.00  0.00     0.000 C 
ENDROOT
BRANCH   1   2
ATOM      2  C   UNL     1      47.579  34.045  17.125  1.00  0.00     0.000 C 
BRANCH   2   3
ATOM      3  C   UNL     1      47.275  33.836  15.628  1.00  0.00     0.000 C 
BRANCH   3   4
ATOM      4  C   UNL     1      48.498  33.902  14.693  1.00  0.00     0.000 C 
BRANCH   4   5
ATOM      5  C   UNL     1      48.451  32.939  13.493  1.00  0.00     0.000 C 
BRANCH   5   6
ATOM      6  C   UNL     1      48.658  33.648  12.147  1.00  0.00     0.000 C 
BRANCH   6   7
ATOM      7  C   UNL     1      47.311  34.062  11.533  1.00  0.00     0.000 C 
BRANCH   7   8
ATOM      8  C   UNL     1      46.751  35.358  12.140  1.00  0.00     0.000 C 
BRANCH   8   9
ATOM      9  C   UNL     1      45.426  35.143  12.888  1.00  0.00     0.000 C 
BRANCH   9  10
ATOM     10  C   UNL     1      44.597  36.433  12.922  1.00  0.00     0.000 C 
BRANCH  10  11
ATOM     11  C   UNL     1      43.179  36.191  12.382  1.00  0.00     0.000 C 
BRANCH  11  12
ATOM     12  C   UNL     1      42.732  37.270  11.382  1.00  0.00     0.000 C 
BRANCH  12  13
ATOM     13  C   UNL     1      41.288  37.060  10.895  1.00  0.00     0.006 C 
BRANCH  13  14
ATOM     14  C   UNL     1      40.964  35.579  10.655  1.00  0.00     0.053 C 
BRANCH  14  15
ATOM     15  C   UNL     1      39.625  35.204  11.212  1.00  0.00     0.041 C 
ATOM     16  O   UNL     1      38.647  35.989  11.090  1.00  0.00    -0.550 OA
ATOM     17  O   UNL     1      39.444  33.967  11.817  1.00  0.00    -0.550 OA
ENDBRANCH  14  15
ENDBRANCH  13  14
ENDBRANCH  12  13
ENDBRANCH  11  12
ENDBRANCH  10  11
ENDBRANCH   9  10
ENDBRANCH   8   9
ENDBRANCH   7   8
ENDBRANCH   6   7
ENDBRANCH   5   6
ENDBRANCH   4   5
ENDBRANCH   3   4
ENDBRANCH   2   3
ENDBRANCH   1   2
BRANCH   1  18
ATOM     18  C   UNL     1      49.378  32.332  17.757  1.00  0.00     0.000 C 
BRANCH  18  19
ATOM     19  C   UNL     1      48.196  31.534  18.336  1.00  0.00     0.000 C 
BRANCH  19  20
ATOM     20  C   UNL     1      47.741  30.324  17.494  1.00  0.00     0.000 C 
BRANCH  20  21
ATOM     21  C   UNL     1      48.336  30.250  16.075  1.00  0.00     0.000 C 
BRANCH  21  22
ATOM     22  C   UNL     1      49.580  29.351  15.933  1.00  0.00     0.000 C 
BRANCH  22  23
ATOM     23  C   UNL     1      49.508  28.048  16.758  1.00  0.00     0.000 C 
BRANCH  23  24
ATOM     24  C   UNL     1      48.552  27.009  16.147  1.00  0.00    -0.000 C 
BRANCH  24  25
ATOM     25  C   UNL     1      48.101  25.950  17.166  1.00  0.00    -0.000 C 
BRANCH  25  26
ATOM     26  C   UNL     1      49.063  25.831  18.361  1.00  0.00    -0.000 C 
BRANCH  26  27
ATOM     27  C   UNL     1      48.339  25.510  19.680  1.00  0.00    -0.000 C 
BRANCH  27  28
ATOM     28  C   UNL     1      49.293  25.360  20.883  1.00  0.00    -0.000 C 
BRANCH  28  29
ATOM     29  C   UNL     1      48.840  26.192  22.094  1.00  0.00    -0.000 C 
BRANCH  29  30
ATOM     30  C   UNL     1      50.018  26.957  22.707  1.00  0.00    -0.000 C 
BRANCH  30  31
ATOM     31  C   UNL     1      51.354  26.450  22.153  1.00  0.00    -0.003 C 
ATOM     32  C   UNL     1      52.519  27.282  22.678  1.00  0.00     0.004 C 
ENDBRANCH  30  31
ENDBRANCH  29  30
ENDBRANCH  28  29
ENDBRANCH  27  28
ENDBRANCH  26  27
ENDBRANCH  25  26
ENDBRANCH  24  25
ENDBRANCH  23  24
ENDBRANCH  22  23
ENDBRANCH  21  22
ENDBRANCH  20  21
ENDBRANCH  19  20
ENDBRANCH  18  19
ENDBRANCH   1  18
TORSDOF 28
ENDMDL
MODEL 2
REMARK VINA RESULT:    -5.712      4.142     12.431
REMARK INTER + INTRA:         -17.516
REMARK INTER:                 -14.391
REMARK INTRA:                  -3.125
REMARK UNBOUND:                -2.454
REMARK SMILES CCCCCCCCCCCCCCCCCCCCCCCCCCCCCC(=O)[O-]
REMARK SMILES IDX 16 1 17 2 18 3 19 4 20 5 21 6 22 7 23 8 24 9 25 10 26 11
REMARK SMILES IDX 27 12 28 13 29 14 30 15 31 16 32 17 15 18 14 19 13 20 12 21
REMARK SMILES IDX 11 22 10 23 9 24 8 25 7 26 6 27 5 28 4 29 3 30 2 31 1 32
REMARK H PARENT
REMARK Flexibility Score: inf
ROOT
ATOM      1  C   UNL     1      47.755  28.157  16.260  1.00  0.00     0.000 C 
ENDROOT
BRANCH   1   2
ATOM      2  C   UNL     1      49.182  27.599  16.420  1.00  0.00     0.000 C 
BRANCH   2   3
ATOM      3  C   UNL     1      49.307  26.068  16.287  1.00  0.00     0.000 C 
BRANCH   3   4
ATOM      4  C   UNL     1      49.812  25.338  17.547  1.00  0.00     0.000 C 
BRANCH   4   5
ATOM      5  C   UNL     1      49.557  26.077  18.873  1.00  0.00     0.000 C 
BRANCH   5   6
ATOM      6  C   UNL     1      48.340  25.537  19.637  1.00  0.00     0.000 C 
BRANCH   6   7
ATOM      7  C   UNL     1      48.713  25.190  21.087  1.00  0.00     0.000 C 
BRANCH   7   8
ATOM      8  C   UNL     1      48.719  26.418  22.012  1.00  0.00     0.000 C 
BRANCH   8   9
ATOM      9  C   UNL     1      50.112  26.726  22.583  1.00  0.00     0.000 C 
BRANCH   9  10
ATOM     10  C   UNL     1      50.945  25.445  22.725  1.00  0.00     0.000 C 
BRANCH  10  11
ATOM     11  C   UNL     1      52.401  25.686  22.299  1.00  0.00     0.000 C 
BRANCH  11  12
ATOM     12  C   UNL     1      52.524  26.710  21.159  1.00  0.00     0.000 C 
BRANCH  12  13
ATOM     13  C   UNL     1      53.204  26.123  19.910  1.00  0.00     0.006 C 
BRANCH  13  14
ATOM     14  C   UNL     1      53.842  27.208  19.031  1.00  0.00     0.053 C 
BRANCH  14  15
ATOM     15  C   UNL     1      53.021  27.490  17.809  1.00  0.00     0.041 C 
ATOM     16  O   UNL     1      53.014  26.672  16.851  1.00  0.00    -0.550 OA
ATOM     17  O   UNL     1      52.225  28.626  17.753  1.00  0.00    -0.550 OA
ENDBRANCH  14  15
ENDBRANCH  13  14
ENDBRANCH  12  13
ENDBRANCH  11  12
ENDBRANCH  10  11
ENDBRANCH   9  10
ENDBRANCH   8   9
ENDBRANCH   7   8
ENDBRANCH   6   7
ENDBRANCH   5   6
ENDBRANCH   4   5
ENDBRANCH   3   4
ENDBRANCH   2   3
ENDBRANCH   1   2
BRANCH   1  18
ATOM     18  C   UNL     1      47.729  29.685  16.093  1.00  0.00     0.000 C 
BRANCH  18  19
ATOM     19  C   UNL     1      48.094  30.436  17.386  1.00  0.00     0.000 C 
BRANCH  19  20
ATOM     20  C   UNL     1      49.413  31.234  17.337  1.00  0.00     0.000 C 
BRANCH  20  21
ATOM     21  C   UNL     1      49.265  32.758  17.507  1.00  0.00     0.000 C 
BRANCH  21  22
ATOM     22  C   UNL     1      47.826  33.293  17.382  1.00  0.00     0.000 C 
BRANCH  22  23
ATOM     23  C   UNL     1      47.563  34.087  16.085  1.00  0.00     0.000 C 
BRANCH  23  24
ATOM     24  C   UNL     1      48.048  33.346  14.826  1.00  0.00    -0.000 C 
BRANCH  24  25
ATOM     25  C   UNL     1      48.515  34.306  13.720  1.00  0.00    -0.000 C 
BRANCH  25  26
ATOM     26  C   UNL     1      48.180  33.791  12.309  1.00  0.00    -0.000 C 
BRANCH  26  27
ATOM     27  C   UNL     1      46.857  34.358  11.766  1.00  0.00    -0.000 C 
BRANCH  27  28
ATOM     28  C   UNL     1      46.415  35.660  12.465  1.00  0.00    -0.000 C 
BRANCH  28  29
ATOM     29  C   UNL     1      45.073  35.502  13.198  1.00  0.00    -0.000 C 
BRANCH  29  30
ATOM     30  C   UNL     1      44.133  36.671  12.883  1.00  0.00    -0.000 C 
BRANCH  30  31
ATOM     31  C   UNL     1      43.013  36.239  11.931  1.00  0.00    -0.003 C 
ATOM     32  C   UNL     1      41.741  37.044  12.175  1.00  0.00     0.004 C 
ENDBRANCH  30  31
ENDBRANCH  29  30
ENDBRANCH  28  29
ENDBRANCH  27  28
ENDBRANCH  26  27
ENDBRANCH  25  26
ENDBRANCH  24  25
ENDBRANCH  23  24
ENDBRANCH  22  23
ENDBRANCH  21  22
ENDBRANCH  20  21
ENDBRANCH  19  20
ENDBRANCH  18  19
ENDBRANCH   1  18
TORSDOF 28
ENDMDL
MODEL 3
REMARK VINA RESULT:    -5.695      1.132      2.085
REMARK INTER + INTRA:         -17.472
REMARK INTER:                 -14.932
REMARK INTRA:                  -2.540
REMARK UNBOUND:                -2.454
REMARK SMILES CCCCCCCCCCCCCCCCCCCCCCCCCCCCCC(=O)[O-]
REMARK SMILES IDX 16 1 17 2 18 3 19 4 20 5 21 6 22 7 23 8 24 9 25 10 26 11
REMARK SMILES IDX 27 12 28 13 29 14 30 15 31 16 32 17 15 18 14 19 13 20 12 21
REMARK SMILES IDX 11 22 10 23 9 24 8 25 7 26 6 27 5 28 4 29 3 30 2 31 1 32
REMARK H PARENT
REMARK Flexibility Score: inf
ROOT
ATOM      1  C   UNL     1      49.031  32.272  18.140  1.00  0.00     0.000 C 
ENDROOT
BRANCH   1   2
ATOM      2  C   UNL     1      49.126  33.596  17.358  1.00  0.00     0.000 C 
BRANCH   2   3
ATOM      3  C   UNL     1      47.774  34.257  17.021  1.00  0.00     0.000 C 
BRANCH   3   4
ATOM      4  C   UNL     1      47.129  33.799  15.699  1.00  0.00     0.000 C 
BRANCH   4   5
ATOM      5  C   UNL     1      48.122  33.330  14.620  1.00  0.00     0.000 C 
BRANCH   5   6
ATOM      6  C   UNL     1      48.530  34.451  13.652  1.00  0.00     0.000 C 
BRANCH   6   7
ATOM      7  C   UNL     1      48.009  34.167  12.234  1.00  0.00     0.000 C 
BRANCH   7   8
ATOM      8  C   UNL     1      46.532  34.552  12.052  1.00  0.00     0.000 C 
BRANCH   8   9
ATOM      9  C   UNL     1      46.140  35.804  12.852  1.00  0.00     0.000 C 
BRANCH   9  10
ATOM     10  C   UNL     1      44.638  35.809  13.165  1.00  0.00     0.000 C 
BRANCH  10  11
ATOM     11  C   UNL     1      43.854  36.575  12.089  1.00  0.00     0.000 C 
BRANCH  11  12
ATOM     12  C   UNL     1      42.359  36.214  12.074  1.00  0.00     0.000 C 
BRANCH  12  13
ATOM     13  C   UNL     1      41.825  35.978  10.651  1.00  0.00     0.006 C 
BRANCH  13  14
ATOM     14  C   UNL     1      40.333  36.317  10.526  1.00  0.00     0.053 C 
BRANCH  14  15
ATOM     15  C   UNL     1      39.522  35.676  11.611  1.00  0.00     0.041 C 
ATOM     16  O   UNL     1      38.842  36.389  12.396  1.00  0.00    -0.550 OA
ATOM     17  O   UNL     1      39.476  34.293  11.722  1.00  0.00    -0.550 OA
ENDBRANCH  14  15
ENDBRANCH  13  14
ENDBRANCH  12  13
ENDBRANCH  11  12
ENDBRANCH  10  11
ENDBRANCH   9  10
ENDBRANCH   8   9
ENDBRANCH   7   8
ENDBRANCH   6   7
ENDBRANCH   5   6
ENDBRANCH   4   5
ENDBRANCH   3   4
ENDBRANCH   2   3
ENDBRANCH   1   2
BRANCH   1  18
ATOM     18  C   UNL     1      49.035  31.038  17.223  1.00  0.00     0.000 C 
BRANCH  18  19
ATOM     19  C   UNL     1      47.656  30.361  17.122  1.00  0.00     0.000 C 
BRANCH  19  20
ATOM     20  C   UNL     1      47.459  29.441  15.899  1.00  0.00     0.000 C 
BRANCH  20  21
ATOM     21  C   UNL     1      48.458  28.274  15.788  1.00  0.00     0.000 C 
BRANCH  21  22
ATOM     22  C   UNL     1      48.199  27.099  16.750  1.00  0.00     0.000 C 
BRANCH  22  23
ATOM     23  C   UNL     1      49.140  25.893  16.535  1.00  0.00     0.000 C 
BRANCH  23  24
ATOM     24  C   UNL     1      49.535  25.205  17.854  1.00  0.00    -0.000 C 
BRANCH  24  25
ATOM     25  C   UNL     1      51.059  25.102  18.032  1.00  0.00    -0.000 C 
BRANCH  25  26
ATOM     26  C   UNL     1      51.637  26.258  18.865  1.00  0.00    -0.000 C 
BRANCH  26  27
ATOM     27  C   UNL     1      52.226  25.789  20.207  1.00  0.00    -0.000 C 
BRANCH  27  28
ATOM     28  C   UNL     1      52.627  26.950  21.140  1.00  0.00    -0.000 C 
BRANCH  28  29
ATOM     29  C   UNL     1      51.851  26.926  22.467  1.00  0.00    -0.000 C 
BRANCH  29  30
ATOM     30  C   UNL     1      50.695  25.921  22.410  1.00  0.00    -0.000 C 
BRANCH  30  31
ATOM     31  C   UNL     1      49.341  26.632  22.485  1.00  0.00    -0.003 C 
ATOM     32  C   UNL     1      48.465  26.278  21.287  1.00  0.00     0.004 C 
ENDBRANCH  30  31
ENDBRANCH  29  30
ENDBRANCH  28  29
ENDBRANCH  27  28
ENDBRANCH  26  27
ENDBRANCH  25  26
ENDBRANCH  24  25
ENDBRANCH  23  24
ENDBRANCH  22  23
ENDBRANCH  21  22
ENDBRANCH  20  21
ENDBRANCH  19  20
ENDBRANCH  18  19
ENDBRANCH   1  18
TORSDOF 28
ENDMDL
MODEL 4
REMARK VINA RESULT:    -5.689      1.836      3.813
REMARK INTER + INTRA:         -17.457
REMARK INTER:                 -14.779
REMARK INTRA:                  -2.678
REMARK UNBOUND:                -2.454
REMARK SMILES CCCCCCCCCCCCCCCCCCCCCCCCCCCCCC(=O)[O-]
REMARK SMILES IDX 16 1 17 2 18 3 19 4 20 5 21 6 22 7 23 8 24 9 25 10 26 11
REMARK SMILES IDX 27 12 28 13 29 14 30 15 31 16 32 17 15 18 14 19 13 20 12 21
REMARK SMILES IDX 11 22 10 23 9 24 8 25 7 26 6 27 5 28 4 29 3 30 2 31 1 32
REMARK H PARENT
REMARK Flexibility Score: inf
ROOT
ATOM      1  C   UNL     1      47.729  30.142  17.045  1.00  0.00     0.000 C 
ENDROOT
BRANCH   1   2
ATOM      2  C   UNL     1      48.114  31.234  18.060  1.00  0.00     0.000 C 
BRANCH   2   3
ATOM      3  C   UNL     1      49.381  32.039  17.711  1.00  0.00     0.000 C 
BRANCH   3   4
ATOM      4  C   UNL     1      49.148  33.530  17.399  1.00  0.00     0.000 C 
BRANCH   4   5
ATOM      5  C   UNL     1      47.804  33.850  16.718  1.00  0.00     0.000 C 
BRANCH   5   6
ATOM      6  C   UNL     1      47.735  33.353  15.266  1.00  0.00     0.000 C 
BRANCH   6   7
ATOM      7  C   UNL     1      48.243  34.430  14.294  1.00  0.00     0.000 C 
BRANCH   7   8
ATOM      8  C   UNL     1      47.761  34.206  12.852  1.00  0.00     0.000 C 
BRANCH   8   9
ATOM      9  C   UNL     1      46.827  35.321  12.356  1.00  0.00     0.000 C 
BRANCH   9  10
ATOM     10  C   UNL     1      45.534  35.363  13.182  1.00  0.00     0.000 C 
BRANCH  10  11
ATOM     11  C   UNL     1      44.637  36.529  12.740  1.00  0.00     0.000 C 
BRANCH  11  12
ATOM     12  C   UNL     1      43.212  36.078  12.379  1.00  0.00     0.000 C 
BRANCH  12  13
ATOM     13  C   UNL     1      42.532  37.022  11.373  1.00  0.00     0.006 C 
BRANCH  13  14
ATOM     14  C   UNL     1      42.979  38.480  11.549  1.00  0.00     0.053 C 
BRANCH  14  15
ATOM     15  C   UNL     1      41.914  39.445  11.125  1.00  0.00     0.041 C 
ATOM     16  O   UNL     1      42.210  40.439  10.410  1.00  0.00    -0.550 OA
ATOM     17  O   UNL     1      40.589  39.218  11.475  1.00  0.00    -0.550 OA
ENDBRANCH  14  15
ENDBRANCH  13  14
ENDBRANCH  12  13
ENDBRANCH  11  12
ENDBRANCH  10  11
ENDBRANCH   9  10
ENDBRANCH   8   9
ENDBRANCH   7   8
ENDBRANCH   6   7
ENDBRANCH   5   6
ENDBRANCH   4   5
ENDBRANCH   3   4
ENDBRANCH   2   3
ENDBRANCH   1   2
BRANCH   1  18
ATOM     18  C   UNL     1      48.944  29.355  16.528  1.00  0.00     0.000 C 
BRANCH  18  19
ATOM     19  C   UNL     1      49.325  28.174  17.441  1.00  0.00     0.000 C 
BRANCH  19  20
ATOM     20  C   UNL     1      49.878  26.931  16.715  1.00  0.00     0.000 C 
BRANCH  20  21
ATOM     21  C   UNL     1      49.598  25.585  17.410  1.00  0.00     0.000 C 
BRANCH  21  22
ATOM     22  C   UNL     1      48.540  25.636  18.529  1.00  0.00     0.000 C 
BRANCH  22  23
ATOM     23  C   UNL     1      49.079  25.238  19.920  1.00  0.00     0.000 C 
BRANCH  23  24
ATOM     24  C   UNL     1      48.167  25.706  21.068  1.00  0.00    -0.000 C 
BRANCH  24  25
ATOM     25  C   UNL     1      48.864  26.704  22.007  1.00  0.00    -0.000 C 
BRANCH  25  26
ATOM     26  C   UNL     1      50.156  26.136  22.619  1.00  0.00    -0.000 C 
BRANCH  26  27
ATOM     27  C   UNL     1      51.401  26.967  22.262  1.00  0.00    -0.000 C 
BRANCH  27  28
ATOM     28  C   UNL     1      52.693  26.128  22.168  1.00  0.00    -0.000 C 
BRANCH  28  29
ATOM     29  C   UNL     1      52.958  25.625  20.740  1.00  0.00    -0.000 C 
BRANCH  29  30
ATOM     30  C   UNL     1      52.442  26.626  19.700  1.00  0.00    -0.000 C 
BRANCH  30  31
ATOM     31  C   UNL     1      53.552  27.584  19.256  1.00  0.00    -0.003 C 
ATOM     32  C   UNL     1      53.015  28.644  18.300  1.00  0.00     0.004 C 
ENDBRANCH  30  31
ENDBRANCH  29  30
ENDBRANCH  28  29
ENDBRANCH  27  28
ENDBRANCH  26  27
ENDBRANCH  25  26
ENDBRANCH  24  25
ENDBRANCH  23  24
ENDBRANCH  22  23
ENDBRANCH  21  22
ENDBRANCH  20  21
ENDBRANCH  19  20
ENDBRANCH  18  19
ENDBRANCH   1  18
TORSDOF 28
ENDMDL
MODEL 5
REMARK VINA RESULT:    -5.677      1.760      2.043
REMARK INTER + INTRA:         -17.424
REMARK INTER:                 -14.960
REMARK INTRA:                  -2.464
REMARK UNBOUND:                -2.454
REMARK SMILES CCCCCCCCCCCCCCCCCCCCCCCCCCCCCC(=O)[O-]
REMARK SMILES IDX 16 1 17 2 18 3 19 4 20 5 21 6 22 7 23 8 24 9 25 10 26 11
REMARK SMILES IDX 27 12 28 13 29 14 30 15 31 16 32 17 15 18 14 19 13 20 12 21
REMARK SMILES IDX 11 22 10 23 9 24 8 25 7 26 6 27 5 28 4 29 3 30 2 31 1 32
REMARK H PARENT
REMARK Flexibility Score: inf
ROOT
ATOM      1  C   UNL     1      49.064  33.863  17.459  1.00  0.00     0.000 C 
ENDROOT
BRANCH   1   2
ATOM      2  C   UNL     1      47.601  34.124  17.053  1.00  0.00     0.000 C 
BRANCH   2   3
ATOM      3  C   UNL     1      47.274  33.856  15.570  1.00  0.00     0.000 C 
BRANCH   3   4
ATOM      4  C   UNL     1      48.470  33.961  14.604  1.00  0.00     0.000 C 
BRANCH   4   5
ATOM      5  C   UNL     1      48.300  33.203  13.275  1.00  0.00     0.000 C 
BRANCH   5   6
ATOM      6  C   UNL     1      48.053  34.135  12.080  1.00  0.00     0.000 C 
BRANCH   6   7
ATOM      7  C   UNL     1      46.558  34.466  11.944  1.00  0.00     0.000 C 
BRANCH   7   8
ATOM      8  C   UNL     1      46.154  35.733  12.715  1.00  0.00     0.000 C 
BRANCH   8   9
ATOM      9  C   UNL     1      44.675  35.732  13.128  1.00  0.00     0.000 C 
BRANCH   9  10
ATOM     10  C   UNL     1      43.833  36.583  12.168  1.00  0.00     0.000 C 
BRANCH  10  11
ATOM     11  C   UNL     1      42.534  37.050  12.840  1.00  0.00     0.000 C 
BRANCH  11  12
ATOM     12  C   UNL     1      41.277  36.469  12.170  1.00  0.00     0.000 C 
BRANCH  12  13
ATOM     13  C   UNL     1      39.984  36.854  12.908  1.00  0.00     0.006 C 
BRANCH  13  14
ATOM     14  C   UNL     1      40.257  37.720  14.146  1.00  0.00     0.053 C 
BRANCH  14  15
ATOM     15  C   UNL     1      39.064  38.546  14.523  1.00  0.00     0.041 C 
ATOM     16  O   UNL     1      37.961  37.988  14.766  1.00  0.00    -0.550 OA
ATOM     17  O   UNL     1      39.185  39.922  14.657  1.00  0.00    -0.550 OA
ENDBRANCH  14  15
ENDBRANCH  13  14
ENDBRANCH  12  13
ENDBRANCH  11  12
ENDBRANCH  10  11
ENDBRANCH   9  10
ENDBRANCH   8   9
ENDBRANCH   7   8
ENDBRANCH   6   7
ENDBRANCH   5   6
ENDBRANCH   4   5
ENDBRANCH   3   4
ENDBRANCH   2   3
ENDBRANCH   1   2
BRANCH   1  18
ATOM     18  C   UNL     1      49.361  32.373  17.690  1.00  0.00     0.000 C 
BRANCH  18  19
ATOM     19  C   UNL     1      48.232  31.646  18.444  1.00  0.00     0.000 C 
BRANCH  19  20
ATOM     20  C   UNL     1      47.699  30.369  17.762  1.00  0.00     0.000 C 
BRANCH  20  21
ATOM     21  C   UNL     1      47.767  30.369  16.223  1.00  0.00     0.000 C 
BRANCH  21  22
ATOM     22  C   UNL     1      48.427  29.125  15.599  1.00  0.00     0.000 C 
BRANCH  22  23
ATOM     23  C   UNL     1      49.889  28.902  16.042  1.00  0.00     0.000 C 
BRANCH  23  24
ATOM     24  C   UNL     1      50.245  27.412  16.188  1.00  0.00    -0.000 C 
BRANCH  24  25
ATOM     25  C   UNL     1      49.017  26.539  16.494  1.00  0.00    -0.000 C 
BRANCH  25  26
ATOM     26  C   UNL     1      49.302  25.470  17.563  1.00  0.00    -0.000 C 
BRANCH  26  27
ATOM     27  C   UNL     1      49.495  26.068  18.968  1.00  0.00    -0.000 C 
BRANCH  27  28
ATOM     28  C   UNL     1      48.746  25.295  20.072  1.00  0.00    -0.000 C 
BRANCH  28  29
ATOM     29  C   UNL     1      48.429  26.178  21.290  1.00  0.00    -0.000 C 
BRANCH  29  30
ATOM     30  C   UNL     1      49.391  25.886  22.446  1.00  0.00    -0.000 C 
BRANCH  30  31
ATOM     31  C   UNL     1      50.345  27.060  22.682  1.00  0.00    -0.003 C 
ATOM     32  C   UNL     1      51.768  26.708  22.261  1.00  0.00     0.004 C 
ENDBRANCH  30  31
ENDBRANCH  29  30
ENDBRANCH  28  29
ENDBRANCH  27  28
ENDBRANCH  26  27
ENDBRANCH  25  26
ENDBRANCH  24  25
ENDBRANCH  23  24
ENDBRANCH  22  23
ENDBRANCH  21  22
ENDBRANCH  20  21
ENDBRANCH  19  20
ENDBRANCH  18  19
ENDBRANCH   1  18
TORSDOF 28
ENDMDL
MODEL 6
REMARK VINA RESULT:    -5.675      4.741     12.993
REMARK INTER + INTRA:         -17.418
REMARK INTER:                 -15.216
REMARK INTRA:                  -2.201
REMARK UNBOUND:                -2.454
REMARK SMILES CCCCCCCCCCCCCCCCCCCCCCCCCCCCCC(=O)[O-]
REMARK SMILES IDX 16 1 17 2 18 3 19 4 20 5 21 6 22 7 23 8 24 9 25 10 26 11
REMARK SMILES IDX 27 12 28 13 29 14 30 15 31 16 32 17 15 18 14 19 13 20 12 21
REMARK SMILES IDX 11 22 10 23 9 24 8 25 7 26 6 27 5 28 4 29 3 30 2 31 1 32
REMARK H PARENT
REMARK Flexibility Score: inf
ROOT
ATOM      1  C   UNL     1      48.982  30.957  17.334  1.00  0.00     0.000 C 
ENDROOT
BRANCH   1   2
ATOM      2  C   UNL     1      47.752  30.030  17.362  1.00  0.00     0.000 C 
BRANCH   2   3
ATOM      3  C   UNL     1      47.696  28.980  16.235  1.00  0.00     0.000 C 
BRANCH   3   4
ATOM      4  C   UNL     1      48.803  27.907  16.280  1.00  0.00     0.000 C 
BRANCH   4   5
ATOM      5  C   UNL     1      48.301  26.463  16.458  1.00  0.00     0.000 C 
BRANCH   5   6
ATOM      6  C   UNL     1      49.160  25.645  17.433  1.00  0.00     0.000 C 
BRANCH   6   7
ATOM      7  C   UNL     1      49.164  26.285  18.830  1.00  0.00     0.000 C 
BRANCH   7   8
ATOM      8  C   UNL     1      48.730  25.308  19.935  1.00  0.00     0.000 C 
BRANCH   8   9
ATOM      9  C   UNL     1      48.483  26.005  21.282  1.00  0.00     0.000 C 
BRANCH   9  10
ATOM     10  C   UNL     1      49.595  25.673  22.286  1.00  0.00     0.000 C 
BRANCH  10  11
ATOM     11  C   UNL     1      50.570  26.850  22.436  1.00  0.00     0.000 C 
BRANCH  11  12
ATOM     12  C   UNL     1      52.043  26.414  22.354  1.00  0.00     0.000 C 
BRANCH  12  13
ATOM     13  C   UNL     1      52.387  25.754  21.008  1.00  0.00     0.006 C 
BRANCH  13  14
ATOM     14  C   UNL     1      52.708  26.787  19.919  1.00  0.00     0.053 C 
BRANCH  14  15
ATOM     15  C   UNL     1      53.906  26.391  19.110  1.00  0.00     0.041 C 
ATOM     16  O   UNL     1      54.147  26.966  18.015  1.00  0.00    -0.550 OA
ATOM     17  O   UNL     1      54.782  25.426  19.589  1.00  0.00    -0.550 OA
ENDBRANCH  14  15
ENDBRANCH  13  14
ENDBRANCH  12  13
ENDBRANCH  11  12
ENDBRANCH  10  11
ENDBRANCH   9  10
ENDBRANCH   8   9
ENDBRANCH   7   8
ENDBRANCH   6   7
ENDBRANCH   5   6
ENDBRANCH   4   5
ENDBRANCH   3   4
ENDBRANCH   2   3
ENDBRANCH   1   2
BRANCH   1  18
ATOM     18  C   UNL     1      48.758  32.266  18.110  1.00  0.00     0.000 C 
BRANCH  18  19
ATOM     19  C   UNL     1      48.913  33.519  17.229  1.00  0.00     0.000 C 
BRANCH  19  20
ATOM     20  C   UNL     1      47.749  33.787  16.252  1.00  0.00     0.000 C 
BRANCH  20  21
ATOM     21  C   UNL     1      47.966  33.273  14.816  1.00  0.00     0.000 C 
BRANCH  21  22
ATOM     22  C   UNL     1      48.542  34.309  13.832  1.00  0.00     0.000 C 
BRANCH  22  23
ATOM     23  C   UNL     1      48.159  34.053  12.358  1.00  0.00     0.000 C 
BRANCH  23  24
ATOM     24  C   UNL     1      46.694  34.414  12.053  1.00  0.00    -0.000 C 
BRANCH  24  25
ATOM     25  C   UNL     1      46.275  35.756  12.675  1.00  0.00    -0.000 C 
BRANCH  25  26
ATOM     26  C   UNL     1      44.816  35.753  13.163  1.00  0.00    -0.000 C 
BRANCH  26  27
ATOM     27  C   UNL     1      43.913  36.694  12.347  1.00  0.00    -0.000 C 
BRANCH  27  28
ATOM     28  C   UNL     1      42.441  36.686  12.812  1.00  0.00    -0.000 C 
BRANCH  28  29
ATOM     29  C   UNL     1      41.498  36.093  11.753  1.00  0.00    -0.000 C 
BRANCH  29  30
ATOM     30  C   UNL     1      40.203  36.906  11.654  1.00  0.00    -0.000 C 
BRANCH  30  31
ATOM     31  C   UNL     1      39.056  36.053  11.102  1.00  0.00    -0.003 C 
ATOM     32  C   UNL     1      39.295  34.570  11.368  1.00  0.00     0.004 C 
ENDBRANCH  30  31
ENDBRANCH  29  30
ENDBRANCH  28  29
ENDBRANCH  27  28
ENDBRANCH  26  27
ENDBRANCH  25  26
ENDBRANCH  24  25
ENDBRANCH  23  24
ENDBRANCH  22  23
ENDBRANCH  21  22
ENDBRANCH  20  21
ENDBRANCH  19  20
ENDBRANCH  18  19
ENDBRANCH   1  18
TORSDOF 28
ENDMDL
MODEL 7
REMARK VINA RESULT:    -5.652      1.335      2.715
REMARK INTER + INTRA:         -17.357
REMARK INTER:                 -14.665
REMARK INTRA:                  -2.692
REMARK UNBOUND:                -2.454
REMARK SMILES CCCCCCCCCCCCCCCCCCCCCCCCCCCCCC(=O)[O-]
REMARK SMILES IDX 16 1 17 2 18 3 19 4 20 5 21 6 22 7 23 8 24 9 25 10 26 11
REMARK SMILES IDX 27 12 28 13 29 14 30 15 31 16 32 17 15 18 14 19 13 20 12 21
REMARK SMILES IDX 11 22 10 23 9 24 8 25 7 26 6 27 5 28 4 29 3 30 2 31 1 32
REMARK H PARENT
REMARK Flexibility Score: inf
ROOT
ATOM      1  C   UNL     1      49.241  30.716  16.992  1.00  0.00     0.000 C 
ENDROOT
BRANCH   1   2
ATOM      2  C   UNL     1      49.308  32.141  17.574  1.00  0.00     0.000 C 
BRANCH   2   3
ATOM      3  C   UNL     1      48.104  33.044  17.239  1.00  0.00     0.000 C 
BRANCH   3   4
ATOM      4  C   UNL     1      48.344  34.069  16.114  1.00  0.00     0.000 C 
BRANCH   4   5
ATOM      5  C   UNL     1      48.149  33.525  14.687  1.00  0.00     0.000 C 
BRANCH   5   6
ATOM      6  C   UNL     1      48.595  34.515  13.601  1.00  0.00     0.000 C 
BRANCH   6   7
ATOM      7  C   UNL     1      48.016  34.125  12.232  1.00  0.00     0.000 C 
BRANCH   7   8
ATOM      8  C   UNL     1      46.534  34.507  12.080  1.00  0.00     0.000 C 
BRANCH   8   9
ATOM      9  C   UNL     1      46.184  35.828  12.783  1.00  0.00     0.000 C 
BRANCH   9  10
ATOM     10  C   UNL     1      44.772  35.776  13.381  1.00  0.00     0.000 C 
BRANCH  10  11
ATOM     11  C   UNL     1      43.706  35.969  12.293  1.00  0.00     0.000 C 
BRANCH  11  12
ATOM     12  C   UNL     1      43.366  37.449  12.051  1.00  0.00     0.000 C 
BRANCH  12  13
ATOM     13  C   UNL     1      41.851  37.714  12.058  1.00  0.00     0.006 C 
BRANCH  13  14
ATOM     14  C   UNL     1      41.037  36.450  11.746  1.00  0.00     0.053 C 
BRANCH  14  15
ATOM     15  C   UNL     1      39.632  36.552  12.256  1.00  0.00     0.041 C 
ATOM     16  O   UNL     1      38.773  35.696  11.915  1.00  0.00    -0.550 OA
ATOM     17  O   UNL     1      39.285  37.559  13.147  1.00  0.00    -0.550 OA
ENDBRANCH  14  15
ENDBRANCH  13  14
ENDBRANCH  12  13
ENDBRANCH  11  12
ENDBRANCH  10  11
ENDBRANCH   9  10
ENDBRANCH   8   9
ENDBRANCH   7   8
ENDBRANCH   6   7
ENDBRANCH   5   6
ENDBRANCH   4   5
ENDBRANCH   3   4
ENDBRANCH   2   3
ENDBRANCH   1   2
BRANCH   1  18
ATOM     18  C   UNL     1      47.800  30.199  16.848  1.00  0.00     0.000 C 
BRANCH  18  19
ATOM     19  C   UNL     1      47.730  28.762  16.299  1.00  0.00     0.000 C 
BRANCH  19  20
ATOM     20  C   UNL     1      49.077  28.164  15.845  1.00  0.00     0.000 C 
BRANCH  20  21
ATOM     21  C   UNL     1      49.176  26.629  15.932  1.00  0.00     0.000 C 
BRANCH  21  22
ATOM     22  C   UNL     1      48.328  25.981  17.043  1.00  0.00     0.000 C 
BRANCH  22  23
ATOM     23  C   UNL     1      49.149  25.508  18.263  1.00  0.00     0.000 C 
BRANCH  23  24
ATOM     24  C   UNL     1      48.731  26.208  19.568  1.00  0.00    -0.000 C 
BRANCH  24  25
ATOM     25  C   UNL     1      49.049  25.368  20.816  1.00  0.00    -0.000 C 
BRANCH  25  26
ATOM     26  C   UNL     1      48.997  26.193  22.114  1.00  0.00    -0.000 C 
BRANCH  26  27
ATOM     27  C   UNL     1      50.390  26.633  22.596  1.00  0.00    -0.000 C 
BRANCH  27  28
ATOM     28  C   UNL     1      51.447  25.511  22.525  1.00  0.00    -0.000 C 
BRANCH  28  29
ATOM     29  C   UNL     1      52.823  26.033  22.079  1.00  0.00    -0.000 C 
BRANCH  29  30
ATOM     30  C   UNL     1      52.688  26.992  20.891  1.00  0.00    -0.000 C 
BRANCH  30  31
ATOM     31  C   UNL     1      52.504  26.224  19.579  1.00  0.00    -0.003 C 
ATOM     32  C   UNL     1      52.548  27.164  18.379  1.00  0.00     0.004 C 
ENDBRANCH  30  31
ENDBRANCH  29  30
ENDBRANCH  28  29
ENDBRANCH  27  28
ENDBRANCH  26  27
ENDBRANCH  25  26
ENDBRANCH  24  25
ENDBRANCH  23  24
ENDBRANCH  22  23
ENDBRANCH  21  22
ENDBRANCH  20  21
ENDBRANCH  19  20
ENDBRANCH  18  19
ENDBRANCH   1  18
TORSDOF 28
ENDMDL
MODEL 8
REMARK VINA RESULT:    -5.591      4.816     12.999
REMARK INTER + INTRA:         -17.198
REMARK INTER:                 -15.076
REMARK INTRA:                  -2.121
REMARK UNBOUND:                -2.454
REMARK SMILES CCCCCCCCCCCCCCCCCCCCCCCCCCCCCC(=O)[O-]
REMARK SMILES IDX 16 1 17 2 18 3 19 4 20 5 21 6 22 7 23 8 24 9 25 10 26 11
REMARK SMILES IDX 27 12 28 13 29 14 30 15 31 16 32 17 15 18 14 19 13 20 12 21
REMARK SMILES IDX 11 22 10 23 9 24 8 25 7 26 6 27 5 28 4 29 3 30 2 31 1 32
REMARK H PARENT
REMARK Flexibility Score: inf
ROOT
ATOM      1  C   UNL     1      49.022  33.636  17.371  1.00  0.00     0.000 C 
ENDROOT
BRANCH   1   2
ATOM      2  C   UNL     1      49.305  32.235  17.945  1.00  0.00     0.000 C 
BRANCH   2   3
ATOM      3  C   UNL     1      48.170  31.208  17.759  1.00  0.00     0.000 C 
BRANCH   3   4
ATOM      4  C   UNL     1      48.267  30.344  16.487  1.00  0.00     0.000 C 
BRANCH   4   5
ATOM      5  C   UNL     1      48.399  28.831  16.737  1.00  0.00     0.000 C 
BRANCH   5   6
ATOM      6  C   UNL     1      49.738  28.256  16.253  1.00  0.00     0.000 C 
BRANCH   6   7
ATOM      7  C   UNL     1      49.673  26.724  16.153  1.00  0.00     0.000 C 
BRANCH   7   8
ATOM      8  C   UNL     1      48.637  26.107  17.105  1.00  0.00     0.000 C 
BRANCH   8   9
ATOM      9  C   UNL     1      49.252  25.639  18.433  1.00  0.00     0.000 C 
BRANCH   9  10
ATOM     10  C   UNL     1      48.185  25.548  19.533  1.00  0.00     0.000 C 
BRANCH  10  11
ATOM     11  C   UNL     1      48.825  25.247  20.896  1.00  0.00     0.000 C 
BRANCH  11  12
ATOM     12  C   UNL     1      48.634  26.391  21.906  1.00  0.00     0.000 C 
BRANCH  12  13
ATOM     13  C   UNL     1      49.905  26.669  22.728  1.00  0.00     0.006 C 
BRANCH  13  14
ATOM     14  C   UNL     1      51.099  25.830  22.254  1.00  0.00     0.053 C 
BRANCH  14  15
ATOM     15  C   UNL     1      52.304  26.678  21.980  1.00  0.00     0.041 C 
ATOM     16  O   UNL     1      53.016  26.455  20.965  1.00  0.00    -0.550 OA
ATOM     17  O   UNL     1      52.609  27.745  22.815  1.00  0.00    -0.550 OA
ENDBRANCH  14  15
ENDBRANCH  13  14
ENDBRANCH  12  13
ENDBRANCH  11  12
ENDBRANCH  10  11
ENDBRANCH   9  10
ENDBRANCH   8   9
ENDBRANCH   7   8
ENDBRANCH   6   7
ENDBRANCH   5   6
ENDBRANCH   4   5
ENDBRANCH   3   4
ENDBRANCH   2   3
ENDBRANCH   1   2
BRANCH   1  18
ATOM     18  C   UNL     1      47.530  33.873  17.087  1.00  0.00     0.000 C 
BRANCH  18  19
ATOM     19  C   UNL     1      47.200  33.875  15.583  1.00  0.00     0.000 C 
BRANCH  19  20
ATOM     20  C   UNL     1      48.391  33.591  14.645  1.00  0.00     0.000 C 
BRANCH  20  21
ATOM     21  C   UNL     1      48.145  33.902  13.157  1.00  0.00     0.000 C 
BRANCH  21  22
ATOM     22  C   UNL     1      47.442  35.245  12.878  1.00  0.00     0.000 C 
BRANCH  22  23
ATOM     23  C   UNL     1      45.999  35.099  12.347  1.00  0.00     0.000 C 
BRANCH  23  24
ATOM     24  C   UNL     1      44.959  35.776  13.257  1.00  0.00    -0.000 C 
BRANCH  24  25
ATOM     25  C   UNL     1      44.103  36.810  12.508  1.00  0.00    -0.000 C 
BRANCH  25  26
ATOM     26  C   UNL     1      42.653  36.339  12.301  1.00  0.00    -0.000 C 
BRANCH  26  27
ATOM     27  C   UNL     1      41.618  37.395  12.728  1.00  0.00    -0.000 C 
BRANCH  27  28
ATOM     28  C   UNL     1      40.741  37.899  11.562  1.00  0.00    -0.000 C 
BRANCH  28  29
ATOM     29  C   UNL     1      39.268  38.061  11.969  1.00  0.00    -0.000 C 
BRANCH  29  30
ATOM     30  C   UNL     1      38.675  36.725  12.429  1.00  0.00    -0.000 C 
BRANCH  30  31
ATOM     31  C   UNL     1      38.510  35.759  11.252  1.00  0.00    -0.003 C 
ATOM     32  C   UNL     1      39.381  34.519  11.429  1.00  0.00     0.004 C 
ENDBRANCH  30  31
ENDBRANCH  29  30
ENDBRANCH  28  29
ENDBRANCH  27  28
ENDBRANCH  26  27
ENDBRANCH  25  26
ENDBRANCH  24  25
ENDBRANCH  23  24
ENDBRANCH  22  23
ENDBRANCH  21  22
ENDBRANCH  20  21
ENDBRANCH  19  20
ENDBRANCH  18  19
ENDBRANCH   1  18
TORSDOF 28
ENDMDL
MODEL 9
REMARK VINA RESULT:    -5.522      2.076      3.870
REMARK INTER + INTRA:         -17.016
REMARK INTER:                 -14.769
REMARK INTRA:                  -2.247
REMARK UNBOUND:                -2.454
REMARK SMILES CCCCCCCCCCCCCCCCCCCCCCCCCCCCCC(=O)[O-]
REMARK SMILES IDX 16 1 17 2 18 3 19 4 20 5 21 6 22 7 23 8 24 9 25 10 26 11
REMARK SMILES IDX 27 12 28 13 29 14 30 15 31 16 32 17 15 18 14 19 13 20 12 21
REMARK SMILES IDX 11 22 10 23 9 24 8 25 7 26 6 27 5 28 4 29 3 30 2 31 1 32
REMARK H PARENT
REMARK Flexibility Score: inf
ROOT
ATOM      1  C   UNL     1      46.783  34.154  16.041  1.00  0.00     0.000 C 
ENDROOT
BRANCH   1   2
ATOM      2  C   UNL     1      46.474  34.667  14.622  1.00  0.00     0.000 C 
BRANCH   2   3
ATOM      3  C   UNL     1      45.126  35.398  14.467  1.00  0.00     0.000 C 
BRANCH   3   4
ATOM      4  C   UNL     1      44.813  35.906  13.046  1.00  0.00     0.000 C 
BRANCH   4   5
ATOM      5  C   UNL     1      43.351  36.328  12.813  1.00  0.00     0.000 C 
BRANCH   5   6
ATOM      6  C   UNL     1      43.216  37.529  11.867  1.00  0.00     0.000 C 
BRANCH   6   7
ATOM      7  C   UNL     1      42.199  37.237  10.752  1.00  0.00     0.000 C 
BRANCH   7   8
ATOM      8  C   UNL     1      41.815  35.751  10.668  1.00  0.00     0.000 C 
BRANCH   8   9
ATOM      9  C   UNL     1      40.354  35.536  10.245  1.00  0.00     0.000 C 
BRANCH   9  10
ATOM     10  C   UNL     1      39.516  35.000  11.413  1.00  0.00     0.000 C 
BRANCH  10  11
ATOM     11  C   UNL     1      38.462  36.027  11.852  1.00  0.00     0.000 C 
BRANCH  11  12
ATOM     12  C   UNL     1      39.087  37.339  12.356  1.00  0.00     0.000 C 
BRANCH  12  13
ATOM     13  C   UNL     1      39.502  37.263  13.836  1.00  0.00     0.006 C 
BRANCH  13  14
ATOM     14  C   UNL     1      40.434  38.414  14.238  1.00  0.00     0.053 C 
BRANCH  14  15
ATOM     15  C   UNL     1      39.700  39.717  14.340  1.00  0.00     0.041 C 
ATOM     16  O   UNL     1      38.541  39.752  14.834  1.00  0.00    -0.550 OA
ATOM     17  O   UNL     1      40.314  40.896  13.939  1.00  0.00    -0.550 OA
ENDBRANCH  14  15
ENDBRANCH  13  14
ENDBRANCH  12  13
ENDBRANCH  11  12
ENDBRANCH  10  11
ENDBRANCH   9  10
ENDBRANCH   8   9
ENDBRANCH   7   8
ENDBRANCH   6   7
ENDBRANCH   5   6
ENDBRANCH   4   5
ENDBRANCH   3   4
ENDBRANCH   2   3
ENDBRANCH   1   2
BRANCH   1  18
ATOM     18  C   UNL     1      48.291  34.041  16.318  1.00  0.00     0.000 C 
BRANCH  18  19
ATOM     19  C   UNL     1      48.606  33.271  17.613  1.00  0.00     0.000 C 
BRANCH  19  20
ATOM     20  C   UNL     1      49.466  32.002  17.434  1.00  0.00     0.000 C 
BRANCH  20  21
ATOM     21  C   UNL     1      48.847  30.911  16.539  1.00  0.00     0.000 C 
BRANCH  21  22
ATOM     22  C   UNL     1      49.681  29.622  16.410  1.00  0.00     0.000 C 
BRANCH  22  23
ATOM     23  C   UNL     1      48.928  28.453  15.739  1.00  0.00     0.000 C 
BRANCH  23  24
ATOM     24  C   UNL     1      48.008  27.700  16.717  1.00  0.00    -0.000 C 
BRANCH  24  25
ATOM     25  C   UNL     1      48.194  26.176  16.648  1.00  0.00    -0.000 C 
BRANCH  25  26
ATOM     26  C   UNL     1      49.527  25.714  17.262  1.00  0.00    -0.000 C 
BRANCH  26  27
ATOM     27  C   UNL     1      49.599  25.956  18.780  1.00  0.00    -0.000 C 
BRANCH  27  28
ATOM     28  C   UNL     1      48.438  25.306  19.561  1.00  0.00    -0.000 C 
BRANCH  28  29
ATOM     29  C   UNL     1      48.377  25.785  21.020  1.00  0.00    -0.000 C 
BRANCH  29  30
ATOM     30  C   UNL     1      49.629  25.355  21.792  1.00  0.00    -0.000 C 
BRANCH  30  31
ATOM     31  C   UNL     1      50.224  26.528  22.578  1.00  0.00    -0.003 C 
ATOM     32  C   UNL     1      49.143  27.523  22.986  1.00  0.00     0.004 C 
ENDBRANCH  30  31
ENDBRANCH  29  30
ENDBRANCH  28  29
ENDBRANCH  27  28
ENDBRANCH  26  27
ENDBRANCH  25  26
ENDBRANCH  24  25
ENDBRANCH  23  24
ENDBRANCH  22  23
ENDBRANCH  21  22
ENDBRANCH  20  21
ENDBRANCH  19  20
ENDBRANCH  18  19
ENDBRANCH   1  18
TORSDOF 28
ENDMDL
