MODEL 1
REMARK VINA RESULT:    -3.681      0.000      0.000
REMARK INTER + INTRA:          -7.165
REMARK INTER:                  -6.049
REMARK INTRA:                  -1.116
REMARK UNBOUND:                -1.116
REMARK SMILES CCCCCCCCCCCCCC
REMARK SMILES IDX 7 1 6 2 5 3 4 4 3 5 2 6 1 7 8 8 9 9 10 10 11 11 12 12 13 13
REMARK SMILES IDX 14 14
REMARK H PARENT
REMARK Flexibility Score: inf
ROOT
ATOM      1  C   UNL     1      15.126 -11.422 -26.714  1.00  0.00    -0.000 C 
ENDROOT
BRANCH   1   2
ATOM      2  C   UNL     1      13.792 -10.654 -26.613  1.00  0.00    -0.000 C 
BRANCH   2   3
ATOM      3  C   UNL     1      13.379  -9.895 -27.888  1.00  0.00    -0.000 C 
BRANCH   3   4
ATOM      4  C   UNL     1      11.951 -10.228 -28.345  1.00  0.00    -0.000 C 
BRANCH   4   5
ATOM      5  C   UNL     1      11.950 -11.414 -29.321  1.00  0.00    -0.000 C 
BRANCH   5   6
ATOM      6  C   UNL     1      10.584 -12.111 -29.402  1.00  0.00    -0.003 C 
ATOM      7  C   UNL     1      10.527 -13.398 -28.578  1.00  0.00     0.004 C 
ENDBRANCH   5   6
ENDBRANCH   4   5
ENDBRANCH   3   4
ENDBRANCH   2   3
ENDBRANCH   1   2
BRANCH   1   8
ATOM      8  C   UNL     1      14.993 -12.923 -27.029  1.00  0.00    -0.000 C 
BRANCH   8   9
ATOM      9  C   UNL     1      13.531 -13.387 -27.117  1.00  0.00    -0.000 C 
BRANCH   9  10
ATOM     10  C   UNL     1      13.224 -14.437 -26.043  1.00  0.00    -0.000 C 
BRANCH  10  11
ATOM     11  C   UNL     1      12.153 -13.929 -25.065  1.00  0.00    -0.000 C 
BRANCH  11  12
ATOM     12  C   UNL     1      11.465 -12.643 -25.569  1.00  0.00    -0.000 C 
BRANCH  12  13
ATOM     13  C   UNL     1      11.309 -11.563 -24.485  1.00  0.00    -0.003 C 
ATOM     14  C   UNL     1      10.589 -10.313 -24.984  1.00  0.00     0.004 C 
ENDBRANCH  12  13
ENDBRANCH  11  12
ENDBRANCH  10  11
ENDBRANCH   9  10
ENDBRANCH   8   9
ENDBRANCH   1   8
TORSDOF 11
ENDMDL
MODEL 2
REMARK VINA RESULT:    -3.626      3.059      5.109
REMARK INTER + INTRA:          -7.075
REMARK INTER:                  -6.226
REMARK INTRA:                  -0.849
REMARK UNBOUND:                -1.116
REMARK SMILES CCCCCCCCCCCCCC
REMARK SMILES IDX 7 1 6 2 5 3 4 4 3 5 2 6 1 7 8 8 9 9 10 10 11 11 12 12 13 13
REMARK SMILES IDX 14 14
REMARK H PARENT
REMARK Flexibility Score: inf
ROOT
ATOM      1  C   UNL     1      12.072 -10.181 -27.811  1.00  0.00    -0.000 C 
ENDROOT
BRANCH   1   2
ATOM      2  C   UNL     1      13.155  -9.094 -27.971  1.00  0.00    -0.000 C 
BRANCH   2   3
ATOM      3  C   UNL     1      12.624  -7.686 -28.294  1.00  0.00    -0.000 C 
BRANCH   3   4
ATOM      4  C   UNL     1      13.733  -6.709 -28.709  1.00  0.00    -0.000 C 
BRANCH   4   5
ATOM      5  C   UNL     1      13.153  -5.321 -29.022  1.00  0.00    -0.000 C 
BRANCH   5   6
ATOM      6  C   UNL     1      14.125  -4.183 -28.677  1.00  0.00    -0.003 C 
ATOM      7  C   UNL     1      14.012  -2.998 -29.635  1.00  0.00     0.004 C 
ENDBRANCH   5   6
ENDBRANCH   4   5
ENDBRANCH   3   4
ENDBRANCH   2   3
ENDBRANCH   1   2
BRANCH   1   8
ATOM      8  C   UNL     1      11.896 -11.111 -29.026  1.00  0.00    -0.000 C 
BRANCH   8   9
ATOM      9  C   UNL     1      10.817 -12.181 -28.807  1.00  0.00    -0.000 C 
BRANCH   9  10
ATOM     10  C   UNL     1      10.919 -12.784 -27.401  1.00  0.00    -0.000 C 
BRANCH  10  11
ATOM     11  C   UNL     1      11.998 -13.876 -27.347  1.00  0.00    -0.000 C 
BRANCH  11  12
ATOM     12  C   UNL     1      13.157 -13.506 -26.398  1.00  0.00    -0.000 C 
BRANCH  12  13
ATOM     13  C   UNL     1      14.438 -13.072 -27.130  1.00  0.00    -0.003 C 
ATOM     14  C   UNL     1      15.011 -11.758 -26.606  1.00  0.00     0.004 C 
ENDBRANCH  12  13
ENDBRANCH  11  12
ENDBRANCH  10  11
ENDBRANCH   9  10
ENDBRANCH   8   9
ENDBRANCH   1   8
TORSDOF 11
ENDMDL
MODEL 3
REMARK VINA RESULT:    -3.523      3.365      6.279
REMARK INTER + INTRA:          -6.905
REMARK INTER:                  -6.166
REMARK INTRA:                  -0.740
REMARK UNBOUND:                -1.116
REMARK SMILES CCCCCCCCCCCCCC
REMARK SMILES IDX 7 1 6 2 5 3 4 4 3 5 2 6 1 7 8 8 9 9 10 10 11 11 12 12 13 13
REMARK SMILES IDX 14 14
REMARK H PARENT
REMARK Flexibility Score: inf
ROOT
ATOM      1  C   UNL     1      12.125 -10.790 -28.658  1.00  0.00    -0.000 C 
ENDROOT
BRANCH   1   2
ATOM      2  C   UNL     1      11.342 -11.973 -28.053  1.00  0.00    -0.000 C 
BRANCH   2   3
ATOM      3  C   UNL     1      11.248 -11.976 -26.516  1.00  0.00    -0.000 C 
BRANCH   3   4
ATOM      4  C   UNL     1      12.521 -12.506 -25.841  1.00  0.00    -0.000 C 
BRANCH   4   5
ATOM      5  C   UNL     1      13.313 -13.410 -26.798  1.00  0.00    -0.000 C 
BRANCH   5   6
ATOM      6  C   UNL     1      14.727 -12.878 -27.078  1.00  0.00    -0.003 C 
ATOM      7  C   UNL     1      14.984 -11.515 -26.436  1.00  0.00     0.004 C 
ENDBRANCH   5   6
ENDBRANCH   4   5
ENDBRANCH   3   4
ENDBRANCH   2   3
ENDBRANCH   1   2
BRANCH   1   8
ATOM      8  C   UNL     1      12.221  -9.544 -27.759  1.00  0.00    -0.000 C 
BRANCH   8   9
ATOM      9  C   UNL     1      13.350  -8.591 -28.179  1.00  0.00    -0.000 C 
BRANCH   9  10
ATOM     10  C   UNL     1      12.875  -7.134 -28.158  1.00  0.00    -0.000 C 
BRANCH  10  11
ATOM     11  C   UNL     1      13.833  -6.229 -28.947  1.00  0.00    -0.000 C 
BRANCH  11  12
ATOM     12  C   UNL     1      13.271  -4.805 -29.136  1.00  0.00    -0.000 C 
BRANCH  12  13
ATOM     13  C   UNL     1      14.317  -3.697 -28.931  1.00  0.00    -0.003 C 
ATOM     14  C   UNL     1      13.978  -2.408 -29.673  1.00  0.00     0.004 C 
ENDBRANCH  12  13
ENDBRANCH  11  12
ENDBRANCH  10  11
ENDBRANCH   9  10
ENDBRANCH   8   9
ENDBRANCH   1   8
TORSDOF 11
ENDMDL
MODEL 4
REMARK VINA RESULT:    -3.512      3.571      6.395
REMARK INTER + INTRA:          -6.886
REMARK INTER:                  -6.242
REMARK INTRA:                  -0.644
REMARK UNBOUND:                -1.116
REMARK SMILES CCCCCCCCCCCCCC
REMARK SMILES IDX 7 1 6 2 5 3 4 4 3 5 2 6 1 7 8 8 9 9 10 10 11 11 12 12 13 13
REMARK SMILES IDX 14 14
REMARK H PARENT
REMARK Flexibility Score: inf
ROOT
ATOM      1  C   UNL     1      12.146 -10.476 -27.580  1.00  0.00    -0.000 C 
ENDROOT
BRANCH   1   2
ATOM      2  C   UNL     1      11.763 -11.355 -28.789  1.00  0.00    -0.000 C 
BRANCH   2   3
ATOM      3  C   UNL     1      10.798 -12.513 -28.474  1.00  0.00    -0.000 C 
BRANCH   3   4
ATOM      4  C   UNL     1      11.134 -13.230 -27.158  1.00  0.00    -0.000 C 
BRANCH   4   5
ATOM      5  C   UNL     1      12.396 -14.092 -27.311  1.00  0.00    -0.000 C 
BRANCH   5   6
ATOM      6  C   UNL     1      13.519 -13.671 -26.351  1.00  0.00    -0.003 C 
ATOM      7  C   UNL     1      14.660 -12.942 -27.061  1.00  0.00     0.004 C 
ENDBRANCH   5   6
ENDBRANCH   4   5
ENDBRANCH   3   4
ENDBRANCH   2   3
ENDBRANCH   1   2
BRANCH   1   8
ATOM      8  C   UNL     1      13.229  -9.418 -27.860  1.00  0.00    -0.000 C 
BRANCH   8   9
ATOM      9  C   UNL     1      12.651  -8.007 -28.042  1.00  0.00    -0.000 C 
BRANCH   9  10
ATOM     10  C   UNL     1      13.688  -7.066 -28.668  1.00  0.00    -0.000 C 
BRANCH  10  11
ATOM     11  C   UNL     1      13.420  -5.607 -28.270  1.00  0.00    -0.000 C 
BRANCH  11  12
ATOM     12  C   UNL     1      13.648  -4.630 -29.442  1.00  0.00    -0.000 C 
BRANCH  12  13
ATOM     13  C   UNL     1      14.263  -3.287 -29.014  1.00  0.00    -0.003 C 
ATOM     14  C   UNL     1      14.357  -2.280 -30.157  1.00  0.00     0.004 C 
ENDBRANCH  12  13
ENDBRANCH  11  12
ENDBRANCH  10  11
ENDBRANCH   9  10
ENDBRANCH   8   9
ENDBRANCH   1   8
TORSDOF 11
ENDMDL
MODEL 5
REMARK VINA RESULT:    -3.500      0.812      2.886
REMARK INTER + INTRA:          -6.868
REMARK INTER:                  -5.548
REMARK INTRA:                  -1.320
REMARK UNBOUND:                -1.116
REMARK SMILES CCCCCCCCCCCCCC
REMARK SMILES IDX 7 1 6 2 5 3 4 4 3 5 2 6 1 7 8 8 9 9 10 10 11 11 12 12 13 13
REMARK SMILES IDX 14 14
REMARK H PARENT
REMARK Flexibility Score: inf
ROOT
ATOM      1  C   UNL     1      11.049 -10.540 -26.009  1.00  0.00    -0.000 C 
ENDROOT
BRANCH   1   2
ATOM      2  C   UNL     1      12.200  -9.820 -26.742  1.00  0.00    -0.000 C 
BRANCH   2   3
ATOM      3  C   UNL     1      12.263 -10.071 -28.260  1.00  0.00    -0.000 C 
BRANCH   3   4
ATOM      4  C   UNL     1      12.118 -11.554 -28.627  1.00  0.00    -0.000 C 
BRANCH   4   5
ATOM      5  C   UNL     1      11.149 -11.735 -29.806  1.00  0.00    -0.000 C 
BRANCH   5   6
ATOM      6  C   UNL     1      10.000 -12.701 -29.482  1.00  0.00    -0.003 C 
ATOM      7  C   UNL     1      10.424 -13.833 -28.546  1.00  0.00     0.004 C 
ENDBRANCH   5   6
ENDBRANCH   4   5
ENDBRANCH   3   4
ENDBRANCH   2   3
ENDBRANCH   1   2
BRANCH   1   8
ATOM      8  C   UNL     1      11.492 -11.561 -24.945  1.00  0.00    -0.000 C 
BRANCH   8   9
ATOM      9  C   UNL     1      11.000 -12.985 -25.243  1.00  0.00    -0.000 C 
BRANCH   9  10
ATOM     10  C   UNL     1      12.161 -13.986 -25.204  1.00  0.00    -0.000 C 
BRANCH  10  11
ATOM     11  C   UNL     1      12.896 -14.030 -26.552  1.00  0.00    -0.000 C 
BRANCH  11  12
ATOM     12  C   UNL     1      14.425 -13.906 -26.388  1.00  0.00    -0.000 C 
BRANCH  12  13
ATOM     13  C   UNL     1      15.035 -12.730 -27.169  1.00  0.00    -0.003 C 
ATOM     14  C   UNL     1      15.100 -11.440 -26.354  1.00  0.00     0.004 C 
ENDBRANCH  12  13
ENDBRANCH  11  12
ENDBRANCH  10  11
ENDBRANCH   9  10
ENDBRANCH   8   9
ENDBRANCH   1   8
TORSDOF 11
ENDMDL
MODEL 6
REMARK VINA RESULT:    -3.474      3.393      5.937
REMARK INTER + INTRA:          -6.824
REMARK INTER:                  -6.138
REMARK INTRA:                  -0.686
REMARK UNBOUND:                -1.116
REMARK SMILES CCCCCCCCCCCCCC
REMARK SMILES IDX 7 1 6 2 5 3 4 4 3 5 2 6 1 7 8 8 9 9 10 10 11 11 12 12 13 13
REMARK SMILES IDX 14 14
REMARK H PARENT
REMARK Flexibility Score: inf
ROOT
ATOM      1  C   UNL     1      13.205 -10.571 -26.781  1.00  0.00    -0.000 C 
ENDROOT
BRANCH   1   2
ATOM      2  C   UNL     1      14.494 -11.403 -26.622  1.00  0.00    -0.000 C 
BRANCH   2   3
ATOM      3  C   UNL     1      14.400 -12.855 -27.127  1.00  0.00    -0.000 C 
BRANCH   3   4
ATOM      4  C   UNL     1      13.269 -13.649 -26.458  1.00  0.00    -0.000 C 
BRANCH   4   5
ATOM      5  C   UNL     1      12.208 -14.066 -27.487  1.00  0.00    -0.000 C 
BRANCH   5   6
ATOM      6  C   UNL     1      10.965 -13.164 -27.452  1.00  0.00    -0.003 C 
ATOM      7  C   UNL     1      10.687 -12.488 -28.795  1.00  0.00     0.004 C 
ENDBRANCH   5   6
ENDBRANCH   4   5
ENDBRANCH   3   4
ENDBRANCH   2   3
ENDBRANCH   1   2
BRANCH   1   8
ATOM      8  C   UNL     1      13.095  -9.783 -28.100  1.00  0.00    -0.000 C 
BRANCH   8   9
ATOM      9  C   UNL     1      12.699  -8.315 -27.886  1.00  0.00    -0.000 C 
BRANCH   9  10
ATOM     10  C   UNL     1      13.661  -7.375 -28.623  1.00  0.00    -0.000 C 
BRANCH  10  11
ATOM     11  C   UNL     1      13.051  -5.973 -28.777  1.00  0.00    -0.000 C 
BRANCH  11  12
ATOM     12  C   UNL     1      14.121  -4.863 -28.732  1.00  0.00    -0.000 C 
BRANCH  12  13
ATOM     13  C   UNL     1      13.680  -3.554 -29.409  1.00  0.00    -0.003 C 
ATOM     14  C   UNL     1      14.628  -2.390 -29.137  1.00  0.00     0.004 C 
ENDBRANCH  12  13
ENDBRANCH  11  12
ENDBRANCH  10  11
ENDBRANCH   9  10
ENDBRANCH   8   9
ENDBRANCH   1   8
TORSDOF 11
ENDMDL
MODEL 7
REMARK VINA RESULT:    -3.424      3.508      5.313
REMARK INTER + INTRA:          -6.742
REMARK INTER:                  -6.064
REMARK INTRA:                  -0.678
REMARK UNBOUND:                -1.116
REMARK SMILES CCCCCCCCCCCCCC
REMARK SMILES IDX 7 1 6 2 5 3 4 4 3 5 2 6 1 7 8 8 9 9 10 10 11 11 12 12 13 13
REMARK SMILES IDX 14 14
REMARK H PARENT
REMARK Flexibility Score: inf
ROOT
ATOM      1  C   UNL     1      12.536  -9.495 -27.978  1.00  0.00    -0.000 C 
ENDROOT
BRANCH   1   2
ATOM      2  C   UNL     1      13.534  -8.330 -28.147  1.00  0.00    -0.000 C 
BRANCH   2   3
ATOM      3  C   UNL     1      12.902  -6.983 -28.543  1.00  0.00    -0.000 C 
BRANCH   3   4
ATOM      4  C   UNL     1      13.944  -5.925 -28.932  1.00  0.00    -0.000 C 
BRANCH   4   5
ATOM      5  C   UNL     1      13.309  -4.528 -29.002  1.00  0.00    -0.000 C 
BRANCH   5   6
ATOM      6  C   UNL     1      14.351  -3.402 -28.950  1.00  0.00    -0.003 C 
ATOM      7  C   UNL     1      14.137  -2.347 -30.036  1.00  0.00     0.004 C 
ENDBRANCH   5   6
ENDBRANCH   4   5
ENDBRANCH   3   4
ENDBRANCH   2   3
ENDBRANCH   1   2
BRANCH   1   8
ATOM      8  C   UNL     1      12.868 -10.478 -26.840  1.00  0.00    -0.000 C 
BRANCH   8   9
ATOM      9  C   UNL     1      14.304 -11.017 -26.917  1.00  0.00    -0.000 C 
BRANCH   9  10
ATOM     10  C   UNL     1      14.319 -12.549 -26.864  1.00  0.00    -0.000 C 
BRANCH  10  11
ATOM     11  C   UNL     1      12.963 -13.097 -26.395  1.00  0.00    -0.000 C 
BRANCH  11  12
ATOM     12  C   UNL     1      12.240 -13.893 -27.502  1.00  0.00    -0.000 C 
BRANCH  12  13
ATOM     13  C   UNL     1      10.800 -13.417 -27.762  1.00  0.00    -0.003 C 
ATOM     14  C   UNL     1      10.683 -12.502 -28.977  1.00  0.00     0.004 C 
ENDBRANCH  12  13
ENDBRANCH  11  12
ENDBRANCH  10  11
ENDBRANCH   9  10
ENDBRANCH   8   9
ENDBRANCH   1   8
TORSDOF 11
ENDMDL
MODEL 8
REMARK VINA RESULT:    -3.420      0.832      4.632
REMARK INTER + INTRA:          -6.735
REMARK INTER:                  -5.254
REMARK INTRA:                  -1.481
REMARK UNBOUND:                -1.116
REMARK SMILES CCCCCCCCCCCCCC
REMARK SMILES IDX 7 1 6 2 5 3 4 4 3 5 2 6 1 7 8 8 9 9 10 10 11 11 12 12 13 13
REMARK SMILES IDX 14 14
REMARK H PARENT
REMARK Flexibility Score: inf
ROOT
ATOM      1  C   UNL     1      11.527 -11.418 -24.848  1.00  0.00    -0.000 C 
ENDROOT
BRANCH   1   2
ATOM      2  C   UNL     1      11.053 -12.881 -24.737  1.00  0.00    -0.000 C 
BRANCH   2   3
ATOM      3  C   UNL     1      11.805 -13.880 -25.636  1.00  0.00    -0.000 C 
BRANCH   3   4
ATOM      4  C   UNL     1      13.328 -13.699 -25.587  1.00  0.00    -0.000 C 
BRANCH   4   5
ATOM      5  C   UNL     1      13.923 -13.681 -27.003  1.00  0.00    -0.000 C 
BRANCH   5   6
ATOM      6  C   UNL     1      15.174 -12.796 -27.108  1.00  0.00    -0.003 C 
ATOM      7  C   UNL     1      15.019 -11.465 -26.371  1.00  0.00     0.004 C 
ENDBRANCH   5   6
ENDBRANCH   4   5
ENDBRANCH   3   4
ENDBRANCH   2   3
ENDBRANCH   1   2
BRANCH   1   8
ATOM      8  C   UNL     1      11.023 -10.661 -26.091  1.00  0.00    -0.000 C 
BRANCH   8   9
ATOM      9  C   UNL     1      12.113  -9.801 -26.748  1.00  0.00    -0.000 C 
BRANCH   9  10
ATOM     10  C   UNL     1      12.018  -9.869 -28.277  1.00  0.00    -0.000 C 
BRANCH  10  11
ATOM     11  C   UNL     1      12.314 -11.289 -28.784  1.00  0.00    -0.000 C 
BRANCH  11  12
ATOM     12  C   UNL     1      11.293 -11.755 -29.844  1.00  0.00    -0.000 C 
BRANCH  12  13
ATOM     13  C   UNL     1      10.118 -12.554 -29.257  1.00  0.00    -0.003 C 
ATOM     14  C   UNL     1      10.565 -13.763 -28.438  1.00  0.00     0.004 C 
ENDBRANCH  12  13
ENDBRANCH  11  12
ENDBRANCH  10  11
ENDBRANCH   9  10
ENDBRANCH   8   9
ENDBRANCH   1   8
TORSDOF 11
ENDMDL
MODEL 9
REMARK VINA RESULT:    -3.342      3.170      6.087
REMARK INTER + INTRA:          -6.607
REMARK INTER:                  -5.905
REMARK INTRA:                  -0.702
REMARK UNBOUND:                -1.116
REMARK SMILES CCCCCCCCCCCCCC
REMARK SMILES IDX 7 1 6 2 5 3 4 4 3 5 2 6 1 7 8 8 9 9 10 10 11 11 12 12 13 13
REMARK SMILES IDX 14 14
REMARK H PARENT
REMARK Flexibility Score: inf
ROOT
ATOM      1  C   UNL     1      12.275 -11.151 -28.638  1.00  0.00    -0.000 C 
ENDROOT
BRANCH   1   2
ATOM      2  C   UNL     1      11.032 -12.059 -28.741  1.00  0.00    -0.000 C 
BRANCH   2   3
ATOM      3  C   UNL     1      11.023 -13.263 -27.780  1.00  0.00    -0.000 C 
BRANCH   3   4
ATOM      4  C   UNL     1      12.425 -13.642 -27.283  1.00  0.00    -0.000 C 
BRANCH   4   5
ATOM      5  C   UNL     1      12.676 -13.084 -25.874  1.00  0.00    -0.000 C 
BRANCH   5   6
ATOM      6  C   UNL     1      11.376 -12.863 -25.086  1.00  0.00    -0.003 C 
ATOM      7  C   UNL     1      11.244 -11.437 -24.550  1.00  0.00     0.004 C 
ENDBRANCH   5   6
ENDBRANCH   4   5
ENDBRANCH   3   4
ENDBRANCH   2   3
ENDBRANCH   1   2
BRANCH   1   8
ATOM      8  C   UNL     1      12.107  -9.917 -27.732  1.00  0.00    -0.000 C 
BRANCH   8   9
ATOM      9  C   UNL     1      13.232  -8.887 -27.913  1.00  0.00    -0.000 C 
BRANCH   9  10
ATOM     10  C   UNL     1      12.704  -7.608 -28.572  1.00  0.00    -0.000 C 
BRANCH  10  11
ATOM     11  C   UNL     1      13.620  -6.412 -28.269  1.00  0.00    -0.000 C 
BRANCH  11  12
ATOM     12  C   UNL     1      13.174  -5.133 -29.007  1.00  0.00    -0.000 C 
BRANCH  12  13
ATOM     13  C   UNL     1      14.205  -3.993 -28.941  1.00  0.00    -0.003 C 
ATOM     14  C   UNL     1      13.752  -2.734 -29.676  1.00  0.00     0.004 C 
ENDBRANCH  12  13
ENDBRANCH  11  12
ENDBRANCH  10  11
ENDBRANCH   9  10
ENDBRANCH   8   9
ENDBRANCH   1   8
TORSDOF 11
ENDMDL
