MODEL 1
REMARK VINA RESULT:    -4.515      0.000      0.000
REMARK INTER + INTRA:         -12.488
REMARK INTER:                  -9.793
REMARK INTRA:                  -2.695
REMARK UNBOUND:                -2.695
REMARK SMILES CCCCCCCCCCCCCCCCCCCCCC(=O)[O-]
REMARK SMILES IDX 12 1 11 2 10 3 9 4 8 5 7 6 6 7 5 8 4 9 3 10 2 11 1 12 13 13
REMARK SMILES IDX 14 14 15 15 16 16 17 17 18 18 19 19 20 20 21 21 22 22 23 23
REMARK SMILES IDX 24 24
REMARK H PARENT
REMARK Flexibility Score: inf
ROOT
ATOM      1  C   UNL     1      13.487  -2.781   2.814  1.00  0.00     0.000 C 
ENDROOT
BRANCH   1   2
ATOM      2  C   UNL     1      14.175  -3.900   2.011  1.00  0.00     0.000 C 
BRANCH   2   3
ATOM      3  C   UNL     1      13.182  -4.726   1.177  1.00  0.00     0.000 C 
BRANCH   3   4
ATOM      4  C   UNL     1      13.685  -6.154   0.900  1.00  0.00    -0.000 C 
BRANCH   4   5
ATOM      5  C   UNL     1      12.537  -7.174   0.811  1.00  0.00    -0.000 C 
BRANCH   5   6
ATOM      6  C   UNL     1      12.359  -7.744  -0.607  1.00  0.00    -0.000 C 
BRANCH   6   7
ATOM      7  C   UNL     1      11.606  -6.780  -1.537  1.00  0.00    -0.000 C 
BRANCH   7   8
ATOM      8  C   UNL     1      10.150  -6.551  -1.094  1.00  0.00    -0.000 C 
BRANCH   8   9
ATOM      9  C   UNL     1       9.915  -5.131  -0.554  1.00  0.00    -0.000 C 
BRANCH   9  10
ATOM     10  C   UNL     1       8.545  -4.564  -0.957  1.00  0.00    -0.000 C 
BRANCH  10  11
ATOM     11  C   UNL     1       8.060  -5.184  -2.272  1.00  0.00    -0.003 C 
ATOM     12  C   UNL     1       6.818  -4.468  -2.794  1.00  0.00     0.004 C 
ENDBRANCH  10  11
ENDBRANCH   9  10
ENDBRANCH   8   9
ENDBRANCH   7   8
ENDBRANCH   6   7
ENDBRANCH   5   6
ENDBRANCH   4   5
ENDBRANCH   3   4
ENDBRANCH   2   3
ENDBRANCH   1   2
BRANCH   1  13
ATOM     13  C   UNL     1      14.483  -1.761   3.396  1.00  0.00     0.000 C 
BRANCH  13  14
ATOM     14  C   UNL     1      13.843  -0.593   4.168  1.00  0.00     0.000 C 
BRANCH  14  15
ATOM     15  C   UNL     1      12.308  -0.674   4.213  1.00  0.00     0.000 C 
BRANCH  15  16
ATOM     16  C   UNL     1      11.635   0.622   3.732  1.00  0.00     0.000 C 
BRANCH  16  17
ATOM     17  C   UNL     1      10.553   0.364   2.668  1.00  0.00     0.000 C 
BRANCH  17  18
ATOM     18  C   UNL     1      11.121   0.360   1.239  1.00  0.00     0.000 C 
BRANCH  18  19
ATOM     19  C   UNL     1      11.247  -1.060   0.659  1.00  0.00     0.000 C 
BRANCH  19  20
ATOM     20  C   UNL     1      12.486  -1.225  -0.233  1.00  0.00     0.006 C 
BRANCH  20  21
ATOM     21  C   UNL     1      13.591  -0.214   0.099  1.00  0.00     0.053 C 
BRANCH  21  22
ATOM     22  C   UNL     1      14.872  -0.604  -0.567  1.00  0.00     0.041 C 
ATOM     23  O   UNL     1      15.109  -0.242  -1.750  1.00  0.00    -0.550 OA
ATOM     24  O   UNL     1      15.787  -1.407   0.103  1.00  0.00    -0.550 OA
ENDBRANCH  21  22
ENDBRANCH  20  21
ENDBRANCH  19  20
ENDBRANCH  18  19
ENDBRANCH  17  18
ENDBRANCH  16  17
ENDBRANCH  15  16
ENDBRANCH  14  15
ENDBRANCH  13  14
ENDBRANCH   1  13
TORSDOF 20
ENDMDL
MODEL 2
REMARK VINA RESULT:    -4.453      2.954      6.091
REMARK INTER + INTRA:         -12.355
REMARK INTER:                  -9.583
REMARK INTRA:                  -2.772
REMARK UNBOUND:                -2.695
REMARK SMILES CCCCCCCCCCCCCCCCCCCCCC(=O)[O-]
REMARK SMILES IDX 12 1 11 2 10 3 9 4 8 5 7 6 6 7 5 8 4 9 3 10 2 11 1 12 13 13
REMARK SMILES IDX 14 14 15 15 16 16 17 17 18 18 19 19 20 20 21 21 22 22 23 23
REMARK SMILES IDX 24 24
REMARK H PARENT
REMARK Flexibility Score: inf
ROOT
ATOM      1  C   UNL     1      17.396   1.022   2.879  1.00  0.00     0.000 C 
ENDROOT
BRANCH   1   2
ATOM      2  C   UNL     1      17.945  -0.328   3.373  1.00  0.00     0.000 C 
BRANCH   2   3
ATOM      3  C   UNL     1      17.211  -0.843   4.622  1.00  0.00     0.000 C 
BRANCH   3   4
ATOM      4  C   UNL     1      16.792  -2.319   4.497  1.00  0.00    -0.000 C 
BRANCH   4   5
ATOM      5  C   UNL     1      16.316  -2.676   3.079  1.00  0.00    -0.000 C 
BRANCH   5   6
ATOM      6  C   UNL     1      14.783  -2.696   2.955  1.00  0.00    -0.000 C 
BRANCH   6   7
ATOM      7  C   UNL     1      14.086  -2.091   4.185  1.00  0.00    -0.000 C 
BRANCH   7   8
ATOM      8  C   UNL     1      12.684  -1.548   3.860  1.00  0.00    -0.000 C 
BRANCH   8   9
ATOM      9  C   UNL     1      12.523  -0.067   4.241  1.00  0.00    -0.000 C 
BRANCH   9  10
ATOM     10  C   UNL     1      11.572   0.686   3.298  1.00  0.00    -0.000 C 
BRANCH  10  11
ATOM     11  C   UNL     1      10.567  -0.273   2.651  1.00  0.00    -0.003 C 
ATOM     12  C   UNL     1       9.179   0.355   2.569  1.00  0.00     0.004 C 
ENDBRANCH  10  11
ENDBRANCH   9  10
ENDBRANCH   8   9
ENDBRANCH   7   8
ENDBRANCH   6   7
ENDBRANCH   5   6
ENDBRANCH   4   5
ENDBRANCH   3   4
ENDBRANCH   2   3
ENDBRANCH   1   2
BRANCH   1  13
ATOM     13  C   UNL     1      16.397   0.874   1.716  1.00  0.00     0.000 C 
BRANCH  13  14
ATOM     14  C   UNL     1      16.949   0.162   0.468  1.00  0.00     0.000 C 
BRANCH  14  15
ATOM     15  C   UNL     1      15.991  -0.906  -0.085  1.00  0.00     0.000 C 
BRANCH  15  16
ATOM     16  C   UNL     1      14.735  -0.295  -0.728  1.00  0.00     0.000 C 
BRANCH  16  17
ATOM     17  C   UNL     1      13.563  -0.177   0.263  1.00  0.00     0.000 C 
BRANCH  17  18
ATOM     18  C   UNL     1      12.304  -0.913  -0.222  1.00  0.00     0.000 C 
BRANCH  18  19
ATOM     19  C   UNL     1      12.213  -2.349   0.321  1.00  0.00     0.000 C 
BRANCH  19  20
ATOM     20  C   UNL     1      10.841  -2.992   0.066  1.00  0.00     0.006 C 
BRANCH  20  21
ATOM     21  C   UNL     1      10.950  -4.454  -0.386  1.00  0.00     0.053 C 
BRANCH  21  22
ATOM     22  C   UNL     1       9.589  -5.034  -0.608  1.00  0.00     0.041 C 
ATOM     23  O   UNL     1       8.566  -4.304  -0.518  1.00  0.00    -0.550 OA
ATOM     24  O   UNL     1       9.446  -6.391  -0.870  1.00  0.00    -0.550 OA
ENDBRANCH  21  22
ENDBRANCH  20  21
ENDBRANCH  19  20
ENDBRANCH  18  19
ENDBRANCH  17  18
ENDBRANCH  16  17
ENDBRANCH  15  16
ENDBRANCH  14  15
ENDBRANCH  13  14
ENDBRANCH   1  13
TORSDOF 20
ENDMDL
MODEL 3
REMARK VINA RESULT:    -4.441      3.128      7.878
REMARK INTER + INTRA:         -12.328
REMARK INTER:                 -10.249
REMARK INTRA:                  -2.080
REMARK UNBOUND:                -2.695
REMARK SMILES CCCCCCCCCCCCCCCCCCCCCC(=O)[O-]
REMARK SMILES IDX 12 1 11 2 10 3 9 4 8 5 7 6 6 7 5 8 4 9 3 10 2 11 1 12 13 13
REMARK SMILES IDX 14 14 15 15 16 16 17 17 18 18 19 19 20 20 21 21 22 22 23 23
REMARK SMILES IDX 24 24
REMARK H PARENT
REMARK Flexibility Score: inf
ROOT
ATOM      1  C   UNL     1      12.001  -1.955   0.334  1.00  0.00     0.000 C 
ENDROOT
BRANCH   1   2
ATOM      2  C   UNL     1      11.475  -0.510   0.393  1.00  0.00     0.000 C 
BRANCH   2   3
ATOM      3  C   UNL     1      12.227   0.353   1.419  1.00  0.00     0.000 C 
BRANCH   3   4
ATOM      4  C   UNL     1      11.426   0.566   2.716  1.00  0.00    -0.000 C 
BRANCH   4   5
ATOM      5  C   UNL     1      12.203   0.118   3.966  1.00  0.00    -0.000 C 
BRANCH   5   6
ATOM      6  C   UNL     1      12.688  -1.339   3.872  1.00  0.00    -0.000 C 
BRANCH   6   7
ATOM      7  C   UNL     1      14.189  -1.479   4.177  1.00  0.00    -0.000 C 
BRANCH   7   8
ATOM      8  C   UNL     1      15.013  -0.297   3.635  1.00  0.00    -0.000 C 
BRANCH   8   9
ATOM      9  C   UNL     1      16.082  -0.738   2.624  1.00  0.00    -0.000 C 
BRANCH   9  10
ATOM     10  C   UNL     1      15.539  -1.725   1.580  1.00  0.00    -0.000 C 
BRANCH  10  11
ATOM     11  C   UNL     1      15.456  -1.070   0.197  1.00  0.00    -0.003 C 
ATOM     12  C   UNL     1      16.097   0.314   0.202  1.00  0.00     0.004 C 
ENDBRANCH  10  11
ENDBRANCH   9  10
ENDBRANCH   8   9
ENDBRANCH   7   8
ENDBRANCH   6   7
ENDBRANCH   5   6
ENDBRANCH   4   5
ENDBRANCH   3   4
ENDBRANCH   2   3
ENDBRANCH   1   2
BRANCH   1  13
ATOM     13  C   UNL     1      10.884  -2.992   0.121  1.00  0.00     0.000 C 
BRANCH  13  14
ATOM     14  C   UNL     1      11.369  -4.405  -0.253  1.00  0.00     0.000 C 
BRANCH  14  15
ATOM     15  C   UNL     1      10.218  -5.351  -0.636  1.00  0.00     0.000 C 
BRANCH  15  16
ATOM     16  C   UNL     1       8.866  -4.625  -0.736  1.00  0.00     0.000 C 
BRANCH  16  17
ATOM     17  C   UNL     1       8.049  -5.068  -1.963  1.00  0.00     0.000 C 
BRANCH  17  18
ATOM     18  C   UNL     1       6.808  -4.191  -2.193  1.00  0.00     0.000 C 
BRANCH  18  19
ATOM     19  C   UNL     1       6.290  -4.269  -3.639  1.00  0.00     0.000 C 
BRANCH  19  20
ATOM     20  C   UNL     1       6.902  -5.440  -4.423  1.00  0.00     0.006 C 
BRANCH  20  21
ATOM     21  C   UNL     1       7.161  -5.092  -5.895  1.00  0.00     0.053 C 
BRANCH  21  22
ATOM     22  C   UNL     1       8.609  -5.274  -6.227  1.00  0.00     0.041 C 
ATOM     23  O   UNL     1       9.298  -4.297  -6.620  1.00  0.00    -0.550 OA
ATOM     24  O   UNL     1       9.186  -6.536  -6.146  1.00  0.00    -0.550 OA
ENDBRANCH  21  22
ENDBRANCH  20  21
ENDBRANCH  19  20
ENDBRANCH  18  19
ENDBRANCH  17  18
ENDBRANCH  16  17
ENDBRANCH  15  16
ENDBRANCH  14  15
ENDBRANCH  13  14
ENDBRANCH   1  13
TORSDOF 20
ENDMDL
MODEL 4
REMARK VINA RESULT:    -4.417      3.162      7.619
REMARK INTER + INTRA:         -12.278
REMARK INTER:                  -9.904
REMARK INTRA:                  -2.374
REMARK UNBOUND:                -2.695
REMARK SMILES CCCCCCCCCCCCCCCCCCCCCC(=O)[O-]
REMARK SMILES IDX 12 1 11 2 10 3 9 4 8 5 7 6 6 7 5 8 4 9 3 10 2 11 1 12 13 13
REMARK SMILES IDX 14 14 15 15 16 16 17 17 18 18 19 19 20 20 21 21 22 22 23 23
REMARK SMILES IDX 24 24
REMARK H PARENT
REMARK Flexibility Score: inf
ROOT
ATOM      1  C   UNL     1      11.576  -1.074   0.117  1.00  0.00     0.000 C 
ENDROOT
BRANCH   1   2
ATOM      2  C   UNL     1      11.592   0.232   0.931  1.00  0.00     0.000 C 
BRANCH   2   3
ATOM      3  C   UNL     1      10.612   0.204   2.114  1.00  0.00     0.000 C 
BRANCH   3   4
ATOM      4  C   UNL     1      11.286   0.559   3.452  1.00  0.00    -0.000 C 
BRANCH   4   5
ATOM      5  C   UNL     1      12.714  -0.004   3.556  1.00  0.00    -0.000 C 
BRANCH   5   6
ATOM      6  C   UNL     1      12.741  -1.466   4.035  1.00  0.00    -0.000 C 
BRANCH   6   7
ATOM      7  C   UNL     1      13.517  -2.383   3.075  1.00  0.00    -0.000 C 
BRANCH   7   8
ATOM      8  C   UNL     1      15.038  -2.316   3.296  1.00  0.00    -0.000 C 
BRANCH   8   9
ATOM      9  C   UNL     1      15.751  -1.463   2.236  1.00  0.00    -0.000 C 
BRANCH   9  10
ATOM     10  C   UNL     1      15.104  -1.581   0.848  1.00  0.00    -0.000 C 
BRANCH  10  11
ATOM     11  C   UNL     1      15.835  -0.704  -0.175  1.00  0.00    -0.003 C 
ATOM     12  C   UNL     1      14.959  -0.431  -1.394  1.00  0.00     0.004 C 
ENDBRANCH  10  11
ENDBRANCH   9  10
ENDBRANCH   8   9
ENDBRANCH   7   8
ENDBRANCH   6   7
ENDBRANCH   5   6
ENDBRANCH   4   5
ENDBRANCH   3   4
ENDBRANCH   2   3
ENDBRANCH   1   2
BRANCH   1  13
ATOM     13  C   UNL     1      10.743  -2.186   0.782  1.00  0.00     0.000 C 
BRANCH  13  14
ATOM     14  C   UNL     1      10.541  -3.450  -0.072  1.00  0.00     0.000 C 
BRANCH  14  15
ATOM     15  C   UNL     1      11.781  -4.359  -0.099  1.00  0.00     0.000 C 
BRANCH  15  16
ATOM     16  C   UNL     1      11.428  -5.830  -0.373  1.00  0.00     0.000 C 
BRANCH  16  17
ATOM     17  C   UNL     1       9.928  -6.035  -0.650  1.00  0.00     0.000 C 
BRANCH  17  18
ATOM     18  C   UNL     1       9.646  -6.441  -2.105  1.00  0.00     0.000 C 
BRANCH  18  19
ATOM     19  C   UNL     1       8.270  -7.107  -2.277  1.00  0.00     0.000 C 
BRANCH  19  20
ATOM     20  C   UNL     1       7.467  -6.513  -3.444  1.00  0.00     0.006 C 
BRANCH  20  21
ATOM     21  C   UNL     1       7.624  -4.991  -3.552  1.00  0.00     0.053 C 
BRANCH  21  22
ATOM     22  C   UNL     1       6.348  -4.307  -3.172  1.00  0.00     0.041 C 
ATOM     23  O   UNL     1       5.353  -4.347  -3.943  1.00  0.00    -0.550 OA
ATOM     24  O   UNL     1       6.272  -3.586  -1.987  1.00  0.00    -0.550 OA
ENDBRANCH  21  22
ENDBRANCH  20  21
ENDBRANCH  19  20
ENDBRANCH  18  19
ENDBRANCH  17  18
ENDBRANCH  16  17
ENDBRANCH  15  16
ENDBRANCH  14  15
ENDBRANCH  13  14
ENDBRANCH   1  13
TORSDOF 20
ENDMDL
MODEL 5
REMARK VINA RESULT:    -4.400      1.880      3.595
REMARK INTER + INTRA:         -12.240
REMARK INTER:                 -10.024
REMARK INTRA:                  -2.217
REMARK UNBOUND:                -2.695
REMARK SMILES CCCCCCCCCCCCCCCCCCCCCC(=O)[O-]
REMARK SMILES IDX 12 1 11 2 10 3 9 4 8 5 7 6 6 7 5 8 4 9 3 10 2 11 1 12 13 13
REMARK SMILES IDX 14 14 15 15 16 16 17 17 18 18 19 19 20 20 21 21 22 22 23 23
REMARK SMILES IDX 24 24
REMARK H PARENT
REMARK Flexibility Score: inf
ROOT
ATOM      1  C   UNL     1      11.115  -2.023   0.737  1.00  0.00     0.000 C 
ENDROOT
BRANCH   1   2
ATOM      2  C   UNL     1      11.906  -3.219   0.178  1.00  0.00     0.000 C 
BRANCH   2   3
ATOM      3  C   UNL     1      10.998  -4.386  -0.240  1.00  0.00     0.000 C 
BRANCH   3   4
ATOM      4  C   UNL     1       9.501  -4.044  -0.126  1.00  0.00    -0.000 C 
BRANCH   4   5
ATOM      5  C   UNL     1       8.625  -4.935  -1.023  1.00  0.00    -0.000 C 
BRANCH   5   6
ATOM      6  C   UNL     1       9.297  -6.277  -1.362  1.00  0.00    -0.000 C 
BRANCH   6   7
ATOM      7  C   UNL     1       8.601  -7.005  -2.524  1.00  0.00    -0.000 C 
BRANCH   7   8
ATOM      8  C   UNL     1       8.201  -6.049  -3.662  1.00  0.00    -0.000 C 
BRANCH   8   9
ATOM      9  C   UNL     1       6.696  -6.098  -3.971  1.00  0.00    -0.000 C 
BRANCH   9  10
ATOM     10  C   UNL     1       6.216  -4.879  -4.772  1.00  0.00    -0.000 C 
BRANCH  10  11
ATOM     11  C   UNL     1       4.837  -4.413  -4.291  1.00  0.00    -0.003 C 
ATOM     12  C   UNL     1       3.793  -4.547  -5.395  1.00  0.00     0.004 C 
ENDBRANCH  10  11
ENDBRANCH   9  10
ENDBRANCH   8   9
ENDBRANCH   7   8
ENDBRANCH   6   7
ENDBRANCH   5   6
ENDBRANCH   4   5
ENDBRANCH   3   4
ENDBRANCH   2   3
ENDBRANCH   1   2
BRANCH   1  13
ATOM     13  C   UNL     1      11.660  -0.665   0.257  1.00  0.00     0.000 C 
BRANCH  13  14
ATOM     14  C   UNL     1      11.061   0.564   0.964  1.00  0.00     0.000 C 
BRANCH  14  15
ATOM     15  C   UNL     1       9.821   0.225   1.808  1.00  0.00     0.000 C 
BRANCH  15  16
ATOM     16  C   UNL     1      10.053   0.447   3.312  1.00  0.00     0.000 C 
BRANCH  16  17
ATOM     17  C   UNL     1      11.486   0.912   3.625  1.00  0.00     0.000 C 
BRANCH  17  18
ATOM     18  C   UNL     1      12.258  -0.097   4.490  1.00  0.00     0.000 C 
BRANCH  18  19
ATOM     19  C   UNL     1      13.194  -0.991   3.658  1.00  0.00     0.000 C 
BRANCH  19  20
ATOM     20  C   UNL     1      14.235  -0.184   2.868  1.00  0.00     0.006 C 
BRANCH  20  21
ATOM     21  C   UNL     1      15.497  -0.998   2.553  1.00  0.00     0.053 C 
BRANCH  21  22
ATOM     22  C   UNL     1      15.256  -1.900   1.384  1.00  0.00     0.041 C 
ATOM     23  O   UNL     1      15.308  -3.150   1.526  1.00  0.00    -0.550 OA
ATOM     24  O   UNL     1      15.021  -1.359   0.126  1.00  0.00    -0.550 OA
ENDBRANCH  21  22
ENDBRANCH  20  21
ENDBRANCH  19  20
ENDBRANCH  18  19
ENDBRANCH  17  18
ENDBRANCH  16  17
ENDBRANCH  15  16
ENDBRANCH  14  15
ENDBRANCH  13  14
ENDBRANCH   1  13
TORSDOF 20
ENDMDL
MODEL 6
REMARK VINA RESULT:    -4.345      1.649      3.978
REMARK INTER + INTRA:         -12.120
REMARK INTER:                  -9.395
REMARK INTRA:                  -2.725
REMARK UNBOUND:                -2.695
REMARK SMILES CCCCCCCCCCCCCCCCCCCCCC(=O)[O-]
REMARK SMILES IDX 12 1 11 2 10 3 9 4 8 5 7 6 6 7 5 8 4 9 3 10 2 11 1 12 13 13
REMARK SMILES IDX 14 14 15 15 16 16 17 17 18 18 19 19 20 20 21 21 22 22 23 23
REMARK SMILES IDX 24 24
REMARK H PARENT
REMARK Flexibility Score: inf
ROOT
ATOM      1  C   UNL     1      11.013  -1.944   0.696  1.00  0.00     0.000 C 
ENDROOT
BRANCH   1   2
ATOM      2  C   UNL     1      11.962  -3.136   0.480  1.00  0.00     0.000 C 
BRANCH   2   3
ATOM      3  C   UNL     1      11.293  -4.296  -0.275  1.00  0.00     0.000 C 
BRANCH   3   4
ATOM      4  C   UNL     1       9.767  -4.128  -0.388  1.00  0.00    -0.000 C 
BRANCH   4   5
ATOM      5  C   UNL     1       9.086  -5.355  -1.018  1.00  0.00    -0.000 C 
BRANCH   5   6
ATOM      6  C   UNL     1       9.746  -6.680  -0.597  1.00  0.00    -0.000 C 
BRANCH   6   7
ATOM      7  C   UNL     1       9.746  -7.721  -1.728  1.00  0.00    -0.000 C 
BRANCH   7   8
ATOM      8  C   UNL     1      10.989  -7.611  -2.629  1.00  0.00    -0.000 C 
BRANCH   8   9
ATOM      9  C   UNL     1      12.289  -7.457  -1.823  1.00  0.00    -0.000 C 
BRANCH   9  10
ATOM     10  C   UNL     1      12.710  -8.758  -1.124  1.00  0.00    -0.000 C 
BRANCH  10  11
ATOM     11  C   UNL     1      12.784  -8.565   0.395  1.00  0.00    -0.003 C 
ATOM     12  C   UNL     1      13.381  -7.206   0.750  1.00  0.00     0.004 C 
ENDBRANCH  10  11
ENDBRANCH   9  10
ENDBRANCH   8   9
ENDBRANCH   7   8
ENDBRANCH   6   7
ENDBRANCH   5   6
ENDBRANCH   4   5
ENDBRANCH   3   4
ENDBRANCH   2   3
ENDBRANCH   1   2
BRANCH   1  13
ATOM     13  C   UNL     1      11.633  -0.599   0.276  1.00  0.00     0.000 C 
BRANCH  13  14
ATOM     14  C   UNL     1      11.149   0.622   1.080  1.00  0.00     0.000 C 
BRANCH  14  15
ATOM     15  C   UNL     1      10.095   0.262   2.140  1.00  0.00     0.000 C 
BRANCH  15  16
ATOM     16  C   UNL     1      10.431   0.835   3.526  1.00  0.00     0.000 C 
BRANCH  16  17
ATOM     17  C   UNL     1      11.921   0.682   3.881  1.00  0.00     0.000 C 
BRANCH  17  18
ATOM     18  C   UNL     1      12.286  -0.755   4.287  1.00  0.00     0.000 C 
BRANCH  18  19
ATOM     19  C   UNL     1      13.577  -1.249   3.611  1.00  0.00     0.000 C 
BRANCH  19  20
ATOM     20  C   UNL     1      14.341  -0.121   2.901  1.00  0.00     0.006 C 
BRANCH  20  21
ATOM     21  C   UNL     1      15.800  -0.493   2.608  1.00  0.00     0.053 C 
BRANCH  21  22
ATOM     22  C   UNL     1      15.901  -1.930   2.203  1.00  0.00     0.041 C 
ATOM     23  O   UNL     1      16.419  -2.773   2.981  1.00  0.00    -0.550 OA
ATOM     24  O   UNL     1      15.465  -2.330   0.946  1.00  0.00    -0.550 OA
ENDBRANCH  21  22
ENDBRANCH  20  21
ENDBRANCH  19  20
ENDBRANCH  18  19
ENDBRANCH  17  18
ENDBRANCH  16  17
ENDBRANCH  15  16
ENDBRANCH  14  15
ENDBRANCH  13  14
ENDBRANCH   1  13
TORSDOF 20
ENDMDL
MODEL 7
REMARK VINA RESULT:    -4.343      1.323      3.789
REMARK INTER + INTRA:         -12.115
REMARK INTER:                  -9.445
REMARK INTRA:                  -2.670
REMARK UNBOUND:                -2.695
REMARK SMILES CCCCCCCCCCCCCCCCCCCCCC(=O)[O-]
REMARK SMILES IDX 12 1 11 2 10 3 9 4 8 5 7 6 6 7 5 8 4 9 3 10 2 11 1 12 13 13
REMARK SMILES IDX 14 14 15 15 16 16 17 17 18 18 19 19 20 20 21 21 22 22 23 23
REMARK SMILES IDX 24 24
REMARK H PARENT
REMARK Flexibility Score: inf
ROOT
ATOM      1  C   UNL     1      11.348  -0.580   0.106  1.00  0.00     0.000 C 
ENDROOT
BRANCH   1   2
ATOM      2  C   UNL     1      10.984  -1.970   0.656  1.00  0.00     0.000 C 
BRANCH   2   3
ATOM      3  C   UNL     1      11.981  -3.057   0.224  1.00  0.00     0.000 C 
BRANCH   3   4
ATOM      4  C   UNL     1      11.286  -4.317  -0.323  1.00  0.00    -0.000 C 
BRANCH   4   5
ATOM      5  C   UNL     1       9.758  -4.158  -0.397  1.00  0.00    -0.000 C 
BRANCH   5   6
ATOM      6  C   UNL     1       9.050  -5.445  -0.855  1.00  0.00    -0.000 C 
BRANCH   6   7
ATOM      7  C   UNL     1       9.931  -6.304  -1.776  1.00  0.00    -0.000 C 
BRANCH   7   8
ATOM      8  C   UNL     1       9.912  -7.794  -1.388  1.00  0.00    -0.000 C 
BRANCH   8   9
ATOM      9  C   UNL     1      10.941  -8.132  -0.298  1.00  0.00    -0.000 C 
BRANCH   9  10
ATOM     10  C   UNL     1      12.387  -7.884  -0.752  1.00  0.00    -0.000 C 
BRANCH  10  11
ATOM     11  C   UNL     1      13.360  -8.006   0.427  1.00  0.00    -0.003 C 
ATOM     12  C   UNL     1      13.445  -6.698   1.209  1.00  0.00     0.004 C 
ENDBRANCH  10  11
ENDBRANCH   9  10
ENDBRANCH   8   9
ENDBRANCH   7   8
ENDBRANCH   6   7
ENDBRANCH   5   6
ENDBRANCH   4   5
ENDBRANCH   3   4
ENDBRANCH   2   3
ENDBRANCH   1   2
BRANCH   1  13
ATOM     13  C   UNL     1      11.355   0.512   1.192  1.00  0.00     0.000 C 
BRANCH  13  14
ATOM     14  C   UNL     1      10.413   0.254   2.382  1.00  0.00     0.000 C 
BRANCH  14  15
ATOM     15  C   UNL     1      11.086   0.500   3.743  1.00  0.00     0.000 C 
BRANCH  15  16
ATOM     16  C   UNL     1      12.590   0.182   3.723  1.00  0.00     0.000 C 
BRANCH  16  17
ATOM     17  C   UNL     1      12.902  -1.228   4.255  1.00  0.00     0.000 C 
BRANCH  17  18
ATOM     18  C   UNL     1      13.530  -2.136   3.186  1.00  0.00     0.000 C 
BRANCH  18  19
ATOM     19  C   UNL     1      15.062  -2.209   3.299  1.00  0.00     0.000 C 
BRANCH  19  20
ATOM     20  C   UNL     1      15.769  -1.872   1.978  1.00  0.00     0.006 C 
BRANCH  20  21
ATOM     21  C   UNL     1      14.894  -1.033   1.039  1.00  0.00     0.053 C 
BRANCH  21  22
ATOM     22  C   UNL     1      15.717  -0.471  -0.078  1.00  0.00     0.041 C 
ATOM     23  O   UNL     1      15.229  -0.362  -1.233  1.00  0.00    -0.550 OA
ATOM     24  O   UNL     1      17.040  -0.111   0.148  1.00  0.00    -0.550 OA
ENDBRANCH  21  22
ENDBRANCH  20  21
ENDBRANCH  19  20
ENDBRANCH  18  19
ENDBRANCH  17  18
ENDBRANCH  16  17
ENDBRANCH  15  16
ENDBRANCH  14  15
ENDBRANCH  13  14
ENDBRANCH   1  13
TORSDOF 20
ENDMDL
MODEL 8
REMARK VINA RESULT:    -4.305      1.792      3.252
REMARK INTER + INTRA:         -12.035
REMARK INTER:                  -9.572
REMARK INTRA:                  -2.463
REMARK UNBOUND:                -2.695
REMARK SMILES CCCCCCCCCCCCCCCCCCCCCC(=O)[O-]
REMARK SMILES IDX 12 1 11 2 10 3 9 4 8 5 7 6 6 7 5 8 4 9 3 10 2 11 1 12 13 13
REMARK SMILES IDX 14 14 15 15 16 16 17 17 18 18 19 19 20 20 21 21 22 22 23 23
REMARK SMILES IDX 24 24
REMARK H PARENT
REMARK Flexibility Score: inf
ROOT
ATOM      1  C   UNL     1      11.678  -0.778   0.172  1.00  0.00     0.000 C 
ENDROOT
BRANCH   1   2
ATOM      2  C   UNL     1      11.056  -2.119   0.600  1.00  0.00     0.000 C 
BRANCH   2   3
ATOM      3  C   UNL     1      12.000  -3.310   0.367  1.00  0.00     0.000 C 
BRANCH   3   4
ATOM      4  C   UNL     1      11.306  -4.486  -0.344  1.00  0.00    -0.000 C 
BRANCH   4   5
ATOM      5  C   UNL     1       9.819  -4.209  -0.623  1.00  0.00    -0.000 C 
BRANCH   5   6
ATOM      6  C   UNL     1       8.981  -5.497  -0.703  1.00  0.00    -0.000 C 
BRANCH   6   7
ATOM      7  C   UNL     1       9.402  -6.399  -1.875  1.00  0.00    -0.000 C 
BRANCH   7   8
ATOM      8  C   UNL     1       8.242  -6.685  -2.845  1.00  0.00    -0.000 C 
BRANCH   8   9
ATOM      9  C   UNL     1       8.385  -5.928  -4.175  1.00  0.00    -0.000 C 
BRANCH   9  10
ATOM     10  C   UNL     1       7.122  -5.135  -4.544  1.00  0.00    -0.000 C 
BRANCH  10  11
ATOM     11  C   UNL     1       6.619  -4.318  -3.349  1.00  0.00    -0.003 C 
ATOM     12  C   UNL     1       5.125  -4.028  -3.469  1.00  0.00     0.004 C 
ENDBRANCH  10  11
ENDBRANCH   9  10
ENDBRANCH   8   9
ENDBRANCH   7   8
ENDBRANCH   6   7
ENDBRANCH   5   6
ENDBRANCH   4   5
ENDBRANCH   3   4
ENDBRANCH   2   3
ENDBRANCH   1   2
BRANCH   1  13
ATOM     13  C   UNL     1      11.298   0.385   1.106  1.00  0.00     0.000 C 
BRANCH  13  14
ATOM     14  C   UNL     1      10.577  -0.027   2.402  1.00  0.00     0.000 C 
BRANCH  14  15
ATOM     15  C   UNL     1      10.907   0.892   3.590  1.00  0.00     0.000 C 
BRANCH  15  16
ATOM     16  C   UNL     1      12.083   0.370   4.431  1.00  0.00     0.000 C 
BRANCH  16  17
ATOM     17  C   UNL     1      12.529  -1.041   4.008  1.00  0.00     0.000 C 
BRANCH  17  18
ATOM     18  C   UNL     1      14.053  -1.154   3.847  1.00  0.00     0.000 C 
BRANCH  18  19
ATOM     19  C   UNL     1      14.462  -2.260   2.859  1.00  0.00     0.000 C 
BRANCH  19  20
ATOM     20  C   UNL     1      15.043  -1.700   1.552  1.00  0.00     0.006 C 
BRANCH  20  21
ATOM     21  C   UNL     1      15.059  -0.166   1.524  1.00  0.00     0.053 C 
BRANCH  21  22
ATOM     22  C   UNL     1      16.462   0.338   1.399  1.00  0.00     0.041 C 
ATOM     23  O   UNL     1      17.165   0.017   0.405  1.00  0.00    -0.550 OA
ATOM     24  O   UNL     1      17.009   1.126   2.404  1.00  0.00    -0.550 OA
ENDBRANCH  21  22
ENDBRANCH  20  21
ENDBRANCH  19  20
ENDBRANCH  18  19
ENDBRANCH  17  18
ENDBRANCH  16  17
ENDBRANCH  15  16
ENDBRANCH  14  15
ENDBRANCH  13  14
ENDBRANCH   1  13
TORSDOF 20
ENDMDL
MODEL 9
REMARK VINA RESULT:    -4.265      3.790      7.437
REMARK INTER + INTRA:         -11.946
REMARK INTER:                  -9.365
REMARK INTRA:                  -2.581
REMARK UNBOUND:                -2.695
REMARK SMILES CCCCCCCCCCCCCCCCCCCCCC(=O)[O-]
REMARK SMILES IDX 12 1 11 2 10 3 9 4 8 5 7 6 6 7 5 8 4 9 3 10 2 11 1 12 13 13
REMARK SMILES IDX 14 14 15 15 16 16 17 17 18 18 19 19 20 20 21 21 22 22 23 23
REMARK SMILES IDX 24 24
REMARK H PARENT
REMARK Flexibility Score: inf
ROOT
ATOM      1  C   UNL     1      15.361  -0.454  -1.339  1.00  0.00     0.000 C 
ENDROOT
BRANCH   1   2
ATOM      2  C   UNL     1      15.997  -1.076  -0.083  1.00  0.00     0.000 C 
BRANCH   2   3
ATOM      3  C   UNL     1      16.881  -0.082   0.687  1.00  0.00     0.000 C 
BRANCH   3   4
ATOM      4  C   UNL     1      16.142   0.582   1.863  1.00  0.00    -0.000 C 
BRANCH   4   5
ATOM      5  C   UNL     1      17.090   0.960   3.013  1.00  0.00    -0.000 C 
BRANCH   5   6
ATOM      6  C   UNL     1      17.551  -0.261   3.828  1.00  0.00    -0.000 C 
BRANCH   6   7
ATOM      7  C   UNL     1      16.830  -0.370   5.181  1.00  0.00    -0.000 C 
BRANCH   7   8
ATOM      8  C   UNL     1      16.598  -1.830   5.609  1.00  0.00    -0.000 C 
BRANCH   8   9
ATOM      9  C   UNL     1      17.878  -2.679   5.528  1.00  0.00    -0.000 C 
BRANCH   9  10
ATOM     10  C   UNL     1      17.631  -4.065   4.915  1.00  0.00    -0.000 C 
BRANCH  10  11
ATOM     11  C   UNL     1      18.433  -5.142   5.655  1.00  0.00    -0.003 C 
ATOM     12  C   UNL     1      17.629  -5.735   6.808  1.00  0.00     0.004 C 
ENDBRANCH  10  11
ENDBRANCH   9  10
ENDBRANCH   8   9
ENDBRANCH   7   8
ENDBRANCH   6   7
ENDBRANCH   5   6
ENDBRANCH   4   5
ENDBRANCH   3   4
ENDBRANCH   2   3
ENDBRANCH   1   2
BRANCH   1  13
ATOM     13  C   UNL     1      13.822  -0.473  -1.305  1.00  0.00     0.000 C 
BRANCH  13  14
ATOM     14  C   UNL     1      13.199  -0.383   0.100  1.00  0.00     0.000 C 
BRANCH  14  15
ATOM     15  C   UNL     1      11.664  -0.468   0.081  1.00  0.00     0.000 C 
BRANCH  15  16
ATOM     16  C   UNL     1      11.005   0.553   1.022  1.00  0.00     0.000 C 
BRANCH  16  17
ATOM     17  C   UNL     1      10.761  -0.015   2.431  1.00  0.00     0.000 C 
BRANCH  17  18
ATOM     18  C   UNL     1      11.388   0.852   3.534  1.00  0.00     0.000 C 
BRANCH  18  19
ATOM     19  C   UNL     1      12.300   0.045   4.474  1.00  0.00     0.000 C 
BRANCH  19  20
ATOM     20  C   UNL     1      13.417  -0.693   3.722  1.00  0.00     0.006 C 
BRANCH  20  21
ATOM     21  C   UNL     1      13.323  -2.217   3.873  1.00  0.00     0.053 C 
BRANCH  21  22
ATOM     22  C   UNL     1      13.947  -2.897   2.695  1.00  0.00     0.041 C 
ATOM     23  O   UNL     1      13.223  -3.420   1.807  1.00  0.00    -0.550 OA
ATOM     24  O   UNL     1      15.330  -2.995   2.602  1.00  0.00    -0.550 OA
ENDBRANCH  21  22
ENDBRANCH  20  21
ENDBRANCH  19  20
ENDBRANCH  18  19
ENDBRANCH  17  18
ENDBRANCH  16  17
ENDBRANCH  15  16
ENDBRANCH  14  15
ENDBRANCH  13  14
ENDBRANCH   1  13
TORSDOF 20
ENDMDL
