MODEL 1
REMARK VINA RESULT:    -6.102      0.000      0.000
REMARK INTER + INTRA:          -6.610
REMARK INTER:                  -6.637
REMARK INTRA:                   0.027
REMARK UNBOUND:                 0.027
REMARK SMILES CC(=O)[C@@H]1CC[C@@H]2[C@H]3CC=C4C[C@@H](O)CC[C@]4(C)[C@H]3CC[C@]21C
REMARK SMILES IDX 4 1 5 2 6 3 7 4 22 5 21 6 20 7 19 8 8 9 9 10 10 11 11 12
REMARK SMILES IDX 17 13 16 14 15 15 13 16 12 17 18 18 23 19 2 20 1 21 3 22
REMARK SMILES IDX 14 23
REMARK H PARENT 14 24
REMARK Flexibility Score: inf
ROOT
ATOM      1  C   UNL     1     177.604 170.949 172.413  1.00  0.00     0.062 C 
ATOM      2  C   UNL     1     178.051 170.230 171.120  1.00  0.00     0.012 C 
ATOM      3  C   UNL     1     176.772 169.684 170.463  1.00  0.00     0.005 C 
ATOM      4  C   UNL     1     175.670 169.962 171.481  1.00  0.00    -0.001 C 
ATOM      5  C   UNL     1     176.100 171.253 172.198  1.00  0.00    -0.020 C 
ATOM      6  C   UNL     1     175.279 171.413 173.515  1.00  0.00     0.008 C 
ATOM      7  C   UNL     1     173.931 170.645 173.505  1.00  0.00     0.005 C 
ATOM      8  C   UNL     1     173.246 170.568 172.101  1.00  0.00     0.003 C 
ATOM      9  C   UNL     1     174.211 170.022 170.975  1.00  0.00     0.000 C 
ATOM     10  C   UNL     1     173.769 168.664 170.422  1.00  0.00     0.031 C 
ATOM     11  C   UNL     1     172.335 168.733 169.998  1.00  0.00    -0.027 C 
ATOM     12  C   UNL     1     171.410 169.344 170.763  1.00  0.00    -0.065 C 
ATOM     13  C   UNL     1     171.800 169.894 172.145  1.00  0.00    -0.008 C 
ATOM     14  C   UNL     1     170.768 170.979 172.599  1.00  0.00     0.014 C 
ATOM     15  C   UNL     1     169.309 170.584 172.357  1.00  0.00     0.033 C 
ATOM     16  C   UNL     1     169.077 170.333 170.865  1.00  0.00     0.118 C 
ATOM     17  C   UNL     1     169.951 169.178 170.376  1.00  0.00     0.063 C 
ATOM     18  C   UNL     1     171.740 168.706 173.146  1.00  0.00     0.016 C 
ATOM     19  C   UNL     1     175.914 172.524 171.309  1.00  0.00     0.012 C 
ENDROOT
BRANCH   1  20
ATOM     20  C   UNL     1     178.473 172.139 172.777  1.00  0.00     0.133 C 
ATOM     21  C   UNL     1     178.139 172.971 173.979  1.00  0.00     0.088 C 
ATOM     22  O   UNL     1     179.463 172.415 172.114  1.00  0.00    -0.300 OA
ENDBRANCH   1  20
BRANCH  16  23
ATOM     23  O   UNL     1     167.728 170.014 170.638  1.00  0.00    -0.393 OA
ATOM     24  H   UNL     1     167.448 170.514 169.828  1.00  0.00     0.210 HD
ENDBRANCH  16  23
TORSDOF 2
ENDMDL
MODEL 2
REMARK VINA RESULT:    -6.088      2.517      6.879
REMARK INTER + INTRA:          -6.595
REMARK INTER:                  -6.405
REMARK INTRA:                  -0.190
REMARK UNBOUND:                 0.027
REMARK SMILES CC(=O)[C@@H]1CC[C@@H]2[C@H]3CC=C4C[C@@H](O)CC[C@]4(C)[C@H]3CC[C@]21C
REMARK SMILES IDX 4 1 5 2 6 3 7 4 22 5 21 6 20 7 19 8 8 9 9 10 10 11 11 12
REMARK SMILES IDX 17 13 16 14 15 15 13 16 12 17 18 18 23 19 2 20 1 21 3 22
REMARK SMILES IDX 14 23
REMARK H PARENT 14 24
REMARK Flexibility Score: inf
ROOT
ATOM      1  C   UNL     1     172.380 168.214 167.771  1.00  0.00     0.062 C 
ATOM      2  C   UNL     1     171.038 168.569 168.452  1.00  0.00     0.012 C 
ATOM      3  C   UNL     1     171.394 169.295 169.761  1.00  0.00     0.005 C 
ATOM      4  C   UNL     1     172.913 169.179 169.862  1.00  0.00    -0.001 C 
ATOM      5  C   UNL     1     173.414 169.177 168.408  1.00  0.00    -0.020 C 
ATOM      6  C   UNL     1     174.886 168.661 168.368  1.00  0.00     0.008 C 
ATOM      7  C   UNL     1     175.640 168.827 169.714  1.00  0.00     0.005 C 
ATOM      8  C   UNL     1     175.224 170.094 170.532  1.00  0.00     0.003 C 
ATOM      9  C   UNL     1     173.662 170.200 170.747  1.00  0.00     0.000 C 
ATOM     10  C   UNL     1     173.254 170.053 172.216  1.00  0.00     0.031 C 
ATOM     11  C   UNL     1     174.040 171.009 173.057  1.00  0.00    -0.027 C 
ATOM     12  C   UNL     1     175.362 171.182 172.867  1.00  0.00    -0.065 C 
ATOM     13  C   UNL     1     176.109 170.314 171.841  1.00  0.00    -0.008 C 
ATOM     14  C   UNL     1     177.443 171.014 171.418  1.00  0.00     0.014 C 
ATOM     15  C   UNL     1     178.233 171.597 172.592  1.00  0.00     0.033 C 
ATOM     16  C   UNL     1     177.386 172.641 173.325  1.00  0.00     0.118 C 
ATOM     17  C   UNL     1     176.124 171.995 173.899  1.00  0.00     0.063 C 
ATOM     18  C   UNL     1     176.457 168.971 172.542  1.00  0.00     0.016 C 
ATOM     19  C   UNL     1     173.337 170.589 167.744  1.00  0.00     0.012 C 
ENDROOT
BRANCH   1  20
ATOM     20  C   UNL     1     172.313 168.225 166.255  1.00  0.00     0.133 C 
ATOM     21  C   UNL     1     171.108 168.787 165.563  1.00  0.00     0.088 C 
ATOM     22  O   UNL     1     173.246 167.803 165.586  1.00  0.00    -0.300 OA
ENDBRANCH   1  20
BRANCH  16  23
ATOM     23  O   UNL     1     178.127 173.208 174.374  1.00  0.00    -0.393 OA
ATOM     24  H   UNL     1     178.907 172.614 174.527  1.00  0.00     0.210 HD
ENDBRANCH  16  23
TORSDOF 2
ENDMDL
MODEL 3
REMARK VINA RESULT:    -6.016      2.638      6.927
REMARK INTER + INTRA:          -6.516
REMARK INTER:                  -6.330
REMARK INTRA:                  -0.187
REMARK UNBOUND:                 0.027
REMARK SMILES CC(=O)[C@@H]1CC[C@@H]2[C@H]3CC=C4C[C@@H](O)CC[C@]4(C)[C@H]3CC[C@]21C
REMARK SMILES IDX 4 1 5 2 6 3 7 4 22 5 21 6 20 7 19 8 8 9 9 10 10 11 11 12
REMARK SMILES IDX 17 13 16 14 15 15 13 16 12 17 18 18 23 19 2 20 1 21 3 22
REMARK SMILES IDX 14 23
REMARK H PARENT 14 24
REMARK Flexibility Score: inf
ROOT
ATOM      1  C   UNL     1     171.991 165.966 173.172  1.00  0.00     0.062 C 
ATOM      2  C   UNL     1     172.736 164.884 172.357  1.00  0.00     0.012 C 
ATOM      3  C   UNL     1     173.996 165.559 171.790  1.00  0.00     0.005 C 
ATOM      4  C   UNL     1     173.841 167.032 172.158  1.00  0.00    -0.001 C 
ATOM      5  C   UNL     1     173.067 167.036 173.487  1.00  0.00    -0.020 C 
ATOM      6  C   UNL     1     172.500 168.464 173.752  1.00  0.00     0.008 C 
ATOM      7  C   UNL     1     173.270 169.588 173.009  1.00  0.00     0.005 C 
ATOM      8  C   UNL     1     174.802 169.318 172.848  1.00  0.00     0.003 C 
ATOM      9  C   UNL     1     175.113 167.907 172.208  1.00  0.00     0.000 C 
ATOM     10  C   UNL     1     175.759 168.013 170.823  1.00  0.00     0.031 C 
ATOM     11  C   UNL     1     176.951 168.915 170.888  1.00  0.00    -0.027 C 
ATOM     12  C   UNL     1     176.910 170.078 171.566  1.00  0.00    -0.065 C 
ATOM     13  C   UNL     1     175.591 170.547 172.204  1.00  0.00    -0.008 C 
ATOM     14  C   UNL     1     175.884 171.587 173.336  1.00  0.00     0.014 C 
ATOM     15  C   UNL     1     176.924 172.643 172.950  1.00  0.00     0.033 C 
ATOM     16  C   UNL     1     178.251 171.965 172.602  1.00  0.00     0.118 C 
ATOM     17  C   UNL     1     178.076 171.035 171.399  1.00  0.00     0.063 C 
ATOM     18  C   UNL     1     174.766 171.250 171.089  1.00  0.00     0.016 C 
ATOM     19  C   UNL     1     173.951 166.592 174.697  1.00  0.00     0.012 C 
ENDROOT
BRANCH   1  20
ATOM     20  C   UNL     1     171.238 165.415 174.369  1.00  0.00     0.133 C 
ATOM     21  C   UNL     1     171.505 164.017 174.842  1.00  0.00     0.088 C 
ATOM     22  O   UNL     1     170.431 166.107 174.972  1.00  0.00    -0.300 OA
ENDBRANCH   1  20
BRANCH  16  23
ATOM     23  O   UNL     1     179.217 172.936 172.291  1.00  0.00    -0.393 OA
ATOM     24  H   UNL     1     179.279 173.539 173.077  1.00  0.00     0.210 HD
ENDBRANCH  16  23
TORSDOF 2
ENDMDL
MODEL 4
REMARK VINA RESULT:    -5.995      3.541      6.675
REMARK INTER + INTRA:          -6.494
REMARK INTER:                  -6.305
REMARK INTRA:                  -0.188
REMARK UNBOUND:                 0.027
REMARK SMILES CC(=O)[C@@H]1CC[C@@H]2[C@H]3CC=C4C[C@@H](O)CC[C@]4(C)[C@H]3CC[C@]21C
REMARK SMILES IDX 4 1 5 2 6 3 7 4 22 5 21 6 20 7 19 8 8 9 9 10 10 11 11 12
REMARK SMILES IDX 17 13 16 14 15 15 13 16 12 17 18 18 23 19 2 20 1 21 3 22
REMARK SMILES IDX 14 23
REMARK H PARENT 14 24
REMARK Flexibility Score: inf
ROOT
ATOM      1  C   UNL     1     175.061 164.968 169.498  1.00  0.00     0.062 C 
ATOM      2  C   UNL     1     174.405 165.501 168.204  1.00  0.00     0.012 C 
ATOM      3  C   UNL     1     174.400 167.034 168.318  1.00  0.00     0.005 C 
ATOM      4  C   UNL     1     174.895 167.314 169.735  1.00  0.00    -0.001 C 
ATOM      5  C   UNL     1     175.869 166.168 170.055  1.00  0.00    -0.020 C 
ATOM      6  C   UNL     1     176.122 166.118 171.593  1.00  0.00     0.008 C 
ATOM      7  C   UNL     1     175.850 167.465 172.314  1.00  0.00     0.005 C 
ATOM      8  C   UNL     1     176.184 168.730 171.456  1.00  0.00     0.003 C 
ATOM      9  C   UNL     1     175.497 168.705 170.032  1.00  0.00     0.000 C 
ATOM     10  C   UNL     1     174.444 169.804 169.863  1.00  0.00     0.031 C 
ATOM     11  C   UNL     1     175.036 171.132 170.219  1.00  0.00    -0.027 C 
ATOM     12  C   UNL     1     175.815 171.280 171.307  1.00  0.00    -0.065 C 
ATOM     13  C   UNL     1     176.025 170.096 172.266  1.00  0.00    -0.008 C 
ATOM     14  C   UNL     1     177.323 170.316 173.112  1.00  0.00     0.014 C 
ATOM     15  C   UNL     1     177.466 171.736 173.665  1.00  0.00     0.033 C 
ATOM     16  C   UNL     1     177.498 172.744 172.513  1.00  0.00     0.118 C 
ATOM     17  C   UNL     1     176.191 172.692 171.721  1.00  0.00     0.063 C 
ATOM     18  C   UNL     1     174.806 170.064 173.230  1.00  0.00     0.016 C 
ATOM     19  C   UNL     1     177.233 166.311 169.305  1.00  0.00     0.012 C 
ENDROOT
BRANCH   1  20
ATOM     20  C   UNL     1     175.840 163.682 169.299  1.00  0.00     0.133 C 
ATOM     21  C   UNL     1     176.112 163.177 167.914  1.00  0.00     0.088 C 
ATOM     22  O   UNL     1     176.275 163.061 170.259  1.00  0.00    -0.300 OA
ENDBRANCH   1  20
BRANCH  16  23
ATOM     23  O   UNL     1     177.674 174.043 173.019  1.00  0.00    -0.393 OA
ATOM     24  H   UNL     1     178.411 173.994 173.681  1.00  0.00     0.210 HD
ENDBRANCH  16  23
TORSDOF 2
ENDMDL
MODEL 5
REMARK VINA RESULT:    -5.928      4.024      6.232
REMARK INTER + INTRA:          -6.421
REMARK INTER:                  -6.304
REMARK INTRA:                  -0.117
REMARK UNBOUND:                 0.027
REMARK SMILES CC(=O)[C@@H]1CC[C@@H]2[C@H]3CC=C4C[C@@H](O)CC[C@]4(C)[C@H]3CC[C@]21C
REMARK SMILES IDX 4 1 5 2 6 3 7 4 22 5 21 6 20 7 19 8 8 9 9 10 10 11 11 12
REMARK SMILES IDX 17 13 16 14 15 15 13 16 12 17 18 18 23 19 2 20 1 21 3 22
REMARK SMILES IDX 14 23
REMARK H PARENT 14 24
REMARK Flexibility Score: inf
ROOT
ATOM      1  C   UNL     1     175.372 171.049 172.335  1.00  0.00     0.062 C 
ATOM      2  C   UNL     1     174.186 170.621 173.228  1.00  0.00     0.012 C 
ATOM      3  C   UNL     1     173.958 169.124 172.960  1.00  0.00     0.005 C 
ATOM      4  C   UNL     1     174.903 168.793 171.808  1.00  0.00    -0.001 C 
ATOM      5  C   UNL     1     176.110 169.729 171.996  1.00  0.00    -0.020 C 
ATOM      6  C   UNL     1     176.941 169.774 170.677  1.00  0.00     0.008 C 
ATOM      7  C   UNL     1     176.736 168.532 169.769  1.00  0.00     0.005 C 
ATOM      8  C   UNL     1     176.487 167.200 170.550  1.00  0.00     0.003 C 
ATOM      9  C   UNL     1     175.320 167.319 171.610  1.00  0.00     0.000 C 
ATOM     10  C   UNL     1     174.109 166.450 171.259  1.00  0.00     0.031 C 
ATOM     11  C   UNL     1     174.550 165.042 171.010  1.00  0.00    -0.027 C 
ATOM     12  C   UNL     1     175.650 164.773 170.282  1.00  0.00    -0.065 C 
ATOM     13  C   UNL     1     176.417 165.919 169.600  1.00  0.00    -0.008 C 
ATOM     14  C   UNL     1     177.880 165.467 169.280  1.00  0.00     0.014 C 
ATOM     15  C   UNL     1     177.975 164.065 168.673  1.00  0.00     0.033 C 
ATOM     16  C   UNL     1     177.384 163.037 169.641  1.00  0.00     0.118 C 
ATOM     17  C   UNL     1     175.903 163.328 169.890  1.00  0.00     0.063 C 
ATOM     18  C   UNL     1     175.690 166.226 168.261  1.00  0.00     0.016 C 
ATOM     19  C   UNL     1     177.031 169.290 173.179  1.00  0.00     0.012 C 
ENDROOT
BRANCH   1  20
ATOM     20  C   UNL     1     176.227 172.145 172.944  1.00  0.00     0.133 C 
ATOM     21  C   UNL     1     177.272 172.828 172.115  1.00  0.00     0.088 C 
ATOM     22  O   UNL     1     176.055 172.499 174.102  1.00  0.00    -0.300 OA
ENDBRANCH   1  20
BRANCH  16  23
ATOM     23  O   UNL     1     177.511 161.746 169.103  1.00  0.00    -0.393 OA
ATOM     24  H   UNL     1     178.480 161.594 168.949  1.00  0.00     0.210 HD
ENDBRANCH  16  23
TORSDOF 2
ENDMDL
MODEL 6
REMARK VINA RESULT:    -5.907      3.368      4.551
REMARK INTER + INTRA:          -6.397
REMARK INTER:                  -6.284
REMARK INTRA:                  -0.113
REMARK UNBOUND:                 0.027
REMARK SMILES CC(=O)[C@@H]1CC[C@@H]2[C@H]3CC=C4C[C@@H](O)CC[C@]4(C)[C@H]3CC[C@]21C
REMARK SMILES IDX 4 1 5 2 6 3 7 4 22 5 21 6 20 7 19 8 8 9 9 10 10 11 11 12
REMARK SMILES IDX 17 13 16 14 15 15 13 16 12 17 18 18 23 19 2 20 1 21 3 22
REMARK SMILES IDX 14 23
REMARK H PARENT 14 24
REMARK Flexibility Score: inf
ROOT
ATOM      1  C   UNL     1     176.074 170.937 171.333  1.00  0.00     0.062 C 
ATOM      2  C   UNL     1     174.822 171.396 170.550  1.00  0.00     0.012 C 
ATOM      3  C   UNL     1     173.694 170.421 170.926  1.00  0.00     0.005 C 
ATOM      4  C   UNL     1     174.379 169.349 171.770  1.00  0.00    -0.001 C 
ATOM      5  C   UNL     1     175.521 170.079 172.498  1.00  0.00    -0.020 C 
ATOM      6  C   UNL     1     176.528 169.031 173.063  1.00  0.00     0.008 C 
ATOM      7  C   UNL     1     175.910 167.623 173.275  1.00  0.00     0.005 C 
ATOM      8  C   UNL     1     174.403 167.641 173.696  1.00  0.00     0.003 C 
ATOM      9  C   UNL     1     173.505 168.509 172.727  1.00  0.00     0.000 C 
ATOM     10  C   UNL     1     172.491 167.668 171.946  1.00  0.00     0.031 C 
ATOM     11  C   UNL     1     171.702 166.818 172.892  1.00  0.00    -0.027 C 
ATOM     12  C   UNL     1     172.300 166.160 173.904  1.00  0.00    -0.065 C 
ATOM     13  C   UNL     1     173.832 166.191 174.039  1.00  0.00    -0.008 C 
ATOM     14  C   UNL     1     174.246 165.836 175.505  1.00  0.00     0.014 C 
ATOM     15  C   UNL     1     173.487 164.642 176.090  1.00  0.00     0.033 C 
ATOM     16  C   UNL     1     171.985 164.935 176.102  1.00  0.00     0.118 C 
ATOM     17  C   UNL     1     171.472 165.149 174.677  1.00  0.00     0.063 C 
ATOM     18  C   UNL     1     174.399 165.100 173.087  1.00  0.00     0.016 C 
ATOM     19  C   UNL     1     175.007 170.989 173.659  1.00  0.00     0.012 C 
ENDROOT
BRANCH   1  20
ATOM     20  C   UNL     1     176.993 172.078 171.730  1.00  0.00     0.133 C 
ATOM     21  C   UNL     1     178.351 171.783 172.292  1.00  0.00     0.088 C 
ATOM     22  O   UNL     1     176.648 173.240 171.574  1.00  0.00    -0.300 OA
ENDBRANCH   1  20
BRANCH  16  23
ATOM     23  O   UNL     1     171.292 163.858 176.679  1.00  0.00    -0.393 OA
ATOM     24  H   UNL     1     170.710 163.479 175.971  1.00  0.00     0.210 HD
ENDBRANCH  16  23
TORSDOF 2
ENDMDL
MODEL 7
REMARK VINA RESULT:    -5.876      1.425      7.073
REMARK INTER + INTRA:          -6.364
REMARK INTER:                  -6.176
REMARK INTRA:                  -0.188
REMARK UNBOUND:                 0.027
REMARK SMILES CC(=O)[C@@H]1CC[C@@H]2[C@H]3CC=C4C[C@@H](O)CC[C@]4(C)[C@H]3CC[C@]21C
REMARK SMILES IDX 4 1 5 2 6 3 7 4 22 5 21 6 20 7 19 8 8 9 9 10 10 11 11 12
REMARK SMILES IDX 17 13 16 14 15 15 13 16 12 17 18 18 23 19 2 20 1 21 3 22
REMARK SMILES IDX 14 23
REMARK H PARENT 14 24
REMARK Flexibility Score: inf
ROOT
ATOM      1  C   UNL     1     170.299 168.358 171.296  1.00  0.00     0.062 C 
ATOM      2  C   UNL     1     170.418 167.225 172.342  1.00  0.00     0.012 C 
ATOM      3  C   UNL     1     171.828 167.337 172.945  1.00  0.00     0.005 C 
ATOM      4  C   UNL     1     172.517 168.413 172.110  1.00  0.00    -0.001 C 
ATOM      5  C   UNL     1     171.396 169.379 171.692  1.00  0.00    -0.020 C 
ATOM      6  C   UNL     1     171.896 170.277 170.519  1.00  0.00     0.008 C 
ATOM      7  C   UNL     1     173.441 170.405 170.447  1.00  0.00     0.005 C 
ATOM      8  C   UNL     1     174.151 170.384 171.841  1.00  0.00     0.003 C 
ATOM      9  C   UNL     1     173.731 169.144 172.726  1.00  0.00     0.000 C 
ATOM     10  C   UNL     1     174.889 168.171 172.971  1.00  0.00     0.031 C 
ATOM     11  C   UNL     1     176.071 168.916 173.507  1.00  0.00    -0.027 C 
ATOM     12  C   UNL     1     176.447 170.098 172.983  1.00  0.00    -0.065 C 
ATOM     13  C   UNL     1     175.721 170.656 171.747  1.00  0.00    -0.008 C 
ATOM     14  C   UNL     1     175.946 172.200 171.646  1.00  0.00     0.014 C 
ATOM     15  C   UNL     1     177.393 172.632 171.897  1.00  0.00     0.033 C 
ATOM     16  C   UNL     1     177.830 172.201 173.299  1.00  0.00     0.118 C 
ATOM     17  C   UNL     1     177.778 170.678 173.430  1.00  0.00     0.063 C 
ATOM     18  C   UNL     1     176.356 169.981 170.499  1.00  0.00     0.016 C 
ATOM     19  C   UNL     1     170.910 170.282 172.871  1.00  0.00     0.012 C 
ENDROOT
BRANCH   1  20
ATOM     20  C   UNL     1     168.894 168.916 171.162  1.00  0.00     0.133 C 
ATOM     21  C   UNL     1     167.846 168.555 172.172  1.00  0.00     0.088 C 
ATOM     22  O   UNL     1     168.611 169.680 170.251  1.00  0.00    -0.300 OA
ENDBRANCH   1  20
BRANCH  16  23
ATOM     23  O   UNL     1     179.143 172.636 173.546  1.00  0.00    -0.393 OA
ATOM     24  H   UNL     1     179.633 172.568 172.686  1.00  0.00     0.210 HD
ENDBRANCH  16  23
TORSDOF 2
ENDMDL
MODEL 8
REMARK VINA RESULT:    -5.815      3.210      4.363
REMARK INTER + INTRA:          -6.298
REMARK INTER:                  -6.170
REMARK INTRA:                  -0.128
REMARK UNBOUND:                 0.027
REMARK SMILES CC(=O)[C@@H]1CC[C@@H]2[C@H]3CC=C4C[C@@H](O)CC[C@]4(C)[C@H]3CC[C@]21C
REMARK SMILES IDX 4 1 5 2 6 3 7 4 22 5 21 6 20 7 19 8 8 9 9 10 10 11 11 12
REMARK SMILES IDX 17 13 16 14 15 15 13 16 12 17 18 18 23 19 2 20 1 21 3 22
REMARK SMILES IDX 14 23
REMARK H PARENT 14 24
REMARK Flexibility Score: inf
ROOT
ATOM      1  C   UNL     1     176.020 170.191 172.923  1.00  0.00     0.062 C 
ATOM      2  C   UNL     1     176.268 168.700 173.249  1.00  0.00     0.012 C 
ATOM      3  C   UNL     1     175.735 167.899 172.049  1.00  0.00     0.005 C 
ATOM      4  C   UNL     1     175.054 168.942 171.165  1.00  0.00    -0.001 C 
ATOM      5  C   UNL     1     175.852 170.238 171.383  1.00  0.00    -0.020 C 
ATOM      6  C   UNL     1     175.022 171.451 170.861  1.00  0.00     0.008 C 
ATOM      7  C   UNL     1     173.959 171.067 169.798  1.00  0.00     0.005 C 
ATOM      8  C   UNL     1     174.381 169.884 168.866  1.00  0.00     0.003 C 
ATOM      9  C   UNL     1     174.859 168.609 169.669  1.00  0.00     0.000 C 
ATOM     10  C   UNL     1     173.920 167.412 169.493  1.00  0.00     0.031 C 
ATOM     11  C   UNL     1     173.698 167.152 168.036  1.00  0.00    -0.027 C 
ATOM     12  C   UNL     1     173.470 168.161 167.174  1.00  0.00    -0.065 C 
ATOM     13  C   UNL     1     173.331 169.601 167.698  1.00  0.00    -0.008 C 
ATOM     14  C   UNL     1     173.599 170.619 166.541  1.00  0.00     0.014 C 
ATOM     15  C   UNL     1     172.910 170.254 165.224  1.00  0.00     0.033 C 
ATOM     16  C   UNL     1     173.396 168.884 164.744  1.00  0.00     0.118 C 
ATOM     17  C   UNL     1     173.036 167.802 165.764  1.00  0.00     0.063 C 
ATOM     18  C   UNL     1     171.863 169.774 168.179  1.00  0.00     0.016 C 
ATOM     19  C   UNL     1     177.244 170.213 170.674  1.00  0.00     0.012 C 
ENDROOT
BRANCH   1  20
ATOM     20  C   UNL     1     177.069 171.122 173.502  1.00  0.00     0.133 C 
ATOM     21  C   UNL     1     176.834 172.602 173.511  1.00  0.00     0.088 C 
ATOM     22  O   UNL     1     178.099 170.676 173.988  1.00  0.00    -0.300 OA
ENDBRANCH   1  20
BRANCH  16  23
ATOM     23  O   UNL     1     172.797 168.569 163.513  1.00  0.00    -0.393 OA
ATOM     24  H   UNL     1     172.321 167.707 163.639  1.00  0.00     0.210 HD
ENDBRANCH  16  23
TORSDOF 2
ENDMDL
MODEL 9
REMARK VINA RESULT:    -5.734      4.271      6.298
REMARK INTER + INTRA:          -6.210
REMARK INTER:                  -6.070
REMARK INTRA:                  -0.140
REMARK UNBOUND:                 0.027
REMARK SMILES CC(=O)[C@@H]1CC[C@@H]2[C@H]3CC=C4C[C@@H](O)CC[C@]4(C)[C@H]3CC[C@]21C
REMARK SMILES IDX 4 1 5 2 6 3 7 4 22 5 21 6 20 7 19 8 8 9 9 10 10 11 11 12
REMARK SMILES IDX 17 13 16 14 15 15 13 16 12 17 18 18 23 19 2 20 1 21 3 22
REMARK SMILES IDX 14 23
REMARK H PARENT 14 24
REMARK Flexibility Score: inf
ROOT
ATOM      1  C   UNL     1     177.422 164.789 167.991  1.00  0.00     0.062 C 
ATOM      2  C   UNL     1     178.833 165.371 168.239  1.00  0.00     0.012 C 
ATOM      3  C   UNL     1     178.642 166.602 169.142  1.00  0.00     0.005 C 
ATOM      4  C   UNL     1     177.128 166.775 169.237  1.00  0.00    -0.001 C 
ATOM      5  C   UNL     1     176.552 165.352 169.144  1.00  0.00    -0.020 C 
ATOM      6  C   UNL     1     175.028 165.430 168.824  1.00  0.00     0.008 C 
ATOM      7  C   UNL     1     174.374 166.778 169.231  1.00  0.00     0.005 C 
ATOM      8  C   UNL     1     174.990 167.428 170.513  1.00  0.00     0.003 C 
ATOM      9  C   UNL     1     176.562 167.567 170.437  1.00  0.00     0.000 C 
ATOM     10  C   UNL     1     177.027 169.026 170.397  1.00  0.00     0.031 C 
ATOM     11  C   UNL     1     176.414 169.784 171.533  1.00  0.00    -0.027 C 
ATOM     12  C   UNL     1     175.116 169.628 171.856  1.00  0.00    -0.065 C 
ATOM     13  C   UNL     1     174.211 168.738 170.987  1.00  0.00    -0.008 C 
ATOM     14  C   UNL     1     172.955 168.292 171.806  1.00  0.00     0.014 C 
ATOM     15  C   UNL     1     172.309 169.422 172.611  1.00  0.00     0.033 C 
ATOM     16  C   UNL     1     173.319 169.997 173.607  1.00  0.00     0.118 C 
ATOM     17  C   UNL     1     174.519 170.590 172.868  1.00  0.00     0.063 C 
ATOM     18  C   UNL     1     173.736 169.601 169.784  1.00  0.00     0.016 C 
ATOM     19  C   UNL     1     176.770 164.529 170.454  1.00  0.00     0.012 C 
ENDROOT
BRANCH   1  20
ATOM     20  C   UNL     1     177.408 163.280 167.830  1.00  0.00     0.133 C 
ATOM     21  C   UNL     1     176.210 162.602 167.235  1.00  0.00     0.088 C 
ATOM     22  O   UNL     1     178.376 162.609 168.157  1.00  0.00    -0.300 OA
ENDBRANCH   1  20
BRANCH  16  23
ATOM     23  O   UNL     1     172.712 171.003 174.376  1.00  0.00    -0.393 OA
ATOM     24  H   UNL     1     171.999 171.402 173.813  1.00  0.00     0.210 HD
ENDBRANCH  16  23
TORSDOF 2
ENDMDL
