MODEL 1
REMARK VINA RESULT:    -5.139      0.000      0.000
REMARK INTER + INTRA:          -5.862
REMARK INTER:                  -5.740
REMARK INTRA:                  -0.122
REMARK UNBOUND:                -0.122
REMARK SMILES O=C([O-])c1ccccc1C(=O)[O-]
REMARK SMILES IDX 4 1 9 2 5 3 8 4 6 5 7 6 2 7 1 8 3 9 10 10 11 11 12 12
REMARK H PARENT
REMARK Flexibility Score: inf
ROOT
ATOM      1  C   UNL     1      24.865  41.736  84.659  1.00  0.00     0.006 A 
ATOM      2  C   UNL     1      24.930  42.626  85.769  1.00  0.00     0.006 A 
ATOM      3  C   UNL     1      26.062  41.243  84.107  1.00  0.00     0.010 A 
ATOM      4  C   UNL     1      26.190  43.041  86.239  1.00  0.00     0.010 A 
ATOM      5  C   UNL     1      27.299  41.650  84.605  1.00  0.00     0.001 A 
ATOM      6  C   UNL     1      27.364  42.556  85.661  1.00  0.00     0.001 A 
ENDROOT
BRANCH   1   7
ATOM      7  C   UNL     1      23.592  41.350  84.007  1.00  0.00     0.072 C 
ATOM      8  O   UNL     1      23.203  40.152  84.010  1.00  0.00    -0.545 OA
ATOM      9  O   UNL     1      22.777  42.324  83.442  1.00  0.00    -0.545 OA
ENDBRANCH   1   7
BRANCH   2  10
ATOM     10  C   UNL     1      23.731  43.090  86.503  1.00  0.00     0.072 C 
ATOM     11  O   UNL     1      23.151  42.340  87.331  1.00  0.00    -0.545 OA
ATOM     12  O   UNL     1      23.270  44.391  86.333  1.00  0.00    -0.545 OA
ENDBRANCH   2  10
TORSDOF 2
ENDMDL
MODEL 2
REMARK VINA RESULT:    -5.128      0.068      2.880
REMARK INTER + INTRA:          -5.849
REMARK INTER:                  -5.730
REMARK INTRA:                  -0.119
REMARK UNBOUND:                -0.122
REMARK SMILES O=C([O-])c1ccccc1C(=O)[O-]
REMARK SMILES IDX 4 1 9 2 5 3 8 4 6 5 7 6 2 7 1 8 3 9 10 10 11 11 12 12
REMARK H PARENT
REMARK Flexibility Score: inf
ROOT
ATOM      1  C   UNL     1      24.998  42.637  85.768  1.00  0.00     0.006 A 
ATOM      2  C   UNL     1      24.910  41.746  84.661  1.00  0.00     0.006 A 
ATOM      3  C   UNL     1      26.268  43.038  86.223  1.00  0.00     0.010 A 
ATOM      4  C   UNL     1      26.095  41.238  84.097  1.00  0.00     0.010 A 
ATOM      5  C   UNL     1      27.429  42.540  85.633  1.00  0.00     0.001 A 
ATOM      6  C   UNL     1      27.344  41.632  84.580  1.00  0.00     0.001 A 
ENDROOT
BRANCH   1   7
ATOM      7  C   UNL     1      23.812  43.117  86.515  1.00  0.00     0.072 C 
ATOM      8  O   UNL     1      23.234  42.375  87.352  1.00  0.00    -0.545 OA
ATOM      9  O   UNL     1      23.365  44.422  86.346  1.00  0.00    -0.545 OA
ENDBRANCH   1   7
BRANCH   2  10
ATOM     10  C   UNL     1      23.626  41.373  84.025  1.00  0.00     0.072 C 
ATOM     11  O   UNL     1      23.230  40.178  84.024  1.00  0.00    -0.545 OA
ATOM     12  O   UNL     1      22.809  42.356  83.476  1.00  0.00    -0.545 OA
ENDBRANCH   2  10
TORSDOF 2
ENDMDL
MODEL 3
REMARK VINA RESULT:    -4.969      1.339      2.108
REMARK INTER + INTRA:          -5.671
REMARK INTER:                  -5.531
REMARK INTRA:                  -0.141
REMARK UNBOUND:                -0.122
REMARK SMILES O=C([O-])c1ccccc1C(=O)[O-]
REMARK SMILES IDX 4 1 9 2 5 3 8 4 6 5 7 6 2 7 1 8 3 9 10 10 11 11 12 12
REMARK H PARENT
REMARK Flexibility Score: inf
ROOT
ATOM      1  C   UNL     1      24.415  42.073  85.459  1.00  0.00     0.006 A 
ATOM      2  C   UNL     1      25.515  42.823  85.965  1.00  0.00     0.006 A 
ATOM      3  C   UNL     1      24.652  41.078  84.493  1.00  0.00     0.010 A 
ATOM      4  C   UNL     1      26.799  42.593  85.436  1.00  0.00     0.010 A 
ATOM      5  C   UNL     1      25.936  40.853  84.000  1.00  0.00     0.001 A 
ATOM      6  C   UNL     1      27.006  41.616  84.461  1.00  0.00     0.001 A 
ENDROOT
BRANCH   1   7
ATOM      7  C   UNL     1      23.011  42.336  85.852  1.00  0.00     0.072 C 
ATOM      8  O   UNL     1      22.179  42.780  85.017  1.00  0.00    -0.545 OA
ATOM      9  O   UNL     1      22.579  42.028  87.137  1.00  0.00    -0.545 OA
ENDBRANCH   1   7
BRANCH   2  10
ATOM     10  C   UNL     1      25.389  43.793  87.076  1.00  0.00     0.072 C 
ATOM     11  O   UNL     1      25.641  43.452  88.262  1.00  0.00    -0.545 OA
ATOM     12  O   UNL     1      25.053  45.116  86.811  1.00  0.00    -0.545 OA
ENDBRANCH   2  10
TORSDOF 2
ENDMDL
MODEL 4
REMARK VINA RESULT:    -4.968      1.303      3.128
REMARK INTER + INTRA:          -5.671
REMARK INTER:                  -5.561
REMARK INTRA:                  -0.109
REMARK UNBOUND:                -0.122
REMARK SMILES O=C([O-])c1ccccc1C(=O)[O-]
REMARK SMILES IDX 4 1 9 2 5 3 8 4 6 5 7 6 2 7 1 8 3 9 10 10 11 11 12 12
REMARK H PARENT
REMARK Flexibility Score: inf
ROOT
ATOM      1  C   UNL     1      25.876  42.810  85.814  1.00  0.00     0.006 A 
ATOM      2  C   UNL     1      24.842  42.048  85.201  1.00  0.00     0.006 A 
ATOM      3  C   UNL     1      27.207  42.610  85.403  1.00  0.00     0.010 A 
ATOM      4  C   UNL     1      25.185  41.069  84.250  1.00  0.00     0.010 A 
ATOM      5  C   UNL     1      27.522  41.651  84.442  1.00  0.00     0.001 A 
ATOM      6  C   UNL     1      26.515  40.874  83.874  1.00  0.00     0.001 A 
ENDROOT
BRANCH   1   7
ATOM      7  C   UNL     1      25.629  43.764  86.920  1.00  0.00     0.072 C 
ATOM      8  O   UNL     1      25.776  43.411  88.120  1.00  0.00    -0.545 OA
ATOM      9  O   UNL     1      25.296  45.084  86.640  1.00  0.00    -0.545 OA
ENDBRANCH   1   7
BRANCH   2  10
ATOM     10  C   UNL     1      23.403  42.279  85.465  1.00  0.00     0.072 C 
ATOM     11  O   UNL     1      22.629  42.652  84.544  1.00  0.00    -0.545 OA
ATOM     12  O   UNL     1      22.876  42.021  86.726  1.00  0.00    -0.545 OA
ENDBRANCH   2  10
TORSDOF 2
ENDMDL
MODEL 5
REMARK VINA RESULT:    -4.769      1.884      3.239
REMARK INTER + INTRA:          -5.448
REMARK INTER:                  -5.265
REMARK INTRA:                  -0.183
REMARK UNBOUND:                -0.122
REMARK SMILES O=C([O-])c1ccccc1C(=O)[O-]
REMARK SMILES IDX 4 1 9 2 5 3 8 4 6 5 7 6 2 7 1 8 3 9 10 10 11 11 12 12
REMARK H PARENT
REMARK Flexibility Score: inf
ROOT
ATOM      1  C   UNL     1      23.648  42.297  85.600  1.00  0.00     0.006 A 
ATOM      2  C   UNL     1      24.957  42.747  85.932  1.00  0.00     0.006 A 
ATOM      3  C   UNL     1      22.613  42.452  86.541  1.00  0.00     0.010 A 
ATOM      4  C   UNL     1      25.194  43.273  87.216  1.00  0.00     0.010 A 
ATOM      5  C   UNL     1      22.866  42.998  87.799  1.00  0.00     0.001 A 
ATOM      6  C   UNL     1      24.156  43.397  88.140  1.00  0.00     0.001 A 
ENDROOT
BRANCH   1   7
ATOM      7  C   UNL     1      23.330  41.606  84.329  1.00  0.00     0.072 C 
ATOM      8  O   UNL     1      23.667  40.407  84.145  1.00  0.00    -0.545 OA
ATOM      9  O   UNL     1      22.592  42.258  83.348  1.00  0.00    -0.545 OA
ENDBRANCH   1   7
BRANCH   2  10
ATOM     10  C   UNL     1      26.079  42.752  84.965  1.00  0.00     0.072 C 
ATOM     11  O   UNL     1      26.418  43.813  84.377  1.00  0.00    -0.545 OA
ATOM     12  O   UNL     1      26.815  41.594  84.746  1.00  0.00    -0.545 OA
ENDBRANCH   2  10
TORSDOF 2
ENDMDL
MODEL 6
REMARK VINA RESULT:    -4.759      1.889      3.806
REMARK INTER + INTRA:          -5.438
REMARK INTER:                  -5.253
REMARK INTRA:                  -0.185
REMARK UNBOUND:                -0.122
REMARK SMILES O=C([O-])c1ccccc1C(=O)[O-]
REMARK SMILES IDX 4 1 9 2 5 3 8 4 6 5 7 6 2 7 1 8 3 9 10 10 11 11 12 12
REMARK H PARENT
REMARK Flexibility Score: inf
ROOT
ATOM      1  C   UNL     1      24.882  42.748  85.965  1.00  0.00     0.006 A 
ATOM      2  C   UNL     1      23.594  42.275  85.585  1.00  0.00     0.006 A 
ATOM      3  C   UNL     1      25.062  43.279  87.255  1.00  0.00     0.010 A 
ATOM      4  C   UNL     1      22.522  42.413  86.487  1.00  0.00     0.010 A 
ATOM      5  C   UNL     1      23.990  43.386  88.140  1.00  0.00     0.001 A 
ATOM      6  C   UNL     1      22.720  42.965  87.754  1.00  0.00     0.001 A 
ENDROOT
BRANCH   1   7
ATOM      7  C   UNL     1      26.039  42.771  85.039  1.00  0.00     0.072 C 
ATOM      8  O   UNL     1      26.373  43.833  84.452  1.00  0.00    -0.545 OA
ATOM      9  O   UNL     1      26.810  41.629  84.862  1.00  0.00    -0.545 OA
ENDBRANCH   1   7
BRANCH   2  10
ATOM     10  C   UNL     1      23.334  41.577  84.305  1.00  0.00     0.072 C 
ATOM     11  O   UNL     1      23.698  40.383  84.136  1.00  0.00    -0.545 OA
ATOM     12  O   UNL     1      22.623  42.215  83.295  1.00  0.00    -0.545 OA
ENDBRANCH   2  10
TORSDOF 2
ENDMDL
MODEL 7
REMARK VINA RESULT:    -4.734      1.620      2.709
REMARK INTER + INTRA:          -5.410
REMARK INTER:                  -5.225
REMARK INTRA:                  -0.184
REMARK UNBOUND:                -0.122
REMARK SMILES O=C([O-])c1ccccc1C(=O)[O-]
REMARK SMILES IDX 4 1 9 2 5 3 8 4 6 5 7 6 2 7 1 8 3 9 10 10 11 11 12 12
REMARK H PARENT
REMARK Flexibility Score: inf
ROOT
ATOM      1  C   UNL     1      24.683  42.348  85.756  1.00  0.00     0.006 A 
ATOM      2  C   UNL     1      26.029  42.778  85.930  1.00  0.00     0.006 A 
ATOM      3  C   UNL     1      24.404  41.336  84.818  1.00  0.00     0.010 A 
ATOM      4  C   UNL     1      27.034  42.227  85.114  1.00  0.00     0.010 A 
ATOM      5  C   UNL     1      25.420  40.788  84.036  1.00  0.00     0.001 A 
ATOM      6  C   UNL     1      26.730  41.240  84.175  1.00  0.00     0.001 A 
ENDROOT
BRANCH   1   7
ATOM      7  C   UNL     1      23.540  42.964  86.469  1.00  0.00     0.072 C 
ATOM      8  O   UNL     1      22.927  42.334  87.371  1.00  0.00    -0.545 OA
ATOM      9  O   UNL     1      23.174  44.277  86.195  1.00  0.00    -0.545 OA
ENDBRANCH   1   7
BRANCH   2  10
ATOM     10  C   UNL     1      26.441  43.735  86.982  1.00  0.00     0.072 C 
ATOM     11  O   UNL     1      26.776  43.331  88.127  1.00  0.00    -0.545 OA
ATOM     12  O   UNL     1      26.526  45.093  86.694  1.00  0.00    -0.545 OA
ENDBRANCH   2  10
TORSDOF 2
ENDMDL
MODEL 8
REMARK VINA RESULT:    -4.682      2.331      3.418
REMARK INTER + INTRA:          -5.351
REMARK INTER:                  -5.126
REMARK INTRA:                  -0.225
REMARK UNBOUND:                -0.122
REMARK SMILES O=C([O-])c1ccccc1C(=O)[O-]
REMARK SMILES IDX 4 1 9 2 5 3 8 4 6 5 7 6 2 7 1 8 3 9 10 10 11 11 12 12
REMARK H PARENT
REMARK Flexibility Score: inf
ROOT
ATOM      1  C   UNL     1      26.189  42.398  85.062  1.00  0.00     0.006 A 
ATOM      2  C   UNL     1      24.928  42.840  85.554  1.00  0.00     0.006 A 
ATOM      3  C   UNL     1      26.241  41.252  84.247  1.00  0.00     0.010 A 
ATOM      4  C   UNL     1      23.778  42.081  85.267  1.00  0.00     0.010 A 
ATOM      5  C   UNL     1      25.085  40.529  83.956  1.00  0.00     0.001 A 
ATOM      6  C   UNL     1      23.858  40.936  84.474  1.00  0.00     0.001 A 
ENDROOT
BRANCH   1   7
ATOM      7  C   UNL     1      27.470  43.049  85.423  1.00  0.00     0.072 C 
ATOM      8  O   UNL     1      27.992  43.910  84.666  1.00  0.00    -0.545 OA
ATOM      9  O   UNL     1      28.077  42.764  86.641  1.00  0.00    -0.545 OA
ENDBRANCH   1   7
BRANCH   2  10
ATOM     10  C   UNL     1      24.752  44.105  86.304  1.00  0.00     0.072 C 
ATOM     11  O   UNL     1      24.867  44.133  87.558  1.00  0.00    -0.545 OA
ATOM     12  O   UNL     1      24.522  45.294  85.621  1.00  0.00    -0.545 OA
ENDBRANCH   2  10
TORSDOF 2
ENDMDL
MODEL 9
REMARK VINA RESULT:    -4.634      2.285      3.792
REMARK INTER + INTRA:          -5.297
REMARK INTER:                  -5.083
REMARK INTRA:                  -0.215
REMARK UNBOUND:                -0.122
REMARK SMILES O=C([O-])c1ccccc1C(=O)[O-]
REMARK SMILES IDX 4 1 9 2 5 3 8 4 6 5 7 6 2 7 1 8 3 9 10 10 11 11 12 12
REMARK H PARENT
REMARK Flexibility Score: inf
ROOT
ATOM      1  C   UNL     1      24.806  42.971  85.437  1.00  0.00     0.006 A 
ATOM      2  C   UNL     1      26.099  42.513  85.056  1.00  0.00     0.006 A 
ATOM      3  C   UNL     1      23.684  42.176  85.136  1.00  0.00     0.010 A 
ATOM      4  C   UNL     1      26.214  41.313  84.330  1.00  0.00     0.010 A 
ATOM      5  C   UNL     1      23.824  40.979  84.436  1.00  0.00     0.001 A 
ATOM      6  C   UNL     1      25.084  40.553  84.023  1.00  0.00     0.001 A 
ENDROOT
BRANCH   1   7
ATOM      7  C   UNL     1      24.571  44.284  86.081  1.00  0.00     0.072 C 
ATOM      8  O   UNL     1      24.470  45.332  85.391  1.00  0.00    -0.545 OA
ATOM      9  O   UNL     1      24.392  44.361  87.458  1.00  0.00    -0.545 OA
ENDBRANCH   1   7
BRANCH   2  10
ATOM     10  C   UNL     1      27.348  43.207  85.445  1.00  0.00     0.072 C 
ATOM     11  O   UNL     1      27.965  42.885  86.494  1.00  0.00    -0.545 OA
ATOM     12  O   UNL     1      27.891  44.183  84.616  1.00  0.00    -0.545 OA
ENDBRANCH   2  10
TORSDOF 2
ENDMDL
