MODEL 1
REMARK VINA RESULT:    -5.977      0.000      0.000
REMARK INTER + INTRA:          -9.618
REMARK INTER:                  -8.249
REMARK INTRA:                  -1.369
REMARK UNBOUND:                -1.369
REMARK SMILES C=C(CC[C@H](C(=O)[O-])[C@H]1CC[C@]2(C)C3=C(CC[C@]12C)[C@@]1(C)CC[C@@H](O)C(C)(C)[C@H]1CC3)C(C)C
REMARK SMILES IDX 4 1 5 2 6 3 7 4 8 5 9 6 10 7 18 8 11 9 12 10 17 11 19 12
REMARK SMILES IDX 13 13 14 14 16 15 15 16 31 17 20 18 30 19 29 20 22 21 21 22
REMARK SMILES IDX 26 23 23 24 24 25 27 26 28 27 25 28 3 30 2 31 1 32 32 33
REMARK SMILES IDX 33 34 34 35
REMARK H PARENT 25 29
REMARK Flexibility Score: inf
ROOT
ATOM      1  C   UNL     1      -5.793  30.233  47.234  1.00  0.00     0.014 C 
ENDROOT
BRANCH   1   2
ATOM      2  C   UNL     1      -5.768  29.652  45.794  1.00  0.00     0.039 C 
BRANCH   2   3
ATOM      3  C   UNL     1      -4.588  30.254  45.060  1.00  0.00     0.045 C 
ATOM      4  O   UNL     1      -4.136  31.379  45.400  1.00  0.00    -0.550 OA
ATOM      5  O   UNL     1      -3.970  29.553  44.029  1.00  0.00    -0.550 OA
ENDBRANCH   2   3
BRANCH   2   6
ATOM      6  C   UNL     1      -7.112  29.937  45.035  1.00  0.00     0.004 C 
ATOM      7  C   UNL     1      -6.951  30.993  43.921  1.00  0.00     0.006 C 
ATOM      8  C   UNL     1      -7.876  28.716  44.354  1.00  0.00    -0.020 C 
ATOM      9  C   UNL     1      -7.893  30.597  42.801  1.00  0.00     0.012 C 
ATOM     10  C   UNL     1      -7.922  29.062  42.819  1.00  0.00    -0.006 C 
ATOM     11  C   UNL     1      -9.321  28.721  44.910  1.00  0.00     0.012 C 
ATOM     12  C   UNL     1      -7.270  27.295  44.603  1.00  0.00     0.012 C 
ATOM     13  C   UNL     1      -6.653  28.541  42.076  1.00  0.00     0.017 C 
ATOM     14  C   UNL     1      -9.172  28.546  42.068  1.00  0.00    -0.064 C 
ATOM     15  C   UNL     1     -10.227  27.732  44.193  1.00  0.00     0.032 C 
ATOM     16  C   UNL     1     -10.212  27.893  42.677  1.00  0.00    -0.064 C 
ATOM     17  C   UNL     1      -9.244  28.795  40.577  1.00  0.00     0.032 C 
ATOM     18  C   UNL     1     -11.266  27.106  41.827  1.00  0.00    -0.008 C 
ATOM     19  C   UNL     1     -10.687  29.021  40.158  1.00  0.00     0.009 C 
ATOM     20  C   UNL     1     -11.478  27.715  40.364  1.00  0.00     0.007 C 
ATOM     21  C   UNL     1     -12.615  27.028  42.599  1.00  0.00     0.014 C 
ATOM     22  C   UNL     1     -10.700  25.666  41.705  1.00  0.00     0.016 C 
ATOM     23  C   UNL     1     -12.968  27.806  39.829  1.00  0.00    -0.006 C 
ATOM     24  C   UNL     1     -13.792  26.389  41.844  1.00  0.00     0.033 C 
ATOM     25  C   UNL     1     -13.742  26.546  40.313  1.00  0.00     0.120 C 
ATOM     26  C   UNL     1     -12.958  27.780  38.273  1.00  0.00     0.014 C 
ATOM     27  C   UNL     1     -13.692  29.116  40.254  1.00  0.00     0.014 C 
BRANCH  25  28
ATOM     28  O   UNL     1     -15.034  26.464  39.755  1.00  0.00    -0.393 OA
ATOM     29  H   UNL     1     -15.399  27.380  39.666  1.00  0.00     0.210 HD
ENDBRANCH  25  28
ENDBRANCH   2   6
ENDBRANCH   1   2
BRANCH   1  30
ATOM     30  C   UNL     1      -7.023  31.118  47.514  1.00  0.00     0.031 C 
BRANCH  30  31
ATOM     31  C   UNL     1      -6.655  32.583  47.635  1.00  0.00    -0.075 C 
ATOM     32  C   UNL     1      -7.157  33.476  46.762  1.00  0.00     0.008 C 
BRANCH  31  33
ATOM     33  C   UNL     1      -5.712  33.018  48.750  1.00  0.00     0.008 C 
ATOM     34  C   UNL     1      -6.395  33.984  49.726  1.00  0.00     0.012 C 
ATOM     35  C   UNL     1      -4.424  33.622  48.187  1.00  0.00     0.012 C 
ENDBRANCH  31  33
ENDBRANCH  30  31
ENDBRANCH   1  30
TORSDOF 7
ENDMDL
MODEL 2
REMARK VINA RESULT:    -5.973      1.909      2.932
REMARK INTER + INTRA:          -9.611
REMARK INTER:                  -7.676
REMARK INTRA:                  -1.936
REMARK UNBOUND:                -1.369
REMARK SMILES C=C(CC[C@H](C(=O)[O-])[C@H]1CC[C@]2(C)C3=C(CC[C@]12C)[C@@]1(C)CC[C@@H](O)C(C)(C)[C@H]1CC3)C(C)C
REMARK SMILES IDX 4 1 5 2 6 3 7 4 8 5 9 6 10 7 18 8 11 9 12 10 17 11 19 12
REMARK SMILES IDX 13 13 14 14 16 15 15 16 31 17 20 18 30 19 29 20 22 21 21 22
REMARK SMILES IDX 26 23 23 24 24 25 27 26 28 27 25 28 3 30 2 31 1 32 32 33
REMARK SMILES IDX 33 34 34 35
REMARK H PARENT 25 29
REMARK Flexibility Score: inf
ROOT
ATOM      1  C   UNL     1      -5.579  32.036  45.812  1.00  0.00     0.014 C 
ENDROOT
BRANCH   1   2
ATOM      2  C   UNL     1      -6.037  31.923  44.333  1.00  0.00     0.039 C 
BRANCH   2   3
ATOM      3  C   UNL     1      -5.810  33.260  43.662  1.00  0.00     0.045 C 
ATOM      4  O   UNL     1      -5.760  34.315  44.349  1.00  0.00    -0.550 OA
ATOM      5  O   UNL     1      -5.617  33.332  42.286  1.00  0.00    -0.550 OA
ENDBRANCH   2   3
BRANCH   2   6
ATOM      6  C   UNL     1      -7.541  31.485  44.228  1.00  0.00     0.004 C 
ATOM      7  C   UNL     1      -8.441  32.593  43.639  1.00  0.00     0.006 C 
ATOM      8  C   UNL     1      -7.897  30.169  43.405  1.00  0.00    -0.020 C 
ATOM      9  C   UNL     1      -9.515  31.900  42.825  1.00  0.00     0.012 C 
ATOM     10  C   UNL     1      -8.838  30.653  42.239  1.00  0.00    -0.006 C 
ATOM     11  C   UNL     1      -8.707  29.249  44.352  1.00  0.00     0.012 C 
ATOM     12  C   UNL     1      -6.684  29.347  42.858  1.00  0.00     0.012 C 
ATOM     13  C   UNL     1      -8.019  31.085  40.984  1.00  0.00     0.017 C 
ATOM     14  C   UNL     1      -9.908  29.628  41.793  1.00  0.00    -0.064 C 
ATOM     15  C   UNL     1      -9.292  28.042  43.635  1.00  0.00     0.032 C 
ATOM     16  C   UNL     1     -10.094  28.410  42.392  1.00  0.00    -0.064 C 
ATOM     17  C   UNL     1     -10.803  30.013  40.635  1.00  0.00     0.032 C 
ATOM     18  C   UNL     1     -10.944  27.298  41.690  1.00  0.00    -0.008 C 
ATOM     19  C   UNL     1     -12.188  29.420  40.831  1.00  0.00     0.009 C 
ATOM     20  C   UNL     1     -12.092  27.885  40.744  1.00  0.00     0.007 C 
ATOM     21  C   UNL     1     -11.540  26.335  42.757  1.00  0.00     0.014 C 
ATOM     22  C   UNL     1      -9.934  26.492  40.830  1.00  0.00     0.016 C 
ATOM     23  C   UNL     1     -13.509  27.173  40.802  1.00  0.00    -0.006 C 
ATOM     24  C   UNL     1     -12.502  25.255  42.235  1.00  0.00     0.033 C 
ATOM     25  C   UNL     1     -13.285  25.643  40.966  1.00  0.00     0.120 C 
ATOM     26  C   UNL     1     -14.251  27.395  39.453  1.00  0.00     0.014 C 
ATOM     27  C   UNL     1     -14.430  27.737  41.922  1.00  0.00     0.014 C 
BRANCH  25  28
ATOM     28  O   UNL     1     -14.486  24.912  40.872  1.00  0.00    -0.393 OA
ATOM     29  H   UNL     1     -14.591  24.370  41.694  1.00  0.00     0.210 HD
ENDBRANCH  25  28
ENDBRANCH   2   6
ENDBRANCH   1   2
BRANCH   1  30
ATOM     30  C   UNL     1      -4.717  30.846  46.277  1.00  0.00     0.031 C 
BRANCH  30  31
ATOM     31  C   UNL     1      -5.562  29.669  46.722  1.00  0.00    -0.075 C 
ATOM     32  C   UNL     1      -6.743  29.884  47.331  1.00  0.00     0.008 C 
BRANCH  31  33
ATOM     33  C   UNL     1      -5.050  28.256  46.474  1.00  0.00     0.008 C 
ATOM     34  C   UNL     1      -3.981  28.225  45.374  1.00  0.00     0.012 C 
ATOM     35  C   UNL     1      -6.198  27.295  46.154  1.00  0.00     0.012 C 
ENDBRANCH  31  33
ENDBRANCH  30  31
ENDBRANCH   1  30
TORSDOF 7
ENDMDL
MODEL 3
REMARK VINA RESULT:    -5.684      6.337     13.720
REMARK INTER + INTRA:          -9.213
REMARK INTER:                  -7.977
REMARK INTRA:                  -1.236
REMARK UNBOUND:                -1.369
REMARK SMILES C=C(CC[C@H](C(=O)[O-])[C@H]1CC[C@]2(C)C3=C(CC[C@]12C)[C@@]1(C)CC[C@@H](O)C(C)(C)[C@H]1CC3)C(C)C
REMARK SMILES IDX 4 1 5 2 6 3 7 4 8 5 9 6 10 7 18 8 11 9 12 10 17 11 19 12
REMARK SMILES IDX 13 13 14 14 16 15 15 16 31 17 20 18 30 19 29 20 22 21 21 22
REMARK SMILES IDX 26 23 23 24 24 25 27 26 28 27 25 28 3 30 2 31 1 32 32 33
REMARK SMILES IDX 33 34 34 35
REMARK H PARENT 25 29
REMARK Flexibility Score: inf
ROOT
ATOM      1  C   UNL     1     -19.658  24.513  34.049  1.00  0.00     0.014 C 
ENDROOT
BRANCH   1   2
ATOM      2  C   UNL     1     -18.181  24.995  34.072  1.00  0.00     0.039 C 
BRANCH   2   3
ATOM      3  C   UNL     1     -17.489  24.462  32.836  1.00  0.00     0.045 C 
ATOM      4  O   UNL     1     -16.506  25.078  32.344  1.00  0.00    -0.550 OA
ATOM      5  O   UNL     1     -17.907  23.270  32.255  1.00  0.00    -0.550 OA
ENDBRANCH   2   3
BRANCH   2   6
ATOM      6  C   UNL     1     -17.446  24.530  35.378  1.00  0.00     0.004 C 
ATOM      7  C   UNL     1     -16.403  23.424  35.110  1.00  0.00     0.006 C 
ATOM      8  C   UNL     1     -16.687  25.622  36.256  1.00  0.00    -0.020 C 
ATOM      9  C   UNL     1     -15.262  23.651  36.081  1.00  0.00     0.012 C 
ATOM     10  C   UNL     1     -15.178  25.173  36.260  1.00  0.00    -0.006 C 
ATOM     11  C   UNL     1     -17.245  25.513  37.696  1.00  0.00     0.012 C 
ATOM     12  C   UNL     1     -16.840  27.109  35.793  1.00  0.00     0.012 C 
ATOM     13  C   UNL     1     -14.400  25.767  35.045  1.00  0.00     0.017 C 
ATOM     14  C   UNL     1     -14.397  25.513  37.552  1.00  0.00    -0.064 C 
ATOM     15  C   UNL     1     -16.465  26.358  38.691  1.00  0.00     0.032 C 
ATOM     16  C   UNL     1     -14.963  26.100  38.653  1.00  0.00    -0.064 C 
ATOM     17  C   UNL     1     -12.926  25.160  37.591  1.00  0.00     0.032 C 
ATOM     18  C   UNL     1     -14.066  26.722  39.775  1.00  0.00    -0.008 C 
ATOM     19  C   UNL     1     -12.526  24.767  39.003  1.00  0.00     0.009 C 
ATOM     20  C   UNL     1     -12.646  25.999  39.920  1.00  0.00     0.007 C 
ATOM     21  C   UNL     1     -14.833  26.718  41.129  1.00  0.00     0.014 C 
ATOM     22  C   UNL     1     -13.848  28.199  39.353  1.00  0.00     0.016 C 
ATOM     23  C   UNL     1     -12.121  25.728  41.392  1.00  0.00    -0.006 C 
ATOM     24  C   UNL     1     -14.040  27.187  42.359  1.00  0.00     0.033 C 
ATOM     25  C   UNL     1     -12.522  26.934  42.287  1.00  0.00     0.120 C 
ATOM     26  C   UNL     1     -10.567  25.652  41.377  1.00  0.00     0.014 C 
ATOM     27  C   UNL     1     -12.634  24.384  41.985  1.00  0.00     0.014 C 
BRANCH  25  28
ATOM     28  O   UNL     1     -11.963  26.853  43.579  1.00  0.00    -0.393 OA
ATOM     29  H   UNL     1     -12.413  27.515  44.160  1.00  0.00     0.210 HD
ENDBRANCH  25  28
ENDBRANCH   2   6
ENDBRANCH   1   2
BRANCH   1  30
ATOM     30  C   UNL     1     -20.163  24.028  35.421  1.00  0.00     0.031 C 
BRANCH  30  31
ATOM     31  C   UNL     1     -20.680  22.604  35.366  1.00  0.00    -0.075 C 
ATOM     32  C   UNL     1     -20.062  21.695  34.588  1.00  0.00     0.008 C 
BRANCH  31  33
ATOM     33  C   UNL     1     -21.900  22.228  36.196  1.00  0.00     0.008 C 
ATOM     34  C   UNL     1     -21.556  22.096  37.685  1.00  0.00     0.012 C 
ATOM     35  C   UNL     1     -22.564  20.954  35.668  1.00  0.00     0.012 C 
ENDBRANCH  31  33
ENDBRANCH  30  31
ENDBRANCH   1  30
TORSDOF 7
ENDMDL
MODEL 4
REMARK VINA RESULT:    -5.489      2.134      8.957
REMARK INTER + INTRA:          -8.944
REMARK INTER:                  -7.300
REMARK INTRA:                  -1.644
REMARK UNBOUND:                -1.369
REMARK SMILES C=C(CC[C@H](C(=O)[O-])[C@H]1CC[C@]2(C)C3=C(CC[C@]12C)[C@@]1(C)CC[C@@H](O)C(C)(C)[C@H]1CC3)C(C)C
REMARK SMILES IDX 4 1 5 2 6 3 7 4 8 5 9 6 10 7 18 8 11 9 12 10 17 11 19 12
REMARK SMILES IDX 13 13 14 14 16 15 15 16 31 17 20 18 30 19 29 20 22 21 21 22
REMARK SMILES IDX 26 23 23 24 24 25 27 26 28 27 25 28 3 30 2 31 1 32 32 33
REMARK SMILES IDX 33 34 34 35
REMARK H PARENT 25 29
REMARK Flexibility Score: inf
ROOT
ATOM      1  C   UNL     1     -12.702  24.513  40.174  1.00  0.00     0.014 C 
ENDROOT
BRANCH   1   2
ATOM      2  C   UNL     1     -11.391  25.266  39.820  1.00  0.00     0.039 C 
BRANCH   2   3
ATOM      3  C   UNL     1     -10.693  24.509  38.711  1.00  0.00     0.045 C 
ATOM      4  O   UNL     1      -9.979  25.123  37.874  1.00  0.00    -0.550 OA
ATOM      5  O   UNL     1     -10.805  23.125  38.627  1.00  0.00    -0.550 OA
ENDBRANCH   2   3
BRANCH   2   6
ATOM      6  C   UNL     1     -10.459  25.421  41.074  1.00  0.00     0.004 C 
ATOM      7  C   UNL     1      -9.077  24.765  40.869  1.00  0.00     0.006 C 
ATOM      8  C   UNL     1     -10.156  26.885  41.623  1.00  0.00    -0.020 C 
ATOM      9  C   UNL     1      -8.071  25.620  41.614  1.00  0.00     0.012 C 
ATOM     10  C   UNL     1      -8.596  27.057  41.499  1.00  0.00    -0.006 C 
ATOM     11  C   UNL     1     -10.543  26.894  43.122  1.00  0.00     0.012 C 
ATOM     12  C   UNL     1     -10.919  28.058  40.923  1.00  0.00     0.012 C 
ATOM     13  C   UNL     1      -8.191  27.616  40.100  1.00  0.00     0.017 C 
ATOM     14  C   UNL     1      -7.947  27.948  42.586  1.00  0.00    -0.064 C 
ATOM     15  C   UNL     1     -10.114  28.171  43.829  1.00  0.00     0.032 C 
ATOM     16  C   UNL     1      -8.640  28.503  43.630  1.00  0.00    -0.064 C 
ATOM     17  C   UNL     1      -6.459  28.200  42.484  1.00  0.00     0.032 C 
ATOM     18  C   UNL     1      -8.007  29.653  44.484  1.00  0.00    -0.008 C 
ATOM     19  C   UNL     1      -5.857  28.314  43.874  1.00  0.00     0.009 C 
ATOM     20  C   UNL     1      -6.411  29.578  44.559  1.00  0.00     0.007 C 
ATOM     21  C   UNL     1      -8.632  29.658  45.909  1.00  0.00     0.014 C 
ATOM     22  C   UNL     1      -8.425  30.968  43.773  1.00  0.00     0.016 C 
ATOM     23  C   UNL     1      -5.741  29.862  45.968  1.00  0.00    -0.006 C 
ATOM     24  C   UNL     1      -8.027  30.655  46.911  1.00  0.00     0.033 C 
ATOM     25  C   UNL     1      -6.542  30.991  46.675  1.00  0.00     0.120 C 
ATOM     26  C   UNL     1      -4.291  30.382  45.751  1.00  0.00     0.014 C 
ATOM     27  C   UNL     1      -5.636  28.592  46.861  1.00  0.00     0.014 C 
BRANCH  25  28
ATOM     28  O   UNL     1      -5.927  31.418  47.870  1.00  0.00    -0.393 OA
ATOM     29  H   UNL     1      -5.501  30.636  48.302  1.00  0.00     0.210 HD
ENDBRANCH  25  28
ENDBRANCH   2   6
ENDBRANCH   1   2
BRANCH   1  30
ATOM     30  C   UNL     1     -13.406  25.069  41.427  1.00  0.00     0.031 C 
BRANCH  30  31
ATOM     31  C   UNL     1     -14.231  26.302  41.117  1.00  0.00    -0.075 C 
ATOM     32  C   UNL     1     -14.462  27.214  42.080  1.00  0.00     0.008 C 
BRANCH  31  33
ATOM     33  C   UNL     1     -14.791  26.482  39.712  1.00  0.00     0.008 C 
ATOM     34  C   UNL     1     -14.651  27.930  39.226  1.00  0.00     0.012 C 
ATOM     35  C   UNL     1     -16.244  26.009  39.625  1.00  0.00     0.012 C 
ENDBRANCH  31  33
ENDBRANCH  30  31
ENDBRANCH   1  30
TORSDOF 7
ENDMDL
MODEL 5
REMARK VINA RESULT:    -5.448      2.782      4.807
REMARK INTER + INTRA:          -8.887
REMARK INTER:                  -7.029
REMARK INTRA:                  -1.858
REMARK UNBOUND:                -1.369
REMARK SMILES C=C(CC[C@H](C(=O)[O-])[C@H]1CC[C@]2(C)C3=C(CC[C@]12C)[C@@]1(C)CC[C@@H](O)C(C)(C)[C@H]1CC3)C(C)C
REMARK SMILES IDX 4 1 5 2 6 3 7 4 8 5 9 6 10 7 18 8 11 9 12 10 17 11 19 12
REMARK SMILES IDX 13 13 14 14 16 15 15 16 31 17 20 18 30 19 29 20 22 21 21 22
REMARK SMILES IDX 26 23 23 24 24 25 27 26 28 27 25 28 3 30 2 31 1 32 32 33
REMARK SMILES IDX 33 34 34 35
REMARK H PARENT 25 29
REMARK Flexibility Score: inf
ROOT
ATOM      1  C   UNL     1      -5.966  30.605  44.391  1.00  0.00     0.014 C 
ENDROOT
BRANCH   1   2
ATOM      2  C   UNL     1      -7.317  30.458  43.640  1.00  0.00     0.039 C 
BRANCH   2   3
ATOM      3  C   UNL     1      -8.294  31.457  44.221  1.00  0.00     0.045 C 
ATOM      4  O   UNL     1      -8.170  31.847  45.413  1.00  0.00    -0.550 OA
ATOM      5  O   UNL     1      -9.315  31.982  43.434  1.00  0.00    -0.550 OA
ENDBRANCH   2   3
BRANCH   2   6
ATOM      6  C   UNL     1      -7.876  28.994  43.743  1.00  0.00     0.004 C 
ATOM      7  C   UNL     1      -9.152  28.907  44.607  1.00  0.00     0.006 C 
ATOM      8  C   UNL     1      -8.221  28.214  42.398  1.00  0.00    -0.020 C 
ATOM      9  C   UNL     1     -10.023  27.828  43.996  1.00  0.00     0.012 C 
ATOM     10  C   UNL     1      -9.762  27.903  42.485  1.00  0.00    -0.006 C 
ATOM     11  C   UNL     1      -7.439  26.878  42.436  1.00  0.00     0.012 C 
ATOM     12  C   UNL     1      -7.860  28.945  41.062  1.00  0.00     0.012 C 
ATOM     13  C   UNL     1     -10.616  29.070  41.899  1.00  0.00     0.017 C 
ATOM     14  C   UNL     1     -10.205  26.586  41.803  1.00  0.00    -0.064 C 
ATOM     15  C   UNL     1      -7.833  25.937  41.309  1.00  0.00     0.032 C 
ATOM     16  C   UNL     1      -9.337  25.702  41.219  1.00  0.00    -0.064 C 
ATOM     17  C   UNL     1     -11.683  26.263  41.801  1.00  0.00     0.032 C 
ATOM     18  C   UNL     1      -9.865  24.581  40.262  1.00  0.00    -0.008 C 
ATOM     19  C   UNL     1     -11.885  24.761  41.898  1.00  0.00     0.009 C 
ATOM     20  C   UNL     1     -11.349  24.100  40.614  1.00  0.00     0.007 C 
ATOM     21  C   UNL     1      -8.877  23.379  40.258  1.00  0.00     0.014 C 
ATOM     22  C   UNL     1      -9.854  25.214  38.844  1.00  0.00     0.016 C 
ATOM     23  C   UNL     1     -11.635  22.541  40.556  1.00  0.00    -0.006 C 
ATOM     24  C   UNL     1      -9.315  22.142  39.458  1.00  0.00     0.033 C 
ATOM     25  C   UNL     1     -10.839  21.938  39.363  1.00  0.00     0.120 C 
ATOM     26  C   UNL     1     -13.148  22.306  40.275  1.00  0.00     0.014 C 
ATOM     27  C   UNL     1     -11.304  21.809  41.888  1.00  0.00     0.014 C 
BRANCH  25  28
ATOM     28  O   UNL     1     -11.153  20.582  39.139  1.00  0.00    -0.393 OA
ATOM     29  H   UNL     1     -10.382  20.029  39.419  1.00  0.00     0.210 HD
ENDBRANCH  25  28
ENDBRANCH   2   6
ENDBRANCH   1   2
BRANCH   1  30
ATOM     30  C   UNL     1      -5.208  29.273  44.550  1.00  0.00     0.031 C 
BRANCH  30  31
ATOM     31  C   UNL     1      -5.463  28.630  45.899  1.00  0.00    -0.075 C 
ATOM     32  C   UNL     1      -5.797  29.396  46.955  1.00  0.00     0.008 C 
BRANCH  31  33
ATOM     33  C   UNL     1      -5.330  27.119  46.034  1.00  0.00     0.008 C 
ATOM     34  C   UNL     1      -4.545  26.512  44.864  1.00  0.00     0.012 C 
ATOM     35  C   UNL     1      -6.698  26.450  46.188  1.00  0.00     0.012 C 
ENDBRANCH  31  33
ENDBRANCH  30  31
ENDBRANCH   1  30
TORSDOF 7
ENDMDL
MODEL 6
REMARK VINA RESULT:    -5.426      2.686      9.211
REMARK INTER + INTRA:          -8.857
REMARK INTER:                  -7.148
REMARK INTRA:                  -1.709
REMARK UNBOUND:                -1.369
REMARK SMILES C=C(CC[C@H](C(=O)[O-])[C@H]1CC[C@]2(C)C3=C(CC[C@]12C)[C@@]1(C)CC[C@@H](O)C(C)(C)[C@H]1CC3)C(C)C
REMARK SMILES IDX 4 1 5 2 6 3 7 4 8 5 9 6 10 7 18 8 11 9 12 10 17 11 19 12
REMARK SMILES IDX 13 13 14 14 16 15 15 16 31 17 20 18 30 19 29 20 22 21 21 22
REMARK SMILES IDX 26 23 23 24 24 25 27 26 28 27 25 28 3 30 2 31 1 32 32 33
REMARK SMILES IDX 33 34 34 35
REMARK H PARENT 25 29
REMARK Flexibility Score: inf
ROOT
ATOM      1  C   UNL     1     -13.651  23.965  39.163  1.00  0.00     0.014 C 
ENDROOT
BRANCH   1   2
ATOM      2  C   UNL     1     -12.236  24.584  38.994  1.00  0.00     0.039 C 
BRANCH   2   3
ATOM      3  C   UNL     1     -11.522  23.842  37.885  1.00  0.00     0.045 C 
ATOM      4  O   UNL     1     -10.695  24.443  37.149  1.00  0.00    -0.550 OA
ATOM      5  O   UNL     1     -11.746  22.482  37.691  1.00  0.00    -0.550 OA
ENDBRANCH   2   3
BRANCH   2   6
ATOM      6  C   UNL     1     -11.419  24.524  40.333  1.00  0.00     0.004 C 
ATOM      7  C   UNL     1     -10.393  23.371  40.350  1.00  0.00     0.006 C 
ATOM      8  C   UNL     1     -10.609  25.817  40.791  1.00  0.00    -0.020 C 
ATOM      9  C   UNL     1      -9.193  23.861  41.135  1.00  0.00     0.012 C 
ATOM     10  C   UNL     1      -9.102  25.365  40.840  1.00  0.00    -0.006 C 
ATOM     11  C   UNL     1     -11.076  26.158  42.227  1.00  0.00     0.012 C 
ATOM     12  C   UNL     1     -10.794  27.097  39.909  1.00  0.00     0.012 C 
ATOM     13  C   UNL     1      -8.403  25.550  39.457  1.00  0.00     0.017 C 
ATOM     14  C   UNL     1      -8.242  26.067  41.918  1.00  0.00    -0.064 C 
ATOM     15  C   UNL     1     -10.237  27.251  42.871  1.00  0.00     0.032 C 
ATOM     16  C   UNL     1      -8.740  26.968  42.822  1.00  0.00    -0.064 C 
ATOM     17  C   UNL     1      -6.771  25.717  41.974  1.00  0.00     0.032 C 
ATOM     18  C   UNL     1      -7.775  27.885  43.647  1.00  0.00    -0.008 C 
ATOM     19  C   UNL     1      -6.282  25.763  43.412  1.00  0.00     0.009 C 
ATOM     20  C   UNL     1      -6.348  27.217  43.918  1.00  0.00     0.007 C 
ATOM     21  C   UNL     1      -8.456  28.304  44.982  1.00  0.00     0.014 C 
ATOM     22  C   UNL     1      -7.587  29.162  42.785  1.00  0.00     0.016 C 
ATOM     23  C   UNL     1      -5.731  27.394  45.368  1.00  0.00    -0.006 C 
ATOM     24  C   UNL     1      -7.589  29.110  45.962  1.00  0.00     0.033 C 
ATOM     25  C   UNL     1      -6.077  28.822  45.878  1.00  0.00     0.120 C 
ATOM     26  C   UNL     1      -4.181  27.291  45.283  1.00  0.00     0.014 C 
ATOM     27  C   UNL     1      -6.202  26.302  46.370  1.00  0.00     0.014 C 
BRANCH  25  28
ATOM     28  O   UNL     1      -5.438  29.125  47.098  1.00  0.00    -0.393 OA
ATOM     29  H   UNL     1      -6.124  29.177  47.809  1.00  0.00     0.210 HD
ENDBRANCH  25  28
ENDBRANCH   2   6
ENDBRANCH   1   2
BRANCH   1  30
ATOM     30  C   UNL     1     -14.532  24.723  40.174  1.00  0.00     0.031 C 
BRANCH  30  31
ATOM     31  C   UNL     1     -14.764  26.163  39.760  1.00  0.00    -0.075 C 
ATOM     32  C   UNL     1     -15.519  26.438  38.681  1.00  0.00     0.008 C 
BRANCH  31  33
ATOM     33  C   UNL     1     -14.127  27.278  40.579  1.00  0.00     0.008 C 
ATOM     34  C   UNL     1     -14.652  27.295  42.020  1.00  0.00     0.012 C 
ATOM     35  C   UNL     1     -14.314  28.641  39.908  1.00  0.00     0.012 C 
ENDBRANCH  31  33
ENDBRANCH  30  31
ENDBRANCH   1  30
TORSDOF 7
ENDMDL
MODEL 7
REMARK VINA RESULT:    -5.308      5.136      8.871
REMARK INTER + INTRA:          -8.693
REMARK INTER:                  -7.349
REMARK INTRA:                  -1.345
REMARK UNBOUND:                -1.369
REMARK SMILES C=C(CC[C@H](C(=O)[O-])[C@H]1CC[C@]2(C)C3=C(CC[C@]12C)[C@@]1(C)CC[C@@H](O)C(C)(C)[C@H]1CC3)C(C)C
REMARK SMILES IDX 4 1 5 2 6 3 7 4 8 5 9 6 10 7 18 8 11 9 12 10 17 11 19 12
REMARK SMILES IDX 13 13 14 14 16 15 15 16 31 17 20 18 30 19 29 20 22 21 21 22
REMARK SMILES IDX 26 23 23 24 24 25 27 26 28 27 25 28 3 30 2 31 1 32 32 33
REMARK SMILES IDX 33 34 34 35
REMARK H PARENT 25 29
REMARK Flexibility Score: inf
ROOT
ATOM      1  C   UNL     1     -11.669  27.768  42.055  1.00  0.00     0.014 C 
ENDROOT
BRANCH   1   2
ATOM      2  C   UNL     1     -12.176  26.606  41.158  1.00  0.00     0.039 C 
BRANCH   2   3
ATOM      3  C   UNL     1     -13.689  26.641  41.146  1.00  0.00     0.045 C 
ATOM      4  O   UNL     1     -14.320  27.146  42.112  1.00  0.00    -0.550 OA
ATOM      5  O   UNL     1     -14.395  26.147  40.053  1.00  0.00    -0.550 OA
ENDBRANCH   2   3
BRANCH   2   6
ATOM      6  C   UNL     1     -11.645  25.217  41.661  1.00  0.00     0.004 C 
ATOM      7  C   UNL     1     -12.777  24.296  42.162  1.00  0.00     0.006 C 
ATOM      8  C   UNL     1     -10.783  24.324  40.662  1.00  0.00    -0.020 C 
ATOM      9  C   UNL     1     -12.379  22.878  41.806  1.00  0.00     0.012 C 
ATOM     10  C   UNL     1     -11.604  22.992  40.486  1.00  0.00    -0.006 C 
ATOM     11  C   UNL     1      -9.451  23.998  41.382  1.00  0.00     0.012 C 
ATOM     12  C   UNL     1     -10.436  24.970  39.280  1.00  0.00     0.012 C 
ATOM     13  C   UNL     1     -12.636  23.105  39.321  1.00  0.00     0.017 C 
ATOM     14  C   UNL     1     -10.750  21.722  40.259  1.00  0.00    -0.064 C 
ATOM     15  C   UNL     1      -8.612  22.979  40.627  1.00  0.00     0.032 C 
ATOM     16  C   UNL     1      -9.380  21.711  40.273  1.00  0.00    -0.064 C 
ATOM     17  C   UNL     1     -11.486  20.420  40.023  1.00  0.00     0.032 C 
ATOM     18  C   UNL     1      -8.587  20.486  39.705  1.00  0.00    -0.008 C 
ATOM     19  C   UNL     1     -10.699  19.266  40.620  1.00  0.00     0.009 C 
ATOM     20  C   UNL     1      -9.379  19.103  39.843  1.00  0.00     0.007 C 
ATOM     21  C   UNL     1      -7.191  20.398  40.387  1.00  0.00     0.014 C 
ATOM     22  C   UNL     1      -8.367  20.802  38.202  1.00  0.00     0.016 C 
ATOM     23  C   UNL     1      -8.544  17.836  40.303  1.00  0.00    -0.006 C 
ATOM     24  C   UNL     1      -6.335  19.174  40.024  1.00  0.00     0.033 C 
ATOM     25  C   UNL     1      -7.134  17.912  39.650  1.00  0.00     0.120 C 
ATOM     26  C   UNL     1      -9.235  16.546  39.776  1.00  0.00     0.014 C 
ATOM     27  C   UNL     1      -8.446  17.697  41.850  1.00  0.00     0.014 C 
BRANCH  25  28
ATOM     28  O   UNL     1      -6.374  16.747  39.878  1.00  0.00    -0.393 OA
ATOM     29  H   UNL     1      -5.790  16.900  40.663  1.00  0.00     0.210 HD
ENDBRANCH  25  28
ENDBRANCH   2   6
ENDBRANCH   1   2
BRANCH   1  30
ATOM     30  C   UNL     1     -10.991  27.286  43.352  1.00  0.00     0.031 C 
BRANCH  30  31
ATOM     31  C   UNL     1      -9.534  27.699  43.421  1.00  0.00    -0.075 C 
ATOM     32  C   UNL     1      -8.729  27.499  42.360  1.00  0.00     0.008 C 
BRANCH  31  33
ATOM     33  C   UNL     1      -9.005  28.333  44.701  1.00  0.00     0.008 C 
ATOM     34  C   UNL     1      -8.730  29.831  44.520  1.00  0.00     0.012 C 
ATOM     35  C   UNL     1      -7.762  27.602  45.213  1.00  0.00     0.012 C 
ENDBRANCH  31  33
ENDBRANCH  30  31
ENDBRANCH   1  30
TORSDOF 7
ENDMDL
MODEL 8
REMARK VINA RESULT:    -5.305     10.270     14.984
REMARK INTER + INTRA:          -8.691
REMARK INTER:                  -7.461
REMARK INTRA:                  -1.230
REMARK UNBOUND:                -1.369
REMARK SMILES C=C(CC[C@H](C(=O)[O-])[C@H]1CC[C@]2(C)C3=C(CC[C@]12C)[C@@]1(C)CC[C@@H](O)C(C)(C)[C@H]1CC3)C(C)C
REMARK SMILES IDX 4 1 5 2 6 3 7 4 8 5 9 6 10 7 18 8 11 9 12 10 17 11 19 12
REMARK SMILES IDX 13 13 14 14 16 15 15 16 31 17 20 18 30 19 29 20 22 21 21 22
REMARK SMILES IDX 26 23 23 24 24 25 27 26 28 27 25 28 3 30 2 31 1 32 32 33
REMARK SMILES IDX 33 34 34 35
REMARK H PARENT 25 29
REMARK Flexibility Score: inf
ROOT
ATOM      1  C   UNL     1     -20.212  24.696  34.748  1.00  0.00     0.014 C 
ENDROOT
BRANCH   1   2
ATOM      2  C   UNL     1     -18.842  25.044  34.103  1.00  0.00     0.039 C 
BRANCH   2   3
ATOM      3  C   UNL     1     -19.045  25.199  32.611  1.00  0.00     0.045 C 
ATOM      4  O   UNL     1     -19.979  24.584  32.031  1.00  0.00    -0.550 OA
ATOM      5  O   UNL     1     -18.227  26.050  31.875  1.00  0.00    -0.550 OA
ENDBRANCH   2   3
BRANCH   2   6
ATOM      6  C   UNL     1     -17.764  23.948  34.417  1.00  0.00     0.004 C 
ATOM      7  C   UNL     1     -17.663  22.881  33.306  1.00  0.00     0.006 C 
ATOM      8  C   UNL     1     -16.266  24.410  34.698  1.00  0.00    -0.020 C 
ATOM      9  C   UNL     1     -16.208  22.463  33.229  1.00  0.00     0.012 C 
ATOM     10  C   UNL     1     -15.405  23.726  33.571  1.00  0.00    -0.006 C 
ATOM     11  C   UNL     1     -15.858  23.816  36.068  1.00  0.00     0.012 C 
ATOM     12  C   UNL     1     -16.017  25.954  34.750  1.00  0.00     0.012 C 
ATOM     13  C   UNL     1     -15.325  24.616  32.291  1.00  0.00     0.017 C 
ATOM     14  C   UNL     1     -13.965  23.343  33.988  1.00  0.00    -0.064 C 
ATOM     15  C   UNL     1     -14.380  24.005  36.371  1.00  0.00     0.032 C 
ATOM     16  C   UNL     1     -13.468  23.510  35.254  1.00  0.00    -0.064 C 
ATOM     17  C   UNL     1     -13.069  22.737  32.929  1.00  0.00     0.032 C 
ATOM     18  C   UNL     1     -11.927  23.427  35.523  1.00  0.00    -0.008 C 
ATOM     19  C   UNL     1     -12.132  21.723  33.563  1.00  0.00     0.009 C 
ATOM     20  C   UNL     1     -11.162  22.458  34.507  1.00  0.00     0.007 C 
ATOM     21  C   UNL     1     -11.671  23.001  36.998  1.00  0.00     0.014 C 
ATOM     22  C   UNL     1     -11.401  24.876  35.345  1.00  0.00     0.016 C 
ATOM     23  C   UNL     1     -10.051  21.504  35.117  1.00  0.00    -0.006 C 
ATOM     24  C   UNL     1     -10.204  22.757  37.388  1.00  0.00     0.033 C 
ATOM     25  C   UNL     1      -9.299  22.278  36.237  1.00  0.00     0.120 C 
ATOM     26  C   UNL     1      -9.013  21.152  34.013  1.00  0.00     0.014 C 
ATOM     27  C   UNL     1     -10.626  20.157  35.644  1.00  0.00     0.014 C 
BRANCH  25  28
ATOM     28  O   UNL     1      -8.191  21.561  36.732  1.00  0.00    -0.393 OA
ATOM     29  H   UNL     1      -8.508  20.925  37.421  1.00  0.00     0.210 HD
ENDBRANCH  25  28
ENDBRANCH   2   6
ENDBRANCH   1   2
BRANCH   1  30
ATOM     30  C   UNL     1     -20.093  23.764  35.969  1.00  0.00     0.031 C 
BRANCH  30  31
ATOM     31  C   UNL     1     -20.903  22.495  35.799  1.00  0.00    -0.075 C 
ATOM     32  C   UNL     1     -21.134  22.007  34.565  1.00  0.00     0.008 C 
BRANCH  31  33
ATOM     33  C   UNL     1     -21.447  21.794  37.037  1.00  0.00     0.008 C 
ATOM     34  C   UNL     1     -22.872  21.273  36.813  1.00  0.00     0.012 C 
ATOM     35  C   UNL     1     -21.378  22.701  38.267  1.00  0.00     0.012 C 
ENDBRANCH  31  33
ENDBRANCH  30  31
ENDBRANCH   1  30
TORSDOF 7
ENDMDL
MODEL 9
REMARK VINA RESULT:    -5.190      1.929      2.762
REMARK INTER + INTRA:          -8.531
REMARK INTER:                  -7.677
REMARK INTRA:                  -0.854
REMARK UNBOUND:                -1.369
REMARK SMILES C=C(CC[C@H](C(=O)[O-])[C@H]1CC[C@]2(C)C3=C(CC[C@]12C)[C@@]1(C)CC[C@@H](O)C(C)(C)[C@H]1CC3)C(C)C
REMARK SMILES IDX 4 1 5 2 6 3 7 4 8 5 9 6 10 7 18 8 11 9 12 10 17 11 19 12
REMARK SMILES IDX 13 13 14 14 16 15 15 16 31 17 20 18 30 19 29 20 22 21 21 22
REMARK SMILES IDX 26 23 23 24 24 25 27 26 28 27 25 28 3 30 2 31 1 32 32 33
REMARK SMILES IDX 33 34 34 35
REMARK H PARENT 25 29
REMARK Flexibility Score: inf
ROOT
ATOM      1  C   UNL     1      -5.008  29.471  45.858  1.00  0.00     0.014 C 
ENDROOT
BRANCH   1   2
ATOM      2  C   UNL     1      -6.110  28.587  46.504  1.00  0.00     0.039 C 
BRANCH   2   3
ATOM      3  C   UNL     1      -5.768  27.136  46.242  1.00  0.00     0.045 C 
ATOM      4  O   UNL     1      -4.636  26.823  45.787  1.00  0.00    -0.550 OA
ATOM      5  O   UNL     1      -6.688  26.134  46.535  1.00  0.00    -0.550 OA
ENDBRANCH   2   3
BRANCH   2   6
ATOM      6  C   UNL     1      -7.534  28.944  45.947  1.00  0.00     0.004 C 
ATOM      7  C   UNL     1      -7.954  30.391  46.280  1.00  0.00     0.006 C 
ATOM      8  C   UNL     1      -7.807  28.771  44.388  1.00  0.00    -0.020 C 
ATOM      9  C   UNL     1      -8.779  30.889  45.110  1.00  0.00     0.012 C 
ATOM     10  C   UNL     1      -8.175  30.212  43.871  1.00  0.00    -0.006 C 
ATOM     11  C   UNL     1      -9.049  27.857  44.245  1.00  0.00     0.012 C 
ATOM     12  C   UNL     1      -6.648  28.141  43.547  1.00  0.00     0.012 C 
ATOM     13  C   UNL     1      -6.903  31.012  43.449  1.00  0.00     0.017 C 
ATOM     14  C   UNL     1      -9.185  30.251  42.699  1.00  0.00    -0.064 C 
ATOM     15  C   UNL     1      -9.551  27.772  42.812  1.00  0.00     0.032 C 
ATOM     16  C   UNL     1      -9.785  29.137  42.174  1.00  0.00    -0.064 C 
ATOM     17  C   UNL     1      -9.532  31.605  42.120  1.00  0.00     0.032 C 
ATOM     18  C   UNL     1     -10.519  29.203  40.792  1.00  0.00    -0.008 C 
ATOM     19  C   UNL     1     -10.979  31.616  41.660  1.00  0.00     0.009 C 
ATOM     20  C   UNL     1     -11.136  30.644  40.475  1.00  0.00     0.007 C 
ATOM     21  C   UNL     1     -11.614  28.100  40.721  1.00  0.00     0.014 C 
ATOM     22  C   UNL     1      -9.433  28.868  39.735  1.00  0.00     0.016 C 
ATOM     23  C   UNL     1     -12.586  30.683  39.832  1.00  0.00    -0.006 C 
ATOM     24  C   UNL     1     -12.508  28.112  39.470  1.00  0.00     0.033 C 
ATOM     25  C   UNL     1     -12.712  29.499  38.832  1.00  0.00     0.120 C 
ATOM     26  C   UNL     1     -12.753  32.000  39.022  1.00  0.00     0.014 C 
ATOM     27  C   UNL     1     -13.725  30.656  40.892  1.00  0.00     0.014 C 
BRANCH  25  28
ATOM     28  O   UNL     1     -13.914  29.544  38.097  1.00  0.00    -0.393 OA
ATOM     29  H   UNL     1     -13.735  29.978  37.225  1.00  0.00     0.210 HD
ENDBRANCH  25  28
ENDBRANCH   2   6
ENDBRANCH   1   2
BRANCH   1  30
ATOM     30  C   UNL     1      -4.309  30.407  46.863  1.00  0.00     0.031 C 
BRANCH  30  31
ATOM     31  C   UNL     1      -4.527  31.869  46.527  1.00  0.00    -0.075 C 
ATOM     32  C   UNL     1      -4.054  32.369  45.370  1.00  0.00     0.008 C 
BRANCH  31  33
ATOM     33  C   UNL     1      -5.279  32.750  47.515  1.00  0.00     0.008 C 
ATOM     34  C   UNL     1      -6.345  33.604  46.818  1.00  0.00     0.012 C 
ATOM     35  C   UNL     1      -4.319  33.622  48.328  1.00  0.00     0.012 C 
ENDBRANCH  31  33
ENDBRANCH  30  31
ENDBRANCH   1  30
TORSDOF 7
ENDMDL
