MODEL 1
REMARK VINA RESULT:    -3.945      0.000      0.000
REMARK INTER + INTRA:          -6.921
REMARK INTER:                  -6.021
REMARK INTRA:                  -0.900
REMARK UNBOUND:                -0.900
REMARK SMILES CCCCCCCCCCC(=O)[O-]
REMARK SMILES IDX 7 1 8 2 9 3 10 4 11 5 12 6 13 7 6 8 5 9 4 10 3 11 2 12 1 13
REMARK H PARENT
REMARK Flexibility Score: inf
ROOT
ATOM      1  C   UNL     1      -4.881   4.012  -9.354  1.00  0.00     0.000 C 
ENDROOT
BRANCH   1   2
ATOM      2  C   UNL     1      -5.239   5.168  -8.408  1.00  0.00     0.000 C 
BRANCH   2   3
ATOM      3  C   UNL     1      -6.200   6.155  -9.086  1.00  0.00     0.006 C 
BRANCH   3   4
ATOM      4  C   UNL     1      -5.470   7.376  -9.661  1.00  0.00     0.053 C 
BRANCH   4   5
ATOM      5  C   UNL     1      -5.114   8.366  -8.595  1.00  0.00     0.041 C 
ATOM      6  O   UNL     1      -5.996   8.790  -7.804  1.00  0.00    -0.550 OA
ATOM      7  O   UNL     1      -3.800   8.795  -8.455  1.00  0.00    -0.550 OA
ENDBRANCH   4   5
ENDBRANCH   3   4
ENDBRANCH   2   3
ENDBRANCH   1   2
BRANCH   1   8
ATOM      8  C   UNL     1      -5.613   2.708  -8.995  1.00  0.00     0.000 C 
BRANCH   8   9
ATOM      9  C   UNL     1      -6.754   2.381  -9.976  1.00  0.00    -0.000 C 
BRANCH   9  10
ATOM     10  C   UNL     1      -8.145   2.634  -9.372  1.00  0.00    -0.000 C 
BRANCH  10  11
ATOM     11  C   UNL     1      -8.137   2.587  -7.834  1.00  0.00    -0.000 C 
BRANCH  11  12
ATOM     12  C   UNL     1      -8.648   3.893  -7.204  1.00  0.00    -0.003 C 
ATOM     13  C   UNL     1      -9.290   3.679  -5.833  1.00  0.00     0.004 C 
ENDBRANCH  11  12
ENDBRANCH  10  11
ENDBRANCH   9  10
ENDBRANCH   8   9
ENDBRANCH   1   8
TORSDOF 9
ENDMDL
MODEL 2
REMARK VINA RESULT:    -3.698     22.360     23.548
REMARK INTER + INTRA:          -6.544
REMARK INTER:                  -5.704
REMARK INTRA:                  -0.840
REMARK UNBOUND:                -0.900
REMARK SMILES CCCCCCCCCCC(=O)[O-]
REMARK SMILES IDX 7 1 8 2 9 3 10 4 11 5 12 6 13 7 6 8 5 9 4 10 3 11 2 12 1 13
REMARK H PARENT
REMARK Flexibility Score: inf
ROOT
ATOM      1  C   UNL     1       6.219  -8.422   5.668  1.00  0.00     0.000 C 
ENDROOT
BRANCH   1   2
ATOM      2  C   UNL     1       5.061  -9.331   6.106  1.00  0.00     0.000 C 
BRANCH   2   3
ATOM      3  C   UNL     1       4.476 -10.091   4.906  1.00  0.00     0.006 C 
BRANCH   3   4
ATOM      4  C   UNL     1       4.837  -9.432   3.569  1.00  0.00     0.053 C 
BRANCH   4   5
ATOM      5  C   UNL     1       3.666  -9.387   2.635  1.00  0.00     0.041 C 
ATOM      6  O   UNL     1       3.425  -8.345   1.972  1.00  0.00    -0.550 OA
ATOM      7  O   UNL     1       2.862 -10.508   2.474  1.00  0.00    -0.550 OA
ENDBRANCH   4   5
ENDBRANCH   3   4
ENDBRANCH   2   3
ENDBRANCH   1   2
BRANCH   1   8
ATOM      8  C   UNL     1       7.559  -8.826   6.302  1.00  0.00     0.000 C 
BRANCH   8   9
ATOM      9  C   UNL     1       7.889  -8.004   7.563  1.00  0.00    -0.000 C 
BRANCH   9  10
ATOM     10  C   UNL     1       7.113  -6.679   7.627  1.00  0.00    -0.000 C 
BRANCH  10  11
ATOM     11  C   UNL     1       6.406  -6.475   8.978  1.00  0.00    -0.000 C 
BRANCH  11  12
ATOM     12  C   UNL     1       5.647  -7.730   9.440  1.00  0.00    -0.003 C 
ATOM     13  C   UNL     1       4.130  -7.588   9.309  1.00  0.00     0.004 C 
ENDBRANCH  11  12
ENDBRANCH  10  11
ENDBRANCH   9  10
ENDBRANCH   8   9
ENDBRANCH   1   8
TORSDOF 9
ENDMDL
MODEL 3
REMARK VINA RESULT:    -3.661     22.505     23.773
REMARK INTER + INTRA:          -6.488
REMARK INTER:                  -5.936
REMARK INTRA:                  -0.552
REMARK UNBOUND:                -0.900
REMARK SMILES CCCCCCCCCCC(=O)[O-]
REMARK SMILES IDX 7 1 8 2 9 3 10 4 11 5 12 6 13 7 6 8 5 9 4 10 3 11 2 12 1 13
REMARK H PARENT
REMARK Flexibility Score: inf
ROOT
ATOM      1  C   UNL     1       6.201  -8.484   5.523  1.00  0.00     0.000 C 
ENDROOT
BRANCH   1   2
ATOM      2  C   UNL     1       5.121  -9.507   5.904  1.00  0.00     0.000 C 
BRANCH   2   3
ATOM      3  C   UNL     1       4.656 -10.298   4.672  1.00  0.00     0.006 C 
BRANCH   3   4
ATOM      4  C   UNL     1       4.899  -9.534   3.364  1.00  0.00     0.053 C 
BRANCH   4   5
ATOM      5  C   UNL     1       3.658  -9.450   2.528  1.00  0.00     0.041 C 
ATOM      6  O   UNL     1       2.902 -10.449   2.416  1.00  0.00    -0.550 OA
ATOM      7  O   UNL     1       3.321  -8.257   1.901  1.00  0.00    -0.550 OA
ENDBRANCH   4   5
ENDBRANCH   3   4
ENDBRANCH   2   3
ENDBRANCH   1   2
BRANCH   1   8
ATOM      8  C   UNL     1       7.506  -8.683   6.310  1.00  0.00     0.000 C 
BRANCH   8   9
ATOM      9  C   UNL     1       7.260  -9.176   7.749  1.00  0.00    -0.000 C 
BRANCH   9  10
ATOM     10  C   UNL     1       7.870  -8.242   8.807  1.00  0.00    -0.000 C 
BRANCH  10  11
ATOM     11  C   UNL     1       8.359  -6.912   8.208  1.00  0.00    -0.000 C 
BRANCH  11  12
ATOM     12  C   UNL     1       7.338  -5.777   8.387  1.00  0.00    -0.003 C 
ATOM     13  C   UNL     1       7.960  -4.389   8.230  1.00  0.00     0.004 C 
ENDBRANCH  11  12
ENDBRANCH  10  11
ENDBRANCH   9  10
ENDBRANCH   8   9
ENDBRANCH   1   8
TORSDOF 9
ENDMDL
MODEL 4
REMARK VINA RESULT:    -3.655      3.075      5.025
REMARK INTER + INTRA:          -6.479
REMARK INTER:                  -5.294
REMARK INTRA:                  -1.184
REMARK UNBOUND:                -0.900
REMARK SMILES CCCCCCCCCCC(=O)[O-]
REMARK SMILES IDX 7 1 8 2 9 3 10 4 11 5 12 6 13 7 6 8 5 9 4 10 3 11 2 12 1 13
REMARK H PARENT
REMARK Flexibility Score: inf
ROOT
ATOM      1  C   UNL     1      -6.362   2.037  -9.062  1.00  0.00     0.000 C 
ENDROOT
BRANCH   1   2
ATOM      2  C   UNL     1      -7.598   2.658  -9.729  1.00  0.00     0.000 C 
BRANCH   2   3
ATOM      3  C   UNL     1      -8.832   2.533  -8.824  1.00  0.00     0.006 C 
BRANCH   3   4
ATOM      4  C   UNL     1      -8.833   3.572  -7.695  1.00  0.00     0.053 C 
BRANCH   4   5
ATOM      5  C   UNL     1      -9.252   2.975  -6.387  1.00  0.00     0.041 C 
ATOM      6  O   UNL     1      -9.765   1.827  -6.351  1.00  0.00    -0.550 OA
ATOM      7  O   UNL     1      -9.046   3.675  -5.205  1.00  0.00    -0.550 OA
ENDBRANCH   4   5
ENDBRANCH   3   4
ENDBRANCH   2   3
ENDBRANCH   1   2
BRANCH   1   8
ATOM      8  C   UNL     1      -5.255   3.069  -8.793  1.00  0.00     0.000 C 
BRANCH   8   9
ATOM      9  C   UNL     1      -4.986   3.979 -10.007  1.00  0.00    -0.000 C 
BRANCH   9  10
ATOM     10  C   UNL     1      -5.011   5.472  -9.645  1.00  0.00    -0.000 C 
BRANCH  10  11
ATOM     11  C   UNL     1      -5.676   5.738  -8.284  1.00  0.00    -0.000 C 
BRANCH  11  12
ATOM     12  C   UNL     1      -6.918   6.635  -8.402  1.00  0.00    -0.003 C 
ATOM     13  C   UNL     1      -7.600   6.530  -9.766  1.00  0.00     0.004 C 
ENDBRANCH  11  12
ENDBRANCH  10  11
ENDBRANCH   9  10
ENDBRANCH   8   9
ENDBRANCH   1   8
TORSDOF 9
ENDMDL
MODEL 5
REMARK VINA RESULT:    -3.641     22.178     23.320
REMARK INTER + INTRA:          -6.456
REMARK INTER:                  -5.527
REMARK INTRA:                  -0.929
REMARK UNBOUND:                -0.900
REMARK SMILES CCCCCCCCCCC(=O)[O-]
REMARK SMILES IDX 7 1 8 2 9 3 10 4 11 5 12 6 13 7 6 8 5 9 4 10 3 11 2 12 1 13
REMARK H PARENT
REMARK Flexibility Score: inf
ROOT
ATOM      1  C   UNL     1       6.265  -8.143   5.801  1.00  0.00     0.000 C 
ENDROOT
BRANCH   1   2
ATOM      2  C   UNL     1       5.841  -9.618   5.780  1.00  0.00     0.000 C 
BRANCH   2   3
ATOM      3  C   UNL     1       4.628  -9.828   4.860  1.00  0.00     0.006 C 
BRANCH   3   4
ATOM      4  C   UNL     1       4.911  -9.391   3.416  1.00  0.00     0.053 C 
BRANCH   4   5
ATOM      5  C   UNL     1       3.670  -9.397   2.578  1.00  0.00     0.041 C 
ATOM      6  O   UNL     1       3.367  -8.391   1.887  1.00  0.00    -0.550 OA
ATOM      7  O   UNL     1       2.866 -10.529   2.535  1.00  0.00    -0.550 OA
ENDBRANCH   4   5
ENDBRANCH   3   4
ENDBRANCH   2   3
ENDBRANCH   1   2
BRANCH   1   8
ATOM      8  C   UNL     1       6.431  -7.597   7.228  1.00  0.00     0.000 C 
BRANCH   8   9
ATOM      9  C   UNL     1       6.300  -8.694   8.301  1.00  0.00    -0.000 C 
BRANCH   9  10
ATOM     10  C   UNL     1       5.223  -8.372   9.350  1.00  0.00    -0.000 C 
BRANCH  10  11
ATOM     11  C   UNL     1       3.845  -8.108   8.718  1.00  0.00    -0.000 C 
BRANCH  11  12
ATOM     12  C   UNL     1       2.959  -9.364   8.695  1.00  0.00    -0.003 C 
ATOM     13  C   UNL     1       2.090  -9.455   7.441  1.00  0.00     0.004 C 
ENDBRANCH  11  12
ENDBRANCH  10  11
ENDBRANCH   9  10
ENDBRANCH   8   9
ENDBRANCH   1   8
TORSDOF 9
ENDMDL
MODEL 6
REMARK VINA RESULT:    -3.616     22.196     23.523
REMARK INTER + INTRA:          -6.418
REMARK INTER:                  -5.445
REMARK INTRA:                  -0.973
REMARK UNBOUND:                -0.900
REMARK SMILES CCCCCCCCCCC(=O)[O-]
REMARK SMILES IDX 7 1 8 2 9 3 10 4 11 5 12 6 13 7 6 8 5 9 4 10 3 11 2 12 1 13
REMARK H PARENT
REMARK Flexibility Score: inf
ROOT
ATOM      1  C   UNL     1       4.129  -9.988   7.162  1.00  0.00     0.000 C 
ENDROOT
BRANCH   1   2
ATOM      2  C   UNL     1       3.473 -10.260   5.800  1.00  0.00     0.000 C 
BRANCH   2   3
ATOM      3  C   UNL     1       4.531 -10.595   4.738  1.00  0.00     0.006 C 
BRANCH   3   4
ATOM      4  C   UNL     1       4.720  -9.457   3.727  1.00  0.00     0.053 C 
BRANCH   4   5
ATOM      5  C   UNL     1       3.649  -9.458   2.680  1.00  0.00     0.041 C 
ATOM      6  O   UNL     1       3.455  -8.437   1.970  1.00  0.00    -0.550 OA
ATOM      7  O   UNL     1       2.886 -10.599   2.465  1.00  0.00    -0.550 OA
ENDBRANCH   4   5
ENDBRANCH   3   4
ENDBRANCH   2   3
ENDBRANCH   1   2
BRANCH   1   8
ATOM      8  C   UNL     1       3.777  -8.601   7.721  1.00  0.00     0.000 C 
BRANCH   8   9
ATOM      9  C   UNL     1       4.633  -8.220   8.943  1.00  0.00    -0.000 C 
BRANCH   9  10
ATOM     10  C   UNL     1       6.138  -8.217   8.635  1.00  0.00    -0.000 C 
BRANCH  10  11
ATOM     11  C   UNL     1       6.542  -7.076   7.685  1.00  0.00    -0.000 C 
BRANCH  11  12
ATOM     12  C   UNL     1       6.809  -7.569   6.254  1.00  0.00    -0.003 C 
ATOM     13  C   UNL     1       7.627  -8.861   6.214  1.00  0.00     0.004 C 
ENDBRANCH  11  12
ENDBRANCH  10  11
ENDBRANCH   9  10
ENDBRANCH   8   9
ENDBRANCH   1   8
TORSDOF 9
ENDMDL
MODEL 7
REMARK VINA RESULT:    -3.432     11.979     13.538
REMARK INTER + INTRA:          -6.137
REMARK INTER:                  -5.253
REMARK INTRA:                  -0.884
REMARK UNBOUND:                -0.900
REMARK SMILES CCCCCCCCCCC(=O)[O-]
REMARK SMILES IDX 7 1 8 2 9 3 10 4 11 5 12 6 13 7 6 8 5 9 4 10 3 11 2 12 1 13
REMARK H PARENT
REMARK Flexibility Score: inf
ROOT
ATOM      1  C   UNL     1      -5.330  -8.349  -6.731  1.00  0.00     0.000 C 
ENDROOT
BRANCH   1   2
ATOM      2  C   UNL     1      -6.380  -8.522  -7.837  1.00  0.00     0.000 C 
BRANCH   2   3
ATOM      3  C   UNL     1      -7.732  -7.931  -7.408  1.00  0.00     0.006 C 
BRANCH   3   4
ATOM      4  C   UNL     1      -8.226  -6.848  -8.377  1.00  0.00     0.053 C 
BRANCH   4   5
ATOM      5  C   UNL     1      -7.759  -5.484  -7.973  1.00  0.00     0.041 C 
ATOM      6  O   UNL     1      -8.473  -4.765  -7.227  1.00  0.00    -0.550 OA
ATOM      7  O   UNL     1      -6.520  -5.020  -8.396  1.00  0.00    -0.550 OA
ENDBRANCH   4   5
ENDBRANCH   3   4
ENDBRANCH   2   3
ENDBRANCH   1   2
BRANCH   1   8
ATOM      8  C   UNL     1      -4.915  -9.686  -6.096  1.00  0.00     0.000 C 
BRANCH   8   9
ATOM      9  C   UNL     1      -5.961 -10.217  -5.098  1.00  0.00    -0.000 C 
BRANCH   9  10
ATOM     10  C   UNL     1      -6.229  -9.239  -3.943  1.00  0.00    -0.000 C 
BRANCH  10  11
ATOM     11  C   UNL     1      -7.582  -9.494  -3.257  1.00  0.00    -0.000 C 
BRANCH  11  12
ATOM     12  C   UNL     1      -8.733  -9.645  -4.264  1.00  0.00    -0.003 C 
ATOM     13  C   UNL     1      -9.774  -8.532  -4.147  1.00  0.00     0.004 C 
ENDBRANCH  11  12
ENDBRANCH  10  11
ENDBRANCH   9  10
ENDBRANCH   8   9
ENDBRANCH   1   8
TORSDOF 9
ENDMDL
MODEL 8
REMARK VINA RESULT:    -3.333      2.345      5.174
REMARK INTER + INTRA:          -5.987
REMARK INTER:                  -5.259
REMARK INTRA:                  -0.728
REMARK UNBOUND:                -0.900
REMARK SMILES CCCCCCCCCCC(=O)[O-]
REMARK SMILES IDX 7 1 8 2 9 3 10 4 11 5 12 6 13 7 6 8 5 9 4 10 3 11 2 12 1 13
REMARK H PARENT
REMARK Flexibility Score: inf
ROOT
ATOM      1  C   UNL     1      -5.273   3.156  -8.807  1.00  0.00     0.000 C 
ENDROOT
BRANCH   1   2
ATOM      2  C   UNL     1      -6.280   2.015  -9.015  1.00  0.00     0.000 C 
BRANCH   2   3
ATOM      3  C   UNL     1      -7.693   2.568  -9.255  1.00  0.00     0.006 C 
BRANCH   3   4
ATOM      4  C   UNL     1      -8.601   2.394  -8.031  1.00  0.00     0.053 C 
BRANCH   4   5
ATOM      5  C   UNL     1      -8.711   3.657  -7.234  1.00  0.00     0.041 C 
ATOM      6  O   UNL     1      -8.564   4.774  -7.794  1.00  0.00    -0.550 OA
ATOM      7  O   UNL     1      -9.009   3.601  -5.878  1.00  0.00    -0.550 OA
ENDBRANCH   4   5
ENDBRANCH   3   4
ENDBRANCH   2   3
ENDBRANCH   1   2
BRANCH   1   8
ATOM      8  C   UNL     1      -5.041   3.978 -10.084  1.00  0.00     0.000 C 
BRANCH   8   9
ATOM      9  C   UNL     1      -5.523   5.435  -9.946  1.00  0.00    -0.000 C 
BRANCH   9  10
ATOM     10  C   UNL     1      -5.379   5.974  -8.514  1.00  0.00    -0.000 C 
BRANCH  10  11
ATOM     11  C   UNL     1      -5.953   7.393  -8.358  1.00  0.00    -0.000 C 
BRANCH  11  12
ATOM     12  C   UNL     1      -5.459   8.350  -9.454  1.00  0.00    -0.003 C 
ATOM     13  C   UNL     1      -4.113   8.994  -9.119  1.00  0.00     0.004 C 
ENDBRANCH  11  12
ENDBRANCH  10  11
ENDBRANCH   9  10
ENDBRANCH   8   9
ENDBRANCH   1   8
TORSDOF 9
ENDMDL
MODEL 9
REMARK VINA RESULT:    -3.314     11.972     13.559
REMARK INTER + INTRA:          -5.957
REMARK INTER:                  -5.073
REMARK INTRA:                  -0.884
REMARK UNBOUND:                -0.900
REMARK SMILES CCCCCCCCCCC(=O)[O-]
REMARK SMILES IDX 7 1 8 2 9 3 10 4 11 5 12 6 13 7 6 8 5 9 4 10 3 11 2 12 1 13
REMARK H PARENT
REMARK Flexibility Score: inf
ROOT
ATOM      1  C   UNL     1      -6.836  -8.869  -8.746  1.00  0.00     0.000 C 
ENDROOT
BRANCH   1   2
ATOM      2  C   UNL     1      -7.975  -8.495  -7.786  1.00  0.00     0.000 C 
BRANCH   2   3
ATOM      3  C   UNL     1      -8.921  -7.469  -8.429  1.00  0.00     0.006 C 
BRANCH   3   4
ATOM      4  C   UNL     1      -8.172  -6.237  -8.952  1.00  0.00     0.053 C 
BRANCH   4   5
ATOM      5  C   UNL     1      -7.685  -5.365  -7.836  1.00  0.00     0.041 C 
ATOM      6  O   UNL     1      -8.496  -4.654  -7.188  1.00  0.00    -0.550 OA
ATOM      7  O   UNL     1      -6.339  -5.363  -7.491  1.00  0.00    -0.550 OA
ENDBRANCH   4   5
ENDBRANCH   3   4
ENDBRANCH   2   3
ENDBRANCH   1   2
BRANCH   1   8
ATOM      8  C   UNL     1      -5.708  -9.646  -8.049  1.00  0.00     0.000 C 
BRANCH   8   9
ATOM      9  C   UNL     1      -5.055  -8.845  -6.908  1.00  0.00    -0.000 C 
BRANCH   9  10
ATOM     10  C   UNL     1      -4.863  -9.680  -5.632  1.00  0.00    -0.000 C 
BRANCH  10  11
ATOM     11  C   UNL     1      -5.982 -10.716  -5.432  1.00  0.00    -0.000 C 
BRANCH  11  12
ATOM     12  C   UNL     1      -7.012 -10.273  -4.381  1.00  0.00    -0.003 C 
ATOM     13  C   UNL     1      -6.452  -9.246  -3.396  1.00  0.00     0.004 C 
ENDBRANCH  11  12
ENDBRANCH  10  11
ENDBRANCH   9  10
ENDBRANCH   8   9
ENDBRANCH   1   8
TORSDOF 9
ENDMDL
