MODEL 1
REMARK VINA RESULT:    -3.578      0.000      0.000
REMARK INTER + INTRA:          -4.325
REMARK INTER:                  -4.206
REMARK INTRA:                  -0.119
REMARK UNBOUND:                -0.119
REMARK SMILES O=C([O-])CCC(=O)[O-]
REMARK SMILES IDX 4 1 2 2 1 3 3 4 5 5 6 6 7 7 8 8
REMARK H PARENT
REMARK Flexibility Score: inf
ROOT
ATOM      1  C   UNL     1      24.283  -7.270  56.023  1.00  0.00     0.059 C 
ENDROOT
BRANCH   1   2
ATOM      2  C   UNL     1      25.397  -8.271  56.065  1.00  0.00     0.042 C 
ATOM      3  O   UNL     1      26.144  -8.348  57.075  1.00  0.00    -0.550 OA
ATOM      4  O   UNL     1      25.584  -9.147  55.003  1.00  0.00    -0.550 OA
ENDBRANCH   1   2
BRANCH   1   5
ATOM      5  C   UNL     1      23.054  -7.825  55.296  1.00  0.00     0.059 C 
BRANCH   5   6
ATOM      6  C   UNL     1      22.820  -7.125  53.992  1.00  0.00     0.042 C 
ATOM      7  O   UNL     1      21.864  -6.314  53.871  1.00  0.00    -0.550 OA
ATOM      8  O   UNL     1      23.632  -7.400  52.899  1.00  0.00    -0.550 OA
ENDBRANCH   5   6
ENDBRANCH   1   5
TORSDOF 3
ENDMDL
MODEL 2
REMARK VINA RESULT:    -3.547     15.504     16.793
REMARK INTER + INTRA:          -4.288
REMARK INTER:                  -4.192
REMARK INTRA:                  -0.097
REMARK UNBOUND:                -0.119
REMARK SMILES O=C([O-])CCC(=O)[O-]
REMARK SMILES IDX 4 1 2 2 1 3 3 4 5 5 6 6 7 7 8 8
REMARK H PARENT
REMARK Flexibility Score: inf
ROOT
ATOM      1  C   UNL     1      12.271   4.604  55.184  1.00  0.00     0.059 C 
ENDROOT
BRANCH   1   2
ATOM      2  C   UNL     1      11.696   3.917  53.983  1.00  0.00     0.042 C 
ATOM      3  O   UNL     1      12.154   4.155  52.835  1.00  0.00    -0.550 OA
ATOM      4  O   UNL     1      10.679   2.983  54.137  1.00  0.00    -0.550 OA
ENDBRANCH   1   2
BRANCH   1   5
ATOM      5  C   UNL     1      13.208   3.679  55.967  1.00  0.00     0.059 C 
BRANCH   5   6
ATOM      6  C   UNL     1      12.506   3.028  57.119  1.00  0.00     0.042 C 
ATOM      7  O   UNL     1      11.638   3.665  57.775  1.00  0.00    -0.550 OA
ATOM      8  O   UNL     1      12.839   1.733  57.496  1.00  0.00    -0.550 OA
ENDBRANCH   5   6
ENDBRANCH   1   5
TORSDOF 3
ENDMDL
MODEL 3
REMARK VINA RESULT:    -3.532      0.462      3.820
REMARK INTER + INTRA:          -4.271
REMARK INTER:                  -4.157
REMARK INTRA:                  -0.114
REMARK UNBOUND:                -0.119
REMARK SMILES O=C([O-])CCC(=O)[O-]
REMARK SMILES IDX 4 1 2 2 1 3 3 4 5 5 6 6 7 7 8 8
REMARK H PARENT
REMARK Flexibility Score: inf
ROOT
ATOM      1  C   UNL     1      23.108  -7.928  55.241  1.00  0.00     0.059 C 
ENDROOT
BRANCH   1   2
ATOM      2  C   UNL     1      22.755  -7.106  54.039  1.00  0.00     0.042 C 
ATOM      3  O   UNL     1      21.750  -6.350  54.060  1.00  0.00    -0.550 OA
ATOM      4  O   UNL     1      23.562  -7.148  52.908  1.00  0.00    -0.550 OA
ENDBRANCH   1   2
BRANCH   1   5
ATOM      5  C   UNL     1      24.460  -7.513  55.831  1.00  0.00     0.059 C 
BRANCH   5   6
ATOM      6  C   UNL     1      25.512  -8.551  55.585  1.00  0.00     0.042 C 
ATOM      7  O   UNL     1      26.522  -8.619  56.335  1.00  0.00    -0.550 OA
ATOM      8  O   UNL     1      25.398  -9.415  54.503  1.00  0.00    -0.550 OA
ENDBRANCH   5   6
ENDBRANCH   1   5
TORSDOF 3
ENDMDL
MODEL 4
REMARK VINA RESULT:    -3.530     15.483     16.473
REMARK INTER + INTRA:          -4.268
REMARK INTER:                  -4.170
REMARK INTRA:                  -0.099
REMARK UNBOUND:                -0.119
REMARK SMILES O=C([O-])CCC(=O)[O-]
REMARK SMILES IDX 4 1 2 2 1 3 3 4 5 5 6 6 7 7 8 8
REMARK H PARENT
REMARK Flexibility Score: inf
ROOT
ATOM      1  C   UNL     1      13.184   3.680  55.979  1.00  0.00     0.059 C 
ENDROOT
BRANCH   1   2
ATOM      2  C   UNL     1      12.544   3.003  57.152  1.00  0.00     0.042 C 
ATOM      3  O   UNL     1      11.685   3.608  57.845  1.00  0.00    -0.550 OA
ATOM      4  O   UNL     1      12.870   1.687  57.457  1.00  0.00    -0.550 OA
ENDBRANCH   1   2
BRANCH   1   5
ATOM      5  C   UNL     1      12.190   4.579  55.237  1.00  0.00     0.059 C 
BRANCH   5   6
ATOM      6  C   UNL     1      11.624   3.896  54.029  1.00  0.00     0.042 C 
ATOM      7  O   UNL     1      10.687   3.063  54.152  1.00  0.00    -0.550 OA
ATOM      8  O   UNL     1      12.158   4.149  52.772  1.00  0.00    -0.550 OA
ENDBRANCH   5   6
ENDBRANCH   1   5
TORSDOF 3
ENDMDL
MODEL 5
REMARK VINA RESULT:    -3.503     16.428     18.021
REMARK INTER + INTRA:          -4.237
REMARK INTER:                  -4.059
REMARK INTRA:                  -0.178
REMARK UNBOUND:                -0.119
REMARK SMILES O=C([O-])CCC(=O)[O-]
REMARK SMILES IDX 4 1 2 2 1 3 3 4 5 5 6 6 7 7 8 8
REMARK H PARENT
REMARK Flexibility Score: inf
ROOT
ATOM      1  C   UNL     1      11.068   3.463  54.212  1.00  0.00     0.059 C 
ENDROOT
BRANCH   1   2
ATOM      2  C   UNL     1      12.196   3.631  55.184  1.00  0.00     0.042 C 
ATOM      3  O   UNL     1      13.192   4.339  54.883  1.00  0.00    -0.550 OA
ATOM      4  O   UNL     1      12.127   3.037  56.438  1.00  0.00    -0.550 OA
ENDBRANCH   1   2
BRANCH   1   5
ATOM      5  C   UNL     1       9.719   3.808  54.850  1.00  0.00     0.059 C 
BRANCH   5   6
ATOM      6  C   UNL     1       9.647   5.252  55.243  1.00  0.00     0.042 C 
ATOM      7  O   UNL     1       9.264   5.576  56.399  1.00  0.00    -0.550 OA
ATOM      8  O   UNL     1       9.963   6.242  54.321  1.00  0.00    -0.550 OA
ENDBRANCH   5   6
ENDBRANCH   1   5
TORSDOF 3
ENDMDL
MODEL 6
REMARK VINA RESULT:    -3.488     17.055     18.994
REMARK INTER + INTRA:          -4.219
REMARK INTER:                  -4.051
REMARK INTRA:                  -0.168
REMARK UNBOUND:                -0.119
REMARK SMILES O=C([O-])CCC(=O)[O-]
REMARK SMILES IDX 4 1 2 2 1 3 3 4 5 5 6 6 7 7 8 8
REMARK H PARENT
REMARK Flexibility Score: inf
ROOT
ATOM      1  C   UNL     1       9.541   5.343  55.946  1.00  0.00     0.059 C 
ENDROOT
BRANCH   1   2
ATOM      2  C   UNL     1       9.941   6.522  55.113  1.00  0.00     0.042 C 
ATOM      3  O   UNL     1       9.186   6.938  54.196  1.00  0.00    -0.550 OA
ATOM      4  O   UNL     1      11.134   7.186  55.376  1.00  0.00    -0.550 OA
ENDBRANCH   1   2
BRANCH   1   5
ATOM      5  C   UNL     1       9.614   4.038  55.146  1.00  0.00     0.059 C 
BRANCH   5   6
ATOM      6  C   UNL     1      11.031   3.655  54.843  1.00  0.00     0.042 C 
ATOM      7  O   UNL     1      11.803   3.295  55.770  1.00  0.00    -0.550 OA
ATOM      8  O   UNL     1      11.510   3.735  53.541  1.00  0.00    -0.550 OA
ENDBRANCH   5   6
ENDBRANCH   1   5
TORSDOF 3
ENDMDL
MODEL 7
REMARK VINA RESULT:    -3.483     17.087     18.774
REMARK INTER + INTRA:          -4.213
REMARK INTER:                  -4.040
REMARK INTRA:                  -0.174
REMARK UNBOUND:                -0.119
REMARK SMILES O=C([O-])CCC(=O)[O-]
REMARK SMILES IDX 4 1 2 2 1 3 3 4 5 5 6 6 7 7 8 8
REMARK H PARENT
REMARK Flexibility Score: inf
ROOT
ATOM      1  C   UNL     1       9.584   4.079  55.237  1.00  0.00     0.059 C 
ENDROOT
BRANCH   1   2
ATOM      2  C   UNL     1      10.989   3.655  54.935  1.00  0.00     0.042 C 
ATOM      3  O   UNL     1      11.754   3.284  55.864  1.00  0.00    -0.550 OA
ATOM      4  O   UNL     1      11.441   3.634  53.622  1.00  0.00    -0.550 OA
ENDBRANCH   1   2
BRANCH   1   5
ATOM      5  C   UNL     1       9.548   5.409  55.997  1.00  0.00     0.059 C 
BRANCH   5   6
ATOM      6  C   UNL     1      10.025   6.546  55.146  1.00  0.00     0.042 C 
ATOM      7  O   UNL     1       9.345   6.925  54.156  1.00  0.00    -0.550 OA
ATOM      8  O   UNL     1      11.241   7.160  55.421  1.00  0.00    -0.550 OA
ENDBRANCH   5   6
ENDBRANCH   1   5
TORSDOF 3
ENDMDL
MODEL 8
REMARK VINA RESULT:    -3.435     16.404     18.141
REMARK INTER + INTRA:          -4.156
REMARK INTER:                  -3.980
REMARK INTRA:                  -0.176
REMARK UNBOUND:                -0.119
REMARK SMILES O=C([O-])CCC(=O)[O-]
REMARK SMILES IDX 4 1 2 2 1 3 3 4 5 5 6 6 7 7 8 8
REMARK H PARENT
REMARK Flexibility Score: inf
ROOT
ATOM      1  C   UNL     1      12.090   4.710  53.091  1.00  0.00     0.059 C 
ENDROOT
BRANCH   1   2
ATOM      2  C   UNL     1      12.385   4.083  54.419  1.00  0.00     0.042 C 
ATOM      3  O   UNL     1      11.522   3.365  54.989  1.00  0.00    -0.550 OA
ATOM      4  O   UNL     1      13.630   4.262  55.010  1.00  0.00    -0.550 OA
ENDBRANCH   1   2
BRANCH   1   5
ATOM      5  C   UNL     1      12.083   6.239  53.179  1.00  0.00     0.059 C 
BRANCH   5   6
ATOM      6  C   UNL     1      11.138   6.728  54.233  1.00  0.00     0.042 C 
ATOM      7  O   UNL     1       9.894   6.602  54.078  1.00  0.00    -0.550 OA
ATOM      8  O   UNL     1      11.628   7.362  55.369  1.00  0.00    -0.550 OA
ENDBRANCH   5   6
ENDBRANCH   1   5
TORSDOF 3
ENDMDL
MODEL 9
REMARK VINA RESULT:    -3.418     17.184     18.562
REMARK INTER + INTRA:          -4.136
REMARK INTER:                  -3.944
REMARK INTRA:                  -0.192
REMARK UNBOUND:                -0.119
REMARK SMILES O=C([O-])CCC(=O)[O-]
REMARK SMILES IDX 4 1 2 2 1 3 3 4 5 5 6 6 7 7 8 8
REMARK H PARENT
REMARK Flexibility Score: inf
ROOT
ATOM      1  C   UNL     1      12.214   4.847  55.049  1.00  0.00     0.059 C 
ENDROOT
BRANCH   1   2
ATOM      2  C   UNL     1      12.180   4.785  53.553  1.00  0.00     0.042 C 
ATOM      3  O   UNL     1      11.855   3.718  52.969  1.00  0.00    -0.550 OA
ATOM      4  O   UNL     1      12.471   5.918  52.803  1.00  0.00    -0.550 OA
ENDBRANCH   1   2
BRANCH   1   5
ATOM      5  C   UNL     1      11.258   5.916  55.590  1.00  0.00     0.059 C 
BRANCH   5   6
ATOM      6  C   UNL     1       9.839   5.636  55.199  1.00  0.00     0.042 C 
ATOM      7  O   UNL     1       9.180   6.491  54.551  1.00  0.00    -0.550 OA
ATOM      8  O   UNL     1       9.231   4.449  55.587  1.00  0.00    -0.550 OA
ENDBRANCH   5   6
ENDBRANCH   1   5
TORSDOF 3
ENDMDL
