MODEL 1
REMARK VINA RESULT:    -4.629      0.000      0.000
REMARK INTER + INTRA:          -7.312
REMARK INTER:                  -6.794
REMARK INTRA:                  -0.518
REMARK UNBOUND:                -0.518
REMARK SMILES O=C([O-])CCCCCCCC(=O)[O-]
REMARK SMILES IDX 7 1 6 2 5 3 4 4 2 5 1 6 3 7 8 8 9 9 10 10 11 11 12 12 13 13
REMARK H PARENT
REMARK Flexibility Score: inf
ROOT
ATOM      1  C   UNL     1      10.190  15.451  23.894  1.00  0.00     0.000 C 
ENDROOT
BRANCH   1   2
ATOM      2  C   UNL     1      11.058  15.211  22.654  1.00  0.00     0.000 C 
BRANCH   2   3
ATOM      3  C   UNL     1      10.497  15.957  21.437  1.00  0.00     0.006 C 
BRANCH   3   4
ATOM      4  C   UNL     1       9.785  14.993  20.484  1.00  0.00     0.053 C 
BRANCH   4   5
ATOM      5  C   UNL     1      10.685  14.620  19.348  1.00  0.00     0.041 C 
ATOM      6  O   UNL     1      11.249  15.515  18.666  1.00  0.00    -0.550 OA
ATOM      7  O   UNL     1      10.863  13.283  19.013  1.00  0.00    -0.550 OA
ENDBRANCH   4   5
ENDBRANCH   3   4
ENDBRANCH   2   3
ENDBRANCH   1   2
BRANCH   1   8
ATOM      8  C   UNL     1       9.534  14.147  24.368  1.00  0.00     0.000 C 
BRANCH   8   9
ATOM      9  C   UNL     1      10.157  12.932  23.669  1.00  0.00     0.006 C 
BRANCH   9  10
ATOM     10  C   UNL     1       9.158  11.774  23.589  1.00  0.00     0.053 C 
BRANCH  10  11
ATOM     11  C   UNL     1       9.596  10.643  24.466  1.00  0.00     0.041 C 
ATOM     12  O   UNL     1       9.903  10.855  25.668  1.00  0.00    -0.550 OA
ATOM     13  O   UNL     1       9.714   9.362  23.941  1.00  0.00    -0.550 OA
ENDBRANCH  10  11
ENDBRANCH   9  10
ENDBRANCH   8   9
ENDBRANCH   1   8
TORSDOF 8
ENDMDL
MODEL 2
REMARK VINA RESULT:    -4.596      0.813      5.624
REMARK INTER + INTRA:          -7.264
REMARK INTER:                  -6.713
REMARK INTRA:                  -0.551
REMARK UNBOUND:                -0.518
REMARK SMILES O=C([O-])CCCCCCCC(=O)[O-]
REMARK SMILES IDX 7 1 6 2 5 3 4 4 2 5 1 6 3 7 8 8 9 9 10 10 11 11 12 12 13 13
REMARK H PARENT
REMARK Flexibility Score: inf
ROOT
ATOM      1  C   UNL     1      10.352  14.841  23.668  1.00  0.00     0.000 C 
ENDROOT
BRANCH   1   2
ATOM      2  C   UNL     1      11.001  13.607  23.028  1.00  0.00     0.000 C 
BRANCH   2   3
ATOM      3  C   UNL     1      10.069  12.392  23.107  1.00  0.00     0.006 C 
BRANCH   3   4
ATOM      4  C   UNL     1       9.731  12.053  24.562  1.00  0.00     0.053 C 
BRANCH   4   5
ATOM      5  C   UNL     1       9.720  10.571  24.764  1.00  0.00     0.041 C 
ATOM      6  O   UNL     1       9.898   9.796  23.787  1.00  0.00    -0.550 OA
ATOM      7  O   UNL     1       9.466  10.043  26.024  1.00  0.00    -0.550 OA
ENDBRANCH   4   5
ENDBRANCH   3   4
ENDBRANCH   2   3
ENDBRANCH   1   2
BRANCH   1   8
ATOM      8  C   UNL     1       9.326  15.477  22.720  1.00  0.00     0.000 C 
BRANCH   8   9
ATOM      9  C   UNL     1      10.005  16.011  21.453  1.00  0.00     0.006 C 
BRANCH   9  10
ATOM     10  C   UNL     1       9.383  15.394  20.197  1.00  0.00     0.053 C 
BRANCH  10  11
ATOM     11  C   UNL     1      10.421  14.662  19.405  1.00  0.00     0.041 C 
ATOM     12  O   UNL     1      10.556  13.418  19.534  1.00  0.00    -0.550 OA
ATOM     13  O   UNL     1      11.273  15.363  18.560  1.00  0.00    -0.550 OA
ENDBRANCH  10  11
ENDBRANCH   9  10
ENDBRANCH   8   9
ENDBRANCH   1   8
TORSDOF 8
ENDMDL
MODEL 3
REMARK VINA RESULT:    -4.472      0.803      5.505
REMARK INTER + INTRA:          -7.082
REMARK INTER:                  -6.488
REMARK INTRA:                  -0.594
REMARK UNBOUND:                -0.518
REMARK SMILES O=C([O-])CCCCCCCC(=O)[O-]
REMARK SMILES IDX 7 1 6 2 5 3 4 4 2 5 1 6 3 7 8 8 9 9 10 10 11 11 12 12 13 13
REMARK H PARENT
REMARK Flexibility Score: inf
ROOT
ATOM      1  C   UNL     1      10.128  14.482  23.606  1.00  0.00     0.000 C 
ENDROOT
BRANCH   1   2
ATOM      2  C   UNL     1      10.322  12.971  23.781  1.00  0.00     0.000 C 
BRANCH   2   3
ATOM      3  C   UNL     1       9.079  12.200  23.320  1.00  0.00     0.006 C 
BRANCH   3   4
ATOM      4  C   UNL     1       8.465  11.408  24.477  1.00  0.00     0.053 C 
BRANCH   4   5
ATOM      5  C   UNL     1       9.327  10.235  24.824  1.00  0.00     0.041 C 
ATOM      6  O   UNL     1       9.524   9.927  26.029  1.00  0.00    -0.550 OA
ATOM      7  O   UNL     1       9.952   9.510  23.816  1.00  0.00    -0.550 OA
ENDBRANCH   4   5
ENDBRANCH   3   4
ENDBRANCH   2   3
ENDBRANCH   1   2
BRANCH   1   8
ATOM      8  C   UNL     1      11.179  15.065  22.652  1.00  0.00     0.000 C 
BRANCH   8   9
ATOM      9  C   UNL     1      10.516  15.867  21.526  1.00  0.00     0.006 C 
BRANCH   9  10
ATOM     10  C   UNL     1       9.543  14.992  20.730  1.00  0.00     0.053 C 
BRANCH  10  11
ATOM     11  C   UNL     1      10.294  14.040  19.852  1.00  0.00     0.041 C 
ATOM     12  O   UNL     1      10.963  14.471  18.877  1.00  0.00    -0.550 OA
ATOM     13  O   UNL     1      10.214  12.673  20.082  1.00  0.00    -0.550 OA
ENDBRANCH  10  11
ENDBRANCH   9  10
ENDBRANCH   8   9
ENDBRANCH   1   8
TORSDOF 8
ENDMDL
MODEL 4
REMARK VINA RESULT:    -4.449      3.386      5.166
REMARK INTER + INTRA:          -7.048
REMARK INTER:                  -6.614
REMARK INTRA:                  -0.434
REMARK UNBOUND:                -0.518
REMARK SMILES O=C([O-])CCCCCCCC(=O)[O-]
REMARK SMILES IDX 7 1 6 2 5 3 4 4 2 5 1 6 3 7 8 8 9 9 10 10 11 11 12 12 13 13
REMARK H PARENT
REMARK Flexibility Score: inf
ROOT
ATOM      1  C   UNL     1      10.693  14.432  23.651  1.00  0.00     0.000 C 
ENDROOT
BRANCH   1   2
ATOM      2  C   UNL     1      10.640  15.916  24.033  1.00  0.00     0.000 C 
BRANCH   2   3
ATOM      3  C   UNL     1      10.462  16.797  22.792  1.00  0.00     0.006 C 
BRANCH   3   4
ATOM      4  C   UNL     1      11.533  17.892  22.738  1.00  0.00     0.053 C 
BRANCH   4   5
ATOM      5  C   UNL     1      10.915  19.238  22.953  1.00  0.00     0.041 C 
ATOM      6  O   UNL     1      11.602  20.182  23.425  1.00  0.00    -0.550 OA
ATOM      7  O   UNL     1       9.569  19.437  22.676  1.00  0.00    -0.550 OA
ENDBRANCH   4   5
ENDBRANCH   3   4
ENDBRANCH   2   3
ENDBRANCH   1   2
BRANCH   1   8
ATOM      8  C   UNL     1      11.044  14.257  22.168  1.00  0.00     0.000 C 
BRANCH   8   9
ATOM      9  C   UNL     1      10.080  13.279  21.486  1.00  0.00     0.006 C 
BRANCH   9  10
ATOM     10  C   UNL     1      10.196  13.369  19.962  1.00  0.00     0.053 C 
BRANCH  10  11
ATOM     11  C   UNL     1      10.069  14.790  19.510  1.00  0.00     0.041 C 
ATOM     12  O   UNL     1       9.052  15.465  19.818  1.00  0.00    -0.550 OA
ATOM     13  O   UNL     1      11.051  15.354  18.706  1.00  0.00    -0.550 OA
ENDBRANCH  10  11
ENDBRANCH   9  10
ENDBRANCH   8   9
ENDBRANCH   1   8
TORSDOF 8
ENDMDL
MODEL 5
REMARK VINA RESULT:    -4.412      1.643      4.978
REMARK INTER + INTRA:          -6.993
REMARK INTER:                  -6.312
REMARK INTRA:                  -0.681
REMARK UNBOUND:                -0.518
REMARK SMILES O=C([O-])CCCCCCCC(=O)[O-]
REMARK SMILES IDX 7 1 6 2 5 3 4 4 2 5 1 6 3 7 8 8 9 9 10 10 11 11 12 12 13 13
REMARK H PARENT
REMARK Flexibility Score: inf
ROOT
ATOM      1  C   UNL     1      10.933  16.219  23.718  1.00  0.00     0.000 C 
ENDROOT
BRANCH   1   2
ATOM      2  C   UNL     1      10.302  15.477  24.902  1.00  0.00     0.000 C 
BRANCH   2   3
ATOM      3  C   UNL     1       9.656  14.163  24.447  1.00  0.00     0.006 C 
BRANCH   3   4
ATOM      4  C   UNL     1      10.608  13.365  23.551  1.00  0.00     0.053 C 
BRANCH   4   5
ATOM      5  C   UNL     1       9.834  12.501  22.605  1.00  0.00     0.041 C 
ATOM      6  O   UNL     1       8.903  11.769  23.032  1.00  0.00    -0.550 OA
ATOM      7  O   UNL     1      10.175  12.467  21.258  1.00  0.00    -0.550 OA
ENDBRANCH   4   5
ENDBRANCH   3   4
ENDBRANCH   2   3
ENDBRANCH   1   2
BRANCH   1   8
ATOM      8  C   UNL     1       9.966  17.264  23.145  1.00  0.00     0.000 C 
BRANCH   8   9
ATOM      9  C   UNL     1      10.029  17.290  21.613  1.00  0.00     0.006 C 
BRANCH   9  10
ATOM     10  C   UNL     1      10.831  16.101  21.077  1.00  0.00     0.053 C 
BRANCH  10  11
ATOM     11  C   UNL     1      10.219  15.584  19.813  1.00  0.00     0.041 C 
ATOM     12  O   UNL     1       8.970  15.468  19.714  1.00  0.00    -0.550 OA
ATOM     13  O   UNL     1      11.033  15.184  18.760  1.00  0.00    -0.550 OA
ENDBRANCH  10  11
ENDBRANCH   9  10
ENDBRANCH   8   9
ENDBRANCH   1   8
TORSDOF 8
ENDMDL
MODEL 6
REMARK VINA RESULT:    -4.383      3.473      5.396
REMARK INTER + INTRA:          -6.952
REMARK INTER:                  -6.334
REMARK INTRA:                  -0.618
REMARK UNBOUND:                -0.518
REMARK SMILES O=C([O-])CCCCCCCC(=O)[O-]
REMARK SMILES IDX 7 1 6 2 5 3 4 4 2 5 1 6 3 7 8 8 9 9 10 10 11 11 12 12 13 13
REMARK H PARENT
REMARK Flexibility Score: inf
ROOT
ATOM      1  C   UNL     1      10.633  15.194  23.606  1.00  0.00     0.000 C 
ENDROOT
BRANCH   1   2
ATOM      2  C   UNL     1      11.182  14.453  22.380  1.00  0.00     0.000 C 
BRANCH   2   3
ATOM      3  C   UNL     1      10.075  13.658  21.678  1.00  0.00     0.006 C 
BRANCH   3   4
ATOM      4  C   UNL     1      10.368  13.516  20.181  1.00  0.00     0.053 C 
BRANCH   4   5
ATOM      5  C   UNL     1      10.175  14.826  19.484  1.00  0.00     0.041 C 
ATOM      6  O   UNL     1      11.050  15.253  18.684  1.00  0.00    -0.550 OA
ATOM      7  O   UNL     1       9.053  15.598  19.753  1.00  0.00    -0.550 OA
ENDBRANCH   4   5
ENDBRANCH   3   4
ENDBRANCH   2   3
ENDBRANCH   1   2
BRANCH   1   8
ATOM      8  C   UNL     1       9.894  16.473  23.191  1.00  0.00     0.000 C 
BRANCH   8   9
ATOM      9  C   UNL     1      10.754  17.325  22.250  1.00  0.00     0.006 C 
BRANCH   9  10
ATOM     10  C   UNL     1      10.786  18.786  22.708  1.00  0.00     0.053 C 
BRANCH  10  11
ATOM     11  C   UNL     1       9.456  19.434  22.483  1.00  0.00     0.041 C 
ATOM     12  O   UNL     1       8.941  20.151  23.379  1.00  0.00    -0.550 OA
ATOM     13  O   UNL     1       8.762  19.205  21.301  1.00  0.00    -0.550 OA
ENDBRANCH  10  11
ENDBRANCH   9  10
ENDBRANCH   8   9
ENDBRANCH   1   8
TORSDOF 8
ENDMDL
MODEL 7
REMARK VINA RESULT:    -4.311      3.328      4.767
REMARK INTER + INTRA:          -6.846
REMARK INTER:                  -6.136
REMARK INTRA:                  -0.710
REMARK UNBOUND:                -0.518
REMARK SMILES O=C([O-])CCCCCCCC(=O)[O-]
REMARK SMILES IDX 7 1 6 2 5 3 4 4 2 5 1 6 3 7 8 8 9 9 10 10 11 11 12 12 13 13
REMARK H PARENT
REMARK Flexibility Score: inf
ROOT
ATOM      1  C   UNL     1      10.558  14.173  23.686  1.00  0.00     0.000 C 
ENDROOT
BRANCH   1   2
ATOM      2  C   UNL     1      10.717  13.104  22.599  1.00  0.00     0.000 C 
BRANCH   2   3
ATOM      3  C   UNL     1       9.707  13.317  21.466  1.00  0.00     0.006 C 
BRANCH   3   4
ATOM      4  C   UNL     1      10.418  13.459  20.117  1.00  0.00     0.053 C 
BRANCH   4   5
ATOM      5  C   UNL     1      10.197  14.826  19.551  1.00  0.00     0.041 C 
ATOM      6  O   UNL     1       9.144  15.462  19.821  1.00  0.00    -0.550 OA
ATOM      7  O   UNL     1      11.132  15.379  18.685  1.00  0.00    -0.550 OA
ENDBRANCH   4   5
ENDBRANCH   3   4
ENDBRANCH   2   3
ENDBRANCH   1   2
BRANCH   1   8
ATOM      8  C   UNL     1       9.238  14.936  23.520  1.00  0.00     0.000 C 
BRANCH   8   9
ATOM      9  C   UNL     1       9.475  16.451  23.506  1.00  0.00     0.006 C 
BRANCH   9  10
ATOM     10  C   UNL     1      10.970  16.772  23.590  1.00  0.00     0.053 C 
BRANCH  10  11
ATOM     11  C   UNL     1      11.320  17.883  22.650  1.00  0.00     0.041 C 
ATOM     12  O   UNL     1      11.299  17.691  21.406  1.00  0.00    -0.550 OA
ATOM     13  O   UNL     1      11.719  19.117  23.149  1.00  0.00    -0.550 OA
ENDBRANCH  10  11
ENDBRANCH   9  10
ENDBRANCH   8   9
ENDBRANCH   1   8
TORSDOF 8
ENDMDL
MODEL 8
REMARK VINA RESULT:    -4.131      4.229      6.127
REMARK INTER + INTRA:          -6.581
REMARK INTER:                  -6.057
REMARK INTRA:                  -0.524
REMARK UNBOUND:                -0.518
REMARK SMILES O=C([O-])CCCCCCCC(=O)[O-]
REMARK SMILES IDX 7 1 6 2 5 3 4 4 2 5 1 6 3 7 8 8 9 9 10 10 11 11 12 12 13 13
REMARK H PARENT
REMARK Flexibility Score: inf
ROOT
ATOM      1  C   UNL     1      10.948  18.009  22.058  1.00  0.00     0.000 C 
ENDROOT
BRANCH   1   2
ATOM      2  C   UNL     1      11.253  16.684  22.765  1.00  0.00     0.000 C 
BRANCH   2   3
ATOM      3  C   UNL     1      10.300  15.578  22.296  1.00  0.00     0.006 C 
BRANCH   3   4
ATOM      4  C   UNL     1      10.906  14.790  21.130  1.00  0.00     0.053 C 
BRANCH   4   5
ATOM      5  C   UNL     1      10.272  15.198  19.838  1.00  0.00     0.041 C 
ATOM      6  O   UNL     1       9.053  15.515  19.802  1.00  0.00    -0.550 OA
ATOM      7  O   UNL     1      11.014  15.181  18.664  1.00  0.00    -0.550 OA
ENDBRANCH   4   5
ENDBRANCH   3   4
ENDBRANCH   2   3
ENDBRANCH   1   2
BRANCH   1   8
ATOM      8  C   UNL     1       9.499  18.448  22.310  1.00  0.00     0.000 C 
BRANCH   8   9
ATOM      9  C   UNL     1       9.370  19.975  22.261  1.00  0.00     0.006 C 
BRANCH   9  10
ATOM     10  C   UNL     1      10.339  20.639  23.244  1.00  0.00     0.053 C 
BRANCH  10  11
ATOM     11  C   UNL     1       9.912  20.379  24.655  1.00  0.00     0.041 C 
ATOM     12  O   UNL     1      10.710  19.851  25.472  1.00  0.00    -0.550 OA
ATOM     13  O   UNL     1       8.615  20.676  25.055  1.00  0.00    -0.550 OA
ENDBRANCH  10  11
ENDBRANCH   9  10
ENDBRANCH   8   9
ENDBRANCH   1   8
TORSDOF 8
ENDMDL
MODEL 9
REMARK VINA RESULT:    -4.092      2.885      5.360
REMARK INTER + INTRA:          -6.525
REMARK INTER:                  -5.939
REMARK INTRA:                  -0.586
REMARK UNBOUND:                -0.518
REMARK SMILES O=C([O-])CCCCCCCC(=O)[O-]
REMARK SMILES IDX 7 1 6 2 5 3 4 4 2 5 1 6 3 7 8 8 9 9 10 10 11 11 12 12 13 13
REMARK H PARENT
REMARK Flexibility Score: inf
ROOT
ATOM      1  C   UNL     1       9.441  12.400  23.624  1.00  0.00     0.000 C 
ENDROOT
BRANCH   1   2
ATOM      2  C   UNL     1       8.508  13.580  23.919  1.00  0.00     0.000 C 
BRANCH   2   3
ATOM      3  C   UNL     1       9.075  14.465  25.035  1.00  0.00     0.006 C 
BRANCH   3   4
ATOM      4  C   UNL     1       9.233  15.913  24.560  1.00  0.00     0.053 C 
BRANCH   4   5
ATOM      5  C   UNL     1      10.607  16.418  24.871  1.00  0.00     0.041 C 
ATOM      6  O   UNL     1      10.957  16.609  26.066  1.00  0.00    -0.550 OA
ATOM      7  O   UNL     1      11.484  16.726  23.839  1.00  0.00    -0.550 OA
ENDBRANCH   4   5
ENDBRANCH   3   4
ENDBRANCH   2   3
ENDBRANCH   1   2
BRANCH   1   8
ATOM      8  C   UNL     1      10.669  12.855  22.825  1.00  0.00     0.000 C 
BRANCH   8   9
ATOM      9  C   UNL     1      10.274  13.282  21.406  1.00  0.00     0.006 C 
BRANCH   9  10
ATOM     10  C   UNL     1      10.849  14.661  21.069  1.00  0.00     0.053 C 
BRANCH  10  11
ATOM     11  C   UNL     1      10.248  15.184  19.802  1.00  0.00     0.041 C 
ATOM     12  O   UNL     1       9.045  15.552  19.776  1.00  0.00    -0.550 OA
ATOM     13  O   UNL     1      11.003  15.218  18.636  1.00  0.00    -0.550 OA
ENDBRANCH  10  11
ENDBRANCH   9  10
ENDBRANCH   8   9
ENDBRANCH   1   8
TORSDOF 8
ENDMDL
