MODEL 1
REMARK VINA RESULT:    -6.244      0.000      0.000
REMARK INTER + INTRA:          -6.244
REMARK INTER:                  -6.244
REMARK INTRA:                   0.000
REMARK UNBOUND:                 0.000
REMARK SMILES CC1=CC(=O)[C@@H]2C[C@H]1C2(C)C
REMARK SMILES IDX 1 1 2 2 3 3 4 4 5 5 6 6 7 7 8 8 9 9 10 10 11 11
REMARK H PARENT
REMARK Flexibility Score: inf
ROOT
ATOM      1  C   UNL     1      29.177  15.454  27.524  1.00  0.00     0.040 C 
ATOM      2  C   UNL     1      30.422  16.194  27.902  1.00  0.00    -0.066 C 
ATOM      3  C   UNL     1      31.632  15.568  27.947  1.00  0.00     0.047 C 
ATOM      4  C   UNL     1      32.807  16.424  28.310  1.00  0.00     0.159 C 
ATOM      5  O   UNL     1      33.981  15.973  28.347  1.00  0.00    -0.295 OA
ATOM      6  C   UNL     1      32.480  17.883  28.632  1.00  0.00     0.067 C 
ATOM      7  C   UNL     1      31.250  17.798  29.562  1.00  0.00     0.021 C 
ATOM      8  C   UNL     1      30.396  17.690  28.279  1.00  0.00     0.022 C 
ATOM      9  C   UNL     1      31.536  18.434  27.525  1.00  0.00    -0.019 C 
ATOM     10  C   UNL     1      31.381  19.975  27.595  1.00  0.00     0.012 C 
ATOM     11  C   UNL     1      31.819  18.039  26.048  1.00  0.00     0.012 C 
ENDROOT
TORSDOF 0
ENDMDL
MODEL 2
REMARK VINA RESULT:    -5.829      1.912      2.829
REMARK INTER + INTRA:          -5.829
REMARK INTER:                  -5.829
REMARK INTRA:                   0.000
REMARK UNBOUND:                 0.000
REMARK SMILES CC1=CC(=O)[C@@H]2C[C@H]1C2(C)C
REMARK SMILES IDX 1 1 2 2 3 3 4 4 5 5 6 6 7 7 8 8 9 9 10 10 11 11
REMARK H PARENT
REMARK Flexibility Score: inf
ROOT
ATOM      1  C   UNL     1      28.728  14.875  28.121  1.00  0.00     0.040 C 
ATOM      2  C   UNL     1      29.839  15.730  27.598  1.00  0.00    -0.066 C 
ATOM      3  C   UNL     1      29.664  16.533  26.512  1.00  0.00     0.047 C 
ATOM      4  C   UNL     1      30.844  17.363  26.105  1.00  0.00     0.159 C 
ATOM      5  O   UNL     1      30.795  18.173  25.143  1.00  0.00    -0.295 OA
ATOM      6  C   UNL     1      32.108  17.159  26.940  1.00  0.00     0.067 C 
ATOM      7  C   UNL     1      32.232  15.625  27.069  1.00  0.00     0.021 C 
ATOM      8  C   UNL     1      31.239  15.731  28.248  1.00  0.00     0.022 C 
ATOM      9  C   UNL     1      31.718  17.198  28.445  1.00  0.00    -0.019 C 
ATOM     10  C   UNL     1      32.956  17.295  29.373  1.00  0.00     0.012 C 
ATOM     11  C   UNL     1      30.676  18.254  28.911  1.00  0.00     0.012 C 
ENDROOT
TORSDOF 0
ENDMDL
MODEL 3
REMARK VINA RESULT:    -5.461      1.771      2.964
REMARK INTER + INTRA:          -5.461
REMARK INTER:                  -5.461
REMARK INTRA:                   0.000
REMARK UNBOUND:                 0.000
REMARK SMILES CC1=CC(=O)[C@@H]2C[C@H]1C2(C)C
REMARK SMILES IDX 1 1 2 2 3 3 4 4 5 5 6 6 7 7 8 8 9 9 10 10 11 11
REMARK H PARENT
REMARK Flexibility Score: inf
ROOT
ATOM      1  C   UNL     1      31.485  17.895  24.654  1.00  0.00     0.040 C 
ATOM      2  C   UNL     1      31.143  17.527  26.063  1.00  0.00    -0.066 C 
ATOM      3  C   UNL     1      30.185  16.598  26.340  1.00  0.00     0.047 C 
ATOM      4  C   UNL     1      29.956  16.295  27.789  1.00  0.00     0.159 C 
ATOM      5  O   UNL     1      29.127  15.428  28.171  1.00  0.00    -0.295 OA
ATOM      6  C   UNL     1      30.798  17.111  28.770  1.00  0.00     0.067 C 
ATOM      7  C   UNL     1      30.696  18.559  28.242  1.00  0.00     0.021 C 
ATOM      8  C   UNL     1      31.838  18.192  27.269  1.00  0.00     0.022 C 
ATOM      9  C   UNL     1      32.275  17.097  28.284  1.00  0.00    -0.019 C 
ATOM     10  C   UNL     1      33.254  17.642  29.356  1.00  0.00     0.012 C 
ATOM     11  C   UNL     1      32.856  15.767  27.725  1.00  0.00     0.012 C 
ENDROOT
TORSDOF 0
ENDMDL
MODEL 4
REMARK VINA RESULT:    -5.430      1.714      2.995
REMARK INTER + INTRA:          -5.430
REMARK INTER:                  -5.430
REMARK INTRA:                   0.000
REMARK UNBOUND:                 0.000
REMARK SMILES CC1=CC(=O)[C@@H]2C[C@H]1C2(C)C
REMARK SMILES IDX 1 1 2 2 3 3 4 4 5 5 6 6 7 7 8 8 9 9 10 10 11 11
REMARK H PARENT
REMARK Flexibility Score: inf
ROOT
ATOM      1  C   UNL     1      33.796  15.656  28.597  1.00  0.00     0.040 C 
ATOM      2  C   UNL     1      32.509  16.175  28.038  1.00  0.00    -0.066 C 
ATOM      3  C   UNL     1      31.396  15.391  27.978  1.00  0.00     0.047 C 
ATOM      4  C   UNL     1      30.161  16.036  27.426  1.00  0.00     0.159 C 
ATOM      5  O   UNL     1      29.061  15.429  27.354  1.00  0.00    -0.295 OA
ATOM      6  C   UNL     1      30.331  17.482  26.957  1.00  0.00     0.067 C 
ATOM      7  C   UNL     1      31.642  17.463  26.140  1.00  0.00     0.021 C 
ATOM      8  C   UNL     1      32.382  17.611  27.488  1.00  0.00     0.022 C 
ATOM      9  C   UNL     1      31.094  18.272  28.058  1.00  0.00    -0.019 C 
ATOM     10  C   UNL     1      31.060  19.803  27.816  1.00  0.00     0.012 C 
ATOM     11  C   UNL     1      30.728  18.006  29.546  1.00  0.00     0.012 C 
ENDROOT
TORSDOF 0
ENDMDL
MODEL 5
REMARK VINA RESULT:    -5.067      1.731      2.966
REMARK INTER + INTRA:          -5.067
REMARK INTER:                  -5.067
REMARK INTRA:                   0.000
REMARK UNBOUND:                 0.000
REMARK SMILES CC1=CC(=O)[C@@H]2C[C@H]1C2(C)C
REMARK SMILES IDX 1 1 2 2 3 3 4 4 5 5 6 6 7 7 8 8 9 9 10 10 11 11
REMARK H PARENT
REMARK Flexibility Score: inf
ROOT
ATOM      1  C   UNL     1      33.818  15.802  28.679  1.00  0.00     0.040 C 
ATOM      2  C   UNL     1      32.789  16.839  28.358  1.00  0.00    -0.066 C 
ATOM      3  C   UNL     1      33.138  18.136  28.127  1.00  0.00     0.047 C 
ATOM      4  C   UNL     1      32.020  19.073  27.786  1.00  0.00     0.159 C 
ATOM      5  O   UNL     1      32.218  20.285  27.513  1.00  0.00    -0.295 OA
ATOM      6  C   UNL     1      30.622  18.453  27.791  1.00  0.00     0.067 C 
ATOM      7  C   UNL     1      30.583  17.620  29.091  1.00  0.00     0.021 C 
ATOM      8  C   UNL     1      31.285  16.500  28.292  1.00  0.00     0.022 C 
ATOM      9  C   UNL     1      30.671  17.114  27.001  1.00  0.00    -0.019 C 
ATOM     10  C   UNL     1      29.257  16.556  26.697  1.00  0.00     0.012 C 
ATOM     11  C   UNL     1      31.509  17.060  25.692  1.00  0.00     0.012 C 
ENDROOT
TORSDOF 0
ENDMDL
MODEL 6
REMARK VINA RESULT:    -4.866      1.914      3.584
REMARK INTER + INTRA:          -4.866
REMARK INTER:                  -4.866
REMARK INTRA:                   0.000
REMARK UNBOUND:                 0.000
REMARK SMILES CC1=CC(=O)[C@@H]2C[C@H]1C2(C)C
REMARK SMILES IDX 1 1 2 2 3 3 4 4 5 5 6 6 7 7 8 8 9 9 10 10 11 11
REMARK H PARENT
REMARK Flexibility Score: inf
ROOT
ATOM      1  C   UNL     1      31.602  17.461  23.945  1.00  0.00     0.040 C 
ATOM      2  C   UNL     1      31.372  17.515  25.422  1.00  0.00    -0.066 C 
ATOM      3  C   UNL     1      31.160  18.698  26.064  1.00  0.00     0.047 C 
ATOM      4  C   UNL     1      30.912  18.617  27.539  1.00  0.00     0.159 C 
ATOM      5  O   UNL     1      30.665  19.635  28.236  1.00  0.00    -0.295 OA
ATOM      6  C   UNL     1      30.978  17.211  28.138  1.00  0.00     0.067 C 
ATOM      7  C   UNL     1      32.252  16.596  27.519  1.00  0.00     0.021 C 
ATOM      8  C   UNL     1      31.381  16.241  26.294  1.00  0.00     0.022 C 
ATOM      9  C   UNL     1      30.146  16.252  27.240  1.00  0.00    -0.019 C 
ATOM     10  C   UNL     1      29.905  14.875  27.911  1.00  0.00     0.012 C 
ATOM     11  C   UNL     1      28.790  16.761  26.673  1.00  0.00     0.012 C 
ENDROOT
TORSDOF 0
ENDMDL
MODEL 7
REMARK VINA RESULT:    -4.743      2.805      4.189
REMARK INTER + INTRA:          -4.743
REMARK INTER:                  -4.743
REMARK INTRA:                   0.000
REMARK UNBOUND:                 0.000
REMARK SMILES CC1=CC(=O)[C@@H]2C[C@H]1C2(C)C
REMARK SMILES IDX 1 1 2 2 3 3 4 4 5 5 6 6 7 7 8 8 9 9 10 10 11 11
REMARK H PARENT
REMARK Flexibility Score: inf
ROOT
ATOM      1  C   UNL     1      31.393  20.531  23.756  1.00  0.00     0.040 C 
ATOM      2  C   UNL     1      31.798  20.364  25.186  1.00  0.00    -0.066 C 
ATOM      3  C   UNL     1      31.784  19.142  25.789  1.00  0.00     0.047 C 
ATOM      4  C   UNL     1      32.240  19.102  27.215  1.00  0.00     0.159 C 
ATOM      5  O   UNL     1      32.309  18.028  27.868  1.00  0.00    -0.295 OA
ATOM      6  C   UNL     1      32.616  20.454  27.822  1.00  0.00     0.067 C 
ATOM      7  C   UNL     1      31.470  21.395  27.387  1.00  0.00     0.021 C 
ATOM      8  C   UNL     1      32.231  21.564  26.054  1.00  0.00     0.022 C 
ATOM      9  C   UNL     1      33.538  21.206  26.819  1.00  0.00    -0.019 C 
ATOM     10  C   UNL     1      34.210  22.450  27.455  1.00  0.00     0.012 C 
ATOM     11  C   UNL     1      34.630  20.393  26.067  1.00  0.00     0.012 C 
ENDROOT
TORSDOF 0
ENDMDL
MODEL 8
REMARK VINA RESULT:    -4.569      0.922      3.144
REMARK INTER + INTRA:          -4.569
REMARK INTER:                  -4.569
REMARK INTRA:                   0.000
REMARK UNBOUND:                 0.000
REMARK SMILES CC1=CC(=O)[C@@H]2C[C@H]1C2(C)C
REMARK SMILES IDX 1 1 2 2 3 3 4 4 5 5 6 6 7 7 8 8 9 9 10 10 11 11
REMARK H PARENT
REMARK Flexibility Score: inf
ROOT
ATOM      1  C   UNL     1      31.213  20.034  27.875  1.00  0.00     0.040 C 
ATOM      2  C   UNL     1      31.489  18.578  27.671  1.00  0.00    -0.066 C 
ATOM      3  C   UNL     1      32.553  17.969  28.264  1.00  0.00     0.047 C 
ATOM      4  C   UNL     1      32.704  16.500  28.006  1.00  0.00     0.159 C 
ATOM      5  O   UNL     1      33.623  15.818  28.528  1.00  0.00    -0.295 OA
ATOM      6  C   UNL     1      31.663  15.890  27.066  1.00  0.00     0.067 C 
ATOM      7  C   UNL     1      31.581  16.892  25.893  1.00  0.00     0.021 C 
ATOM      8  C   UNL     1      30.597  17.701  26.767  1.00  0.00     0.022 C 
ATOM      9  C   UNL     1      30.253  16.376  27.507  1.00  0.00    -0.019 C 
ATOM     10  C   UNL     1      29.114  15.590  26.810  1.00  0.00     0.012 C 
ATOM     11  C   UNL     1      29.938  16.445  29.028  1.00  0.00     0.012 C 
ENDROOT
TORSDOF 0
ENDMDL
MODEL 9
REMARK VINA RESULT:    -4.193      2.188      3.978
REMARK INTER + INTRA:          -4.193
REMARK INTER:                  -4.193
REMARK INTRA:                   0.000
REMARK UNBOUND:                 0.000
REMARK SMILES CC1=CC(=O)[C@@H]2C[C@H]1C2(C)C
REMARK SMILES IDX 1 1 2 2 3 3 4 4 5 5 6 6 7 7 8 8 9 9 10 10 11 11
REMARK H PARENT
REMARK Flexibility Score: inf
ROOT
ATOM      1  C   UNL     1      33.976  21.233  26.930  1.00  0.00     0.040 C 
ATOM      2  C   UNL     1      32.874  20.222  26.942  1.00  0.00    -0.066 C 
ATOM      3  C   UNL     1      32.471  19.599  25.799  1.00  0.00     0.047 C 
ATOM      4  C   UNL     1      31.379  18.583  25.947  1.00  0.00     0.159 C 
ATOM      5  O   UNL     1      30.948  17.914  24.972  1.00  0.00    -0.295 OA
ATOM      6  C   UNL     1      30.827  18.417  27.363  1.00  0.00     0.067 C 
ATOM      7  C   UNL     1      30.630  19.865  27.864  1.00  0.00     0.021 C 
ATOM      8  C   UNL     1      32.128  19.847  28.240  1.00  0.00     0.022 C 
ATOM      9  C   UNL     1      32.024  18.298  28.349  1.00  0.00    -0.019 C 
ATOM     10  C   UNL     1      31.582  17.835  29.761  1.00  0.00     0.012 C 
ATOM     11  C   UNL     1      33.253  17.447  27.920  1.00  0.00     0.012 C 
ENDROOT
TORSDOF 0
ENDMDL
