MODEL 1
REMARK VINA RESULT:    -7.528      0.000      0.000
REMARK INTER + INTRA:          -9.378
REMARK INTER:                  -9.069
REMARK INTRA:                  -0.309
REMARK UNBOUND:                -0.309
REMARK SMILES O=c1c(O)c(-c2ccc(O)c(O)c2)oc2cc(O)cc(O)c12
REMARK SMILES IDX 5 1 3 2 2 3 1 4 22 5 20 6 19 7 17 8 16 9 15 10 14 11 6 12
REMARK SMILES IDX 7 13 8 14 9 15 13 16 11 17 10 18 12 20 4 22 21 24 18 26
REMARK H PARENT 10 19 12 21 4 23 21 25 18 27
REMARK Flexibility Score: inf
ROOT
ATOM      1  C   UNL     1      10.638  38.934  22.618  1.00  0.00     0.180 A 
ATOM      2  C   UNL     1      11.807  38.437  22.014  1.00  0.00     0.208 A 
ATOM      3  C   UNL     1      12.162  38.899  20.736  1.00  0.00     0.238 A 
ATOM      4  O   UNL     1      13.237  38.491  20.223  1.00  0.00    -0.285 OA
ATOM      5  C   UNL     1      11.338  39.839  20.072  1.00  0.00     0.111 A 
ATOM      6  C   UNL     1      11.579  40.344  18.759  1.00  0.00     0.134 A 
ATOM      7  C   UNL     1      10.769  41.369  18.254  1.00  0.00     0.093 A 
ATOM      8  C   UNL     1       9.686  41.859  18.987  1.00  0.00     0.123 A 
ATOM      9  C   UNL     1       9.406  41.329  20.244  1.00  0.00     0.094 A 
ATOM     10  C   UNL     1      10.218  40.333  20.791  1.00  0.00     0.146 A 
ATOM     11  O   UNL     1       9.922  39.864  21.997  1.00  0.00    -0.452 OA
ENDROOT
BRANCH   1  12
ATOM     12  C   UNL     1      10.186  38.477  23.951  1.00  0.00     0.025 A 
ATOM     13  C   UNL     1       9.468  37.279  24.063  1.00  0.00     0.016 A 
ATOM     14  C   UNL     1       9.049  36.818  25.312  1.00  0.00     0.051 A 
ATOM     15  C   UNL     1       9.353  37.535  26.475  1.00  0.00     0.157 A 
ATOM     16  C   UNL     1      10.513  39.188  25.118  1.00  0.00     0.062 A 
ATOM     17  C   UNL     1      10.101  38.733  26.378  1.00  0.00     0.158 A 
BRANCH  15  18
ATOM     18  O   UNL     1       8.899  37.025  27.693  1.00  0.00    -0.504 OA
ATOM     19  H   UNL     1       8.589  36.072  27.826  1.00  0.00     0.293 HD
ENDBRANCH  15  18
BRANCH  17  20
ATOM     20  O   UNL     1      10.458  39.490  27.495  1.00  0.00    -0.504 OA
ATOM     21  H   UNL     1      10.965  39.124  28.287  1.00  0.00     0.293 HD
ENDBRANCH  17  20
ENDBRANCH   1  12
BRANCH   2  22
ATOM     22  O   UNL     1      12.618  37.526  22.696  1.00  0.00    -0.502 OA
ATOM     23  H   UNL     1      12.971  36.681  22.263  1.00  0.00     0.293 HD
ENDBRANCH   2  22
BRANCH   6  24
ATOM     24  O   UNL     1      12.578  39.860  17.908  1.00  0.00    -0.507 OA
ATOM     25  H   UNL     1      13.405  40.374  17.644  1.00  0.00     0.293 HD
ENDBRANCH   6  24
BRANCH   8  26
ATOM     26  O   UNL     1       8.875  42.867  18.470  1.00  0.00    -0.508 OA
ATOM     27  H   UNL     1       8.566  43.644  19.042  1.00  0.00     0.293 HD
ENDBRANCH   8  26
TORSDOF 6
ENDMDL
MODEL 2
REMARK VINA RESULT:    -7.116      5.691      7.982
REMARK INTER + INTRA:          -8.882
REMARK INTER:                  -8.620
REMARK INTRA:                  -0.261
REMARK UNBOUND:                -0.309
REMARK SMILES O=c1c(O)c(-c2ccc(O)c(O)c2)oc2cc(O)cc(O)c12
REMARK SMILES IDX 5 1 3 2 2 3 1 4 22 5 20 6 19 7 17 8 16 9 15 10 14 11 6 12
REMARK SMILES IDX 7 13 8 14 9 15 13 16 11 17 10 18 12 20 4 22 21 24 18 26
REMARK H PARENT 10 19 12 21 4 23 21 25 18 27
REMARK Flexibility Score: inf
ROOT
ATOM      1  C   UNL     1      12.532  44.139  21.180  1.00  0.00     0.180 A 
ATOM      2  C   UNL     1      12.145  45.480  21.352  1.00  0.00     0.208 A 
ATOM      3  C   UNL     1      13.065  46.388  21.902  1.00  0.00     0.238 A 
ATOM      4  O   UNL     1      12.732  47.598  22.004  1.00  0.00    -0.285 OA
ATOM      5  C   UNL     1      14.351  45.942  22.288  1.00  0.00     0.111 A 
ATOM      6  C   UNL     1      15.348  46.765  22.894  1.00  0.00     0.134 A 
ATOM      7  C   UNL     1      16.631  46.249  23.113  1.00  0.00     0.093 A 
ATOM      8  C   UNL     1      16.934  44.919  22.811  1.00  0.00     0.123 A 
ATOM      9  C   UNL     1      15.950  44.090  22.277  1.00  0.00     0.094 A 
ATOM     10  C   UNL     1      14.672  44.587  22.011  1.00  0.00     0.146 A 
ATOM     11  O   UNL     1      13.768  43.766  21.491  1.00  0.00    -0.452 OA
ENDROOT
BRANCH   1  12
ATOM     12  C   UNL     1      11.610  43.119  20.630  1.00  0.00     0.025 A 
ATOM     13  C   UNL     1      10.566  42.632  21.427  1.00  0.00     0.016 A 
ATOM     14  C   UNL     1       9.673  41.685  20.921  1.00  0.00     0.051 A 
ATOM     15  C   UNL     1       9.796  41.219  19.608  1.00  0.00     0.157 A 
ATOM     16  C   UNL     1      11.723  42.671  19.303  1.00  0.00     0.062 A 
ATOM     17  C   UNL     1      10.831  41.723  18.785  1.00  0.00     0.158 A 
BRANCH  15  18
ATOM     18  O   UNL     1       8.875  40.266  19.165  1.00  0.00    -0.504 OA
ATOM     19  H   UNL     1       8.637  40.120  18.194  1.00  0.00     0.293 HD
ENDBRANCH  15  18
BRANCH  17  20
ATOM     20  O   UNL     1      11.003  41.320  17.459  1.00  0.00    -0.504 OA
ATOM     21  H   UNL     1      11.888  41.039  17.065  1.00  0.00     0.293 HD
ENDBRANCH  17  20
ENDBRANCH   1  12
BRANCH   2  22
ATOM     22  O   UNL     1      10.878  45.905  20.944  1.00  0.00    -0.502 OA
ATOM     23  H   UNL     1      10.619  46.883  20.903  1.00  0.00     0.293 HD
ENDBRANCH   2  22
BRANCH   6  24
ATOM     24  O   UNL     1      15.122  48.079  23.317  1.00  0.00    -0.507 OA
ATOM     25  H   UNL     1      14.620  48.775  22.787  1.00  0.00     0.293 HD
ENDBRANCH   6  24
BRANCH   8  26
ATOM     26  O   UNL     1      18.208  44.408  23.049  1.00  0.00    -0.508 OA
ATOM     27  H   UNL     1      18.434  43.931  23.914  1.00  0.00     0.293 HD
ENDBRANCH   8  26
TORSDOF 6
ENDMDL
MODEL 3
REMARK VINA RESULT:    -6.965      4.870      7.146
REMARK INTER + INTRA:          -8.700
REMARK INTER:                  -9.174
REMARK INTRA:                   0.474
REMARK UNBOUND:                -0.309
REMARK SMILES O=c1c(O)c(-c2ccc(O)c(O)c2)oc2cc(O)cc(O)c12
REMARK SMILES IDX 5 1 3 2 2 3 1 4 22 5 20 6 19 7 17 8 16 9 15 10 14 11 6 12
REMARK SMILES IDX 7 13 8 14 9 15 13 16 11 17 10 18 12 20 4 22 21 24 18 26
REMARK H PARENT 10 19 12 21 4 23 21 25 18 27
REMARK Flexibility Score: inf
ROOT
ATOM      1  C   UNL     1      12.993  43.377  21.100  1.00  0.00     0.180 A 
ATOM      2  C   UNL     1      11.809  43.746  20.436  1.00  0.00     0.208 A 
ATOM      3  C   UNL     1      10.997  42.742  19.885  1.00  0.00     0.238 A 
ATOM      4  O   UNL     1       9.912  43.075  19.340  1.00  0.00    -0.285 OA
ATOM      5  C   UNL     1      11.384  41.385  19.990  1.00  0.00     0.111 A 
ATOM      6  C   UNL     1      10.659  40.289  19.434  1.00  0.00     0.134 A 
ATOM      7  C   UNL     1      11.066  38.978  19.712  1.00  0.00     0.093 A 
ATOM      8  C   UNL     1      12.211  38.726  20.471  1.00  0.00     0.123 A 
ATOM      9  C   UNL     1      12.960  39.790  20.967  1.00  0.00     0.094 A 
ATOM     10  C   UNL     1      12.558  41.108  20.738  1.00  0.00     0.146 A 
ATOM     11  O   UNL     1      13.295  42.092  21.239  1.00  0.00    -0.452 OA
ENDROOT
BRANCH   1  12
ATOM     12  C   UNL     1      13.912  44.379  21.684  1.00  0.00     0.025 A 
ATOM     13  C   UNL     1      13.456  45.684  21.913  1.00  0.00     0.016 A 
ATOM     14  C   UNL     1      14.300  46.639  22.482  1.00  0.00     0.051 A 
ATOM     15  C   UNL     1      15.609  46.308  22.848  1.00  0.00     0.157 A 
ATOM     16  C   UNL     1      15.219  44.036  22.070  1.00  0.00     0.062 A 
ATOM     17  C   UNL     1      16.074  44.987  22.645  1.00  0.00     0.158 A 
BRANCH  15  18
ATOM     18  O   UNL     1      16.405  47.311  23.405  1.00  0.00    -0.504 OA
ATOM     19  H   UNL     1      17.062  47.158  24.157  1.00  0.00     0.293 HD
ENDBRANCH  15  18
BRANCH  17  20
ATOM     20  O   UNL     1      17.360  44.577  23.003  1.00  0.00    -0.504 OA
ATOM     21  H   UNL     1      17.842  43.798  22.580  1.00  0.00     0.293 HD
ENDBRANCH  17  20
ENDBRANCH   1  12
BRANCH   2  22
ATOM     22  O   UNL     1      11.434  45.091  20.363  1.00  0.00    -0.502 OA
ATOM     23  H   UNL     1      11.265  45.561  19.482  1.00  0.00     0.293 HD
ENDBRANCH   2  22
BRANCH   6  24
ATOM     24  O   UNL     1       9.555  40.433  18.587  1.00  0.00    -0.507 OA
ATOM     25  H   UNL     1       9.322  39.802  17.835  1.00  0.00     0.293 HD
ENDBRANCH   6  24
BRANCH   8  26
ATOM     26  O   UNL     1      12.619  37.419  20.729  1.00  0.00    -0.508 OA
ATOM     27  H   UNL     1      13.503  37.220  21.184  1.00  0.00     0.293 HD
ENDBRANCH   8  26
TORSDOF 6
ENDMDL
MODEL 4
REMARK VINA RESULT:    -6.865      1.885      2.290
REMARK INTER + INTRA:          -8.580
REMARK INTER:                  -8.420
REMARK INTRA:                  -0.160
REMARK UNBOUND:                -0.309
REMARK SMILES O=c1c(O)c(-c2ccc(O)c(O)c2)oc2cc(O)cc(O)c12
REMARK SMILES IDX 5 1 3 2 2 3 1 4 22 5 20 6 19 7 17 8 16 9 15 10 14 11 6 12
REMARK SMILES IDX 7 13 8 14 9 15 13 16 11 17 10 18 12 20 4 22 21 24 18 26
REMARK H PARENT 10 19 12 21 4 23 21 25 18 27
REMARK Flexibility Score: inf
ROOT
ATOM      1  C   UNL     1      11.198  39.437  22.375  1.00  0.00     0.180 A 
ATOM      2  C   UNL     1      11.499  38.858  21.130  1.00  0.00     0.208 A 
ATOM      3  C   UNL     1      11.159  39.552  19.957  1.00  0.00     0.238 A 
ATOM      4  O   UNL     1      11.480  39.054  18.846  1.00  0.00    -0.285 OA
ATOM      5  C   UNL     1      10.510  40.807  20.043  1.00  0.00     0.111 A 
ATOM      6  C   UNL     1      10.083  41.578  18.920  1.00  0.00     0.134 A 
ATOM      7  C   UNL     1       9.569  42.865  19.122  1.00  0.00     0.093 A 
ATOM      8  C   UNL     1       9.403  43.381  20.409  1.00  0.00     0.123 A 
ATOM      9  C   UNL     1       9.760  42.612  21.514  1.00  0.00     0.094 A 
ATOM     10  C   UNL     1      10.311  41.340  21.343  1.00  0.00     0.146 A 
ATOM     11  O   UNL     1      10.648  40.645  22.424  1.00  0.00    -0.452 OA
ENDROOT
BRANCH   1  12
ATOM     12  C   UNL     1      11.503  38.756  23.654  1.00  0.00     0.025 A 
ATOM     13  C   UNL     1      10.451  38.315  24.468  1.00  0.00     0.016 A 
ATOM     14  C   UNL     1      10.716  37.652  25.668  1.00  0.00     0.051 A 
ATOM     15  C   UNL     1      12.032  37.403  26.070  1.00  0.00     0.157 A 
ATOM     16  C   UNL     1      12.826  38.487  24.043  1.00  0.00     0.062 A 
ATOM     17  C   UNL     1      13.103  37.820  25.243  1.00  0.00     0.158 A 
BRANCH  15  18
ATOM     18  O   UNL     1      12.230  36.742  27.285  1.00  0.00    -0.504 OA
ATOM     19  H   UNL     1      12.982  36.950  27.925  1.00  0.00     0.293 HD
ENDBRANCH  15  18
BRANCH  17  20
ATOM     20  O   UNL     1      14.441  37.589  25.569  1.00  0.00    -0.504 OA
ATOM     21  H   UNL     1      15.214  38.104  25.176  1.00  0.00     0.293 HD
ENDBRANCH  17  20
ENDBRANCH   1  12
BRANCH   2  22
ATOM     22  O   UNL     1      12.161  37.629  21.067  1.00  0.00    -0.502 OA
ATOM     23  H   UNL     1      13.065  37.520  20.624  1.00  0.00     0.293 HD
ENDBRANCH   2  22
BRANCH   6  24
ATOM     24  O   UNL     1      10.120  41.120  17.600  1.00  0.00    -0.507 OA
ATOM     25  H   UNL     1       9.357  41.198  16.944  1.00  0.00     0.293 HD
ENDBRANCH   6  24
BRANCH   8  26
ATOM     26  O   UNL     1       8.875  44.656  20.601  1.00  0.00    -0.508 OA
ATOM     27  H   UNL     1       9.360  45.485  20.279  1.00  0.00     0.293 HD
ENDBRANCH   8  26
TORSDOF 6
ENDMDL
MODEL 5
REMARK VINA RESULT:    -6.811      2.268      7.020
REMARK INTER + INTRA:          -8.514
REMARK INTER:                  -8.260
REMARK INTRA:                  -0.255
REMARK UNBOUND:                -0.309
REMARK SMILES O=c1c(O)c(-c2ccc(O)c(O)c2)oc2cc(O)cc(O)c12
REMARK SMILES IDX 5 1 3 2 2 3 1 4 22 5 20 6 19 7 17 8 16 9 15 10 14 11 6 12
REMARK SMILES IDX 7 13 8 14 9 15 13 16 11 17 10 18 12 20 4 22 21 24 18 26
REMARK H PARENT 10 19 12 21 4 23 21 25 18 27
REMARK Flexibility Score: inf
ROOT
ATOM      1  C   UNL     1      11.246  39.219  22.456  1.00  0.00     0.180 A 
ATOM      2  C   UNL     1      10.184  38.676  23.202  1.00  0.00     0.208 A 
ATOM      3  C   UNL     1      10.458  38.097  24.452  1.00  0.00     0.238 A 
ATOM      4  O   UNL     1       9.497  37.662  25.139  1.00  0.00    -0.285 OA
ATOM      5  C   UNL     1      11.789  38.051  24.932  1.00  0.00     0.111 A 
ATOM      6  C   UNL     1      12.186  37.451  26.165  1.00  0.00     0.134 A 
ATOM      7  C   UNL     1      13.511  37.581  26.600  1.00  0.00     0.093 A 
ATOM      8  C   UNL     1      14.467  38.231  25.816  1.00  0.00     0.123 A 
ATOM      9  C   UNL     1      14.102  38.766  24.583  1.00  0.00     0.094 A 
ATOM     10  C   UNL     1      12.780  38.686  24.139  1.00  0.00     0.146 A 
ATOM     11  O   UNL     1      12.473  39.220  22.963  1.00  0.00    -0.452 OA
ENDROOT
BRANCH   1  12
ATOM     12  C   UNL     1      11.040  39.824  21.121  1.00  0.00     0.025 A 
ATOM     13  C   UNL     1      11.393  39.101  19.973  1.00  0.00     0.016 A 
ATOM     14  C   UNL     1      11.189  39.645  18.704  1.00  0.00     0.051 A 
ATOM     15  C   UNL     1      10.614  40.912  18.554  1.00  0.00     0.157 A 
ATOM     16  C   UNL     1      10.442  41.088  20.974  1.00  0.00     0.062 A 
ATOM     17  C   UNL     1      10.229  41.641  19.705  1.00  0.00     0.158 A 
BRANCH  15  18
ATOM     18  O   UNL     1      10.443  41.402  17.258  1.00  0.00    -0.504 OA
ATOM     19  H   UNL     1       9.577  41.787  16.909  1.00  0.00     0.293 HD
ENDBRANCH  15  18
BRANCH  17  20
ATOM     20  O   UNL     1       9.632  42.901  19.633  1.00  0.00    -0.504 OA
ATOM     21  H   UNL     1       8.688  43.096  19.931  1.00  0.00     0.293 HD
ENDBRANCH  17  20
ENDBRANCH   1  12
BRANCH   2  22
ATOM     22  O   UNL     1       8.875  38.752  22.720  1.00  0.00    -0.502 OA
ATOM     23  H   UNL     1       8.426  37.979  22.242  1.00  0.00     0.293 HD
ENDBRANCH   2  22
BRANCH   6  24
ATOM     24  O   UNL     1      11.332  36.702  26.979  1.00  0.00    -0.507 OA
ATOM     25  H   UNL     1      10.456  37.036  27.353  1.00  0.00     0.293 HD
ENDBRANCH   6  24
BRANCH   8  26
ATOM     26  O   UNL     1      15.786  38.340  26.249  1.00  0.00    -0.508 OA
ATOM     27  H   UNL     1      16.292  39.217  26.193  1.00  0.00     0.293 HD
ENDBRANCH   8  26
TORSDOF 6
ENDMDL
MODEL 6
REMARK VINA RESULT:    -6.530      1.639      6.757
REMARK INTER + INTRA:          -8.176
REMARK INTER:                  -7.985
REMARK INTRA:                  -0.191
REMARK UNBOUND:                -0.309
REMARK SMILES O=c1c(O)c(-c2ccc(O)c(O)c2)oc2cc(O)cc(O)c12
REMARK SMILES IDX 5 1 3 2 2 3 1 4 22 5 20 6 19 7 17 8 16 9 15 10 14 11 6 12
REMARK SMILES IDX 7 13 8 14 9 15 13 16 11 17 10 18 12 20 4 22 21 24 18 26
REMARK H PARENT 10 19 12 21 4 23 21 25 18 27
REMARK Flexibility Score: inf
ROOT
ATOM      1  C   UNL     1      10.960  39.583  22.501  1.00  0.00     0.180 A 
ATOM      2  C   UNL     1      12.335  39.314  22.634  1.00  0.00     0.208 A 
ATOM      3  C   UNL     1      12.790  38.648  23.783  1.00  0.00     0.238 A 
ATOM      4  O   UNL     1      14.012  38.362  23.871  1.00  0.00    -0.285 OA
ATOM      5  C   UNL     1      11.870  38.274  24.792  1.00  0.00     0.111 A 
ATOM      6  C   UNL     1      12.226  37.631  26.016  1.00  0.00     0.134 A 
ATOM      7  C   UNL     1      11.218  37.189  26.882  1.00  0.00     0.093 A 
ATOM      8  C   UNL     1       9.870  37.426  26.601  1.00  0.00     0.123 A 
ATOM      9  C   UNL     1       9.517  38.106  25.438  1.00  0.00     0.094 A 
ATOM     10  C   UNL     1      10.497  38.526  24.536  1.00  0.00     0.146 A 
ATOM     11  O   UNL     1      10.115  39.161  23.434  1.00  0.00    -0.452 OA
ENDROOT
BRANCH   1  12
ATOM     12  C   UNL     1      10.409  40.303  21.331  1.00  0.00     0.025 A 
ATOM     13  C   UNL     1       9.921  41.607  21.490  1.00  0.00     0.016 A 
ATOM     14  C   UNL     1       9.416  42.311  20.396  1.00  0.00     0.051 A 
ATOM     15  C   UNL     1       9.401  41.735  19.121  1.00  0.00     0.157 A 
ATOM     16  C   UNL     1      10.417  39.728  20.049  1.00  0.00     0.062 A 
ATOM     17  C   UNL     1       9.915  40.428  18.943  1.00  0.00     0.158 A 
BRANCH  15  18
ATOM     18  O   UNL     1       8.875  42.489  18.070  1.00  0.00    -0.504 OA
ATOM     19  H   UNL     1       9.331  43.298  17.673  1.00  0.00     0.293 HD
ENDBRANCH  15  18
BRANCH  17  20
ATOM     20  O   UNL     1       9.952  39.796  17.699  1.00  0.00    -0.504 OA
ATOM     21  H   UNL     1      10.802  39.523  17.229  1.00  0.00     0.293 HD
ENDBRANCH  17  20
ENDBRANCH   1  12
BRANCH   2  22
ATOM     22  O   UNL     1      13.222  39.673  21.616  1.00  0.00    -0.502 OA
ATOM     23  H   UNL     1      14.224  39.541  21.696  1.00  0.00     0.293 HD
ENDBRANCH   2  22
BRANCH   6  24
ATOM     24  O   UNL     1      13.544  37.428  26.436  1.00  0.00    -0.507 OA
ATOM     25  H   UNL     1      13.849  36.661  27.016  1.00  0.00     0.293 HD
ENDBRANCH   6  24
BRANCH   8  26
ATOM     26  O   UNL     1       8.875  36.998  27.476  1.00  0.00    -0.508 OA
ATOM     27  H   UNL     1       9.050  36.276  28.166  1.00  0.00     0.293 HD
ENDBRANCH   8  26
TORSDOF 6
ENDMDL
MODEL 7
REMARK VINA RESULT:    -6.223      7.551     11.719
REMARK INTER + INTRA:          -7.805
REMARK INTER:                  -7.490
REMARK INTRA:                  -0.315
REMARK UNBOUND:                -0.309
REMARK SMILES O=c1c(O)c(-c2ccc(O)c(O)c2)oc2cc(O)cc(O)c12
REMARK SMILES IDX 5 1 3 2 2 3 1 4 22 5 20 6 19 7 17 8 16 9 15 10 14 11 6 12
REMARK SMILES IDX 7 13 8 14 9 15 13 16 11 17 10 18 12 20 4 22 21 24 18 26
REMARK H PARENT 10 19 12 21 4 23 21 25 18 27
REMARK Flexibility Score: inf
ROOT
ATOM      1  C   UNL     1      13.055  32.815  28.514  1.00  0.00     0.180 A 
ATOM      2  C   UNL     1      12.909  31.678  27.699  1.00  0.00     0.208 A 
ATOM      3  C   UNL     1      13.265  30.421  28.214  1.00  0.00     0.238 A 
ATOM      4  O   UNL     1      13.081  29.402  27.500  1.00  0.00    -0.285 OA
ATOM      5  C   UNL     1      13.778  30.318  29.530  1.00  0.00     0.111 A 
ATOM      6  C   UNL     1      14.209  29.101  30.139  1.00  0.00     0.134 A 
ATOM      7  C   UNL     1      14.575  29.098  31.491  1.00  0.00     0.093 A 
ATOM      8  C   UNL     1      14.590  30.279  32.236  1.00  0.00     0.123 A 
ATOM      9  C   UNL     1      14.229  31.481  31.634  1.00  0.00     0.094 A 
ATOM     10  C   UNL     1      13.823  31.511  30.297  1.00  0.00     0.146 A 
ATOM     11  O   UNL     1      13.476  32.677  29.766  1.00  0.00    -0.452 OA
ENDROOT
BRANCH   1  12
ATOM     12  C   UNL     1      12.724  34.176  28.033  1.00  0.00     0.025 A 
ATOM     13  C   UNL     1      11.408  34.644  28.140  1.00  0.00     0.016 A 
ATOM     14  C   UNL     1      11.078  35.931  27.712  1.00  0.00     0.051 A 
ATOM     15  C   UNL     1      12.056  36.780  27.184  1.00  0.00     0.157 A 
ATOM     16  C   UNL     1      13.714  35.033  27.524  1.00  0.00     0.062 A 
ATOM     17  C   UNL     1      13.394  36.328  27.095  1.00  0.00     0.158 A 
BRANCH  15  18
ATOM     18  O   UNL     1      11.660  38.053  26.767  1.00  0.00    -0.504 OA
ATOM     19  H   UNL     1      10.732  38.428  26.904  1.00  0.00     0.293 HD
ENDBRANCH  15  18
BRANCH  17  20
ATOM     20  O   UNL     1      14.428  37.125  26.598  1.00  0.00    -0.504 OA
ATOM     21  H   UNL     1      15.373  36.801  26.459  1.00  0.00     0.293 HD
ENDBRANCH  17  20
ENDBRANCH   1  12
BRANCH   2  22
ATOM     22  O   UNL     1      12.380  31.800  26.411  1.00  0.00    -0.502 OA
ATOM     23  H   UNL     1      12.952  31.727  25.579  1.00  0.00     0.293 HD
ENDBRANCH   2  22
BRANCH   6  24
ATOM     24  O   UNL     1      14.318  27.885  29.459  1.00  0.00    -0.507 OA
ATOM     25  H   UNL     1      13.544  27.274  29.247  1.00  0.00     0.293 HD
ENDBRANCH   6  24
BRANCH   8  26
ATOM     26  O   UNL     1      14.972  30.269  33.576  1.00  0.00    -0.508 OA
ATOM     27  H   UNL     1      14.688  29.525  34.203  1.00  0.00     0.293 HD
ENDBRANCH   8  26
TORSDOF 6
ENDMDL
MODEL 8
REMARK VINA RESULT:    -6.004      2.148      3.091
REMARK INTER + INTRA:          -7.542
REMARK INTER:                  -8.024
REMARK INTRA:                   0.482
REMARK UNBOUND:                -0.309
REMARK SMILES O=c1c(O)c(-c2ccc(O)c(O)c2)oc2cc(O)cc(O)c12
REMARK SMILES IDX 5 1 3 2 2 3 1 4 22 5 20 6 19 7 17 8 16 9 15 10 14 11 6 12
REMARK SMILES IDX 7 13 8 14 9 15 13 16 11 17 10 18 12 20 4 22 21 24 18 26
REMARK H PARENT 10 19 12 21 4 23 21 25 18 27
REMARK Flexibility Score: inf
ROOT
ATOM      1  C   UNL     1      11.231  38.613  23.518  1.00  0.00     0.180 A 
ATOM      2  C   UNL     1      10.011  38.644  22.820  1.00  0.00     0.208 A 
ATOM      3  C   UNL     1       9.963  39.264  21.561  1.00  0.00     0.238 A 
ATOM      4  O   UNL     1       8.882  39.240  20.916  1.00  0.00    -0.285 OA
ATOM      5  C   UNL     1      11.129  39.860  21.023  1.00  0.00     0.111 A 
ATOM      6  C   UNL     1      11.186  40.551  19.776  1.00  0.00     0.134 A 
ATOM      7  C   UNL     1      12.422  40.986  19.283  1.00  0.00     0.093 A 
ATOM      8  C   UNL     1      13.594  40.815  20.023  1.00  0.00     0.123 A 
ATOM      9  C   UNL     1      13.540  40.196  21.269  1.00  0.00     0.094 A 
ATOM     10  C   UNL     1      12.327  39.717  21.771  1.00  0.00     0.146 A 
ATOM     11  O   UNL     1      12.322  39.123  22.958  1.00  0.00    -0.452 OA
ENDROOT
BRANCH   1  12
ATOM     12  C   UNL     1      11.354  38.000  24.860  1.00  0.00     0.025 A 
ATOM     13  C   UNL     1      10.197  37.702  25.592  1.00  0.00     0.016 A 
ATOM     14  C   UNL     1      10.290  37.105  26.850  1.00  0.00     0.051 A 
ATOM     15  C   UNL     1      11.536  36.779  27.395  1.00  0.00     0.157 A 
ATOM     16  C   UNL     1      12.608  37.653  25.394  1.00  0.00     0.062 A 
ATOM     17  C   UNL     1      12.711  37.050  26.654  1.00  0.00     0.158 A 
BRANCH  15  18
ATOM     18  O   UNL     1      11.561  36.190  28.661  1.00  0.00    -0.504 OA
ATOM     19  H   UNL     1      10.926  36.431  29.409  1.00  0.00     0.293 HD
ENDBRANCH  15  18
BRANCH  17  20
ATOM     20  O   UNL     1      13.988  36.735  27.124  1.00  0.00    -0.504 OA
ATOM     21  H   UNL     1      14.313  35.794  27.287  1.00  0.00     0.293 HD
ENDBRANCH  17  20
ENDBRANCH   1  12
BRANCH   2  22
ATOM     22  O   UNL     1       8.877  38.030  23.358  1.00  0.00    -0.502 OA
ATOM     23  H   UNL     1       8.625  38.115  24.336  1.00  0.00     0.293 HD
ENDBRANCH   2  22
BRANCH   6  24
ATOM     24  O   UNL     1      10.062  40.855  19.001  1.00  0.00    -0.507 OA
ATOM     25  H   UNL     1      10.019  40.773  17.996  1.00  0.00     0.293 HD
ENDBRANCH   6  24
BRANCH   8  26
ATOM     26  O   UNL     1      14.817  41.266  19.533  1.00  0.00    -0.508 OA
ATOM     27  H   UNL     1      14.877  42.065  18.912  1.00  0.00     0.293 HD
ENDBRANCH   8  26
TORSDOF 6
ENDMDL
MODEL 9
REMARK VINA RESULT:    -5.987      9.279     12.249
REMARK INTER + INTRA:          -7.521
REMARK INTER:                  -7.397
REMARK INTRA:                  -0.124
REMARK UNBOUND:                -0.309
REMARK SMILES O=c1c(O)c(-c2ccc(O)c(O)c2)oc2cc(O)cc(O)c12
REMARK SMILES IDX 5 1 3 2 2 3 1 4 22 5 20 6 19 7 17 8 16 9 15 10 14 11 6 12
REMARK SMILES IDX 7 13 8 14 9 15 13 16 11 17 10 18 12 20 4 22 21 24 18 26
REMARK H PARENT 10 19 12 21 4 23 21 25 18 27
REMARK Flexibility Score: inf
ROOT
ATOM      1  C   UNL     1      14.248  30.910  30.545  1.00  0.00     0.180 A 
ATOM      2  C   UNL     1      14.072  30.053  29.443  1.00  0.00     0.208 A 
ATOM      3  C   UNL     1      13.336  30.509  28.338  1.00  0.00     0.238 A 
ATOM      4  O   UNL     1      13.228  29.759  27.333  1.00  0.00    -0.285 OA
ATOM      5  C   UNL     1      12.770  31.807  28.354  1.00  0.00     0.111 A 
ATOM      6  C   UNL     1      11.971  32.356  27.306  1.00  0.00     0.134 A 
ATOM      7  C   UNL     1      11.574  33.698  27.372  1.00  0.00     0.093 A 
ATOM      8  C   UNL     1      11.891  34.490  28.478  1.00  0.00     0.123 A 
ATOM      9  C   UNL     1      12.618  33.944  29.533  1.00  0.00     0.094 A 
ATOM     10  C   UNL     1      13.061  32.621  29.480  1.00  0.00     0.146 A 
ATOM     11  O   UNL     1      13.761  32.145  30.502  1.00  0.00    -0.452 OA
ENDROOT
BRANCH   1  12
ATOM     12  C   UNL     1      14.990  30.492  31.756  1.00  0.00     0.025 A 
ATOM     13  C   UNL     1      16.076  31.260  32.199  1.00  0.00     0.016 A 
ATOM     14  C   UNL     1      16.777  30.896  33.349  1.00  0.00     0.051 A 
ATOM     15  C   UNL     1      16.400  29.769  34.088  1.00  0.00     0.157 A 
ATOM     16  C   UNL     1      14.594  29.372  32.507  1.00  0.00     0.062 A 
ATOM     17  C   UNL     1      15.289  29.000  33.666  1.00  0.00     0.158 A 
BRANCH  15  18
ATOM     18  O   UNL     1      17.148  29.454  35.225  1.00  0.00    -0.504 OA
ATOM     19  H   UNL     1      18.034  29.881  35.454  1.00  0.00     0.293 HD
ENDBRANCH  15  18
BRANCH  17  20
ATOM     20  O   UNL     1      14.843  27.875  34.362  1.00  0.00    -0.504 OA
ATOM     21  H   UNL     1      14.419  27.072  33.924  1.00  0.00     0.293 HD
ENDBRANCH  17  20
ENDBRANCH   1  12
BRANCH   2  22
ATOM     22  O   UNL     1      14.658  28.784  29.439  1.00  0.00    -0.502 OA
ATOM     23  H   UNL     1      14.118  27.936  29.559  1.00  0.00     0.293 HD
ENDBRANCH   2  22
BRANCH   6  24
ATOM     24  O   UNL     1      11.523  31.625  26.202  1.00  0.00    -0.507 OA
ATOM     25  H   UNL     1      11.559  30.620  26.126  1.00  0.00     0.293 HD
ENDBRANCH   6  24
BRANCH   8  26
ATOM     26  O   UNL     1      11.477  35.818  28.543  1.00  0.00    -0.508 OA
ATOM     27  H   UNL     1      10.662  36.145  28.037  1.00  0.00     0.293 HD
ENDBRANCH   8  26
TORSDOF 6
ENDMDL
