MODEL 1
REMARK VINA RESULT:    -7.124      0.000      0.000
REMARK INTER + INTRA:         -10.181
REMARK INTER:                  -9.622
REMARK INTRA:                  -0.558
REMARK UNBOUND:                -0.558
REMARK SMILES COc1ccc(-c2cc(=O)c3c(OC)c(OC)c(OC)c(OC)c3o2)cc1
REMARK SMILES IDX 7 1 8 2 9 3 10 4 11 5 24 6 25 7 21 8 18 9 15 10 12 11 6 12
REMARK SMILES IDX 3 13 4 14 27 15 5 16 26 17 2 18 1 19 22 20 23 21 13 22 14 23
REMARK SMILES IDX 19 24 20 25 16 26 17 27
REMARK H PARENT
REMARK Flexibility Score: inf
ROOT
ATOM      1  C   UNL     1      30.476   4.899  18.588  1.00  0.00     0.138 A 
ATOM      2  C   UNL     1      31.447   4.318  17.761  1.00  0.00     0.100 A 
ATOM      3  C   UNL     1      31.391   2.952  17.493  1.00  0.00     0.197 A 
ATOM      4  O   UNL     1      32.255   2.450  16.723  1.00  0.00    -0.289 OA
ATOM      5  C   UNL     1      30.368   2.167  18.068  1.00  0.00     0.115 A 
ATOM      6  C   UNL     1      29.391   2.833  18.842  1.00  0.00     0.188 A 
ATOM      7  O   UNL     1      29.493   4.141  19.070  1.00  0.00    -0.452 OA
ATOM      8  C   UNL     1      28.315   2.121  19.396  1.00  0.00     0.209 A 
ATOM      9  C   UNL     1      28.225   0.722  19.214  1.00  0.00     0.211 A 
ATOM     10  C   UNL     1      29.185   0.054  18.436  1.00  0.00     0.208 A 
ATOM     11  C   UNL     1      30.288   0.764  17.904  1.00  0.00     0.179 A 
ENDROOT
BRANCH   1  12
ATOM     12  C   UNL     1      30.508   6.344  18.933  1.00  0.00     0.018 A 
ATOM     13  C   UNL     1      30.532   9.103  19.545  1.00  0.00     0.118 A 
ATOM     14  C   UNL     1      30.512   8.151  20.568  1.00  0.00     0.047 A 
ATOM     15  C   UNL     1      30.531   8.670  18.207  1.00  0.00     0.047 A 
ATOM     16  C   UNL     1      30.496   6.785  20.270  1.00  0.00     0.016 A 
ATOM     17  C   UNL     1      30.513   7.306  17.907  1.00  0.00     0.016 A 
BRANCH  13  18
ATOM     18  O   UNL     1      30.548  10.461  19.898  1.00  0.00    -0.497 OA
ATOM     19  C   UNL     1      30.177  11.522  19.025  1.00  0.00     0.278 C 
ENDBRANCH  13  18
ENDBRANCH   1  12
BRANCH   8  20
ATOM     20  O   UNL     1      27.342   2.808  20.127  1.00  0.00    -0.490 OA
ATOM     21  C   UNL     1      27.320   2.803  21.551  1.00  0.00     0.278 C 
ENDBRANCH   8  20
BRANCH  11  22
ATOM     22  O   UNL     1      31.317   0.073  17.262  1.00  0.00    -0.492 OA
ATOM     23  C   UNL     1      32.339  -0.580  18.006  1.00  0.00     0.278 C 
ENDBRANCH  11  22
BRANCH   9  24
ATOM     24  O   UNL     1      27.201  -0.072  19.767  1.00  0.00    -0.490 OA
ATOM     25  C   UNL     1      25.849  -0.140  19.330  1.00  0.00     0.279 C 
ENDBRANCH   9  24
BRANCH  10  26
ATOM     26  O   UNL     1      28.986  -1.324  18.230  1.00  0.00    -0.490 OA
ATOM     27  C   UNL     1      29.438  -2.370  19.084  1.00  0.00     0.278 C 
ENDBRANCH  10  26
TORSDOF 6
ENDMDL
MODEL 2
REMARK VINA RESULT:    -7.095      2.125      4.340
REMARK INTER + INTRA:         -10.142
REMARK INTER:                  -9.431
REMARK INTRA:                  -0.711
REMARK UNBOUND:                -0.558
REMARK SMILES COc1ccc(-c2cc(=O)c3c(OC)c(OC)c(OC)c(OC)c3o2)cc1
REMARK SMILES IDX 7 1 8 2 9 3 10 4 11 5 24 6 25 7 21 8 18 9 15 10 12 11 6 12
REMARK SMILES IDX 3 13 4 14 27 15 5 16 26 17 2 18 1 19 22 20 23 21 13 22 14 23
REMARK SMILES IDX 19 24 20 25 16 26 17 27
REMARK H PARENT
REMARK Flexibility Score: inf
ROOT
ATOM      1  C   UNL     1      30.653   6.627  19.566  1.00  0.00     0.138 A 
ATOM      2  C   UNL     1      30.074   5.916  20.626  1.00  0.00     0.100 A 
ATOM      3  C   UNL     1      30.249   4.535  20.702  1.00  0.00     0.197 A 
ATOM      4  O   UNL     1      29.747   3.915  21.678  1.00  0.00    -0.289 OA
ATOM      5  C   UNL     1      30.994   3.868  19.706  1.00  0.00     0.115 A 
ATOM      6  C   UNL     1      31.597   4.660  18.702  1.00  0.00     0.188 A 
ATOM      7  O   UNL     1      31.395   5.976  18.673  1.00  0.00    -0.452 OA
ATOM      8  C   UNL     1      32.398   4.066  17.712  1.00  0.00     0.209 A 
ATOM      9  C   UNL     1      32.573   2.663  17.693  1.00  0.00     0.211 A 
ATOM     10  C   UNL     1      31.988   1.871  18.695  1.00  0.00     0.208 A 
ATOM     11  C   UNL     1      31.154   2.463  19.673  1.00  0.00     0.179 A 
ENDROOT
BRANCH   1  12
ATOM     12  C   UNL     1      30.469   8.094  19.418  1.00  0.00     0.018 A 
ATOM     13  C   UNL     1      30.093  10.876  19.087  1.00  0.00     0.118 A 
ATOM     14  C   UNL     1      29.908  10.280  20.338  1.00  0.00     0.047 A 
ATOM     15  C   UNL     1      30.459  10.071  17.994  1.00  0.00     0.047 A 
ATOM     16  C   UNL     1      30.089   8.904  20.506  1.00  0.00     0.016 A 
ATOM     17  C   UNL     1      30.638   8.695  18.159  1.00  0.00     0.016 A 
BRANCH  13  18
ATOM     18  O   UNL     1      29.899  12.260  18.972  1.00  0.00    -0.497 OA
ATOM     19  C   UNL     1      30.947  13.222  18.986  1.00  0.00     0.278 C 
ENDBRANCH  13  18
ENDBRANCH   1  12
BRANCH   8  20
ATOM     20  O   UNL     1      33.013   4.873  16.752  1.00  0.00    -0.490 OA
ATOM     21  C   UNL     1      34.303   5.442  16.956  1.00  0.00     0.278 C 
ENDBRANCH   8  20
BRANCH  11  22
ATOM     22  O   UNL     1      30.454   1.657  20.573  1.00  0.00    -0.492 OA
ATOM     23  C   UNL     1      29.311   0.916  20.159  1.00  0.00     0.278 C 
ENDBRANCH  11  22
BRANCH   9  24
ATOM     24  O   UNL     1      33.327   1.985  16.716  1.00  0.00    -0.490 OA
ATOM     25  C   UNL     1      34.742   1.830  16.690  1.00  0.00     0.279 C 
ENDBRANCH   9  24
BRANCH  10  26
ATOM     26  O   UNL     1      32.272   0.493  18.660  1.00  0.00    -0.490 OA
ATOM     27  C   UNL     1      33.115  -0.210  19.568  1.00  0.00     0.278 C 
ENDBRANCH  10  26
TORSDOF 6
ENDMDL
MODEL 3
REMARK VINA RESULT:    -7.006      1.344      2.124
REMARK INTER + INTRA:         -10.022
REMARK INTER:                  -9.518
REMARK INTRA:                  -0.505
REMARK UNBOUND:                -0.558
REMARK SMILES COc1ccc(-c2cc(=O)c3c(OC)c(OC)c(OC)c(OC)c3o2)cc1
REMARK SMILES IDX 7 1 8 2 9 3 10 4 11 5 24 6 25 7 21 8 18 9 15 10 12 11 6 12
REMARK SMILES IDX 3 13 4 14 27 15 5 16 26 17 2 18 1 19 22 20 23 21 13 22 14 23
REMARK SMILES IDX 19 24 20 25 16 26 17 27
REMARK H PARENT
REMARK Flexibility Score: inf
ROOT
ATOM      1  C   UNL     1      31.219   5.741  18.085  1.00  0.00     0.138 A 
ATOM      2  C   UNL     1      32.512   5.443  17.631  1.00  0.00     0.100 A 
ATOM      3  C   UNL     1      32.844   4.125  17.326  1.00  0.00     0.197 A 
ATOM      4  O   UNL     1      34.001   3.878  16.890  1.00  0.00    -0.289 OA
ATOM      5  C   UNL     1      31.882   3.105  17.491  1.00  0.00     0.115 A 
ATOM      6  C   UNL     1      30.584   3.490  17.896  1.00  0.00     0.188 A 
ATOM      7  O   UNL     1      30.320   4.765  18.178  1.00  0.00    -0.452 OA
ATOM      8  C   UNL     1      29.565   2.532  18.025  1.00  0.00     0.209 A 
ATOM      9  C   UNL     1      29.845   1.166  17.788  1.00  0.00     0.211 A 
ATOM     10  C   UNL     1      31.129   0.777  17.374  1.00  0.00     0.208 A 
ATOM     11  C   UNL     1      32.165   1.736  17.274  1.00  0.00     0.179 A 
ENDROOT
BRANCH   1  12
ATOM     12  C   UNL     1      30.822   7.125  18.456  1.00  0.00     0.018 A 
ATOM     13  C   UNL     1      30.098   9.750  19.211  1.00  0.00     0.118 A 
ATOM     14  C   UNL     1      30.438   9.463  17.885  1.00  0.00     0.047 A 
ATOM     15  C   UNL     1      30.130   8.718  20.164  1.00  0.00     0.047 A 
ATOM     16  C   UNL     1      30.801   8.166  17.508  1.00  0.00     0.016 A 
ATOM     17  C   UNL     1      30.495   7.422  19.790  1.00  0.00     0.016 A 
BRANCH  13  18
ATOM     18  O   UNL     1      29.741  11.067  19.537  1.00  0.00    -0.497 OA
ATOM     19  C   UNL     1      30.298  12.225  18.925  1.00  0.00     0.278 C 
ENDBRANCH  13  18
ENDBRANCH   1  12
BRANCH   8  20
ATOM     20  O   UNL     1      28.280   2.943  18.390  1.00  0.00    -0.490 OA
ATOM     21  C   UNL     1      27.827   2.901  19.740  1.00  0.00     0.278 C 
ENDBRANCH   8  20
BRANCH  11  22
ATOM     22  O   UNL     1      33.473   1.323  17.011  1.00  0.00    -0.492 OA
ATOM     23  C   UNL     1      33.852   0.860  15.720  1.00  0.00     0.278 C 
ENDBRANCH  11  22
BRANCH   9  24
ATOM     24  O   UNL     1      28.892   0.139  17.931  1.00  0.00    -0.490 OA
ATOM     25  C   UNL     1      28.571  -0.562  19.127  1.00  0.00     0.279 C 
ENDBRANCH   9  24
BRANCH  10  26
ATOM     26  O   UNL     1      31.312  -0.587  17.077  1.00  0.00    -0.490 OA
ATOM     27  C   UNL     1      31.955  -1.545  17.913  1.00  0.00     0.278 C 
ENDBRANCH  10  26
TORSDOF 6
ENDMDL
MODEL 4
REMARK VINA RESULT:    -6.960      1.434      3.564
REMARK INTER + INTRA:          -9.959
REMARK INTER:                  -9.245
REMARK INTRA:                  -0.715
REMARK UNBOUND:                -0.558
REMARK SMILES COc1ccc(-c2cc(=O)c3c(OC)c(OC)c(OC)c(OC)c3o2)cc1
REMARK SMILES IDX 7 1 8 2 9 3 10 4 11 5 24 6 25 7 21 8 18 9 15 10 12 11 6 12
REMARK SMILES IDX 3 13 4 14 27 15 5 16 26 17 2 18 1 19 22 20 23 21 13 22 14 23
REMARK SMILES IDX 19 24 20 25 16 26 17 27
REMARK H PARENT
REMARK Flexibility Score: inf
ROOT
ATOM      1  C   UNL     1      30.372   4.837  19.978  1.00  0.00     0.138 A 
ATOM      2  C   UNL     1      29.710   4.141  21.000  1.00  0.00     0.100 A 
ATOM      3  C   UNL     1      29.590   2.755  20.918  1.00  0.00     0.197 A 
ATOM      4  O   UNL     1      29.018   2.142  21.860  1.00  0.00    -0.289 OA
ATOM      5  C   UNL     1      30.122   2.071  19.804  1.00  0.00     0.115 A 
ATOM      6  C   UNL     1      30.827   2.833  18.845  1.00  0.00     0.188 A 
ATOM      7  O   UNL     1      30.910   4.156  18.969  1.00  0.00    -0.452 OA
ATOM      8  C   UNL     1      31.429   2.206  17.741  1.00  0.00     0.209 A 
ATOM      9  C   UNL     1      31.298   0.810  17.563  1.00  0.00     0.211 A 
ATOM     10  C   UNL     1      30.610   0.044  18.519  1.00  0.00     0.208 A 
ATOM     11  C   UNL     1      29.975   0.677  19.614  1.00  0.00     0.179 A 
ENDROOT
BRANCH   1  12
ATOM     12  C   UNL     1      30.500   6.318  19.999  1.00  0.00     0.018 A 
ATOM     13  C   UNL     1      30.701   9.137  19.995  1.00  0.00     0.118 A 
ATOM     14  C   UNL     1      30.722   8.426  21.199  1.00  0.00     0.047 A 
ATOM     15  C   UNL     1      30.569   8.430  18.787  1.00  0.00     0.047 A 
ATOM     16  C   UNL     1      30.619   7.032  21.206  1.00  0.00     0.016 A 
ATOM     17  C   UNL     1      30.464   7.037  18.791  1.00  0.00     0.016 A 
BRANCH  13  18
ATOM     18  O   UNL     1      30.809  10.535  20.043  1.00  0.00    -0.497 OA
ATOM     19  C   UNL     1      30.122  11.423  19.170  1.00  0.00     0.278 C 
ENDBRANCH  13  18
ENDBRANCH   1  12
BRANCH   8  20
ATOM     20  O   UNL     1      32.152   2.976  16.827  1.00  0.00    -0.490 OA
ATOM     21  C   UNL     1      33.521   3.312  17.035  1.00  0.00     0.278 C 
ENDBRANCH   8  20
BRANCH  11  22
ATOM     22  O   UNL     1      29.166  -0.067  20.475  1.00  0.00    -0.492 OA
ATOM     23  C   UNL     1      27.871  -0.500  20.075  1.00  0.00     0.278 C 
ENDBRANCH  11  22
BRANCH   9  24
ATOM     24  O   UNL     1      31.838   0.110  16.467  1.00  0.00    -0.490 OA
ATOM     25  C   UNL     1      33.190  -0.302  16.303  1.00  0.00     0.279 C 
ENDBRANCH   9  24
BRANCH  10  26
ATOM     26  O   UNL     1      30.591  -1.349  18.319  1.00  0.00    -0.490 OA
ATOM     27  C   UNL     1      31.416  -2.300  18.984  1.00  0.00     0.278 C 
ENDBRANCH  10  26
TORSDOF 6
ENDMDL
MODEL 5
REMARK VINA RESULT:    -6.747      1.497      2.007
REMARK INTER + INTRA:          -9.672
REMARK INTER:                  -9.105
REMARK INTRA:                  -0.567
REMARK UNBOUND:                -0.558
REMARK SMILES COc1ccc(-c2cc(=O)c3c(OC)c(OC)c(OC)c(OC)c3o2)cc1
REMARK SMILES IDX 7 1 8 2 9 3 10 4 11 5 24 6 25 7 21 8 18 9 15 10 12 11 6 12
REMARK SMILES IDX 3 13 4 14 27 15 5 16 26 17 2 18 1 19 22 20 23 21 13 22 14 23
REMARK SMILES IDX 19 24 20 25 16 26 17 27
REMARK H PARENT
REMARK Flexibility Score: inf
ROOT
ATOM      1  C   UNL     1      30.049   3.380  19.458  1.00  0.00     0.138 A 
ATOM      2  C   UNL     1      30.734   2.631  18.491  1.00  0.00     0.100 A 
ATOM      3  C   UNL     1      30.409   1.288  18.308  1.00  0.00     0.197 A 
ATOM      4  O   UNL     1      31.013   0.636  17.414  1.00  0.00    -0.289 OA
ATOM      5  C   UNL     1      29.406   0.696  19.106  1.00  0.00     0.115 A 
ATOM      6  C   UNL     1      28.719   1.530  20.016  1.00  0.00     0.188 A 
ATOM      7  O   UNL     1      29.071   2.806  20.155  1.00  0.00    -0.452 OA
ATOM      8  C   UNL     1      27.672   1.017  20.800  1.00  0.00     0.209 A 
ATOM      9  C   UNL     1      27.325  -0.351  20.709  1.00  0.00     0.211 A 
ATOM     10  C   UNL     1      27.995  -1.183  19.796  1.00  0.00     0.208 A 
ATOM     11  C   UNL     1      29.071  -0.676  19.030  1.00  0.00     0.179 A 
ENDROOT
BRANCH   1  12
ATOM     12  C   UNL     1      30.380   4.806  19.718  1.00  0.00     0.018 A 
ATOM     13  C   UNL     1      30.969   7.533  20.171  1.00  0.00     0.118 A 
ATOM     14  C   UNL     1      30.866   6.642  21.244  1.00  0.00     0.047 A 
ATOM     15  C   UNL     1      30.766   7.055  18.864  1.00  0.00     0.047 A 
ATOM     16  C   UNL     1      30.571   5.293  21.025  1.00  0.00     0.016 A 
ATOM     17  C   UNL     1      30.469   5.708  18.643  1.00  0.00     0.016 A 
BRANCH  13  18
ATOM     18  O   UNL     1      31.267   8.876  20.445  1.00  0.00    -0.497 OA
ATOM     19  C   UNL     1      30.321   9.937  20.386  1.00  0.00     0.278 C 
ENDBRANCH  13  18
ENDBRANCH   1  12
BRANCH   8  20
ATOM     20  O   UNL     1      26.983   1.869  21.666  1.00  0.00    -0.490 OA
ATOM     21  C   UNL     1      25.836   2.605  21.252  1.00  0.00     0.278 C 
ENDBRANCH   8  20
BRANCH  11  22
ATOM     22  O   UNL     1      29.830  -1.541  18.239  1.00  0.00    -0.492 OA
ATOM     23  C   UNL     1      30.882  -2.318  18.801  1.00  0.00     0.278 C 
ENDBRANCH  11  22
BRANCH   9  24
ATOM     24  O   UNL     1      26.315  -0.952  21.484  1.00  0.00    -0.490 OA
ATOM     25  C   UNL     1      24.926  -1.004  21.180  1.00  0.00     0.279 C 
ENDBRANCH   9  24
BRANCH  10  26
ATOM     26  O   UNL     1      27.541  -2.512  19.701  1.00  0.00    -0.490 OA
ATOM     27  C   UNL     1      27.994  -3.608  20.489  1.00  0.00     0.278 C 
ENDBRANCH  10  26
TORSDOF 6
ENDMDL
MODEL 6
REMARK VINA RESULT:    -6.719      2.744      7.977
REMARK INTER + INTRA:          -9.634
REMARK INTER:                  -8.962
REMARK INTRA:                  -0.672
REMARK UNBOUND:                -0.558
REMARK SMILES COc1ccc(-c2cc(=O)c3c(OC)c(OC)c(OC)c(OC)c3o2)cc1
REMARK SMILES IDX 7 1 8 2 9 3 10 4 11 5 24 6 25 7 21 8 18 9 15 10 12 11 6 12
REMARK SMILES IDX 3 13 4 14 27 15 5 16 26 17 2 18 1 19 22 20 23 21 13 22 14 23
REMARK SMILES IDX 19 24 20 25 16 26 17 27
REMARK H PARENT
REMARK Flexibility Score: inf
ROOT
ATOM      1  C   UNL     1      28.410   0.881  21.168  1.00  0.00     0.138 A 
ATOM      2  C   UNL     1      28.542   2.145  21.762  1.00  0.00     0.100 A 
ATOM      3  C   UNL     1      29.360   3.101  21.163  1.00  0.00     0.197 A 
ATOM      4  O   UNL     1      29.443   4.242  21.693  1.00  0.00    -0.289 OA
ATOM      5  C   UNL     1      30.055   2.783  19.976  1.00  0.00     0.115 A 
ATOM      6  C   UNL     1      29.826   1.511  19.405  1.00  0.00     0.188 A 
ATOM      7  O   UNL     1      29.037   0.632  20.020  1.00  0.00    -0.452 OA
ATOM      8  C   UNL     1      30.443   1.152  18.196  1.00  0.00     0.209 A 
ATOM      9  C   UNL     1      31.331   2.051  17.561  1.00  0.00     0.211 A 
ATOM     10  C   UNL     1      31.555   3.322  18.116  1.00  0.00     0.208 A 
ATOM     11  C   UNL     1      30.960   3.674  19.351  1.00  0.00     0.179 A 
ENDROOT
BRANCH   1  12
ATOM     12  C   UNL     1      27.578  -0.186  21.782  1.00  0.00     0.018 A 
ATOM     13  C   UNL     1      25.962  -2.175  22.973  1.00  0.00     0.118 A 
ATOM     14  C   UNL     1      26.454  -2.346  21.676  1.00  0.00     0.047 A 
ATOM     15  C   UNL     1      26.274  -0.997  23.674  1.00  0.00     0.047 A 
ATOM     16  C   UNL     1      27.251  -1.362  21.081  1.00  0.00     0.016 A 
ATOM     17  C   UNL     1      27.069  -0.012  23.081  1.00  0.00     0.016 A 
BRANCH  13  18
ATOM     18  O   UNL     1      25.167  -3.192  23.524  1.00  0.00    -0.497 OA
ATOM     19  C   UNL     1      25.643  -4.491  23.857  1.00  0.00     0.278 C 
ENDBRANCH  13  18
ENDBRANCH   1  12
BRANCH   8  20
ATOM     20  O   UNL     1      30.172  -0.097  17.632  1.00  0.00    -0.490 OA
ATOM     21  C   UNL     1      30.944  -1.253  17.944  1.00  0.00     0.278 C 
ENDBRANCH   8  20
BRANCH  11  22
ATOM     22  O   UNL     1      31.304   4.875  19.973  1.00  0.00    -0.492 OA
ATOM     23  C   UNL     1      32.564   5.036  20.615  1.00  0.00     0.278 C 
ENDBRANCH  11  22
BRANCH   9  24
ATOM     24  O   UNL     1      32.019   1.756  16.368  1.00  0.00    -0.490 OA
ATOM     25  C   UNL     1      33.254   1.059  16.249  1.00  0.00     0.279 C 
ENDBRANCH   9  24
BRANCH  10  26
ATOM     26  O   UNL     1      32.386   4.194  17.387  1.00  0.00    -0.490 OA
ATOM     27  C   UNL     1      31.979   5.403  16.755  1.00  0.00     0.278 C 
ENDBRANCH  10  26
TORSDOF 6
ENDMDL
MODEL 7
REMARK VINA RESULT:    -6.695      2.969      6.926
REMARK INTER + INTRA:          -9.602
REMARK INTER:                  -8.975
REMARK INTRA:                  -0.627
REMARK UNBOUND:                -0.558
REMARK SMILES COc1ccc(-c2cc(=O)c3c(OC)c(OC)c(OC)c(OC)c3o2)cc1
REMARK SMILES IDX 7 1 8 2 9 3 10 4 11 5 24 6 25 7 21 8 18 9 15 10 12 11 6 12
REMARK SMILES IDX 3 13 4 14 27 15 5 16 26 17 2 18 1 19 22 20 23 21 13 22 14 23
REMARK SMILES IDX 19 24 20 25 16 26 17 27
REMARK H PARENT
REMARK Flexibility Score: inf
ROOT
ATOM      1  C   UNL     1      28.739   2.759  20.842  1.00  0.00     0.138 A 
ATOM      2  C   UNL     1      29.337   3.907  21.381  1.00  0.00     0.100 A 
ATOM      3  C   UNL     1      30.493   4.417  20.793  1.00  0.00     0.197 A 
ATOM      4  O   UNL     1      31.001   5.467  21.272  1.00  0.00    -0.289 OA
ATOM      5  C   UNL     1      31.055   3.767  19.674  1.00  0.00     0.115 A 
ATOM      6  C   UNL     1      30.363   2.651  19.151  1.00  0.00     0.188 A 
ATOM      7  O   UNL     1      29.264   2.201  19.753  1.00  0.00    -0.452 OA
ATOM      8  C   UNL     1      30.837   1.992  18.005  1.00  0.00     0.209 A 
ATOM      9  C   UNL     1      32.037   2.420  17.389  1.00  0.00     0.211 A 
ATOM     10  C   UNL     1      32.723   3.536  17.895  1.00  0.00     0.208 A 
ATOM     11  C   UNL     1      32.265   4.181  19.068  1.00  0.00     0.179 A 
ENDROOT
BRANCH   1  12
ATOM     12  C   UNL     1      27.526   2.153  21.450  1.00  0.00     0.018 A 
ATOM     13  C   UNL     1      25.192   1.003  22.554  1.00  0.00     0.118 A 
ATOM     14  C   UNL     1      26.457   0.547  22.939  1.00  0.00     0.047 A 
ATOM     15  C   UNL     1      25.097   2.035  21.603  1.00  0.00     0.047 A 
ATOM     16  C   UNL     1      27.614   1.110  22.392  1.00  0.00     0.016 A 
ATOM     17  C   UNL     1      26.252   2.598  21.054  1.00  0.00     0.016 A 
BRANCH  13  18
ATOM     18  O   UNL     1      24.063   0.404  23.132  1.00  0.00    -0.497 OA
ATOM     19  C   UNL     1      23.780  -0.990  23.086  1.00  0.00     0.278 C 
ENDBRANCH  13  18
ENDBRANCH   1  12
BRANCH   8  20
ATOM     20  O   UNL     1      30.116   0.914  17.486  1.00  0.00    -0.490 OA
ATOM     21  C   UNL     1      30.319  -0.421  17.937  1.00  0.00     0.278 C 
ENDBRANCH   8  20
BRANCH  11  22
ATOM     22  O   UNL     1      33.032   5.190  19.653  1.00  0.00    -0.492 OA
ATOM     23  C   UNL     1      34.280   4.900  20.272  1.00  0.00     0.278 C 
ENDBRANCH  11  22
BRANCH   9  24
ATOM     24  O   UNL     1      32.600   1.792  16.262  1.00  0.00    -0.490 OA
ATOM     25  C   UNL     1      33.410   0.622  16.255  1.00  0.00     0.279 C 
ENDBRANCH   9  24
BRANCH  10  26
ATOM     26  O   UNL     1      33.863   3.954  17.183  1.00  0.00    -0.490 OA
ATOM     27  C   UNL     1      33.991   5.167  16.447  1.00  0.00     0.278 C 
ENDBRANCH  10  26
TORSDOF 6
ENDMDL
MODEL 8
REMARK VINA RESULT:    -6.639      2.784      7.494
REMARK INTER + INTRA:          -9.526
REMARK INTER:                  -8.792
REMARK INTRA:                  -0.734
REMARK UNBOUND:                -0.558
REMARK SMILES COc1ccc(-c2cc(=O)c3c(OC)c(OC)c(OC)c(OC)c3o2)cc1
REMARK SMILES IDX 7 1 8 2 9 3 10 4 11 5 24 6 25 7 21 8 18 9 15 10 12 11 6 12
REMARK SMILES IDX 3 13 4 14 27 15 5 16 26 17 2 18 1 19 22 20 23 21 13 22 14 23
REMARK SMILES IDX 19 24 20 25 16 26 17 27
REMARK H PARENT
REMARK Flexibility Score: inf
ROOT
ATOM      1  C   UNL     1      29.108   2.007  18.859  1.00  0.00     0.138 A 
ATOM      2  C   UNL     1      29.065   3.396  19.040  1.00  0.00     0.100 A 
ATOM      3  C   UNL     1      30.200   4.158  18.770  1.00  0.00     0.197 A 
ATOM      4  O   UNL     1      30.136   5.410  18.909  1.00  0.00    -0.289 OA
ATOM      5  C   UNL     1      31.382   3.522  18.330  1.00  0.00     0.115 A 
ATOM      6  C   UNL     1      31.331   2.127  18.114  1.00  0.00     0.188 A 
ATOM      7  O   UNL     1      30.221   1.445  18.391  1.00  0.00    -0.452 OA
ATOM      8  C   UNL     1      32.454   1.441  17.624  1.00  0.00     0.209 A 
ATOM      9  C   UNL     1      33.659   2.141  17.382  1.00  0.00     0.211 A 
ATOM     10  C   UNL     1      33.714   3.530  17.582  1.00  0.00     0.208 A 
ATOM     11  C   UNL     1      32.593   4.217  18.107  1.00  0.00     0.179 A 
ENDROOT
BRANCH   1  12
ATOM     12  C   UNL     1      27.938   1.143  19.164  1.00  0.00     0.018 A 
ATOM     13  C   UNL     1      25.748  -0.536  19.773  1.00  0.00     0.118 A 
ATOM     14  C   UNL     1      25.620   0.854  19.859  1.00  0.00     0.047 A 
ATOM     15  C   UNL     1      26.982  -1.087  19.389  1.00  0.00     0.047 A 
ATOM     16  C   UNL     1      26.702   1.689  19.562  1.00  0.00     0.016 A 
ATOM     17  C   UNL     1      28.066  -0.255  19.094  1.00  0.00     0.016 A 
BRANCH  13  18
ATOM     18  O   UNL     1      24.631  -1.328  20.081  1.00  0.00    -0.497 OA
ATOM     19  C   UNL     1      24.461  -2.034  21.304  1.00  0.00     0.278 C 
ENDBRANCH  13  18
ENDBRANCH   1  12
BRANCH   8  20
ATOM     20  O   UNL     1      32.368   0.068  17.382  1.00  0.00    -0.490 OA
ATOM     21  C   UNL     1      31.960  -0.455  16.122  1.00  0.00     0.278 C 
ENDBRANCH   8  20
BRANCH  11  22
ATOM     22  O   UNL     1      32.701   5.567  18.447  1.00  0.00    -0.492 OA
ATOM     23  C   UNL     1      33.441   5.979  19.591  1.00  0.00     0.278 C 
ENDBRANCH  11  22
BRANCH   9  24
ATOM     24  O   UNL     1      34.841   1.524  16.927  1.00  0.00    -0.490 OA
ATOM     25  C   UNL     1      35.171   1.209  15.579  1.00  0.00     0.279 C 
ENDBRANCH   9  24
BRANCH  10  26
ATOM     26  O   UNL     1      34.920   4.172  17.242  1.00  0.00    -0.490 OA
ATOM     27  C   UNL     1      35.157   4.934  16.063  1.00  0.00     0.278 C 
ENDBRANCH  10  26
TORSDOF 6
ENDMDL
