MODEL 1
REMARK VINA RESULT:    -6.369      0.000      0.000
REMARK INTER + INTRA:          -7.761
REMARK INTER:                  -7.486
REMARK INTRA:                  -0.275
REMARK UNBOUND:                -0.275
REMARK SMILES O=c1cc(-c2ccc(O)c(O)c2)oc2cc(O)cc(O)c12
REMARK SMILES IDX 4 1 3 2 2 3 1 4 21 5 19 6 18 7 16 8 15 9 14 10 13 11 5 12
REMARK SMILES IDX 6 13 7 14 8 15 12 16 10 17 9 18 11 20 20 22 17 24
REMARK H PARENT 9 19 11 21 20 23 17 25
REMARK Flexibility Score: inf
ROOT
ATOM      1  C   UNL     1      69.503  48.140   7.978  1.00  0.00     0.138 A 
ATOM      2  C   UNL     1      69.798  48.277   6.614  1.00  0.00     0.100 A 
ATOM      3  C   UNL     1      71.120  48.174   6.180  1.00  0.00     0.197 A 
ATOM      4  O   UNL     1      71.346  48.239   4.944  1.00  0.00    -0.289 OA
ATOM      5  C   UNL     1      72.154  47.965   7.122  1.00  0.00     0.107 A 
ATOM      6  C   UNL     1      73.542  47.884   6.800  1.00  0.00     0.134 A 
ATOM      7  C   UNL     1      74.465  47.558   7.801  1.00  0.00     0.093 A 
ATOM      8  C   UNL     1      74.060  47.368   9.122  1.00  0.00     0.123 A 
ATOM      9  C   UNL     1      72.711  47.498   9.458  1.00  0.00     0.094 A 
ATOM     10  C   UNL     1      71.762  47.789   8.476  1.00  0.00     0.146 A 
ATOM     11  O   UNL     1      70.487  47.889   8.834  1.00  0.00    -0.456 OA
ENDROOT
BRANCH   1  12
ATOM     12  C   UNL     1      68.113  48.241   8.493  1.00  0.00     0.021 A 
ATOM     13  C   UNL     1      67.808  48.973   9.657  1.00  0.00     0.016 A 
ATOM     14  C   UNL     1      66.493  49.041  10.125  1.00  0.00     0.051 A 
ATOM     15  C   UNL     1      65.464  48.376   9.447  1.00  0.00     0.157 A 
ATOM     16  C   UNL     1      67.076  47.564   7.827  1.00  0.00     0.062 A 
ATOM     17  C   UNL     1      65.759  47.633   8.294  1.00  0.00     0.158 A 
BRANCH  15  18
ATOM     18  O   UNL     1      64.154  48.449   9.916  1.00  0.00    -0.504 OA
ATOM     19  H   UNL     1      63.368  48.177   9.337  1.00  0.00     0.293 HD
ENDBRANCH  15  18
BRANCH  17  20
ATOM     20  O   UNL     1      64.758  46.955   7.597  1.00  0.00    -0.504 OA
ATOM     21  H   UNL     1      64.549  47.155   6.626  1.00  0.00     0.293 HD
ENDBRANCH  17  20
ENDBRANCH   1  12
BRANCH   6  22
ATOM     22  O   UNL     1      74.066  48.138   5.528  1.00  0.00    -0.507 OA
ATOM     23  H   UNL     1      73.517  48.387   4.719  1.00  0.00     0.293 HD
ENDBRANCH   6  22
BRANCH   8  24
ATOM     24  O   UNL     1      75.008  47.060  10.095  1.00  0.00    -0.508 OA
ATOM     25  H   UNL     1      75.376  46.121  10.198  1.00  0.00     0.293 HD
ENDBRANCH   8  24
TORSDOF 5
ENDMDL
MODEL 2
REMARK VINA RESULT:    -6.121      3.313      5.908
REMARK INTER + INTRA:          -7.469
REMARK INTER:                  -7.175
REMARK INTRA:                  -0.295
REMARK UNBOUND:                -0.275
REMARK SMILES O=c1cc(-c2ccc(O)c(O)c2)oc2cc(O)cc(O)c12
REMARK SMILES IDX 4 1 3 2 2 3 1 4 21 5 19 6 18 7 16 8 15 9 14 10 13 11 5 12
REMARK SMILES IDX 6 13 7 14 8 15 12 16 10 17 9 18 11 20 20 22 17 24
REMARK H PARENT 9 19 11 21 20 23 17 25
REMARK Flexibility Score: inf
ROOT
ATOM      1  C   UNL     1      65.125  46.110   8.683  1.00  0.00     0.138 A 
ATOM      2  C   UNL     1      64.941  47.257   9.468  1.00  0.00     0.100 A 
ATOM      3  C   UNL     1      65.910  48.263   9.459  1.00  0.00     0.197 A 
ATOM      4  O   UNL     1      65.688  49.307  10.125  1.00  0.00    -0.289 OA
ATOM      5  C   UNL     1      67.082  48.102   8.684  1.00  0.00     0.107 A 
ATOM      6  C   UNL     1      68.155  49.041   8.630  1.00  0.00     0.134 A 
ATOM      7  C   UNL     1      69.212  48.830   7.737  1.00  0.00     0.093 A 
ATOM      8  C   UNL     1      69.267  47.687   6.941  1.00  0.00     0.123 A 
ATOM      9  C   UNL     1      68.250  46.734   7.026  1.00  0.00     0.094 A 
ATOM     10  C   UNL     1      67.164  46.933   7.882  1.00  0.00     0.146 A 
ATOM     11  O   UNL     1      66.209  46.010   7.922  1.00  0.00    -0.456 OA
ENDROOT
BRANCH   1  12
ATOM     12  C   UNL     1      64.127  45.011   8.656  1.00  0.00     0.021 A 
ATOM     13  C   UNL     1      64.328  43.848   7.887  1.00  0.00     0.016 A 
ATOM     14  C   UNL     1      63.367  42.835   7.872  1.00  0.00     0.051 A 
ATOM     15  C   UNL     1      62.188  42.965   8.615  1.00  0.00     0.157 A 
ATOM     16  C   UNL     1      62.934  45.140   9.389  1.00  0.00     0.062 A 
ATOM     17  C   UNL     1      61.971  44.125   9.375  1.00  0.00     0.158 A 
BRANCH  15  18
ATOM     18  O   UNL     1      61.232  41.951   8.599  1.00  0.00    -0.504 OA
ATOM     19  H   UNL     1      61.309  41.160   7.970  1.00  0.00     0.293 HD
ENDBRANCH  15  18
BRANCH  17  20
ATOM     20  O   UNL     1      60.805  44.288  10.125  1.00  0.00    -0.504 OA
ATOM     21  H   UNL     1      59.884  44.216   9.709  1.00  0.00     0.293 HD
ENDBRANCH  17  20
ENDBRANCH   1  12
BRANCH   6  22
ATOM     22  O   UNL     1      68.242  50.176   9.442  1.00  0.00    -0.507 OA
ATOM     23  H   UNL     1      67.765  50.292  10.323  1.00  0.00     0.293 HD
ENDBRANCH   6  22
BRANCH   8  24
ATOM     24  O   UNL     1      70.343  47.502   6.076  1.00  0.00    -0.508 OA
ATOM     25  H   UNL     1      70.374  47.948   5.166  1.00  0.00     0.293 HD
ENDBRANCH   8  24
TORSDOF 5
ENDMDL
MODEL 3
REMARK VINA RESULT:    -6.114      1.238      2.645
REMARK INTER + INTRA:          -7.461
REMARK INTER:                  -7.165
REMARK INTRA:                  -0.297
REMARK UNBOUND:                -0.275
REMARK SMILES O=c1cc(-c2ccc(O)c(O)c2)oc2cc(O)cc(O)c12
REMARK SMILES IDX 4 1 3 2 2 3 1 4 21 5 19 6 18 7 16 8 15 9 14 10 13 11 5 12
REMARK SMILES IDX 6 13 7 14 8 15 12 16 10 17 9 18 11 20 20 22 17 24
REMARK H PARENT 9 19 11 21 20 23 17 25
REMARK Flexibility Score: inf
ROOT
ATOM      1  C   UNL     1      69.671  48.049   8.518  1.00  0.00     0.138 A 
ATOM      2  C   UNL     1      70.619  48.280   9.525  1.00  0.00     0.100 A 
ATOM      3  C   UNL     1      71.975  48.320   9.201  1.00  0.00     0.197 A 
ATOM      4  O   UNL     1      72.797  48.591  10.114  1.00  0.00    -0.289 OA
ATOM      5  C   UNL     1      72.385  48.096   7.866  1.00  0.00     0.107 A 
ATOM      6  C   UNL     1      73.742  48.072   7.425  1.00  0.00     0.134 A 
ATOM      7  C   UNL     1      74.023  47.957   6.058  1.00  0.00     0.093 A 
ATOM      8  C   UNL     1      73.000  47.804   5.122  1.00  0.00     0.123 A 
ATOM      9  C   UNL     1      71.671  47.770   5.548  1.00  0.00     0.094 A 
ATOM     10  C   UNL     1      71.357  47.918   6.901  1.00  0.00     0.146 A 
ATOM     11  O   UNL     1      70.079  47.896   7.264  1.00  0.00    -0.456 OA
ENDROOT
BRANCH   1  12
ATOM     12  C   UNL     1      68.215  47.996   8.809  1.00  0.00     0.021 A 
ATOM     13  C   UNL     1      67.611  48.881   9.722  1.00  0.00     0.016 A 
ATOM     14  C   UNL     1      66.241  48.801   9.984  1.00  0.00     0.051 A 
ATOM     15  C   UNL     1      65.453  47.834   9.348  1.00  0.00     0.157 A 
ATOM     16  C   UNL     1      67.420  47.019   8.185  1.00  0.00     0.062 A 
ATOM     17  C   UNL     1      66.047  46.938   8.445  1.00  0.00     0.158 A 
BRANCH  15  18
ATOM     18  O   UNL     1      64.086  47.759   9.610  1.00  0.00    -0.504 OA
ATOM     19  H   UNL     1      63.450  48.493   9.322  1.00  0.00     0.293 HD
ENDBRANCH  15  18
BRANCH  17  20
ATOM     20  O   UNL     1      65.292  45.960   7.797  1.00  0.00    -0.504 OA
ATOM     21  H   UNL     1      64.471  45.546   8.222  1.00  0.00     0.293 HD
ENDBRANCH  17  20
ENDBRANCH   1  12
BRANCH   6  22
ATOM     22  O   UNL     1      74.844  48.133   8.284  1.00  0.00    -0.507 OA
ATOM     23  H   UNL     1      75.273  47.335   8.727  1.00  0.00     0.293 HD
ENDBRANCH   6  22
BRANCH   8  24
ATOM     24  O   UNL     1      73.317  47.676   3.772  1.00  0.00    -0.508 OA
ATOM     25  H   UNL     1      72.657  47.930   3.046  1.00  0.00     0.293 HD
ENDBRANCH   8  24
TORSDOF 5
ENDMDL
MODEL 4
REMARK VINA RESULT:    -5.915      2.116      7.226
REMARK INTER + INTRA:          -7.228
REMARK INTER:                  -6.957
REMARK INTRA:                  -0.270
REMARK UNBOUND:                -0.275
REMARK SMILES O=c1cc(-c2ccc(O)c(O)c2)oc2cc(O)cc(O)c12
REMARK SMILES IDX 4 1 3 2 2 3 1 4 21 5 19 6 18 7 16 8 15 9 14 10 13 11 5 12
REMARK SMILES IDX 6 13 7 14 8 15 12 16 10 17 9 18 11 20 20 22 17 24
REMARK H PARENT 9 19 11 21 20 23 17 25
REMARK Flexibility Score: inf
ROOT
ATOM      1  C   UNL     1      70.677  47.616   7.273  1.00  0.00     0.138 A 
ATOM      2  C   UNL     1      70.871  48.630   8.222  1.00  0.00     0.100 A 
ATOM      3  C   UNL     1      69.770  49.174   8.885  1.00  0.00     0.197 A 
ATOM      4  O   UNL     1      69.980  50.037   9.775  1.00  0.00    -0.289 OA
ATOM      5  C   UNL     1      68.467  48.720   8.573  1.00  0.00     0.107 A 
ATOM      6  C   UNL     1      67.268  49.230   9.155  1.00  0.00     0.134 A 
ATOM      7  C   UNL     1      66.042  48.623   8.854  1.00  0.00     0.093 A 
ATOM      8  C   UNL     1      65.964  47.567   7.947  1.00  0.00     0.123 A 
ATOM      9  C   UNL     1      67.124  47.096   7.329  1.00  0.00     0.094 A 
ATOM     10  C   UNL     1      68.366  47.657   7.636  1.00  0.00     0.146 A 
ATOM     11  O   UNL     1      69.448  47.171   7.038  1.00  0.00    -0.456 OA
ENDROOT
BRANCH   1  12
ATOM     12  C   UNL     1      71.813  47.003   6.537  1.00  0.00     0.021 A 
ATOM     13  C   UNL     1      72.026  45.611   6.532  1.00  0.00     0.016 A 
ATOM     14  C   UNL     1      73.109  45.063   5.840  1.00  0.00     0.051 A 
ATOM     15  C   UNL     1      74.002  45.893   5.151  1.00  0.00     0.157 A 
ATOM     16  C   UNL     1      72.722  47.830   5.854  1.00  0.00     0.062 A 
ATOM     17  C   UNL     1      73.808  47.283   5.160  1.00  0.00     0.158 A 
BRANCH  15  18
ATOM     18  O   UNL     1      75.080  45.342   4.461  1.00  0.00    -0.504 OA
ATOM     19  H   UNL     1      74.960  44.565   3.821  1.00  0.00     0.293 HD
ENDBRANCH  15  18
BRANCH  17  20
ATOM     20  O   UNL     1      74.680  48.138   4.486  1.00  0.00    -0.504 OA
ATOM     21  H   UNL     1      75.106  47.884   3.603  1.00  0.00     0.293 HD
ENDBRANCH  17  20
ENDBRANCH   1  12
BRANCH   6  22
ATOM     22  O   UNL     1      67.223  50.336  10.009  1.00  0.00    -0.507 OA
ATOM     23  H   UNL     1      67.808  50.460  10.821  1.00  0.00     0.293 HD
ENDBRANCH   6  22
BRANCH   8  24
ATOM     24  O   UNL     1      64.725  46.998   7.659  1.00  0.00    -0.508 OA
ATOM     25  H   UNL     1      64.399  46.894   6.705  1.00  0.00     0.293 HD
ENDBRANCH   8  24
TORSDOF 5
ENDMDL
MODEL 5
REMARK VINA RESULT:    -5.762      1.389      2.981
REMARK INTER + INTRA:          -7.047
REMARK INTER:                  -6.776
REMARK INTRA:                  -0.272
REMARK UNBOUND:                -0.275
REMARK SMILES O=c1cc(-c2ccc(O)c(O)c2)oc2cc(O)cc(O)c12
REMARK SMILES IDX 4 1 3 2 2 3 1 4 21 5 19 6 18 7 16 8 15 9 14 10 13 11 5 12
REMARK SMILES IDX 6 13 7 14 8 15 12 16 10 17 9 18 11 20 20 22 17 24
REMARK H PARENT 9 19 11 21 20 23 17 25
REMARK Flexibility Score: inf
ROOT
ATOM      1  C   UNL     1      69.421  47.533   8.189  1.00  0.00     0.138 A 
ATOM      2  C   UNL     1      70.233  47.894   9.273  1.00  0.00     0.100 A 
ATOM      3  C   UNL     1      71.597  48.109   9.073  1.00  0.00     0.197 A 
ATOM      4  O   UNL     1      72.288  48.492  10.052  1.00  0.00    -0.289 OA
ATOM      5  C   UNL     1      72.155  47.930   7.785  1.00  0.00     0.107 A 
ATOM      6  C   UNL     1      73.539  48.081   7.471  1.00  0.00     0.134 A 
ATOM      7  C   UNL     1      73.957  47.992   6.138  1.00  0.00     0.093 A 
ATOM      8  C   UNL     1      73.055  47.699   5.116  1.00  0.00     0.123 A 
ATOM      9  C   UNL     1      71.707  47.496   5.419  1.00  0.00     0.094 A 
ATOM     10  C   UNL     1      71.253  47.612   6.735  1.00  0.00     0.146 A 
ATOM     11  O   UNL     1      69.960  47.426   6.980  1.00  0.00    -0.456 OA
ENDROOT
BRANCH   1  12
ATOM     12  C   UNL     1      67.964  47.292   8.347  1.00  0.00     0.021 A 
ATOM     13  C   UNL     1      67.343  46.142   7.822  1.00  0.00     0.016 A 
ATOM     14  C   UNL     1      65.968  45.947   7.976  1.00  0.00     0.051 A 
ATOM     15  C   UNL     1      65.189  46.897   8.647  1.00  0.00     0.157 A 
ATOM     16  C   UNL     1      67.171  48.248   9.007  1.00  0.00     0.062 A 
ATOM     17  C   UNL     1      65.794  48.054   9.162  1.00  0.00     0.158 A 
BRANCH  15  18
ATOM     18  O   UNL     1      63.818  46.698   8.800  1.00  0.00    -0.504 OA
ATOM     19  H   UNL     1      63.324  45.984   8.277  1.00  0.00     0.293 HD
ENDBRANCH  15  18
BRANCH  17  20
ATOM     20  O   UNL     1      65.046  49.022   9.833  1.00  0.00    -0.504 OA
ATOM     21  H   UNL     1      65.471  49.682  10.473  1.00  0.00     0.293 HD
ENDBRANCH  17  20
ENDBRANCH   1  12
BRANCH   6  22
ATOM     22  O   UNL     1      74.538  48.292   8.425  1.00  0.00    -0.507 OA
ATOM     23  H   UNL     1      74.747  47.667   9.189  1.00  0.00     0.293 HD
ENDBRANCH   6  22
BRANCH   8  24
ATOM     24  O   UNL     1      73.510  47.603   3.803  1.00  0.00    -0.508 OA
ATOM     25  H   UNL     1      73.636  46.705   3.350  1.00  0.00     0.293 HD
ENDBRANCH   8  24
TORSDOF 5
ENDMDL
MODEL 6
REMARK VINA RESULT:    -5.598      2.060      7.241
REMARK INTER + INTRA:          -6.855
REMARK INTER:                  -6.573
REMARK INTRA:                  -0.282
REMARK UNBOUND:                -0.275
REMARK SMILES O=c1cc(-c2ccc(O)c(O)c2)oc2cc(O)cc(O)c12
REMARK SMILES IDX 4 1 3 2 2 3 1 4 21 5 19 6 18 7 16 8 15 9 14 10 13 11 5 12
REMARK SMILES IDX 6 13 7 14 8 15 12 16 10 17 9 18 11 20 20 22 17 24
REMARK H PARENT 9 19 11 21 20 23 17 25
REMARK Flexibility Score: inf
ROOT
ATOM      1  C   UNL     1      68.488  47.513   8.974  1.00  0.00     0.138 A 
ATOM      2  C   UNL     1      67.533  48.368   9.541  1.00  0.00     0.100 A 
ATOM      3  C   UNL     1      66.189  47.989   9.555  1.00  0.00     0.197 A 
ATOM      4  O   UNL     1      65.364  48.748  10.125  1.00  0.00    -0.289 OA
ATOM      5  C   UNL     1      65.800  46.762   8.970  1.00  0.00     0.107 A 
ATOM      6  C   UNL     1      64.455  46.291   8.889  1.00  0.00     0.134 A 
ATOM      7  C   UNL     1      64.202  45.006   8.393  1.00  0.00     0.093 A 
ATOM      8  C   UNL     1      65.235  44.200   7.918  1.00  0.00     0.123 A 
ATOM      9  C   UNL     1      66.549  44.672   7.941  1.00  0.00     0.094 A 
ATOM     10  C   UNL     1      66.838  45.935   8.463  1.00  0.00     0.146 A 
ATOM     11  O   UNL     1      68.102  46.342   8.481  1.00  0.00    -0.456 OA
ENDROOT
BRANCH   1  12
ATOM     12  C   UNL     1      69.930  47.867   8.932  1.00  0.00     0.021 A 
ATOM     13  C   UNL     1      70.641  48.215  10.097  1.00  0.00     0.016 A 
ATOM     14  C   UNL     1      71.994  48.554  10.026  1.00  0.00     0.051 A 
ATOM     15  C   UNL     1      72.659  48.561   8.794  1.00  0.00     0.157 A 
ATOM     16  C   UNL     1      70.602  47.890   7.697  1.00  0.00     0.062 A 
ATOM     17  C   UNL     1      71.958  48.229   7.625  1.00  0.00     0.158 A 
BRANCH  15  18
ATOM     18  O   UNL     1      74.010  48.898   8.728  1.00  0.00    -0.504 OA
ATOM     19  H   UNL     1      74.498  49.291   9.525  1.00  0.00     0.293 HD
ENDBRANCH  15  18
BRANCH  17  20
ATOM     20  O   UNL     1      72.590  48.229   6.381  1.00  0.00    -0.504 OA
ATOM     21  H   UNL     1      72.099  47.985   5.529  1.00  0.00     0.293 HD
ENDBRANCH  17  20
ENDBRANCH   1  12
BRANCH   6  22
ATOM     22  O   UNL     1      63.339  47.047   9.259  1.00  0.00    -0.507 OA
ATOM     23  H   UNL     1      62.428  46.667   9.468  1.00  0.00     0.293 HD
ENDBRANCH   6  22
BRANCH   8  24
ATOM     24  O   UNL     1      64.945  42.934   7.415  1.00  0.00    -0.508 OA
ATOM     25  H   UNL     1      64.056  42.731   6.973  1.00  0.00     0.293 HD
ENDBRANCH   8  24
TORSDOF 5
ENDMDL
MODEL 7
REMARK VINA RESULT:    -5.542      1.835      7.122
REMARK INTER + INTRA:          -6.790
REMARK INTER:                  -6.498
REMARK INTRA:                  -0.292
REMARK UNBOUND:                -0.275
REMARK SMILES O=c1cc(-c2ccc(O)c(O)c2)oc2cc(O)cc(O)c12
REMARK SMILES IDX 4 1 3 2 2 3 1 4 21 5 19 6 18 7 16 8 15 9 14 10 13 11 5 12
REMARK SMILES IDX 6 13 7 14 8 15 12 16 10 17 9 18 11 20 20 22 17 24
REMARK H PARENT 9 19 11 21 20 23 17 25
REMARK Flexibility Score: inf
ROOT
ATOM      1  C   UNL     1      69.669  48.111   7.432  1.00  0.00     0.138 A 
ATOM      2  C   UNL     1      69.306  49.167   8.280  1.00  0.00     0.100 A 
ATOM      3  C   UNL     1      68.050  49.164   8.888  1.00  0.00     0.197 A 
ATOM      4  O   UNL     1      67.777  50.091   9.693  1.00  0.00    -0.289 OA
ATOM      5  C   UNL     1      67.142  48.113   8.619  1.00  0.00     0.107 A 
ATOM      6  C   UNL     1      65.820  48.025   9.149  1.00  0.00     0.134 A 
ATOM      7  C   UNL     1      65.053  46.879   8.906  1.00  0.00     0.093 A 
ATOM      8  C   UNL     1      65.535  45.846   8.103  1.00  0.00     0.123 A 
ATOM      9  C   UNL     1      66.806  45.945   7.534  1.00  0.00     0.094 A 
ATOM     10  C   UNL     1      67.609  47.060   7.787  1.00  0.00     0.146 A 
ATOM     11  O   UNL     1      68.818  47.110   7.239  1.00  0.00    -0.456 OA
ENDROOT
BRANCH   1  12
ATOM     12  C   UNL     1      70.993  48.066   6.759  1.00  0.00     0.021 A 
ATOM     13  C   UNL     1      72.183  48.367   7.448  1.00  0.00     0.016 A 
ATOM     14  C   UNL     1      73.413  48.326   6.787  1.00  0.00     0.051 A 
ATOM     15  C   UNL     1      73.476  47.994   5.428  1.00  0.00     0.157 A 
ATOM     16  C   UNL     1      71.064  47.747   5.391  1.00  0.00     0.062 A 
ATOM     17  C   UNL     1      72.295  47.705   4.728  1.00  0.00     0.158 A 
BRANCH  15  18
ATOM     18  O   UNL     1      74.706  47.953   4.773  1.00  0.00    -0.504 OA
ATOM     19  H   UNL     1      75.293  48.775   4.695  1.00  0.00     0.293 HD
ENDBRANCH  15  18
BRANCH  17  20
ATOM     20  O   UNL     1      72.323  47.373   3.373  1.00  0.00    -0.504 OA
ATOM     21  H   UNL     1      72.266  46.414   3.053  1.00  0.00     0.293 HD
ENDBRANCH  17  20
ENDBRANCH   1  12
BRANCH   6  22
ATOM     22  O   UNL     1      65.209  49.038   9.894  1.00  0.00    -0.507 OA
ATOM     23  H   UNL     1      65.018  48.990  10.884  1.00  0.00     0.293 HD
ENDBRANCH   6  22
BRANCH   8  24
ATOM     24  O   UNL     1      64.738  44.728   7.870  1.00  0.00    -0.508 OA
ATOM     25  H   UNL     1      64.543  44.054   8.602  1.00  0.00     0.293 HD
ENDBRANCH   8  24
TORSDOF 5
ENDMDL
MODEL 8
REMARK VINA RESULT:    -5.537      2.263      2.932
REMARK INTER + INTRA:          -6.783
REMARK INTER:                  -6.519
REMARK INTRA:                  -0.264
REMARK UNBOUND:                -0.275
REMARK SMILES O=c1cc(-c2ccc(O)c(O)c2)oc2cc(O)cc(O)c12
REMARK SMILES IDX 4 1 3 2 2 3 1 4 21 5 19 6 18 7 16 8 15 9 14 10 13 11 5 12
REMARK SMILES IDX 6 13 7 14 8 15 12 16 10 17 9 18 11 20 20 22 17 24
REMARK H PARENT 9 19 11 21 20 23 17 25
REMARK Flexibility Score: inf
ROOT
ATOM      1  C   UNL     1      69.762  46.581   7.468  1.00  0.00     0.138 A 
ATOM      2  C   UNL     1      70.018  45.210   7.612  1.00  0.00     0.100 A 
ATOM      3  C   UNL     1      71.183  44.665   7.070  1.00  0.00     0.197 A 
ATOM      4  O   UNL     1      71.416  43.445   7.269  1.00  0.00    -0.289 OA
ATOM      5  C   UNL     1      72.078  45.492   6.353  1.00  0.00     0.107 A 
ATOM      6  C   UNL     1      73.275  45.039   5.722  1.00  0.00     0.134 A 
ATOM      7  C   UNL     1      74.143  45.970   5.139  1.00  0.00     0.093 A 
ATOM      8  C   UNL     1      73.831  47.329   5.111  1.00  0.00     0.123 A 
ATOM      9  C   UNL     1      72.636  47.777   5.678  1.00  0.00     0.094 A 
ATOM     10  C   UNL     1      71.766  46.877   6.297  1.00  0.00     0.146 A 
ATOM     11  O   UNL     1      70.646  47.345   6.837  1.00  0.00    -0.456 OA
ENDROOT
BRANCH   1  12
ATOM     12  C   UNL     1      68.538  47.213   8.025  1.00  0.00     0.021 A 
ATOM     13  C   UNL     1      68.597  48.116   9.103  1.00  0.00     0.016 A 
ATOM     14  C   UNL     1      67.428  48.687   9.614  1.00  0.00     0.051 A 
ATOM     15  C   UNL     1      66.183  48.361   9.064  1.00  0.00     0.157 A 
ATOM     16  C   UNL     1      67.281  46.880   7.488  1.00  0.00     0.062 A 
ATOM     17  C   UNL     1      66.110  47.452   7.997  1.00  0.00     0.158 A 
BRANCH  15  18
ATOM     18  O   UNL     1      65.019  48.934   9.575  1.00  0.00    -0.504 OA
ATOM     19  H   UNL     1      64.442  48.448  10.252  1.00  0.00     0.293 HD
ENDBRANCH  15  18
BRANCH  17  20
ATOM     20  O   UNL     1      64.885  47.103   7.429  1.00  0.00    -0.504 OA
ATOM     21  H   UNL     1      64.458  47.652   6.693  1.00  0.00     0.293 HD
ENDBRANCH  17  20
ENDBRANCH   1  12
BRANCH   6  22
ATOM     22  O   UNL     1      73.643  43.694   5.619  1.00  0.00    -0.507 OA
ATOM     23  H   UNL     1      74.183  43.190   6.305  1.00  0.00     0.293 HD
ENDBRANCH   6  22
BRANCH   8  24
ATOM     24  O   UNL     1      74.711  48.225   4.509  1.00  0.00    -0.508 OA
ATOM     25  H   UNL     1      75.625  48.416   4.904  1.00  0.00     0.293 HD
ENDBRANCH   8  24
TORSDOF 5
ENDMDL
MODEL 9
REMARK VINA RESULT:    -5.474      4.192      6.994
REMARK INTER + INTRA:          -6.709
REMARK INTER:                  -6.402
REMARK INTRA:                  -0.307
REMARK UNBOUND:                -0.275
REMARK SMILES O=c1cc(-c2ccc(O)c(O)c2)oc2cc(O)cc(O)c12
REMARK SMILES IDX 4 1 3 2 2 3 1 4 21 5 19 6 18 7 16 8 15 9 14 10 13 11 5 12
REMARK SMILES IDX 6 13 7 14 8 15 12 16 10 17 9 18 11 20 20 22 17 24
REMARK H PARENT 9 19 11 21 20 23 17 25
REMARK Flexibility Score: inf
ROOT
ATOM      1  C   UNL     1      73.018  45.092   6.493  1.00  0.00     0.138 A 
ATOM      2  C   UNL     1      73.972  45.466   7.450  1.00  0.00     0.100 A 
ATOM      3  C   UNL     1      73.916  46.740   8.018  1.00  0.00     0.197 A 
ATOM      4  O   UNL     1      74.747  47.025   8.919  1.00  0.00    -0.289 OA
ATOM      5  C   UNL     1      72.919  47.652   7.601  1.00  0.00     0.107 A 
ATOM      6  C   UNL     1      72.790  48.990   8.081  1.00  0.00     0.134 A 
ATOM      7  C   UNL     1      71.694  49.764   7.682  1.00  0.00     0.093 A 
ATOM      8  C   UNL     1      70.754  49.271   6.777  1.00  0.00     0.123 A 
ATOM      9  C   UNL     1      70.900  47.983   6.259  1.00  0.00     0.094 A 
ATOM     10  C   UNL     1      71.965  47.174   6.664  1.00  0.00     0.146 A 
ATOM     11  O   UNL     1      72.060  45.949   6.160  1.00  0.00    -0.456 OA
ENDROOT
BRANCH   1  12
ATOM     12  C   UNL     1      73.031  43.749   5.856  1.00  0.00     0.021 A 
ATOM     13  C   UNL     1      74.229  43.036   5.660  1.00  0.00     0.016 A 
ATOM     14  C   UNL     1      74.213  41.780   5.048  1.00  0.00     0.051 A 
ATOM     15  C   UNL     1      73.005  41.219   4.616  1.00  0.00     0.157 A 
ATOM     16  C   UNL     1      71.825  43.185   5.406  1.00  0.00     0.062 A 
ATOM     17  C   UNL     1      71.806  41.926   4.795  1.00  0.00     0.158 A 
BRANCH  15  18
ATOM     18  O   UNL     1      72.993  39.964   4.008  1.00  0.00    -0.504 OA
ATOM     19  H   UNL     1      73.466  39.797   3.127  1.00  0.00     0.293 HD
ENDBRANCH  15  18
BRANCH  17  20
ATOM     20  O   UNL     1      70.586  41.397   4.372  1.00  0.00    -0.504 OA
ATOM     21  H   UNL     1      69.711  41.889   4.507  1.00  0.00     0.293 HD
ENDBRANCH  17  20
ENDBRANCH   1  12
BRANCH   6  22
ATOM     22  O   UNL     1      73.718  49.611   8.923  1.00  0.00    -0.507 OA
ATOM     23  H   UNL     1      74.251  49.140   9.639  1.00  0.00     0.293 HD
ENDBRANCH   6  22
BRANCH   8  24
ATOM     24  O   UNL     1      69.684  50.075   6.390  1.00  0.00    -0.508 OA
ATOM     25  H   UNL     1      69.394  50.873   6.944  1.00  0.00     0.293 HD
ENDBRANCH   8  24
TORSDOF 5
ENDMDL
