MODEL 1
REMARK VINA RESULT:    -3.170      0.000      0.000
REMARK INTER + INTRA:          -3.742
REMARK INTER:                  -3.726
REMARK INTRA:                  -0.016
REMARK UNBOUND:                -0.016
REMARK SMILES CCCCC(=O)[O-]
REMARK SMILES IDX 4 1 5 2 6 3 7 4 3 5 2 6 1 7
REMARK H PARENT
REMARK Flexibility Score: inf
ROOT
ATOM      1  C   UNL     1      10.219   6.036  -7.167  1.00  0.00     0.053 C 
ENDROOT
BRANCH   1   2
ATOM      2  C   UNL     1      10.879   4.770  -6.725  1.00  0.00     0.041 C 
ATOM      3  O   UNL     1      11.705   4.189  -7.477  1.00  0.00    -0.550 OA
ATOM      4  O   UNL     1      10.546   4.203  -5.500  1.00  0.00    -0.550 OA
ENDBRANCH   1   2
BRANCH   1   5
ATOM      5  C   UNL     1      11.027   7.253  -6.704  1.00  0.00     0.006 C 
BRANCH   5   6
ATOM      6  C   UNL     1      10.611   8.512  -7.474  1.00  0.00    -0.003 C 
ATOM      7  C   UNL     1      11.759   9.515  -7.549  1.00  0.00     0.004 C 
ENDBRANCH   5   6
ENDBRANCH   1   5
TORSDOF 3
ENDMDL
MODEL 2
REMARK VINA RESULT:    -3.131     15.344     15.898
REMARK INTER + INTRA:          -3.696
REMARK INTER:                  -3.587
REMARK INTRA:                  -0.109
REMARK UNBOUND:                -0.016
REMARK SMILES CCCCC(=O)[O-]
REMARK SMILES IDX 4 1 5 2 6 3 7 4 3 5 2 6 1 7
REMARK H PARENT
REMARK Flexibility Score: inf
ROOT
ATOM      1  C   UNL     1      23.997   9.584   2.529  1.00  0.00     0.053 C 
ENDROOT
BRANCH   1   2
ATOM      2  C   UNL     1      24.134  10.485   1.345  1.00  0.00     0.041 C 
ATOM      3  O   UNL     1      23.532  11.591   1.317  1.00  0.00    -0.550 OA
ATOM      4  O   UNL     1      24.888  10.084   0.249  1.00  0.00    -0.550 OA
ENDBRANCH   1   2
BRANCH   1   5
ATOM      5  C   UNL     1      22.778   9.981   3.368  1.00  0.00     0.006 C 
BRANCH   5   6
ATOM      6  C   UNL     1      21.570   9.097   3.034  1.00  0.00    -0.003 C 
ATOM      7  C   UNL     1      20.402   9.933   2.519  1.00  0.00     0.004 C 
ENDBRANCH   5   6
ENDBRANCH   1   5
TORSDOF 3
ENDMDL
MODEL 3
REMARK VINA RESULT:    -3.127      4.142      5.323
REMARK INTER + INTRA:          -3.692
REMARK INTER:                  -3.676
REMARK INTRA:                  -0.016
REMARK UNBOUND:                -0.016
REMARK SMILES CCCCC(=O)[O-]
REMARK SMILES IDX 4 1 5 2 6 3 7 4 3 5 2 6 1 7
REMARK H PARENT
REMARK Flexibility Score: inf
ROOT
ATOM      1  C   UNL     1      11.315  10.392  -9.030  1.00  0.00     0.053 C 
ENDROOT
BRANCH   1   2
ATOM      2  C   UNL     1      11.789   9.931  -7.688  1.00  0.00     0.041 C 
ATOM      3  O   UNL     1      11.609   8.739  -7.328  1.00  0.00    -0.550 OA
ATOM      4  O   UNL     1      12.386  10.832  -6.815  1.00  0.00    -0.550 OA
ENDBRANCH   1   2
BRANCH   1   5
ATOM      5  C   UNL     1      12.452  11.077  -9.794  1.00  0.00     0.006 C 
BRANCH   5   6
ATOM      6  C   UNL     1      12.033  11.392 -11.235  1.00  0.00    -0.003 C 
ATOM      7  C   UNL     1      13.115  10.975 -12.227  1.00  0.00     0.004 C 
ENDBRANCH   5   6
ENDBRANCH   1   5
TORSDOF 3
ENDMDL
MODEL 4
REMARK VINA RESULT:    -2.971     15.766     16.227
REMARK INTER + INTRA:          -3.508
REMARK INTER:                  -3.479
REMARK INTRA:                  -0.028
REMARK UNBOUND:                -0.016
REMARK SMILES CCCCC(=O)[O-]
REMARK SMILES IDX 4 1 5 2 6 3 7 4 3 5 2 6 1 7
REMARK H PARENT
REMARK Flexibility Score: inf
ROOT
ATOM      1  C   UNL     1      25.333  -0.331 -11.230  1.00  0.00     0.053 C 
ENDROOT
BRANCH   1   2
ATOM      2  C   UNL     1      25.198  -0.936  -9.869  1.00  0.00     0.041 C 
ATOM      3  O   UNL     1      24.146  -1.549  -9.550  1.00  0.00    -0.550 OA
ATOM      4  O   UNL     1      26.215  -0.780  -8.935  1.00  0.00    -0.550 OA
ENDBRANCH   1   2
BRANCH   1   5
ATOM      5  C   UNL     1      24.082  -0.610 -12.068  1.00  0.00     0.006 C 
BRANCH   5   6
ATOM      6  C   UNL     1      24.308  -0.226 -13.536  1.00  0.00    -0.003 C 
ATOM      7  C   UNL     1      24.738   1.232 -13.664  1.00  0.00     0.004 C 
ENDBRANCH   5   6
ENDBRANCH   1   5
TORSDOF 3
ENDMDL
MODEL 5
REMARK VINA RESULT:    -2.968      2.326      3.790
REMARK INTER + INTRA:          -3.504
REMARK INTER:                  -3.401
REMARK INTRA:                  -0.104
REMARK UNBOUND:                -0.016
REMARK SMILES CCCCC(=O)[O-]
REMARK SMILES IDX 4 1 5 2 6 3 7 4 3 5 2 6 1 7
REMARK H PARENT
REMARK Flexibility Score: inf
ROOT
ATOM      1  C   UNL     1       9.889   6.739  -7.426  1.00  0.00     0.053 C 
ENDROOT
BRANCH   1   2
ATOM      2  C   UNL     1      10.739   7.760  -6.740  1.00  0.00     0.041 C 
ATOM      3  O   UNL     1      10.808   7.786  -5.483  1.00  0.00    -0.550 OA
ATOM      4  O   UNL     1      11.418   8.715  -7.487  1.00  0.00    -0.550 OA
ENDBRANCH   1   2
BRANCH   1   5
ATOM      5  C   UNL     1       9.964   5.397  -6.692  1.00  0.00     0.006 C 
BRANCH   5   6
ATOM      6  C   UNL     1      11.189   4.592  -7.143  1.00  0.00    -0.003 C 
ATOM      7  C   UNL     1      12.225   4.493  -6.028  1.00  0.00     0.004 C 
ENDBRANCH   5   6
ENDBRANCH   1   5
TORSDOF 3
ENDMDL
MODEL 6
REMARK VINA RESULT:    -2.967      4.377      5.464
REMARK INTER + INTRA:          -3.503
REMARK INTER:                  -3.461
REMARK INTRA:                  -0.043
REMARK UNBOUND:                -0.016
REMARK SMILES CCCCC(=O)[O-]
REMARK SMILES IDX 4 1 5 2 6 3 7 4 3 5 2 6 1 7
REMARK H PARENT
REMARK Flexibility Score: inf
ROOT
ATOM      1  C   UNL     1      12.088   9.935  -7.813  1.00  0.00     0.053 C 
ENDROOT
BRANCH   1   2
ATOM      2  C   UNL     1      12.858  10.876  -8.684  1.00  0.00     0.041 C 
ATOM      3  O   UNL     1      13.561  11.785  -8.168  1.00  0.00    -0.550 OA
ATOM      4  O   UNL     1      12.760  10.783 -10.067  1.00  0.00    -0.550 OA
ENDBRANCH   1   2
BRANCH   1   5
ATOM      5  C   UNL     1      10.623   9.873  -8.254  1.00  0.00     0.006 C 
BRANCH   5   6
ATOM      6  C   UNL     1       9.970   8.559  -7.808  1.00  0.00    -0.003 C 
ATOM      7  C   UNL     1      10.894   7.771  -6.885  1.00  0.00     0.004 C 
ENDBRANCH   5   6
ENDBRANCH   1   5
TORSDOF 3
ENDMDL
MODEL 7
REMARK VINA RESULT:    -2.964     14.764     15.333
REMARK INTER + INTRA:          -3.500
REMARK INTER:                  -3.448
REMARK INTRA:                  -0.052
REMARK UNBOUND:                -0.016
REMARK SMILES CCCCC(=O)[O-]
REMARK SMILES IDX 4 1 5 2 6 3 7 4 3 5 2 6 1 7
REMARK H PARENT
REMARK Flexibility Score: inf
ROOT
ATOM      1  C   UNL     1      22.037  10.241   2.616  1.00  0.00     0.053 C 
ENDROOT
BRANCH   1   2
ATOM      2  C   UNL     1      20.717   9.577   2.843  1.00  0.00     0.041 C 
ATOM      3  O   UNL     1      20.582   8.731   3.765  1.00  0.00    -0.550 OA
ATOM      4  O   UNL     1      19.645   9.857   2.003  1.00  0.00    -0.550 OA
ENDBRANCH   1   2
BRANCH   1   5
ATOM      5  C   UNL     1      23.144   9.509   3.382  1.00  0.00     0.006 C 
BRANCH   5   6
ATOM      6  C   UNL     1      24.462   9.534   2.599  1.00  0.00    -0.003 C 
ATOM      7  C   UNL     1      24.312  10.306   1.292  1.00  0.00     0.004 C 
ENDBRANCH   5   6
ENDBRANCH   1   5
TORSDOF 3
ENDMDL
MODEL 8
REMARK VINA RESULT:    -2.955      5.400      6.684
REMARK INTER + INTRA:          -3.489
REMARK INTER:                  -3.469
REMARK INTRA:                  -0.020
REMARK UNBOUND:                -0.016
REMARK SMILES CCCCC(=O)[O-]
REMARK SMILES IDX 4 1 5 2 6 3 7 4 3 5 2 6 1 7
REMARK H PARENT
REMARK Flexibility Score: inf
ROOT
ATOM      1  C   UNL     1      12.844  10.920  -9.991  1.00  0.00     0.053 C 
ENDROOT
BRANCH   1   2
ATOM      2  C   UNL     1      12.410  11.675 -11.206  1.00  0.00     0.041 C 
ATOM      3  O   UNL     1      13.266  12.125 -12.012  1.00  0.00    -0.550 OA
ATOM      4  O   UNL     1      11.060  11.926 -11.423  1.00  0.00    -0.550 OA
ENDBRANCH   1   2
BRANCH   1   5
ATOM      5  C   UNL     1      11.644  10.623  -9.086  1.00  0.00     0.006 C 
BRANCH   5   6
ATOM      6  C   UNL     1      12.102  10.083  -7.726  1.00  0.00    -0.003 C 
ATOM      7  C   UNL     1      11.109   9.064  -7.176  1.00  0.00     0.004 C 
ENDBRANCH   5   6
ENDBRANCH   1   5
TORSDOF 3
ENDMDL
MODEL 9
REMARK VINA RESULT:    -2.827     12.816     13.703
REMARK INTER + INTRA:          -3.339
REMARK INTER:                  -3.234
REMARK INTRA:                  -0.105
REMARK UNBOUND:                -0.016
REMARK SMILES CCCCC(=O)[O-]
REMARK SMILES IDX 4 1 5 2 6 3 7 4 3 5 2 6 1 7
REMARK H PARENT
REMARK Flexibility Score: inf
ROOT
ATOM      1  C   UNL     1      12.547  -4.705   1.120  1.00  0.00     0.053 C 
ENDROOT
BRANCH   1   2
ATOM      2  C   UNL     1      13.713  -4.801   2.051  1.00  0.00     0.041 C 
ATOM      3  O   UNL     1      14.843  -5.148   1.618  1.00  0.00    -0.550 OA
ATOM      4  O   UNL     1      13.541  -4.555   3.408  1.00  0.00    -0.550 OA
ENDBRANCH   1   2
BRANCH   1   5
ATOM      5  C   UNL     1      11.417  -3.890   1.757  1.00  0.00     0.006 C 
BRANCH   5   6
ATOM      6  C   UNL     1      11.321  -2.496   1.125  1.00  0.00    -0.003 C 
ATOM      7  C   UNL     1      11.902  -1.431   2.049  1.00  0.00     0.004 C 
ENDBRANCH   5   6
ENDBRANCH   1   5
TORSDOF 3
ENDMDL
