MODEL 1
REMARK VINA RESULT:     7.945      0.000      0.000
REMARK INTER + INTRA:          14.314
REMARK INTER:                  15.377
REMARK INTRA:                  -1.064
REMARK UNBOUND:                -1.064
REMARK SMILES CCCCCCCCCCCCCCCCCC(=O)[O-]
REMARK SMILES IDX 10 1 11 2 12 3 13 4 14 5 15 6 16 7 17 8 18 9 19 10 20 11
REMARK SMILES IDX 9 12 8 13 7 14 6 15 5 16 4 17 3 18 2 19 1 20
REMARK H PARENT
REMARK Flexibility Score: inf
ROOT
ATOM      1  C   UNL     1      18.831 -18.829  26.337  1.00  0.00     0.000 C 
ENDROOT
BRANCH   1   2
ATOM      2  C   UNL     1      17.692 -18.751  25.305  1.00  0.00     0.000 C 
BRANCH   2   3
ATOM      3  C   UNL     1      18.082 -19.150  23.865  1.00  0.00     0.000 C 
BRANCH   3   4
ATOM      4  C   UNL     1      16.927 -19.693  23.003  1.00  0.00     0.000 C 
BRANCH   4   5
ATOM      5  C   UNL     1      17.287 -20.917  22.142  1.00  0.00     0.000 C 
BRANCH   5   6
ATOM      6  C   UNL     1      16.434 -22.169  22.459  1.00  0.00     0.000 C 
BRANCH   6   7
ATOM      7  C   UNL     1      16.579 -23.295  21.422  1.00  0.00     0.006 C 
BRANCH   7   8
ATOM      8  C   UNL     1      18.046 -23.615  21.105  1.00  0.00     0.053 C 
BRANCH   8   9
ATOM      9  C   UNL     1      18.279 -23.582  19.629  1.00  0.00     0.041 C 
ATOM     10  O   UNL     1      17.889 -24.535  18.904  1.00  0.00    -0.550 OA
ATOM     11  O   UNL     1      18.879 -22.474  19.043  1.00  0.00    -0.550 OA
ENDBRANCH   8   9
ENDBRANCH   7   8
ENDBRANCH   6   7
ENDBRANCH   5   6
ENDBRANCH   4   5
ENDBRANCH   3   4
ENDBRANCH   2   3
ENDBRANCH   1   2
BRANCH   1  12
ATOM     12  C   UNL     1      19.601 -20.156  26.279  1.00  0.00     0.000 C 
BRANCH  12  13
ATOM     13  C   UNL     1      21.106 -19.930  26.472  1.00  0.00    -0.000 C 
BRANCH  13  14
ATOM     14  C   UNL     1      21.916 -21.078  25.860  1.00  0.00    -0.000 C 
BRANCH  14  15
ATOM     15  C   UNL     1      22.195 -20.825  24.374  1.00  0.00    -0.000 C 
BRANCH  15  16
ATOM     16  C   UNL     1      23.681 -20.528  24.136  1.00  0.00    -0.000 C 
BRANCH  16  17
ATOM     17  C   UNL     1      24.363 -21.683  23.389  1.00  0.00    -0.000 C 
BRANCH  17  18
ATOM     18  C   UNL     1      25.083 -22.655  24.348  1.00  0.00    -0.000 C 
BRANCH  18  19
ATOM     19  C   UNL     1      25.600 -21.984  25.631  1.00  0.00    -0.003 C 
ATOM     20  C   UNL     1      26.670 -22.805  26.347  1.00  0.00     0.004 C 
ENDBRANCH  18  19
ENDBRANCH  17  18
ENDBRANCH  16  17
ENDBRANCH  15  16
ENDBRANCH  14  15
ENDBRANCH  13  14
ENDBRANCH  12  13
ENDBRANCH   1  12
TORSDOF 16
ENDMDL
MODEL 2
REMARK VINA RESULT:     8.013      3.454      7.520
REMARK INTER + INTRA:          14.445
REMARK INTER:                  15.589
REMARK INTRA:                  -1.144
REMARK UNBOUND:                -1.064
REMARK SMILES CCCCCCCCCCCCCCCCCC(=O)[O-]
REMARK SMILES IDX 10 1 11 2 12 3 13 4 14 5 15 6 16 7 17 8 18 9 19 10 20 11
REMARK SMILES IDX 9 12 8 13 7 14 6 15 5 16 4 17 3 18 2 19 1 20
REMARK H PARENT
REMARK Flexibility Score: inf
ROOT
ATOM      1  C   UNL     1      19.167 -19.905  26.165  1.00  0.00     0.000 C 
ENDROOT
BRANCH   1   2
ATOM      2  C   UNL     1      20.654 -19.638  26.458  1.00  0.00     0.000 C 
BRANCH   2   3
ATOM      3  C   UNL     1      21.602 -20.824  26.175  1.00  0.00     0.000 C 
BRANCH   3   4
ATOM      4  C   UNL     1      21.935 -21.052  24.689  1.00  0.00     0.000 C 
BRANCH   4   5
ATOM      5  C   UNL     1      23.112 -20.213  24.157  1.00  0.00     0.000 C 
BRANCH   5   6
ATOM      6  C   UNL     1      24.277 -21.064  23.601  1.00  0.00     0.000 C 
BRANCH   6   7
ATOM      7  C   UNL     1      24.410 -22.444  24.267  1.00  0.00     0.006 C 
BRANCH   7   8
ATOM      8  C   UNL     1      25.873 -22.830  24.528  1.00  0.00     0.053 C 
BRANCH   8   9
ATOM      9  C   UNL     1      26.198 -22.684  25.980  1.00  0.00     0.041 C 
ATOM     10  O   UNL     1      25.377 -22.136  26.761  1.00  0.00    -0.550 OA
ATOM     11  O   UNL     1      27.385 -23.201  26.483  1.00  0.00    -0.550 OA
ENDBRANCH   8   9
ENDBRANCH   7   8
ENDBRANCH   6   7
ENDBRANCH   5   6
ENDBRANCH   4   5
ENDBRANCH   3   4
ENDBRANCH   2   3
ENDBRANCH   1   2
BRANCH   1  12
ATOM     12  C   UNL     1      18.448 -18.688  25.566  1.00  0.00     0.000 C 
BRANCH  12  13
ATOM     13  C   UNL     1      17.451 -19.115  24.481  1.00  0.00    -0.000 C 
BRANCH  13  14
ATOM     14  C   UNL     1      18.174 -19.765  23.296  1.00  0.00    -0.000 C 
BRANCH  14  15
ATOM     15  C   UNL     1      17.173 -20.334  22.284  1.00  0.00    -0.000 C 
BRANCH  15  16
ATOM     16  C   UNL     1      16.480 -21.584  22.840  1.00  0.00    -0.000 C 
BRANCH  16  17
ATOM     17  C   UNL     1      16.429 -22.702  21.789  1.00  0.00    -0.000 C 
BRANCH  17  18
ATOM     18  C   UNL     1      17.815 -23.338  21.545  1.00  0.00    -0.000 C 
BRANCH  18  19
ATOM     19  C   UNL     1      17.923 -24.081  20.203  1.00  0.00    -0.003 C 
ATOM     20  C   UNL     1      18.610 -23.258  19.117  1.00  0.00     0.004 C 
ENDBRANCH  18  19
ENDBRANCH  17  18
ENDBRANCH  16  17
ENDBRANCH  15  16
ENDBRANCH  14  15
ENDBRANCH  13  14
ENDBRANCH  12  13
ENDBRANCH   1  12
TORSDOF 16
ENDMDL
MODEL 3
REMARK VINA RESULT:     8.241      3.333      7.384
REMARK INTER + INTRA:          14.886
REMARK INTER:                  15.932
REMARK INTRA:                  -1.046
REMARK UNBOUND:                -1.064
REMARK SMILES CCCCCCCCCCCCCCCCCC(=O)[O-]
REMARK SMILES IDX 10 1 11 2 12 3 13 4 14 5 15 6 16 7 17 8 18 9 19 10 20 11
REMARK SMILES IDX 9 12 8 13 7 14 6 15 5 16 4 17 3 18 2 19 1 20
REMARK H PARENT
REMARK Flexibility Score: inf
ROOT
ATOM      1  C   UNL     1      18.454 -18.773  25.680  1.00  0.00     0.000 C 
ENDROOT
BRANCH   1   2
ATOM      2  C   UNL     1      19.297 -19.856  26.375  1.00  0.00     0.000 C 
BRANCH   2   3
ATOM      3  C   UNL     1      20.820 -19.602  26.375  1.00  0.00     0.000 C 
BRANCH   3   4
ATOM      4  C   UNL     1      21.685 -20.825  26.015  1.00  0.00     0.000 C 
BRANCH   4   5
ATOM      5  C   UNL     1      22.010 -20.963  24.516  1.00  0.00     0.000 C 
BRANCH   5   6
ATOM      6  C   UNL     1      23.475 -20.611  24.165  1.00  0.00     0.000 C 
BRANCH   6   7
ATOM      7  C   UNL     1      24.434 -21.812  24.230  1.00  0.00     0.006 C 
BRANCH   7   8
ATOM      8  C   UNL     1      25.174 -21.899  25.572  1.00  0.00     0.053 C 
BRANCH   8   9
ATOM      9  C   UNL     1      26.257 -22.928  25.502  1.00  0.00     0.041 C 
ATOM     10  O   UNL     1      26.354 -23.677  24.496  1.00  0.00    -0.550 OA
ATOM     11  O   UNL     1      27.192 -23.024  26.525  1.00  0.00    -0.550 OA
ENDBRANCH   8   9
ENDBRANCH   7   8
ENDBRANCH   6   7
ENDBRANCH   5   6
ENDBRANCH   4   5
ENDBRANCH   3   4
ENDBRANCH   2   3
ENDBRANCH   1   2
BRANCH   1  12
ATOM     12  C   UNL     1      17.368 -19.357  24.764  1.00  0.00     0.000 C 
BRANCH  12  13
ATOM     13  C   UNL     1      17.686 -19.084  23.289  1.00  0.00    -0.000 C 
BRANCH  13  14
ATOM     14  C   UNL     1      17.781 -20.392  22.496  1.00  0.00    -0.000 C 
BRANCH  14  15
ATOM     15  C   UNL     1      16.485 -21.203  22.612  1.00  0.00    -0.000 C 
BRANCH  15  16
ATOM     16  C   UNL     1      16.559 -22.482  21.770  1.00  0.00    -0.000 C 
BRANCH  16  17
ATOM     17  C   UNL     1      17.746 -23.357  22.198  1.00  0.00    -0.000 C 
BRANCH  17  18
ATOM     18  C   UNL     1      18.193 -24.323  21.079  1.00  0.00    -0.000 C 
BRANCH  18  19
ATOM     19  C   UNL     1      17.745 -23.887  19.675  1.00  0.00    -0.003 C 
ATOM     20  C   UNL     1      18.830 -23.139  18.905  1.00  0.00     0.004 C 
ENDBRANCH  18  19
ENDBRANCH  17  18
ENDBRANCH  16  17
ENDBRANCH  15  16
ENDBRANCH  14  15
ENDBRANCH  13  14
ENDBRANCH  12  13
ENDBRANCH   1  12
TORSDOF 16
ENDMDL
MODEL 4
REMARK VINA RESULT:     9.040      2.599      6.835
REMARK INTER + INTRA:          16.433
REMARK INTER:                  17.806
REMARK INTRA:                  -1.373
REMARK UNBOUND:                -1.064
REMARK SMILES CCCCCCCCCCCCCCCCCC(=O)[O-]
REMARK SMILES IDX 10 1 11 2 12 3 13 4 14 5 15 6 16 7 17 8 18 9 19 10 20 11
REMARK SMILES IDX 9 12 8 13 7 14 6 15 5 16 4 17 3 18 2 19 1 20
REMARK H PARENT
REMARK Flexibility Score: inf
ROOT
ATOM      1  C   UNL     1      18.087 -18.512  24.846  1.00  0.00     0.000 C 
ENDROOT
BRANCH   1   2
ATOM      2  C   UNL     1      18.194 -18.892  26.333  1.00  0.00     0.000 C 
BRANCH   2   3
ATOM      3  C   UNL     1      19.271 -19.947  26.666  1.00  0.00     0.000 C 
BRANCH   3   4
ATOM      4  C   UNL     1      20.715 -19.414  26.709  1.00  0.00     0.000 C 
BRANCH   4   5
ATOM      5  C   UNL     1      21.804 -20.491  26.547  1.00  0.00     0.000 C 
BRANCH   5   6
ATOM      6  C   UNL     1      21.665 -21.321  25.249  1.00  0.00     0.000 C 
BRANCH   6   7
ATOM      7  C   UNL     1      22.236 -20.623  24.003  1.00  0.00     0.006 C 
BRANCH   7   8
ATOM      8  C   UNL     1      23.745 -20.367  24.115  1.00  0.00     0.053 C 
BRANCH   8   9
ATOM      9  C   UNL     1      24.498 -21.657  24.041  1.00  0.00     0.041 C 
ATOM     10  O   UNL     1      24.480 -22.341  22.984  1.00  0.00    -0.550 OA
ATOM     11  O   UNL     1      25.263 -22.080  25.120  1.00  0.00    -0.550 OA
ENDBRANCH   8   9
ENDBRANCH   7   8
ENDBRANCH   6   7
ENDBRANCH   5   6
ENDBRANCH   4   5
ENDBRANCH   3   4
ENDBRANCH   2   3
ENDBRANCH   1   2
BRANCH   1  12
ATOM     12  C   UNL     1      17.222 -19.491  24.039  1.00  0.00     0.000 C 
BRANCH  12  13
ATOM     13  C   UNL     1      17.491 -19.355  22.535  1.00  0.00    -0.000 C 
BRANCH  13  14
ATOM     14  C   UNL     1      17.338 -20.705  21.825  1.00  0.00    -0.000 C 
BRANCH  14  15
ATOM     15  C   UNL     1      16.462 -21.661  22.642  1.00  0.00    -0.000 C 
BRANCH  15  16
ATOM     16  C   UNL     1      16.353 -23.028  21.956  1.00  0.00    -0.000 C 
BRANCH  16  17
ATOM     17  C   UNL     1      17.742 -23.595  21.628  1.00  0.00    -0.000 C 
BRANCH  17  18
ATOM     18  C   UNL     1      17.790 -24.251  20.231  1.00  0.00    -0.000 C 
BRANCH  18  19
ATOM     19  C   UNL     1      18.930 -23.726  19.344  1.00  0.00    -0.003 C 
ATOM     20  C   UNL     1      18.588 -22.412  18.646  1.00  0.00     0.004 C 
ENDBRANCH  18  19
ENDBRANCH  17  18
ENDBRANCH  16  17
ENDBRANCH  15  16
ENDBRANCH  14  15
ENDBRANCH  13  14
ENDBRANCH  12  13
ENDBRANCH   1  12
TORSDOF 16
ENDMDL
MODEL 5
REMARK VINA RESULT:     9.166     12.590     15.169
REMARK INTER + INTRA:          16.675
REMARK INTER:                  17.411
REMARK INTRA:                  -0.736
REMARK UNBOUND:                -1.064
REMARK SMILES CCCCCCCCCCCCCCCCCC(=O)[O-]
REMARK SMILES IDX 10 1 11 2 12 3 13 4 14 5 15 6 16 7 17 8 18 9 19 10 20 11
REMARK SMILES IDX 9 12 8 13 7 14 6 15 5 16 4 17 3 18 2 19 1 20
REMARK H PARENT
REMARK Flexibility Score: inf
ROOT
ATOM      1  C   UNL     1      20.284  -8.683  22.065  1.00  0.00     0.000 C 
ENDROOT
BRANCH   1   2
ATOM      2  C   UNL     1      19.942  -8.143  23.465  1.00  0.00     0.000 C 
BRANCH   2   3
ATOM      3  C   UNL     1      18.434  -8.009  23.766  1.00  0.00     0.000 C 
BRANCH   3   4
ATOM      4  C   UNL     1      18.019  -8.388  25.200  1.00  0.00     0.000 C 
BRANCH   4   5
ATOM      5  C   UNL     1      16.499  -8.407  25.446  1.00  0.00     0.000 C 
BRANCH   5   6
ATOM      6  C   UNL     1      16.108  -8.190  26.927  1.00  0.00     0.000 C 
BRANCH   6   7
ATOM      7  C   UNL     1      16.338  -9.424  27.815  1.00  0.00     0.006 C 
BRANCH   7   8
ATOM      8  C   UNL     1      16.260  -9.091  29.312  1.00  0.00     0.053 C 
BRANCH   8   9
ATOM      9  C   UNL     1      17.088  -7.884  29.619  1.00  0.00     0.041 C 
ATOM     10  O   UNL     1      16.532  -6.784  29.877  1.00  0.00    -0.550 OA
ATOM     11  O   UNL     1      18.472  -7.984  29.673  1.00  0.00    -0.550 OA
ENDBRANCH   8   9
ENDBRANCH   7   8
ENDBRANCH   6   7
ENDBRANCH   5   6
ENDBRANCH   4   5
ENDBRANCH   3   4
ENDBRANCH   2   3
ENDBRANCH   1   2
BRANCH   1  12
ATOM     12  C   UNL     1      20.307  -7.587  20.990  1.00  0.00     0.000 C 
BRANCH  12  13
ATOM     13  C   UNL     1      20.778  -8.147  19.642  1.00  0.00    -0.000 C 
BRANCH  13  14
ATOM     14  C   UNL     1      19.943  -7.578  18.489  1.00  0.00    -0.000 C 
BRANCH  14  15
ATOM     15  C   UNL     1      18.449  -7.589  18.832  1.00  0.00    -0.000 C 
BRANCH  15  16
ATOM     16  C   UNL     1      17.674  -8.518  17.890  1.00  0.00    -0.000 C 
BRANCH  16  17
ATOM     17  C   UNL     1      16.283  -8.842  18.453  1.00  0.00    -0.000 C 
BRANCH  17  18
ATOM     18  C   UNL     1      16.019 -10.362  18.517  1.00  0.00    -0.000 C 
BRANCH  18  19
ATOM     19  C   UNL     1      17.009 -11.194  17.686  1.00  0.00    -0.003 C 
ATOM     20  C   UNL     1      16.954 -12.686  18.008  1.00  0.00     0.004 C 
ENDBRANCH  18  19
ENDBRANCH  17  18
ENDBRANCH  16  17
ENDBRANCH  15  16
ENDBRANCH  14  15
ENDBRANCH  13  14
ENDBRANCH  12  13
ENDBRANCH   1  12
TORSDOF 16
ENDMDL
MODEL 6
REMARK VINA RESULT:    10.859      9.942     12.053
REMARK INTER + INTRA:          19.952
REMARK INTER:                  20.380
REMARK INTRA:                  -0.428
REMARK UNBOUND:                -1.064
REMARK SMILES CCCCCCCCCCCCCCCCCC(=O)[O-]
REMARK SMILES IDX 10 1 11 2 12 3 13 4 14 5 15 6 16 7 17 8 18 9 19 10 20 11
REMARK SMILES IDX 9 12 8 13 7 14 6 15 5 16 4 17 3 18 2 19 1 20
REMARK H PARENT
REMARK Flexibility Score: inf
ROOT
ATOM      1  C   UNL     1      29.265 -15.924  17.634  1.00  0.00     0.000 C 
ENDROOT
BRANCH   1   2
ATOM      2  C   UNL     1      28.373 -16.676  18.638  1.00  0.00     0.000 C 
BRANCH   2   3
ATOM      3  C   UNL     1      27.815 -18.026  18.138  1.00  0.00     0.000 C 
BRANCH   3   4
ATOM      4  C   UNL     1      27.073 -17.965  16.790  1.00  0.00     0.000 C 
BRANCH   4   5
ATOM      5  C   UNL     1      25.766 -18.777  16.737  1.00  0.00     0.000 C 
BRANCH   5   6
ATOM      6  C   UNL     1      25.472 -19.387  15.346  1.00  0.00     0.000 C 
BRANCH   6   7
ATOM      7  C   UNL     1      24.874 -20.803  15.405  1.00  0.00     0.006 C 
BRANCH   7   8
ATOM      8  C   UNL     1      25.950 -21.886  15.569  1.00  0.00     0.053 C 
BRANCH   8   9
ATOM      9  C   UNL     1      25.467 -23.186  15.009  1.00  0.00     0.041 C 
ATOM     10  O   UNL     1      26.292 -24.052  14.616  1.00  0.00    -0.550 OA
ATOM     11  O   UNL     1      24.107 -23.465  14.970  1.00  0.00    -0.550 OA
ENDBRANCH   8   9
ENDBRANCH   7   8
ENDBRANCH   6   7
ENDBRANCH   5   6
ENDBRANCH   4   5
ENDBRANCH   3   4
ENDBRANCH   2   3
ENDBRANCH   1   2
BRANCH   1  12
ATOM     12  C   UNL     1      29.061 -14.403  17.675  1.00  0.00     0.000 C 
BRANCH  12  13
ATOM     13  C   UNL     1      28.489 -13.888  16.348  1.00  0.00    -0.000 C 
BRANCH  13  14
ATOM     14  C   UNL     1      28.810 -14.850  15.200  1.00  0.00    -0.000 C 
BRANCH  14  15
ATOM     15  C   UNL     1      27.563 -15.630  14.768  1.00  0.00    -0.000 C 
BRANCH  15  16
ATOM     16  C   UNL     1      27.683 -16.098  13.313  1.00  0.00    -0.000 C 
BRANCH  16  17
ATOM     17  C   UNL     1      28.631 -17.301  13.196  1.00  0.00    -0.000 C 
BRANCH  17  18
ATOM     18  C   UNL     1      29.963 -17.070  13.940  1.00  0.00    -0.000 C 
BRANCH  18  19
ATOM     19  C   UNL     1      31.147 -17.843  13.336  1.00  0.00    -0.003 C 
ATOM     20  C   UNL     1      32.503 -17.324  13.807  1.00  0.00     0.004 C 
ENDBRANCH  18  19
ENDBRANCH  17  18
ENDBRANCH  16  17
ENDBRANCH  15  16
ENDBRANCH  14  15
ENDBRANCH  13  14
ENDBRANCH  12  13
ENDBRANCH   1  12
TORSDOF 16
ENDMDL
