MODEL 1
REMARK VINA RESULT:    -4.617      0.000      0.000
REMARK INTER + INTRA:          -5.644
REMARK INTER:                  -5.562
REMARK INTRA:                  -0.082
REMARK UNBOUND:                -0.082
REMARK SMILES CC[C@@H](C)[C@@H]([NH3+])C(=O)[O-]
REMARK SMILES IDX 3 1 4 2 5 3 6 4 7 8 8 9 9 10 2 11 1 12
REMARK H PARENT 6 5 6 6 6 7
REMARK Flexibility Score: inf
ROOT
ATOM      1  C   UNL     1      37.079  26.275  35.534  1.00  0.00     0.050 C 
ATOM      2  C   UNL     1      35.900  26.290  36.528  1.00  0.00     0.014 C 
ENDROOT
BRANCH   1   3
ATOM      3  C   UNL     1      36.568  26.491  34.072  1.00  0.00     0.230 C 
BRANCH   3   4
ATOM      4  N   UNL     1      37.282  27.582  33.392  1.00  0.00    -0.350 N 
ATOM      5  H   UNL     1      37.648  28.263  34.096  1.00  0.00     0.345 HD
ATOM      6  H   UNL     1      36.645  28.087  32.734  1.00  0.00     0.345 HD
ATOM      7  H   UNL     1      38.106  27.209  32.869  1.00  0.00     0.345 HD
ENDBRANCH   3   4
BRANCH   3   8
ATOM      8  C   UNL     1      36.699  25.228  33.257  1.00  0.00     0.099 C 
ATOM      9  O   UNL     1      37.782  24.953  32.675  1.00  0.00    -0.544 OA
ATOM     10  O   UNL     1      35.623  24.358  33.147  1.00  0.00    -0.544 OA
ENDBRANCH   3   8
ENDBRANCH   1   3
BRANCH   1  11
ATOM     11  C   UNL     1      38.124  27.347  35.962  1.00  0.00     0.006 C 
ATOM     12  C   UNL     1      37.856  27.908  37.360  1.00  0.00     0.004 C 
ENDBRANCH   1  11
TORSDOF 4
ENDMDL
MODEL 2
REMARK VINA RESULT:    -4.563      2.249      3.950
REMARK INTER + INTRA:          -5.578
REMARK INTER:                  -5.505
REMARK INTRA:                  -0.073
REMARK UNBOUND:                -0.082
REMARK SMILES CC[C@@H](C)[C@@H]([NH3+])C(=O)[O-]
REMARK SMILES IDX 3 1 4 2 5 3 6 4 7 8 8 9 9 10 2 11 1 12
REMARK H PARENT 6 5 6 6 6 7
REMARK Flexibility Score: inf
ROOT
ATOM      1  C   UNL     1      36.512  25.306  33.587  1.00  0.00     0.050 C 
ATOM      2  C   UNL     1      37.317  24.470  32.573  1.00  0.00     0.014 C 
ENDROOT
BRANCH   1   3
ATOM      3  C   UNL     1      37.362  26.512  34.105  1.00  0.00     0.230 C 
BRANCH   3   4
ATOM      4  N   UNL     1      37.070  27.752  33.371  1.00  0.00    -0.350 N 
ATOM      5  H   UNL     1      36.469  27.542  32.540  1.00  0.00     0.345 HD
ATOM      6  H   UNL     1      37.955  28.202  33.041  1.00  0.00     0.345 HD
ATOM      7  H   UNL     1      36.538  28.417  33.974  1.00  0.00     0.345 HD
ENDBRANCH   3   4
BRANCH   3   8
ATOM      8  C   UNL     1      37.137  26.744  35.579  1.00  0.00     0.099 C 
ATOM      9  O   UNL     1      36.278  26.069  36.208  1.00  0.00    -0.544 OA
ATOM     10  O   UNL     1      37.881  27.704  36.254  1.00  0.00    -0.544 OA
ENDBRANCH   3   8
ENDBRANCH   1   3
BRANCH   1  11
ATOM     11  C   UNL     1      35.176  25.762  32.929  1.00  0.00     0.006 C 
ATOM     12  C   UNL     1      34.084  24.694  33.010  1.00  0.00     0.004 C 
ENDBRANCH   1  11
TORSDOF 4
ENDMDL
MODEL 3
REMARK VINA RESULT:    -4.525      0.142      1.083
REMARK INTER + INTRA:          -5.533
REMARK INTER:                  -5.454
REMARK INTRA:                  -0.079
REMARK UNBOUND:                -0.082
REMARK SMILES CC[C@@H](C)[C@@H]([NH3+])C(=O)[O-]
REMARK SMILES IDX 3 1 4 2 5 3 6 4 7 8 8 9 9 10 2 11 1 12
REMARK H PARENT 6 5 6 6 6 7
REMARK Flexibility Score: inf
ROOT
ATOM      1  C   UNL     1      37.105  26.250  35.464  1.00  0.00     0.050 C 
ATOM      2  C   UNL     1      35.934  26.248  36.466  1.00  0.00     0.014 C 
ENDROOT
BRANCH   1   3
ATOM      3  C   UNL     1      36.579  26.431  34.003  1.00  0.00     0.230 C 
BRANCH   3   4
ATOM      4  N   UNL     1      37.354  27.432  33.255  1.00  0.00    -0.350 N 
ATOM      5  H   UNL     1      36.972  27.529  32.286  1.00  0.00     0.345 HD
ATOM      6  H   UNL     1      38.360  27.149  33.193  1.00  0.00     0.345 HD
ATOM      7  H   UNL     1      37.277  28.368  33.711  1.00  0.00     0.345 HD
ENDBRANCH   3   4
BRANCH   3   8
ATOM      8  C   UNL     1      36.601  25.123  33.250  1.00  0.00     0.099 C 
ATOM      9  O   UNL     1      35.597  24.362  33.262  1.00  0.00    -0.544 OA
ATOM     10  O   UNL     1      37.731  24.753  32.533  1.00  0.00    -0.544 OA
ENDBRANCH   3   8
ENDBRANCH   1   3
BRANCH   1  11
ATOM     11  C   UNL     1      38.125  27.355  35.869  1.00  0.00     0.006 C 
ATOM     12  C   UNL     1      37.870  27.909  37.272  1.00  0.00     0.004 C 
ENDBRANCH   1  11
TORSDOF 4
ENDMDL
MODEL 4
REMARK VINA RESULT:    -4.283     20.491     21.368
REMARK INTER + INTRA:          -5.241
REMARK INTER:                  -5.186
REMARK INTRA:                  -0.055
REMARK UNBOUND:                -0.082
REMARK SMILES CC[C@@H](C)[C@@H]([NH3+])C(=O)[O-]
REMARK SMILES IDX 3 1 4 2 5 3 6 4 7 8 8 9 9 10 2 11 1 12
REMARK H PARENT 6 5 6 6 6 7
REMARK Flexibility Score: inf
ROOT
ATOM      1  C   UNL     1      19.548  13.892  38.674  1.00  0.00     0.050 C 
ATOM      2  C   UNL     1      20.004  15.261  39.215  1.00  0.00     0.014 C 
ENDROOT
BRANCH   1   3
ATOM      3  C   UNL     1      20.665  13.251  37.787  1.00  0.00     0.230 C 
BRANCH   3   4
ATOM      4  N   UNL     1      20.437  11.816  37.561  1.00  0.00    -0.350 N 
ATOM      5  H   UNL     1      19.900  11.675  36.674  1.00  0.00     0.345 HD
ATOM      6  H   UNL     1      19.894  11.399  38.353  1.00  0.00     0.345 HD
ATOM      7  H   UNL     1      21.346  11.314  37.452  1.00  0.00     0.345 HD
ENDBRANCH   3   4
BRANCH   3   8
ATOM      8  C   UNL     1      20.774  13.952  36.456  1.00  0.00     0.099 C 
ATOM      9  O   UNL     1      20.042  13.606  35.490  1.00  0.00    -0.544 OA
ATOM     10  O   UNL     1      21.682  14.989  36.289  1.00  0.00    -0.544 OA
ENDBRANCH   3   8
ENDBRANCH   1   3
BRANCH   1  11
ATOM     11  C   UNL     1      19.140  12.979  39.867  1.00  0.00     0.006 C 
ATOM     12  C   UNL     1      19.969  13.245  41.125  1.00  0.00     0.004 C 
ENDBRANCH   1  11
TORSDOF 4
ENDMDL
MODEL 5
REMARK VINA RESULT:    -4.187     20.712     21.322
REMARK INTER + INTRA:          -5.126
REMARK INTER:                  -5.011
REMARK INTRA:                  -0.114
REMARK UNBOUND:                -0.082
REMARK SMILES CC[C@@H](C)[C@@H]([NH3+])C(=O)[O-]
REMARK SMILES IDX 3 1 4 2 5 3 6 4 7 8 8 9 9 10 2 11 1 12
REMARK H PARENT 6 5 6 6 6 7
REMARK Flexibility Score: inf
ROOT
ATOM      1  C   UNL     1      20.888  12.942  38.543  1.00  0.00     0.050 C 
ATOM      2  C   UNL     1      20.914  11.748  39.517  1.00  0.00     0.014 C 
ENDROOT
BRANCH   1   3
ATOM      3  C   UNL     1      21.074  12.453  37.069  1.00  0.00     0.230 C 
BRANCH   3   4
ATOM      4  N   UNL     1      20.204  11.312  36.750  1.00  0.00    -0.350 N 
ATOM      5  H   UNL     1      19.205  11.560  36.938  1.00  0.00     0.345 HD
ATOM      6  H   UNL     1      20.459  10.480  37.332  1.00  0.00     0.345 HD
ATOM      7  H   UNL     1      20.275  11.070  35.737  1.00  0.00     0.345 HD
ENDBRANCH   3   4
BRANCH   3   8
ATOM      8  C   UNL     1      20.809  13.568  36.088  1.00  0.00     0.099 C 
ATOM      9  O   UNL     1      19.905  13.452  35.218  1.00  0.00    -0.544 OA
ATOM     10  O   UNL     1      21.561  14.735  36.142  1.00  0.00    -0.544 OA
ENDBRANCH   3   8
ENDBRANCH   1   3
BRANCH   1  11
ATOM     11  C   UNL     1      19.564  13.737  38.741  1.00  0.00     0.006 C 
ATOM     12  C   UNL     1      19.800  15.153  39.270  1.00  0.00     0.004 C 
ENDBRANCH   1  11
TORSDOF 4
ENDMDL
MODEL 6
REMARK VINA RESULT:    -4.106     21.131     21.683
REMARK INTER + INTRA:          -5.028
REMARK INTER:                  -4.937
REMARK INTRA:                  -0.091
REMARK UNBOUND:                -0.082
REMARK SMILES CC[C@@H](C)[C@@H]([NH3+])C(=O)[O-]
REMARK SMILES IDX 3 1 4 2 5 3 6 4 7 8 8 9 9 10 2 11 1 12
REMARK H PARENT 6 5 6 6 6 7
REMARK Flexibility Score: inf
ROOT
ATOM      1  C   UNL     1      20.697  12.945  37.251  1.00  0.00     0.050 C 
ATOM      2  C   UNL     1      21.875  11.962  37.403  1.00  0.00     0.014 C 
ENDROOT
BRANCH   1   3
ATOM      3  C   UNL     1      20.580  13.863  38.511  1.00  0.00     0.230 C 
BRANCH   3   4
ATOM      4  N   UNL     1      20.480  15.285  38.153  1.00  0.00    -0.350 N 
ATOM      5  H   UNL     1      19.526  15.492  37.775  1.00  0.00     0.345 HD
ATOM      6  H   UNL     1      21.191  15.534  37.426  1.00  0.00     0.345 HD
ATOM      7  H   UNL     1      20.612  15.885  38.997  1.00  0.00     0.345 HD
ENDBRANCH   3   4
BRANCH   3   8
ATOM      8  C   UNL     1      19.390  13.479  39.356  1.00  0.00     0.099 C 
ATOM      9  O   UNL     1      19.469  12.523  40.173  1.00  0.00    -0.544 OA
ATOM     10  O   UNL     1      18.199  14.184  39.240  1.00  0.00    -0.544 OA
ENDBRANCH   3   8
ENDBRANCH   1   3
BRANCH   1  11
ATOM     11  C   UNL     1      20.876  13.761  35.937  1.00  0.00     0.006 C 
ATOM     12  C   UNL     1      19.873  13.363  34.853  1.00  0.00     0.004 C 
ENDBRANCH   1  11
TORSDOF 4
ENDMDL
MODEL 7
REMARK VINA RESULT:    -4.002     20.640     21.737
REMARK INTER + INTRA:          -4.902
REMARK INTER:                  -5.061
REMARK INTRA:                   0.158
REMARK UNBOUND:                -0.082
REMARK SMILES CC[C@@H](C)[C@@H]([NH3+])C(=O)[O-]
REMARK SMILES IDX 3 1 4 2 5 3 6 4 7 8 8 9 9 10 2 11 1 12
REMARK H PARENT 6 5 6 6 6 7
REMARK Flexibility Score: inf
ROOT
ATOM      1  C   UNL     1      20.671  12.701  37.715  1.00  0.00     0.050 C 
ATOM      2  C   UNL     1      22.034  12.019  37.483  1.00  0.00     0.014 C 
ENDROOT
BRANCH   1   3
ATOM      3  C   UNL     1      20.090  12.308  39.113  1.00  0.00     0.230 C 
BRANCH   3   4
ATOM      4  N   UNL     1      21.119  11.754  40.005  1.00  0.00    -0.350 N 
ATOM      5  H   UNL     1      20.684  11.451  40.907  1.00  0.00     0.345 HD
ATOM      6  H   UNL     1      21.855  12.469  40.209  1.00  0.00     0.345 HD
ATOM      7  H   UNL     1      21.556  10.907  39.576  1.00  0.00     0.345 HD
ENDBRANCH   3   4
BRANCH   3   8
ATOM      8  C   UNL     1      19.438  13.492  39.784  1.00  0.00     0.099 C 
ATOM      9  O   UNL     1      18.331  13.930  39.372  1.00  0.00    -0.544 OA
ATOM     10  O   UNL     1      20.056  14.105  40.866  1.00  0.00    -0.544 OA
ENDBRANCH   3   8
ENDBRANCH   1   3
BRANCH   1  11
ATOM     11  C   UNL     1      20.834  14.241  37.552  1.00  0.00     0.006 C 
ATOM     12  C   UNL     1      21.638  14.622  36.308  1.00  0.00     0.004 C 
ENDBRANCH   1  11
TORSDOF 4
ENDMDL
MODEL 8
REMARK VINA RESULT:    -3.990     20.433     21.474
REMARK INTER + INTRA:          -4.888
REMARK INTER:                  -4.833
REMARK INTRA:                  -0.055
REMARK UNBOUND:                -0.082
REMARK SMILES CC[C@@H](C)[C@@H]([NH3+])C(=O)[O-]
REMARK SMILES IDX 3 1 4 2 5 3 6 4 7 8 8 9 9 10 2 11 1 12
REMARK H PARENT 6 5 6 6 6 7
REMARK Flexibility Score: inf
ROOT
ATOM      1  C   UNL     1      20.810  12.608  38.656  1.00  0.00     0.050 C 
ATOM      2  C   UNL     1      20.631  11.265  37.921  1.00  0.00     0.014 C 
ENDROOT
BRANCH   1   3
ATOM      3  C   UNL     1      20.172  13.775  37.834  1.00  0.00     0.230 C 
BRANCH   3   4
ATOM      4  N   UNL     1      20.342  15.077  38.495  1.00  0.00    -0.350 N 
ATOM      5  H   UNL     1      19.917  15.050  39.451  1.00  0.00     0.345 HD
ATOM      6  H   UNL     1      19.880  15.835  37.942  1.00  0.00     0.345 HD
ATOM      7  H   UNL     1      21.357  15.294  38.617  1.00  0.00     0.345 HD
ENDBRANCH   3   4
BRANCH   3   8
ATOM      8  C   UNL     1      20.755  13.844  36.444  1.00  0.00     0.099 C 
ATOM      9  O   UNL     1      21.922  14.284  36.262  1.00  0.00    -0.544 OA
ATOM     10  O   UNL     1      20.007  13.417  35.354  1.00  0.00    -0.544 OA
ENDBRANCH   3   8
ENDBRANCH   1   3
BRANCH   1  11
ATOM     11  C   UNL     1      20.207  12.493  40.088  1.00  0.00     0.006 C 
ATOM     12  C   UNL     1      18.679  12.426  40.082  1.00  0.00     0.004 C 
ENDBRANCH   1  11
TORSDOF 4
ENDMDL
MODEL 9
REMARK VINA RESULT:    -3.749     20.731     21.704
REMARK INTER + INTRA:          -4.598
REMARK INTER:                  -4.585
REMARK INTRA:                  -0.013
REMARK UNBOUND:                -0.082
REMARK SMILES CC[C@@H](C)[C@@H]([NH3+])C(=O)[O-]
REMARK SMILES IDX 3 1 4 2 5 3 6 4 7 8 8 9 9 10 2 11 1 12
REMARK H PARENT 6 5 6 6 6 7
REMARK Flexibility Score: inf
ROOT
ATOM      1  C   UNL     1      20.387  12.145  38.514  1.00  0.00     0.050 C 
ATOM      2  C   UNL     1      20.730  12.069  40.015  1.00  0.00     0.014 C 
ENDROOT
BRANCH   1   3
ATOM      3  C   UNL     1      20.369  13.632  38.029  1.00  0.00     0.230 C 
BRANCH   3   4
ATOM      4  N   UNL     1      19.857  13.760  36.657  1.00  0.00    -0.350 N 
ATOM      5  H   UNL     1      20.127  12.920  36.094  1.00  0.00     0.345 HD
ATOM      6  H   UNL     1      20.248  14.614  36.195  1.00  0.00     0.345 HD
ATOM      7  H   UNL     1      18.813  13.805  36.659  1.00  0.00     0.345 HD
ENDBRANCH   3   4
BRANCH   3   8
ATOM      8  C   UNL     1      19.542  14.495  38.950  1.00  0.00     0.099 C 
ATOM      9  O   UNL     1      20.035  15.535  39.464  1.00  0.00    -0.544 OA
ATOM     10  O   UNL     1      18.227  14.149  39.233  1.00  0.00    -0.544 OA
ENDBRANCH   3   8
ENDBRANCH   1   3
BRANCH   1  11
ATOM     11  C   UNL     1      21.396  11.272  37.712  1.00  0.00     0.006 C 
ATOM     12  C   UNL     1      22.719  11.992  37.446  1.00  0.00     0.004 C 
ENDBRANCH   1  11
TORSDOF 4
ENDMDL
