MODEL 1
REMARK VINA RESULT:    -4.006      0.000      0.000
REMARK INTER + INTRA:         -10.702
REMARK INTER:                  -7.754
REMARK INTRA:                  -2.949
REMARK UNBOUND:                -2.949
REMARK SMILES CCCCCCCCCCCCCCCCCC(=O)[O-]
REMARK SMILES IDX 10 1 11 2 12 3 13 4 14 5 15 6 16 7 17 8 18 9 19 10 20 11
REMARK SMILES IDX 9 12 8 13 7 14 6 15 5 16 4 17 3 18 2 19 1 20
REMARK H PARENT
REMARK Flexibility Score: inf
ROOT
ATOM      1  C   UNL     1      35.709  75.610  10.030  1.00  0.00     0.000 C 
ENDROOT
BRANCH   1   2
ATOM      2  C   UNL     1      36.504  76.708  10.762  1.00  0.00     0.000 C 
BRANCH   2   3
ATOM      3  C   UNL     1      35.647  77.758  11.493  1.00  0.00     0.000 C 
BRANCH   3   4
ATOM      4  C   UNL     1      34.168  77.348  11.662  1.00  0.00     0.000 C 
BRANCH   4   5
ATOM      5  C   UNL     1      33.202  78.522  11.446  1.00  0.00     0.000 C 
BRANCH   5   6
ATOM      6  C   UNL     1      31.750  78.094  11.714  1.00  0.00     0.000 C 
BRANCH   6   7
ATOM      7  C   UNL     1      31.374  78.162  13.206  1.00  0.00     0.006 C 
BRANCH   7   8
ATOM      8  C   UNL     1      31.677  79.513  13.874  1.00  0.00     0.053 C 
BRANCH   8   9
ATOM      9  C   UNL     1      32.521  79.359  15.101  1.00  0.00     0.041 C 
ATOM     10  O   UNL     1      32.625  80.309  15.922  1.00  0.00    -0.550 OA
ATOM     11  O   UNL     1      33.167  78.156  15.356  1.00  0.00    -0.550 OA
ENDBRANCH   8   9
ENDBRANCH   7   8
ENDBRANCH   6   7
ENDBRANCH   5   6
ENDBRANCH   4   5
ENDBRANCH   3   4
ENDBRANCH   2   3
ENDBRANCH   1   2
BRANCH   1  12
ATOM     12  C   UNL     1      35.989  75.498   8.520  1.00  0.00     0.000 C 
BRANCH  12  13
ATOM     13  C   UNL     1      34.746  75.761   7.659  1.00  0.00    -0.000 C 
BRANCH  13  14
ATOM     14  C   UNL     1      34.030  77.042   8.103  1.00  0.00    -0.000 C 
BRANCH  14  15
ATOM     15  C   UNL     1      32.521  76.813   8.242  1.00  0.00    -0.000 C 
BRANCH  15  16
ATOM     16  C   UNL     1      32.203  75.315   8.370  1.00  0.00    -0.000 C 
BRANCH  16  17
ATOM     17  C   UNL     1      31.749  74.916   9.786  1.00  0.00    -0.000 C 
BRANCH  17  18
ATOM     18  C   UNL     1      32.552  73.772  10.429  1.00  0.00    -0.000 C 
BRANCH  18  19
ATOM     19  C   UNL     1      32.830  74.000  11.922  1.00  0.00    -0.003 C 
ATOM     20  C   UNL     1      31.555  74.392  12.665  1.00  0.00     0.004 C 
ENDBRANCH  18  19
ENDBRANCH  17  18
ENDBRANCH  16  17
ENDBRANCH  15  16
ENDBRANCH  14  15
ENDBRANCH  13  14
ENDBRANCH  12  13
ENDBRANCH   1  12
TORSDOF 16
ENDMDL
MODEL 2
REMARK VINA RESULT:    -3.919      1.364      2.616
REMARK INTER + INTRA:         -10.533
REMARK INTER:                  -8.111
REMARK INTRA:                  -2.422
REMARK UNBOUND:                -2.949
REMARK SMILES CCCCCCCCCCCCCCCCCC(=O)[O-]
REMARK SMILES IDX 10 1 11 2 12 3 13 4 14 5 15 6 16 7 17 8 18 9 19 10 20 11
REMARK SMILES IDX 9 12 8 13 7 14 6 15 5 16 4 17 3 18 2 19 1 20
REMARK H PARENT
REMARK Flexibility Score: inf
ROOT
ATOM      1  C   UNL     1      34.789  77.961  10.760  1.00  0.00     0.000 C 
ENDROOT
BRANCH   1   2
ATOM      2  C   UNL     1      33.648  78.041  11.792  1.00  0.00     0.000 C 
BRANCH   2   3
ATOM      3  C   UNL     1      32.322  78.611  11.256  1.00  0.00     0.000 C 
BRANCH   3   4
ATOM      4  C   UNL     1      31.083  78.174  12.067  1.00  0.00     0.000 C 
BRANCH   4   5
ATOM      5  C   UNL     1      31.364  78.089  13.574  1.00  0.00     0.000 C 
BRANCH   5   6
ATOM      6  C   UNL     1      30.458  79.053  14.357  1.00  0.00     0.000 C 
BRANCH   6   7
ATOM      7  C   UNL     1      31.215  79.820  15.457  1.00  0.00     0.006 C 
BRANCH   7   8
ATOM      8  C   UNL     1      31.655  81.237  15.054  1.00  0.00     0.053 C 
BRANCH   8   9
ATOM      9  C   UNL     1      32.348  81.952  16.172  1.00  0.00     0.041 C 
ATOM     10  O   UNL     1      32.816  83.107  15.990  1.00  0.00    -0.550 OA
ATOM     11  O   UNL     1      32.449  81.358  17.423  1.00  0.00    -0.550 OA
ENDBRANCH   8   9
ENDBRANCH   7   8
ENDBRANCH   6   7
ENDBRANCH   5   6
ENDBRANCH   4   5
ENDBRANCH   3   4
ENDBRANCH   2   3
ENDBRANCH   1   2
BRANCH   1  12
ATOM     12  C   UNL     1      35.839  76.868  11.032  1.00  0.00     0.000 C 
BRANCH  12  13
ATOM     13  C   UNL     1      36.020  75.904   9.850  1.00  0.00    -0.000 C 
BRANCH  13  14
ATOM     14  C   UNL     1      35.083  76.272   8.693  1.00  0.00    -0.000 C 
BRANCH  14  15
ATOM     15  C   UNL     1      34.776  75.050   7.820  1.00  0.00    -0.000 C 
BRANCH  15  16
ATOM     16  C   UNL     1      33.359  74.523   8.093  1.00  0.00    -0.000 C 
BRANCH  16  17
ATOM     17  C   UNL     1      32.473  75.540   8.837  1.00  0.00    -0.000 C 
BRANCH  17  18
ATOM     18  C   UNL     1      31.957  75.072  10.209  1.00  0.00    -0.000 C 
BRANCH  18  19
ATOM     19  C   UNL     1      32.773  73.907  10.790  1.00  0.00    -0.003 C 
ATOM     20  C   UNL     1      33.409  74.292  12.123  1.00  0.00     0.004 C 
ENDBRANCH  18  19
ENDBRANCH  17  18
ENDBRANCH  16  17
ENDBRANCH  15  16
ENDBRANCH  14  15
ENDBRANCH  13  14
ENDBRANCH  12  13
ENDBRANCH   1  12
TORSDOF 16
ENDMDL
MODEL 3
REMARK VINA RESULT:    -3.813      1.786      3.862
REMARK INTER + INTRA:         -10.327
REMARK INTER:                  -8.104
REMARK INTRA:                  -2.224
REMARK UNBOUND:                -2.949
REMARK SMILES CCCCCCCCCCCCCCCCCC(=O)[O-]
REMARK SMILES IDX 10 1 11 2 12 3 13 4 14 5 15 6 16 7 17 8 18 9 19 10 20 11
REMARK SMILES IDX 9 12 8 13 7 14 6 15 5 16 4 17 3 18 2 19 1 20
REMARK H PARENT
REMARK Flexibility Score: inf
ROOT
ATOM      1  C   UNL     1      32.484  76.474  12.462  1.00  0.00     0.000 C 
ENDROOT
BRANCH   1   2
ATOM      2  C   UNL     1      33.183  77.798  12.822  1.00  0.00     0.000 C 
BRANCH   2   3
ATOM      3  C   UNL     1      32.784  78.398  14.183  1.00  0.00     0.000 C 
BRANCH   3   4
ATOM      4  C   UNL     1      31.798  77.522  14.986  1.00  0.00     0.000 C 
BRANCH   4   5
ATOM      5  C   UNL     1      30.659  78.338  15.614  1.00  0.00     0.000 C 
BRANCH   5   6
ATOM      6  C   UNL     1      30.109  79.370  14.618  1.00  0.00     0.000 C 
BRANCH   6   7
ATOM      7  C   UNL     1      30.113  80.804  15.181  1.00  0.00     0.006 C 
BRANCH   7   8
ATOM      8  C   UNL     1      31.339  81.639  14.778  1.00  0.00     0.053 C 
BRANCH   8   9
ATOM      9  C   UNL     1      32.213  81.960  15.950  1.00  0.00     0.041 C 
ATOM     10  O   UNL     1      32.841  83.051  15.991  1.00  0.00    -0.550 OA
ATOM     11  O   UNL     1      32.309  81.070  17.012  1.00  0.00    -0.550 OA
ENDBRANCH   8   9
ENDBRANCH   7   8
ENDBRANCH   6   7
ENDBRANCH   5   6
ENDBRANCH   4   5
ENDBRANCH   3   4
ENDBRANCH   2   3
ENDBRANCH   1   2
BRANCH   1  12
ATOM     12  C   UNL     1      31.588  76.528  11.210  1.00  0.00     0.000 C 
BRANCH  12  13
ATOM     13  C   UNL     1      31.399  77.953  10.670  1.00  0.00    -0.000 C 
BRANCH  13  14
ATOM     14  C   UNL     1      31.893  78.060   9.221  1.00  0.00    -0.000 C 
BRANCH  14  15
ATOM     15  C   UNL     1      33.421  77.971   9.150  1.00  0.00    -0.000 C 
BRANCH  15  16
ATOM     16  C   UNL     1      33.864  76.957   8.085  1.00  0.00    -0.000 C 
BRANCH  16  17
ATOM     17  C   UNL     1      35.093  76.133   8.513  1.00  0.00    -0.000 C 
BRANCH  17  18
ATOM     18  C   UNL     1      35.191  75.848  10.022  1.00  0.00    -0.000 C 
BRANCH  18  19
ATOM     19  C   UNL     1      36.537  76.274  10.626  1.00  0.00    -0.003 C 
ATOM     20  C   UNL     1      36.429  77.639  11.301  1.00  0.00     0.004 C 
ENDBRANCH  18  19
ENDBRANCH  17  18
ENDBRANCH  16  17
ENDBRANCH  15  16
ENDBRANCH  14  15
ENDBRANCH  13  14
ENDBRANCH  12  13
ENDBRANCH   1  12
TORSDOF 16
ENDMDL
MODEL 4
REMARK VINA RESULT:    -3.785      3.318      6.206
REMARK INTER + INTRA:         -10.273
REMARK INTER:                  -7.464
REMARK INTRA:                  -2.809
REMARK UNBOUND:                -2.949
REMARK SMILES CCCCCCCCCCCCCCCCCC(=O)[O-]
REMARK SMILES IDX 10 1 11 2 12 3 13 4 14 5 15 6 16 7 17 8 18 9 19 10 20 11
REMARK SMILES IDX 9 12 8 13 7 14 6 15 5 16 4 17 3 18 2 19 1 20
REMARK H PARENT
REMARK Flexibility Score: inf
ROOT
ATOM      1  C   UNL     1      32.446  74.415  11.430  1.00  0.00     0.000 C 
ENDROOT
BRANCH   1   2
ATOM      2  C   UNL     1      32.279  73.197  10.502  1.00  0.00     0.000 C 
BRANCH   2   3
ATOM      3  C   UNL     1      31.846  73.527   9.061  1.00  0.00     0.000 C 
BRANCH   3   4
ATOM      4  C   UNL     1      31.392  74.990   8.867  1.00  0.00     0.000 C 
BRANCH   4   5
ATOM      5  C   UNL     1      32.222  75.730   7.807  1.00  0.00     0.000 C 
BRANCH   5   6
ATOM      6  C   UNL     1      32.379  74.878   6.539  1.00  0.00     0.000 C 
BRANCH   6   7
ATOM      7  C   UNL     1      33.844  74.760   6.078  1.00  0.00     0.006 C 
BRANCH   7   8
ATOM      8  C   UNL     1      34.854  75.476   6.990  1.00  0.00     0.053 C 
BRANCH   8   9
ATOM      9  C   UNL     1      36.174  74.769   7.035  1.00  0.00     0.041 C 
ATOM     10  O   UNL     1      36.446  73.882   6.183  1.00  0.00    -0.550 OA
ATOM     11  O   UNL     1      37.115  75.113   7.996  1.00  0.00    -0.550 OA
ENDBRANCH   8   9
ENDBRANCH   7   8
ENDBRANCH   6   7
ENDBRANCH   5   6
ENDBRANCH   4   5
ENDBRANCH   3   4
ENDBRANCH   2   3
ENDBRANCH   1   2
BRANCH   1  12
ATOM     12  C   UNL     1      33.903  74.776  11.776  1.00  0.00     0.000 C 
BRANCH  12  13
ATOM     13  C   UNL     1      34.690  75.314  10.573  1.00  0.00    -0.000 C 
BRANCH  13  14
ATOM     14  C   UNL     1      35.698  76.384  11.009  1.00  0.00    -0.000 C 
BRANCH  14  15
ATOM     15  C   UNL     1      35.018  77.747  11.180  1.00  0.00    -0.000 C 
BRANCH  15  16
ATOM     16  C   UNL     1      34.072  78.040  10.006  1.00  0.00    -0.000 C 
BRANCH  16  17
ATOM     17  C   UNL     1      32.613  78.253  10.449  1.00  0.00    -0.000 C 
BRANCH  17  18
ATOM     18  C   UNL     1      32.441  78.878  11.845  1.00  0.00    -0.000 C 
BRANCH  18  19
ATOM     19  C   UNL     1      31.509  78.064  12.755  1.00  0.00    -0.003 C 
ATOM     20  C   UNL     1      32.287  77.408  13.893  1.00  0.00     0.004 C 
ENDBRANCH  18  19
ENDBRANCH  17  18
ENDBRANCH  16  17
ENDBRANCH  15  16
ENDBRANCH  14  15
ENDBRANCH  13  14
ENDBRANCH  12  13
ENDBRANCH   1  12
TORSDOF 16
ENDMDL
MODEL 5
REMARK VINA RESULT:    -3.756      1.662      4.127
REMARK INTER + INTRA:         -10.218
REMARK INTER:                  -7.857
REMARK INTRA:                  -2.360
REMARK UNBOUND:                -2.949
REMARK SMILES CCCCCCCCCCCCCCCCCC(=O)[O-]
REMARK SMILES IDX 10 1 11 2 12 3 13 4 14 5 15 6 16 7 17 8 18 9 19 10 20 11
REMARK SMILES IDX 9 12 8 13 7 14 6 15 5 16 4 17 3 18 2 19 1 20
REMARK H PARENT
REMARK Flexibility Score: inf
ROOT
ATOM      1  C   UNL     1      30.484  77.525  10.598  1.00  0.00     0.000 C 
ENDROOT
BRANCH   1   2
ATOM      2  C   UNL     1      31.640  78.449  10.167  1.00  0.00     0.000 C 
BRANCH   2   3
ATOM      3  C   UNL     1      32.554  78.926  11.311  1.00  0.00     0.000 C 
BRANCH   3   4
ATOM      4  C   UNL     1      31.925  78.783  12.713  1.00  0.00     0.000 C 
BRANCH   4   5
ATOM      5  C   UNL     1      32.735  77.856  13.632  1.00  0.00     0.000 C 
BRANCH   5   6
ATOM      6  C   UNL     1      32.408  78.123  15.109  1.00  0.00     0.000 C 
BRANCH   6   7
ATOM      7  C   UNL     1      33.090  79.394  15.650  1.00  0.00     0.006 C 
BRANCH   7   8
ATOM      8  C   UNL     1      32.135  80.378  16.345  1.00  0.00     0.053 C 
BRANCH   8   9
ATOM      9  C   UNL     1      32.058  81.691  15.630  1.00  0.00     0.041 C 
ATOM     10  O   UNL     1      32.748  82.668  16.025  1.00  0.00    -0.550 OA
ATOM     11  O   UNL     1      31.250  81.827  14.508  1.00  0.00    -0.550 OA
ENDBRANCH   8   9
ENDBRANCH   7   8
ENDBRANCH   6   7
ENDBRANCH   5   6
ENDBRANCH   4   5
ENDBRANCH   3   4
ENDBRANCH   2   3
ENDBRANCH   1   2
BRANCH   1  12
ATOM     12  C   UNL     1      30.541  76.098  10.020  1.00  0.00     0.000 C 
BRANCH  12  13
ATOM     13  C   UNL     1      30.459  75.011  11.101  1.00  0.00    -0.000 C 
BRANCH  13  14
ATOM     14  C   UNL     1      31.807  74.844  11.815  1.00  0.00    -0.000 C 
BRANCH  14  15
ATOM     15  C   UNL     1      32.964  74.815  10.811  1.00  0.00    -0.000 C 
BRANCH  15  16
ATOM     16  C   UNL     1      34.279  75.253  11.474  1.00  0.00    -0.000 C 
BRANCH  16  17
ATOM     17  C   UNL     1      35.079  76.254  10.620  1.00  0.00    -0.000 C 
BRANCH  17  18
ATOM     18  C   UNL     1      35.946  75.622   9.518  1.00  0.00    -0.000 C 
BRANCH  18  19
ATOM     19  C   UNL     1      35.343  75.783   8.115  1.00  0.00    -0.003 C 
ATOM     20  C   UNL     1      34.262  76.861   8.102  1.00  0.00     0.004 C 
ENDBRANCH  18  19
ENDBRANCH  17  18
ENDBRANCH  16  17
ENDBRANCH  15  16
ENDBRANCH  14  15
ENDBRANCH  13  14
ENDBRANCH  12  13
ENDBRANCH   1  12
TORSDOF 16
ENDMDL
MODEL 6
REMARK VINA RESULT:    -3.736      1.816      3.999
REMARK INTER + INTRA:         -10.178
REMARK INTER:                  -7.783
REMARK INTRA:                  -2.396
REMARK UNBOUND:                -2.949
REMARK SMILES CCCCCCCCCCCCCCCCCC(=O)[O-]
REMARK SMILES IDX 10 1 11 2 12 3 13 4 14 5 15 6 16 7 17 8 18 9 19 10 20 11
REMARK SMILES IDX 9 12 8 13 7 14 6 15 5 16 4 17 3 18 2 19 1 20
REMARK H PARENT
REMARK Flexibility Score: inf
ROOT
ATOM      1  C   UNL     1      32.123  78.480  12.609  1.00  0.00     0.000 C 
ENDROOT
BRANCH   1   2
ATOM      2  C   UNL     1      30.849  77.639  12.814  1.00  0.00     0.000 C 
BRANCH   2   3
ATOM      3  C   UNL     1      30.909  76.635  13.980  1.00  0.00     0.000 C 
BRANCH   3   4
ATOM      4  C   UNL     1      30.374  77.197  15.315  1.00  0.00     0.000 C 
BRANCH   4   5
ATOM      5  C   UNL     1      31.461  77.286  16.396  1.00  0.00     0.000 C 
BRANCH   5   6
ATOM      6  C   UNL     1      32.170  78.648  16.351  1.00  0.00     0.000 C 
BRANCH   6   7
ATOM      7  C   UNL     1      31.207  79.812  16.054  1.00  0.00     0.006 C 
BRANCH   7   8
ATOM      8  C   UNL     1      31.883  81.059  15.461  1.00  0.00     0.053 C 
BRANCH   8   9
ATOM      9  C   UNL     1      32.431  81.963  16.522  1.00  0.00     0.041 C 
ATOM     10  O   UNL     1      33.200  82.910  16.212  1.00  0.00    -0.550 OA
ATOM     11  O   UNL     1      32.065  81.779  17.849  1.00  0.00    -0.550 OA
ENDBRANCH   8   9
ENDBRANCH   7   8
ENDBRANCH   6   7
ENDBRANCH   5   6
ENDBRANCH   4   5
ENDBRANCH   3   4
ENDBRANCH   2   3
ENDBRANCH   1   2
BRANCH   1  12
ATOM     12  C   UNL     1      32.404  78.894  11.153  1.00  0.00     0.000 C 
BRANCH  12  13
ATOM     13  C   UNL     1      31.549  78.125  10.135  1.00  0.00    -0.000 C 
BRANCH  13  14
ATOM     14  C   UNL     1      32.374  77.747   8.899  1.00  0.00    -0.000 C 
BRANCH  14  15
ATOM     15  C   UNL     1      33.877  77.824   9.193  1.00  0.00    -0.000 C 
BRANCH  15  16
ATOM     16  C   UNL     1      34.604  76.578   8.664  1.00  0.00    -0.000 C 
BRANCH  16  17
ATOM     17  C   UNL     1      35.204  75.711   9.787  1.00  0.00    -0.000 C 
BRANCH  17  18
ATOM     18  C   UNL     1      34.555  75.898  11.170  1.00  0.00    -0.000 C 
BRANCH  18  19
ATOM     19  C   UNL     1      33.919  74.609  11.712  1.00  0.00    -0.003 C 
ATOM     20  C   UNL     1      32.424  74.562  11.404  1.00  0.00     0.004 C 
ENDBRANCH  18  19
ENDBRANCH  17  18
ENDBRANCH  16  17
ENDBRANCH  15  16
ENDBRANCH  14  15
ENDBRANCH  13  14
ENDBRANCH  12  13
ENDBRANCH   1  12
TORSDOF 16
ENDMDL
MODEL 7
REMARK VINA RESULT:    -3.711      3.698      6.129
REMARK INTER + INTRA:         -10.130
REMARK INTER:                  -6.911
REMARK INTRA:                  -3.220
REMARK UNBOUND:                -2.949
REMARK SMILES CCCCCCCCCCCCCCCCCC(=O)[O-]
REMARK SMILES IDX 10 1 11 2 12 3 13 4 14 5 15 6 16 7 17 8 18 9 19 10 20 11
REMARK SMILES IDX 9 12 8 13 7 14 6 15 5 16 4 17 3 18 2 19 1 20
REMARK H PARENT
REMARK Flexibility Score: inf
ROOT
ATOM      1  C   UNL     1      31.749  74.685  10.367  1.00  0.00     0.000 C 
ENDROOT
BRANCH   1   2
ATOM      2  C   UNL     1      32.336  74.327  11.745  1.00  0.00     0.000 C 
BRANCH   2   3
ATOM      3  C   UNL     1      33.873  74.375  11.832  1.00  0.00     0.000 C 
BRANCH   3   4
ATOM      4  C   UNL     1      34.485  75.698  11.323  1.00  0.00     0.000 C 
BRANCH   4   5
ATOM      5  C   UNL     1      35.308  75.513  10.040  1.00  0.00     0.000 C 
BRANCH   5   6
ATOM      6  C   UNL     1      34.958  76.590   9.002  1.00  0.00     0.000 C 
BRANCH   6   7
ATOM      7  C   UNL     1      34.274  76.012   7.749  1.00  0.00     0.006 C 
BRANCH   7   8
ATOM      8  C   UNL     1      34.303  74.477   7.664  1.00  0.00     0.053 C 
BRANCH   8   9
ATOM      9  C   UNL     1      35.350  73.984   6.714  1.00  0.00     0.041 C 
ATOM     10  O   UNL     1      35.112  73.000   5.965  1.00  0.00    -0.550 OA
ATOM     11  O   UNL     1      36.576  74.631   6.632  1.00  0.00    -0.550 OA
ENDBRANCH   8   9
ENDBRANCH   7   8
ENDBRANCH   6   7
ENDBRANCH   5   6
ENDBRANCH   4   5
ENDBRANCH   3   4
ENDBRANCH   2   3
ENDBRANCH   1   2
BRANCH   1  12
ATOM     12  C   UNL     1      30.791  75.891  10.360  1.00  0.00     0.000 C 
BRANCH  12  13
ATOM     13  C   UNL     1      31.203  76.978   9.357  1.00  0.00    -0.000 C 
BRANCH  13  14
ATOM     14  C   UNL     1      31.212  78.362  10.020  1.00  0.00    -0.000 C 
BRANCH  14  15
ATOM     15  C   UNL     1      32.517  78.597  10.789  1.00  0.00    -0.000 C 
BRANCH  15  16
ATOM     16  C   UNL     1      32.233  79.088  12.217  1.00  0.00    -0.000 C 
BRANCH  16  17
ATOM     17  C   UNL     1      32.998  78.292  13.289  1.00  0.00    -0.000 C 
BRANCH  17  18
ATOM     18  C   UNL     1      32.132  77.346  14.140  1.00  0.00    -0.000 C 
BRANCH  18  19
ATOM     19  C   UNL     1      30.654  77.352  13.723  1.00  0.00    -0.003 C 
ATOM     20  C   UNL     1      29.983  76.022  14.060  1.00  0.00     0.004 C 
ENDBRANCH  18  19
ENDBRANCH  17  18
ENDBRANCH  16  17
ENDBRANCH  15  16
ENDBRANCH  14  15
ENDBRANCH  13  14
ENDBRANCH  12  13
ENDBRANCH   1  12
TORSDOF 16
ENDMDL
MODEL 8
REMARK VINA RESULT:    -3.696      1.721      3.370
REMARK INTER + INTRA:         -10.101
REMARK INTER:                  -7.397
REMARK INTRA:                  -2.704
REMARK UNBOUND:                -2.949
REMARK SMILES CCCCCCCCCCCCCCCCCC(=O)[O-]
REMARK SMILES IDX 10 1 11 2 12 3 13 4 14 5 15 6 16 7 17 8 18 9 19 10 20 11
REMARK SMILES IDX 9 12 8 13 7 14 6 15 5 16 4 17 3 18 2 19 1 20
REMARK H PARENT
REMARK Flexibility Score: inf
ROOT
ATOM      1  C   UNL     1      31.713  78.274   9.926  1.00  0.00     0.000 C 
ENDROOT
BRANCH   1   2
ATOM      2  C   UNL     1      30.719  77.531  10.839  1.00  0.00     0.000 C 
BRANCH   2   3
ATOM      3  C   UNL     1      30.909  77.776  12.347  1.00  0.00     0.000 C 
BRANCH   3   4
ATOM      4  C   UNL     1      31.918  78.898  12.674  1.00  0.00     0.000 C 
BRANCH   4   5
ATOM      5  C   UNL     1      32.937  78.482  13.746  1.00  0.00     0.000 C 
BRANCH   5   6
ATOM      6  C   UNL     1      32.245  77.753  14.908  1.00  0.00     0.000 C 
BRANCH   6   7
ATOM      7  C   UNL     1      32.242  78.574  16.210  1.00  0.00     0.006 C 
BRANCH   7   8
ATOM      8  C   UNL     1      32.753  80.016  16.051  1.00  0.00     0.053 C 
BRANCH   8   9
ATOM      9  C   UNL     1      31.899  81.002  16.785  1.00  0.00     0.041 C 
ATOM     10  O   UNL     1      32.360  82.133  17.093  1.00  0.00    -0.550 OA
ATOM     11  O   UNL     1      30.584  80.686  17.099  1.00  0.00    -0.550 OA
ENDBRANCH   8   9
ENDBRANCH   7   8
ENDBRANCH   6   7
ENDBRANCH   5   6
ENDBRANCH   4   5
ENDBRANCH   3   4
ENDBRANCH   2   3
ENDBRANCH   1   2
BRANCH   1  12
ATOM     12  C   UNL     1      32.350  77.413   8.818  1.00  0.00     0.000 C 
BRANCH  12  13
ATOM     13  C   UNL     1      33.876  77.305   8.946  1.00  0.00    -0.000 C 
BRANCH  13  14
ATOM     14  C   UNL     1      34.364  77.945  10.252  1.00  0.00    -0.000 C 
BRANCH  14  15
ATOM     15  C   UNL     1      35.142  76.936  11.104  1.00  0.00    -0.000 C 
BRANCH  15  16
ATOM     16  C   UNL     1      34.535  75.530  10.982  1.00  0.00    -0.000 C 
BRANCH  16  17
ATOM     17  C   UNL     1      33.497  75.226  12.078  1.00  0.00    -0.000 C 
BRANCH  17  18
ATOM     18  C   UNL     1      32.428  74.189  11.692  1.00  0.00    -0.000 C 
BRANCH  18  19
ATOM     19  C   UNL     1      32.474  73.807  10.205  1.00  0.00    -0.003 C 
ATOM     20  C   UNL     1      31.983  72.377   9.989  1.00  0.00     0.004 C 
ENDBRANCH  18  19
ENDBRANCH  17  18
ENDBRANCH  16  17
ENDBRANCH  15  16
ENDBRANCH  14  15
ENDBRANCH  13  14
ENDBRANCH  12  13
ENDBRANCH   1  12
TORSDOF 16
ENDMDL
MODEL 9
REMARK VINA RESULT:    -3.654      1.271      3.793
REMARK INTER + INTRA:         -10.020
REMARK INTER:                  -6.964
REMARK INTRA:                  -3.056
REMARK UNBOUND:                -2.949
REMARK SMILES CCCCCCCCCCCCCCCCCC(=O)[O-]
REMARK SMILES IDX 10 1 11 2 12 3 13 4 14 5 15 6 16 7 17 8 18 9 19 10 20 11
REMARK SMILES IDX 9 12 8 13 7 14 6 15 5 16 4 17 3 18 2 19 1 20
REMARK H PARENT
REMARK Flexibility Score: inf
ROOT
ATOM      1  C   UNL     1      31.972  75.522   8.456  1.00  0.00     0.000 C 
ENDROOT
BRANCH   1   2
ATOM      2  C   UNL     1      31.160  76.818   8.639  1.00  0.00     0.000 C 
BRANCH   2   3
ATOM      3  C   UNL     1      31.987  78.059   9.021  1.00  0.00     0.000 C 
BRANCH   3   4
ATOM      4  C   UNL     1      31.758  78.540  10.470  1.00  0.00     0.000 C 
BRANCH   4   5
ATOM      5  C   UNL     1      30.981  77.520  11.315  1.00  0.00     0.000 C 
BRANCH   5   6
ATOM      6  C   UNL     1      31.391  77.605  12.793  1.00  0.00     0.000 C 
BRANCH   6   7
ATOM      7  C   UNL     1      32.561  78.578  13.032  1.00  0.00     0.006 C 
BRANCH   7   8
ATOM      8  C   UNL     1      33.115  78.562  14.466  1.00  0.00     0.053 C 
BRANCH   8   9
ATOM      9  C   UNL     1      32.426  79.556  15.349  1.00  0.00     0.041 C 
ATOM     10  O   UNL     1      31.768  80.503  14.843  1.00  0.00    -0.550 OA
ATOM     11  O   UNL     1      32.482  79.418  16.730  1.00  0.00    -0.550 OA
ENDBRANCH   8   9
ENDBRANCH   7   8
ENDBRANCH   6   7
ENDBRANCH   5   6
ENDBRANCH   4   5
ENDBRANCH   3   4
ENDBRANCH   2   3
ENDBRANCH   1   2
BRANCH   1  12
ATOM     12  C   UNL     1      31.349  74.265   9.092  1.00  0.00     0.000 C 
BRANCH  12  13
ATOM     13  C   UNL     1      32.296  73.557  10.071  1.00  0.00    -0.000 C 
BRANCH  13  14
ATOM     14  C   UNL     1      31.923  73.876  11.524  1.00  0.00    -0.000 C 
BRANCH  14  15
ATOM     15  C   UNL     1      33.104  74.504  12.272  1.00  0.00    -0.000 C 
BRANCH  15  16
ATOM     16  C   UNL     1      34.276  74.779  11.317  1.00  0.00    -0.000 C 
BRANCH  16  17
ATOM     17  C   UNL     1      34.616  76.276  11.199  1.00  0.00    -0.000 C 
BRANCH  17  18
ATOM     18  C   UNL     1      35.252  76.696   9.862  1.00  0.00    -0.000 C 
BRANCH  18  19
ATOM     19  C   UNL     1      36.093  75.581   9.223  1.00  0.00    -0.003 C 
ATOM     20  C   UNL     1      35.650  75.313   7.787  1.00  0.00     0.004 C 
ENDBRANCH  18  19
ENDBRANCH  17  18
ENDBRANCH  16  17
ENDBRANCH  15  16
ENDBRANCH  14  15
ENDBRANCH  13  14
ENDBRANCH  12  13
ENDBRANCH   1  12
TORSDOF 16
ENDMDL
