MODEL 1
REMARK VINA RESULT:    22.824      0.000      0.000
REMARK INTER + INTRA:          42.348
REMARK INTER:                  37.501
REMARK INTRA:                   4.847
REMARK UNBOUND:                 4.847
REMARK SMILES C[C@H]1O[C@H](OC[C@H]2O[C@H](Oc3c(-c4ccc(O)c(O)c4)oc4cc(O)cc(O)c4c3=O)[C@H](O)[C@@H](O)[C@H]2O)[C@@H](O)[C@H](O)[C@@H]1O
REMARK SMILES IDX 7 1 36 2 34 3 32 4 9 5 8 6 6 7 5 8 4 9 1 10 2 11 42 12 3 13
REMARK SMILES IDX 40 14 38 15 43 16 41 18 39 20 37 22 35 24 10 26 11 27 12 28
REMARK SMILES IDX 30 29 21 30 29 31 31 32 22 33 27 34 23 35 26 36 24 37 13 38
REMARK SMILES IDX 20 39 14 40 18 41 15 42 16 43 19 44 17 46 28 48 25 50 33 52
REMARK H PARENT 43 17 41 19 39 21 37 23 35 25 19 45 17 47 28 49 25 51 33 53
REMARK Flexibility Score: inf
ROOT
ATOM      1  C   UNL     1      31.191  -5.352 -15.108  1.00  0.00     0.180 C 
ATOM      2  C   UNL     1      31.069  -6.891 -15.044  1.00  0.00     0.177 C 
ATOM      3  C   UNL     1      30.517  -7.295 -13.663  1.00  0.00     0.180 C 
ATOM      4  C   UNL     1      29.224  -6.513 -13.367  1.00  0.00     0.214 C 
ATOM      5  C   UNL     1      29.425  -4.998 -13.594  1.00  0.00     0.339 C 
ATOM      6  O   UNL     1      29.926  -4.742 -14.901  1.00  0.00    -0.332 OA
ENDROOT
BRANCH   1   7
ATOM      7  C   UNL     1      31.743  -4.877 -16.464  1.00  0.00     0.198 C 
BRANCH   7   8
ATOM      8  O   UNL     1      33.160  -4.839 -16.462  1.00  0.00    -0.347 OA
BRANCH   8   9
ATOM      9  C   UNL     1      33.705  -5.098 -17.751  1.00  0.00     0.281 C 
ATOM     10  C   UNL     1      36.570  -2.789 -17.580  1.00  0.00     0.041 C 
ATOM     11  C   UNL     1      35.709  -3.997 -17.195  1.00  0.00     0.150 C 
ATOM     12  C   UNL     1      36.541  -5.301 -17.233  1.00  0.00     0.174 C 
ATOM     13  O   UNL     1      34.620  -4.071 -18.107  1.00  0.00    -0.344 OA
ATOM     14  C   UNL     1      35.641  -6.509 -16.909  1.00  0.00     0.179 C 
ATOM     15  C   UNL     1      34.383  -6.485 -17.793  1.00  0.00     0.202 C 
BRANCH  12  16
ATOM     16  O   UNL     1      37.588  -5.230 -16.295  1.00  0.00    -0.388 OA
ATOM     17  H   UNL     1      37.710  -4.273 -16.058  1.00  0.00     0.211 HD
ENDBRANCH  12  16
BRANCH  14  18
ATOM     18  O   UNL     1      35.258  -6.495 -15.555  1.00  0.00    -0.387 OA
ATOM     19  H   UNL     1      34.272  -6.615 -15.526  1.00  0.00     0.211 HD
ENDBRANCH  14  18
BRANCH  15  20
ATOM     20  O   UNL     1      34.733  -6.777 -19.125  1.00  0.00    -0.385 OA
ATOM     21  H   UNL     1      34.596  -7.755 -19.257  1.00  0.00     0.211 HD
ENDBRANCH  15  20
ENDBRANCH   8   9
ENDBRANCH   7   8
ENDBRANCH   1   7
BRANCH   2  22
ATOM     22  O   UNL     1      30.220  -7.343 -16.070  1.00  0.00    -0.387 OA
ATOM     23  H   UNL     1      30.295  -6.692 -16.817  1.00  0.00     0.211 HD
ENDBRANCH   2  22
BRANCH   3  24
ATOM     24  O   UNL     1      30.262  -8.676 -13.637  1.00  0.00    -0.387 OA
ATOM     25  H   UNL     1      31.041  -9.123 -14.061  1.00  0.00     0.211 HD
ENDBRANCH   3  24
BRANCH   5  26
ATOM     26  O   UNL     1      30.279  -4.438 -12.589  1.00  0.00    -0.454 OA
BRANCH  26  27
ATOM     27  C   UNL     1      31.092  -5.137 -11.673  1.00  0.00     0.214 A 
ATOM     28  C   UNL     1      30.800  -5.008 -10.301  1.00  0.00     0.180 A 
ATOM     29  C   UNL     1      32.203  -5.928 -12.048  1.00  0.00     0.239 A 
ATOM     30  O   UNL     1      31.562  -5.611  -9.395  1.00  0.00    -0.452 OA
ATOM     31  C   UNL     1      32.935  -6.628 -11.058  1.00  0.00     0.111 A 
ATOM     32  O   UNL     1      32.571  -5.960 -13.249  1.00  0.00    -0.285 OA
ATOM     33  C   UNL     1      32.590  -6.388  -9.704  1.00  0.00     0.146 A 
ATOM     34  C   UNL     1      34.021  -7.512 -11.336  1.00  0.00     0.134 A 
ATOM     35  C   UNL     1      33.336  -6.959  -8.667  1.00  0.00     0.094 A 
ATOM     36  C   UNL     1      34.774  -8.039 -10.276  1.00  0.00     0.093 A 
ATOM     37  C   UNL     1      34.432  -7.771  -8.948  1.00  0.00     0.123 A 
BRANCH  28  38
ATOM     38  C   UNL     1      29.677  -4.173  -9.820  1.00  0.00     0.025 A 
ATOM     39  C   UNL     1      28.865  -3.503 -10.749  1.00  0.00     0.062 A 
ATOM     40  C   UNL     1      29.423  -4.012  -8.447  1.00  0.00     0.016 A 
ATOM     41  C   UNL     1      27.788  -2.714 -10.320  1.00  0.00     0.158 A 
ATOM     42  C   UNL     1      28.350  -3.230  -8.019  1.00  0.00     0.051 A 
ATOM     43  C   UNL     1      27.527  -2.583  -8.947  1.00  0.00     0.157 A 
BRANCH  41  44
ATOM     44  O   UNL     1      26.981  -2.061 -11.254  1.00  0.00    -0.504 OA
ATOM     45  H   UNL     1      26.913  -1.051 -11.283  1.00  0.00     0.293 HD
ENDBRANCH  41  44
BRANCH  43  46
ATOM     46  O   UNL     1      26.462  -1.811  -8.486  1.00  0.00    -0.504 OA
ATOM     47  H   UNL     1      25.897  -1.248  -9.111  1.00  0.00     0.293 HD
ENDBRANCH  43  46
ENDBRANCH  28  38
BRANCH  34  48
ATOM     48  O   UNL     1      34.374  -7.930 -12.622  1.00  0.00    -0.507 OA
ATOM     49  H   UNL     1      35.053  -7.459 -13.204  1.00  0.00     0.293 HD
ENDBRANCH  34  48
BRANCH  37  50
ATOM     50  O   UNL     1      35.170  -8.320  -7.901  1.00  0.00    -0.508 OA
ATOM     51  H   UNL     1      35.324  -7.812  -7.037  1.00  0.00     0.293 HD
ENDBRANCH  37  50
ENDBRANCH  26  27
ENDBRANCH   5  26
BRANCH   4  52
ATOM     52  O   UNL     1      28.754  -6.777 -12.069  1.00  0.00    -0.384 OA
ATOM     53  H   UNL     1      27.804  -6.492 -12.021  1.00  0.00     0.211 HD
ENDBRANCH   4  52
TORSDOF 16
ENDMDL
