MODEL 1
REMARK VINA RESULT:    -3.922      0.000      0.000
REMARK INTER + INTRA:          -6.192
REMARK INTER:                  -5.756
REMARK INTRA:                  -0.436
REMARK UNBOUND:                -0.436
REMARK SMILES O=C([O-])CCCCCCCC(=O)[O-]
REMARK SMILES IDX 7 1 6 2 5 3 4 4 2 5 1 6 3 7 8 8 9 9 10 10 11 11 12 12 13 13
REMARK H PARENT
REMARK Flexibility Score: inf
ROOT
ATOM      1  C   UNL     1      10.028  80.729  44.646  1.00  0.00     0.000 C 
ENDROOT
BRANCH   1   2
ATOM      2  C   UNL     1      11.352  81.487  44.501  1.00  0.00     0.000 C 
BRANCH   2   3
ATOM      3  C   UNL     1      11.924  81.332  43.087  1.00  0.00     0.006 C 
BRANCH   3   4
ATOM      4  C   UNL     1      11.691  79.916  42.553  1.00  0.00     0.053 C 
BRANCH   4   5
ATOM      5  C   UNL     1      11.213  79.962  41.137  1.00  0.00     0.041 C 
ATOM      6  O   UNL     1      10.117  79.428  40.820  1.00  0.00    -0.550 OA
ATOM      7  O   UNL     1      11.951  80.638  40.174  1.00  0.00    -0.550 OA
ENDBRANCH   4   5
ENDBRANCH   3   4
ENDBRANCH   2   3
ENDBRANCH   1   2
BRANCH   1   8
ATOM      8  C   UNL     1       8.836  81.633  44.310  1.00  0.00     0.000 C 
BRANCH   8   9
ATOM      9  C   UNL     1       7.514  80.983  44.739  1.00  0.00     0.006 C 
BRANCH   9  10
ATOM     10  C   UNL     1       7.368  80.988  46.263  1.00  0.00     0.053 C 
BRANCH  10  11
ATOM     11  C   UNL     1       7.088  79.607  46.767  1.00  0.00     0.041 C 
ATOM     12  O   UNL     1       5.919  79.280  47.102  1.00  0.00    -0.550 OA
ATOM     13  O   UNL     1       8.125  78.695  46.911  1.00  0.00    -0.550 OA
ENDBRANCH  10  11
ENDBRANCH   9  10
ENDBRANCH   8   9
ENDBRANCH   1   8
TORSDOF 8
ENDMDL
MODEL 2
REMARK VINA RESULT:    -3.880      3.758      7.166
REMARK INTER + INTRA:          -6.131
REMARK INTER:                  -5.718
REMARK INTRA:                  -0.413
REMARK UNBOUND:                -0.436
REMARK SMILES O=C([O-])CCCCCCCC(=O)[O-]
REMARK SMILES IDX 7 1 6 2 5 3 4 4 2 5 1 6 3 7 8 8 9 9 10 10 11 11 12 12 13 13
REMARK H PARENT
REMARK Flexibility Score: inf
ROOT
ATOM      1  C   UNL     1      10.567  80.295  38.428  1.00  0.00     0.000 C 
ENDROOT
BRANCH   1   2
ATOM      2  C   UNL     1      11.402  80.747  39.633  1.00  0.00     0.000 C 
BRANCH   2   3
ATOM      3  C   UNL     1      10.652  80.499  40.947  1.00  0.00     0.006 C 
BRANCH   3   4
ATOM      4  C   UNL     1      11.565  79.841  41.985  1.00  0.00     0.053 C 
BRANCH   4   5
ATOM      5  C   UNL     1      11.598  80.650  43.242  1.00  0.00     0.041 C 
ATOM      6  O   UNL     1      10.857  80.343  44.213  1.00  0.00    -0.550 OA
ATOM      7  O   UNL     1      12.482  81.714  43.362  1.00  0.00    -0.550 OA
ENDBRANCH   4   5
ENDBRANCH   3   4
ENDBRANCH   2   3
ENDBRANCH   1   2
BRANCH   1   8
ATOM      8  C   UNL     1       9.651  79.123  38.801  1.00  0.00     0.000 C 
BRANCH   8   9
ATOM      9  C   UNL     1       8.447  79.042  37.855  1.00  0.00     0.006 C 
BRANCH   9  10
ATOM     10  C   UNL     1       8.883  78.625  36.447  1.00  0.00     0.053 C 
BRANCH  10  11
ATOM     11  C   UNL     1       9.430  77.231  36.460  1.00  0.00     0.041 C 
ATOM     12  O   UNL     1      10.610  77.011  36.080  1.00  0.00    -0.550 OA
ATOM     13  O   UNL     1       8.621  76.171  36.846  1.00  0.00    -0.550 OA
ENDBRANCH  10  11
ENDBRANCH   9  10
ENDBRANCH   8   9
ENDBRANCH   1   8
TORSDOF 8
ENDMDL
MODEL 3
REMARK VINA RESULT:    -3.876      0.340      6.136
REMARK INTER + INTRA:          -6.125
REMARK INTER:                  -5.698
REMARK INTRA:                  -0.427
REMARK UNBOUND:                -0.436
REMARK SMILES O=C([O-])CCCCCCCC(=O)[O-]
REMARK SMILES IDX 7 1 6 2 5 3 4 4 2 5 1 6 3 7 8 8 9 9 10 10 11 11 12 12 13 13
REMARK H PARENT
REMARK Flexibility Score: inf
ROOT
ATOM      1  C   UNL     1      10.027  80.630  44.546  1.00  0.00     0.000 C 
ENDROOT
BRANCH   1   2
ATOM      2  C   UNL     1       8.810  81.562  44.504  1.00  0.00     0.000 C 
BRANCH   2   3
ATOM      3  C   UNL     1       7.531  80.816  44.902  1.00  0.00     0.006 C 
BRANCH   3   4
ATOM      4  C   UNL     1       7.321  80.856  46.419  1.00  0.00     0.053 C 
BRANCH   4   5
ATOM      5  C   UNL     1       7.085  79.479  46.951  1.00  0.00     0.041 C 
ATOM      6  O   UNL     1       8.059  78.742  47.259  1.00  0.00    -0.550 OA
ATOM      7  O   UNL     1       5.789  79.024  47.156  1.00  0.00    -0.550 OA
ENDBRANCH   4   5
ENDBRANCH   3   4
ENDBRANCH   2   3
ENDBRANCH   1   2
BRANCH   1   8
ATOM      8  C   UNL     1      11.335  81.430  44.518  1.00  0.00     0.000 C 
BRANCH   8   9
ATOM      9  C   UNL     1      12.026  81.307  43.154  1.00  0.00     0.006 C 
BRANCH   9  10
ATOM     10  C   UNL     1      11.670  79.982  42.475  1.00  0.00     0.053 C 
BRANCH  10  11
ATOM     11  C   UNL     1      11.117  80.227  41.106  1.00  0.00     0.041 C 
ATOM     12  O   UNL     1      11.894  80.410  40.132  1.00  0.00    -0.550 OA
ATOM     13  O   UNL     1       9.743  80.302  40.914  1.00  0.00    -0.550 OA
ENDBRANCH  10  11
ENDBRANCH   9  10
ENDBRANCH   8   9
ENDBRANCH   1   8
TORSDOF 8
ENDMDL
MODEL 4
REMARK VINA RESULT:    -3.870      3.763      5.519
REMARK INTER + INTRA:          -6.115
REMARK INTER:                  -5.769
REMARK INTRA:                  -0.346
REMARK UNBOUND:                -0.436
REMARK SMILES O=C([O-])CCCCCCCC(=O)[O-]
REMARK SMILES IDX 7 1 6 2 5 3 4 4 2 5 1 6 3 7 8 8 9 9 10 10 11 11 12 12 13 13
REMARK H PARENT
REMARK Flexibility Score: inf
ROOT
ATOM      1  C   UNL     1      11.429  80.849  39.908  1.00  0.00     0.000 C 
ENDROOT
BRANCH   1   2
ATOM      2  C   UNL     1      10.803  80.528  38.546  1.00  0.00     0.000 C 
BRANCH   2   3
ATOM      3  C   UNL     1      10.073  79.180  38.579  1.00  0.00     0.006 C 
BRANCH   3   4
ATOM      4  C   UNL     1       9.164  79.018  37.357  1.00  0.00     0.053 C 
BRANCH   4   5
ATOM      5  C   UNL     1       9.299  77.643  36.784  1.00  0.00     0.041 C 
ATOM      6  O   UNL     1       8.336  76.833  36.846  1.00  0.00    -0.550 OA
ATOM      7  O   UNL     1      10.469  77.270  36.136  1.00  0.00    -0.550 OA
ENDBRANCH   4   5
ENDBRANCH   3   4
ENDBRANCH   2   3
ENDBRANCH   1   2
BRANCH   1   8
ATOM      8  C   UNL     1      10.816  79.982  41.014  1.00  0.00     0.000 C 
BRANCH   8   9
ATOM      9  C   UNL     1      11.799  79.796  42.176  1.00  0.00     0.006 C 
BRANCH   9  10
ATOM     10  C   UNL     1      12.367  81.142  42.636  1.00  0.00     0.053 C 
BRANCH  10  11
ATOM     11  C   UNL     1      11.867  81.480  44.006  1.00  0.00     0.041 C 
ATOM     12  O   UNL     1      11.054  80.716  44.590  1.00  0.00    -0.550 OA
ATOM     13  O   UNL     1      12.262  82.662  44.619  1.00  0.00    -0.550 OA
ENDBRANCH  10  11
ENDBRANCH   9  10
ENDBRANCH   8   9
ENDBRANCH   1   8
TORSDOF 8
ENDMDL
MODEL 5
REMARK VINA RESULT:    -3.773      7.360      8.526
REMARK INTER + INTRA:          -5.973
REMARK INTER:                  -5.499
REMARK INTRA:                  -0.474
REMARK UNBOUND:                -0.436
REMARK SMILES O=C([O-])CCCCCCCC(=O)[O-]
REMARK SMILES IDX 7 1 6 2 5 3 4 4 2 5 1 6 3 7 8 8 9 9 10 10 11 11 12 12 13 13
REMARK H PARENT
REMARK Flexibility Score: inf
ROOT
ATOM      1  C   UNL     1       4.485  75.820  38.928  1.00  0.00     0.000 C 
ENDROOT
BRANCH   1   2
ATOM      2  C   UNL     1       4.307  74.357  39.352  1.00  0.00     0.000 C 
BRANCH   2   3
ATOM      3  C   UNL     1       5.546  73.846  40.098  1.00  0.00     0.006 C 
BRANCH   3   4
ATOM      4  C   UNL     1       5.781  72.359  39.817  1.00  0.00     0.053 C 
BRANCH   4   5
ATOM      5  C   UNL     1       7.041  72.167  39.034  1.00  0.00     0.041 C 
ATOM      6  O   UNL     1       7.514  73.115  38.353  1.00  0.00    -0.550 OA
ATOM      7  O   UNL     1       7.721  70.958  39.094  1.00  0.00    -0.550 OA
ENDBRANCH   4   5
ENDBRANCH   3   4
ENDBRANCH   2   3
ENDBRANCH   1   2
BRANCH   1   8
ATOM      8  C   UNL     1       5.966  76.158  38.722  1.00  0.00     0.000 C 
BRANCH   8   9
ATOM      9  C   UNL     1       6.359  77.414  39.508  1.00  0.00     0.006 C 
BRANCH   9  10
ATOM     10  C   UNL     1       5.120  78.220  39.910  1.00  0.00     0.053 C 
BRANCH  10  11
ATOM     11  C   UNL     1       5.476  79.249  40.938  1.00  0.00     0.041 C 
ATOM     12  O   UNL     1       6.555  79.891  40.844  1.00  0.00    -0.550 OA
ATOM     13  O   UNL     1       4.639  79.464  42.025  1.00  0.00    -0.550 OA
ENDBRANCH  10  11
ENDBRANCH   9  10
ENDBRANCH   8   9
ENDBRANCH   1   8
TORSDOF 8
ENDMDL
MODEL 6
REMARK VINA RESULT:    -3.765      6.968      8.999
REMARK INTER + INTRA:          -5.962
REMARK INTER:                  -5.414
REMARK INTRA:                  -0.548
REMARK UNBOUND:                -0.436
REMARK SMILES O=C([O-])CCCCCCCC(=O)[O-]
REMARK SMILES IDX 7 1 6 2 5 3 4 4 2 5 1 6 3 7 8 8 9 9 10 10 11 11 12 12 13 13
REMARK H PARENT
REMARK Flexibility Score: inf
ROOT
ATOM      1  C   UNL     1       6.803  79.597  38.512  1.00  0.00     0.000 C 
ENDROOT
BRANCH   1   2
ATOM      2  C   UNL     1       5.388  79.391  39.066  1.00  0.00     0.000 C 
BRANCH   2   3
ATOM      3  C   UNL     1       5.245  78.007  39.709  1.00  0.00     0.006 C 
BRANCH   3   4
ATOM      4  C   UNL     1       5.593  76.898  38.711  1.00  0.00     0.053 C 
BRANCH   4   5
ATOM      5  C   UNL     1       4.888  75.630  39.070  1.00  0.00     0.041 C 
ATOM      6  O   UNL     1       5.530  74.665  39.563  1.00  0.00    -0.550 OA
ATOM      7  O   UNL     1       3.512  75.528  38.909  1.00  0.00    -0.550 OA
ENDBRANCH   4   5
ENDBRANCH   3   4
ENDBRANCH   2   3
ENDBRANCH   1   2
BRANCH   1   8
ATOM      8  C   UNL     1       6.763  79.984  37.029  1.00  0.00     0.000 C 
BRANCH   8   9
ATOM      9  C   UNL     1       7.713  79.107  36.204  1.00  0.00     0.006 C 
BRANCH   9  10
ATOM     10  C   UNL     1       8.920  78.670  37.039  1.00  0.00     0.053 C 
BRANCH  10  11
ATOM     11  C   UNL     1       9.382  77.309  36.619  1.00  0.00     0.041 C 
ATOM     12  O   UNL     1      10.477  77.171  36.015  1.00  0.00    -0.550 OA
ATOM     13  O   UNL     1       8.579  76.200  36.853  1.00  0.00    -0.550 OA
ENDBRANCH  10  11
ENDBRANCH   9  10
ENDBRANCH   8   9
ENDBRANCH   1   8
TORSDOF 8
ENDMDL
MODEL 7
REMARK VINA RESULT:    -3.755      7.511      8.976
REMARK INTER + INTRA:          -5.947
REMARK INTER:                  -5.531
REMARK INTRA:                  -0.416
REMARK UNBOUND:                -0.436
REMARK SMILES O=C([O-])CCCCCCCC(=O)[O-]
REMARK SMILES IDX 7 1 6 2 5 3 4 4 2 5 1 6 3 7 8 8 9 9 10 10 11 11 12 12 13 13
REMARK H PARENT
REMARK Flexibility Score: inf
ROOT
ATOM      1  C   UNL     1       4.605  75.968  38.966  1.00  0.00     0.000 C 
ENDROOT
BRANCH   1   2
ATOM      2  C   UNL     1       6.116  76.123  39.175  1.00  0.00     0.000 C 
BRANCH   2   3
ATOM      3  C   UNL     1       6.461  77.530  39.678  1.00  0.00     0.006 C 
BRANCH   3   4
ATOM      4  C   UNL     1       5.194  78.359  39.903  1.00  0.00     0.053 C 
BRANCH   4   5
ATOM      5  C   UNL     1       5.395  79.329  41.023  1.00  0.00     0.041 C 
ATOM      6  O   UNL     1       6.492  79.937  41.146  1.00  0.00    -0.550 OA
ATOM      7  O   UNL     1       4.357  79.602  41.904  1.00  0.00    -0.550 OA
ENDBRANCH   4   5
ENDBRANCH   3   4
ENDBRANCH   2   3
ENDBRANCH   1   2
BRANCH   1   8
ATOM      8  C   UNL     1       4.150  74.538  39.279  1.00  0.00     0.000 C 
BRANCH   8   9
ATOM      9  C   UNL     1       5.216  73.784  40.083  1.00  0.00     0.006 C 
BRANCH   9  10
ATOM     10  C   UNL     1       5.205  72.291  39.743  1.00  0.00     0.053 C 
BRANCH  10  11
ATOM     11  C   UNL     1       6.479  71.900  39.060  1.00  0.00     0.041 C 
ATOM     12  O   UNL     1       6.447  71.218  38.003  1.00  0.00    -0.550 OA
ATOM     13  O   UNL     1       7.702  72.251  39.618  1.00  0.00    -0.550 OA
ENDBRANCH  10  11
ENDBRANCH   9  10
ENDBRANCH   8   9
ENDBRANCH   1   8
TORSDOF 8
ENDMDL
MODEL 8
REMARK VINA RESULT:    -3.727      5.240      7.635
REMARK INTER + INTRA:          -5.906
REMARK INTER:                  -5.321
REMARK INTRA:                  -0.585
REMARK UNBOUND:                -0.436
REMARK SMILES O=C([O-])CCCCCCCC(=O)[O-]
REMARK SMILES IDX 7 1 6 2 5 3 4 4 2 5 1 6 3 7 8 8 9 9 10 10 11 11 12 12 13 13
REMARK H PARENT
REMARK Flexibility Score: inf
ROOT
ATOM      1  C   UNL     1       8.587  78.408  36.389  1.00  0.00     0.000 C 
ENDROOT
BRANCH   1   2
ATOM      2  C   UNL     1       7.443  79.398  36.640  1.00  0.00     0.000 C 
BRANCH   2   3
ATOM      3  C   UNL     1       6.151  78.664  37.017  1.00  0.00     0.006 C 
BRANCH   3   4
ATOM      4  C   UNL     1       5.796  78.898  38.488  1.00  0.00     0.053 C 
BRANCH   4   5
ATOM      5  C   UNL     1       5.895  77.621  39.260  1.00  0.00     0.041 C 
ATOM      6  O   UNL     1       4.871  76.910  39.443  1.00  0.00    -0.550 OA
ATOM      7  O   UNL     1       7.125  77.188  39.735  1.00  0.00    -0.550 OA
ENDBRANCH   4   5
ENDBRANCH   3   4
ENDBRANCH   2   3
ENDBRANCH   1   2
BRANCH   1   8
ATOM      8  C   UNL     1       9.654  78.509  37.485  1.00  0.00     0.000 C 
BRANCH   8   9
ATOM      9  C   UNL     1       9.464  79.780  38.322  1.00  0.00     0.006 C 
BRANCH   9  10
ATOM     10  C   UNL     1      10.796  80.508  38.525  1.00  0.00     0.053 C 
BRANCH  10  11
ATOM     11  C   UNL     1      10.964  80.902  39.959  1.00  0.00     0.041 C 
ATOM     12  O   UNL     1      10.096  81.616  40.526  1.00  0.00    -0.550 OA
ATOM     13  O   UNL     1      12.103  80.519  40.657  1.00  0.00    -0.550 OA
ENDBRANCH  10  11
ENDBRANCH   9  10
ENDBRANCH   8   9
ENDBRANCH   1   8
TORSDOF 8
ENDMDL
MODEL 9
REMARK VINA RESULT:    -3.708      9.749     10.430
REMARK INTER + INTRA:          -5.877
REMARK INTER:                  -5.321
REMARK INTRA:                  -0.557
REMARK UNBOUND:                -0.436
REMARK SMILES O=C([O-])CCCCCCCC(=O)[O-]
REMARK SMILES IDX 7 1 6 2 5 3 4 4 2 5 1 6 3 7 8 8 9 9 10 10 11 11 12 12 13 13
REMARK H PARENT
REMARK Flexibility Score: inf
ROOT
ATOM      1  C   UNL     1       8.385  73.616  36.642  1.00  0.00     0.000 C 
ENDROOT
BRANCH   1   2
ATOM      2  C   UNL     1       9.070  72.277  36.343  1.00  0.00     0.000 C 
BRANCH   2   3
ATOM      3  C   UNL     1      10.031  71.886  37.471  1.00  0.00     0.006 C 
BRANCH   3   4
ATOM      4  C   UNL     1      11.427  71.578  36.921  1.00  0.00     0.053 C 
BRANCH   4   5
ATOM      5  C   UNL     1      12.480  72.166  37.805  1.00  0.00     0.041 C 
ATOM      6  O   UNL     1      13.454  72.787  37.303  1.00  0.00    -0.550 OA
ATOM      7  O   UNL     1      12.362  72.074  39.186  1.00  0.00    -0.550 OA
ENDBRANCH   4   5
ENDBRANCH   3   4
ENDBRANCH   2   3
ENDBRANCH   1   2
BRANCH   1   8
ATOM      8  C   UNL     1       6.862  73.452  36.713  1.00  0.00     0.000 C 
BRANCH   8   9
ATOM      9  C   UNL     1       6.318  73.939  38.061  1.00  0.00     0.006 C 
BRANCH   9  10
ATOM     10  C   UNL     1       6.906  73.124  39.217  1.00  0.00     0.053 C 
BRANCH  10  11
ATOM     11  C   UNL     1       6.289  71.761  39.264  1.00  0.00     0.041 C 
ATOM     12  O   UNL     1       5.117  71.612  39.699  1.00  0.00    -0.550 OA
ATOM     13  O   UNL     1       7.025  70.651  38.872  1.00  0.00    -0.550 OA
ENDBRANCH  10  11
ENDBRANCH   9  10
ENDBRANCH   8   9
ENDBRANCH   1   8
TORSDOF 8
ENDMDL
