MODEL 1
REMARK VINA RESULT:    -5.594      0.000      0.000
REMARK INTER + INTRA:         -11.660
REMARK INTER:                  -9.845
REMARK INTRA:                  -1.816
REMARK UNBOUND:                -1.816
REMARK SMILES CCCCCCCCCCCCCCC(=O)[O-]
REMARK SMILES IDX 9 1 10 2 11 3 12 4 13 5 14 6 15 7 16 8 17 9 8 10 7 11 6 12
REMARK SMILES IDX 5 13 4 14 3 15 2 16 1 17
REMARK H PARENT
REMARK Flexibility Score: inf
ROOT
ATOM      1  C   UNL     1       5.894  14.472   0.479  1.00  0.00     0.000 C 
ENDROOT
BRANCH   1   2
ATOM      2  C   UNL     1       5.366  13.123   0.981  1.00  0.00     0.000 C 
BRANCH   2   3
ATOM      3  C   UNL     1       4.041  13.297   1.739  1.00  0.00     0.000 C 
BRANCH   3   4
ATOM      4  C   UNL     1       3.099  14.317   1.073  1.00  0.00     0.000 C 
BRANCH   4   5
ATOM      5  C   UNL     1       1.599  13.997   1.204  1.00  0.00     0.006 C 
BRANCH   5   6
ATOM      6  C   UNL     1       1.038  14.317   2.595  1.00  0.00     0.053 C 
BRANCH   6   7
ATOM      7  C   UNL     1      -0.422  13.997   2.655  1.00  0.00     0.041 C 
ATOM      8  O   UNL     1      -1.090  14.275   3.687  1.00  0.00    -0.550 OA
ATOM      9  O   UNL     1      -1.036  13.346   1.593  1.00  0.00    -0.550 OA
ENDBRANCH   6   7
ENDBRANCH   5   6
ENDBRANCH   4   5
ENDBRANCH   3   4
ENDBRANCH   2   3
ENDBRANCH   1   2
BRANCH   1  10
ATOM     10  C   UNL     1       7.380  14.646   0.827  1.00  0.00     0.000 C 
BRANCH  10  11
ATOM     11  C   UNL     1       7.789  13.877   2.093  1.00  0.00    -0.000 C 
BRANCH  11  12
ATOM     12  C   UNL     1       8.438  14.785   3.153  1.00  0.00    -0.000 C 
BRANCH  12  13
ATOM     13  C   UNL     1       7.519  15.940   3.581  1.00  0.00    -0.000 C 
BRANCH  13  14
ATOM     14  C   UNL     1       6.115  15.457   3.987  1.00  0.00    -0.000 C 
BRANCH  14  15
ATOM     15  C   UNL     1       5.002  16.430   3.559  1.00  0.00    -0.000 C 
BRANCH  15  16
ATOM     16  C   UNL     1       3.660  16.243   4.290  1.00  0.00    -0.003 C 
ATOM     17  C   UNL     1       3.662  15.057   5.253  1.00  0.00     0.004 C 
ENDBRANCH  15  16
ENDBRANCH  14  15
ENDBRANCH  13  14
ENDBRANCH  12  13
ENDBRANCH  11  12
ENDBRANCH  10  11
ENDBRANCH   1  10
TORSDOF 13
ENDMDL
MODEL 2
REMARK VINA RESULT:    -5.558      1.613      2.625
REMARK INTER + INTRA:         -11.598
REMARK INTER:                 -10.251
REMARK INTRA:                  -1.347
REMARK UNBOUND:                -1.816
REMARK SMILES CCCCCCCCCCCCCCC(=O)[O-]
REMARK SMILES IDX 9 1 10 2 11 3 12 4 13 5 14 6 15 7 16 8 17 9 8 10 7 11 6 12
REMARK SMILES IDX 5 13 4 14 3 15 2 16 1 17
REMARK H PARENT
REMARK Flexibility Score: inf
ROOT
ATOM      1  C   UNL     1       3.893  14.329   0.827  1.00  0.00     0.000 C 
ENDROOT
BRANCH   1   2
ATOM      2  C   UNL     1       2.426  13.880   0.832  1.00  0.00     0.000 C 
BRANCH   2   3
ATOM      3  C   UNL     1       1.717  14.331   2.118  1.00  0.00     0.000 C 
BRANCH   3   4
ATOM      4  C   UNL     1       0.284  13.783   2.236  1.00  0.00     0.000 C 
BRANCH   4   5
ATOM      5  C   UNL     1      -0.627  14.550   3.213  1.00  0.00     0.006 C 
BRANCH   5   6
ATOM      6  C   UNL     1      -1.006  13.725   4.450  1.00  0.00     0.053 C 
BRANCH   6   7
ATOM      7  C   UNL     1      -0.673  14.476   5.700  1.00  0.00     0.041 C 
ATOM      8  O   UNL     1       0.501  14.459   6.155  1.00  0.00    -0.550 OA
ATOM      9  O   UNL     1      -1.668  15.155   6.390  1.00  0.00    -0.550 OA
ENDBRANCH   6   7
ENDBRANCH   5   6
ENDBRANCH   4   5
ENDBRANCH   3   4
ENDBRANCH   2   3
ENDBRANCH   1   2
BRANCH   1  10
ATOM     10  C   UNL     1       4.820  13.188   1.271  1.00  0.00     0.000 C 
BRANCH  10  11
ATOM     11  C   UNL     1       6.282  13.412   0.855  1.00  0.00    -0.000 C 
BRANCH  11  12
ATOM     12  C   UNL     1       6.852  14.738   1.389  1.00  0.00    -0.000 C 
BRANCH  12  13
ATOM     13  C   UNL     1       7.443  14.598   2.801  1.00  0.00    -0.000 C 
BRANCH  13  14
ATOM     14  C   UNL     1       7.101  15.796   3.705  1.00  0.00    -0.000 C 
BRANCH  14  15
ATOM     15  C   UNL     1       5.607  16.164   3.671  1.00  0.00    -0.000 C 
BRANCH  15  16
ATOM     16  C   UNL     1       4.674  15.156   4.365  1.00  0.00    -0.003 C 
ATOM     17  C   UNL     1       3.483  15.820   5.057  1.00  0.00     0.004 C 
ENDBRANCH  15  16
ENDBRANCH  14  15
ENDBRANCH  13  14
ENDBRANCH  12  13
ENDBRANCH  11  12
ENDBRANCH  10  11
ENDBRANCH   1  10
TORSDOF 13
ENDMDL
MODEL 3
REMARK VINA RESULT:    -5.557      1.092      2.012
REMARK INTER + INTRA:         -11.596
REMARK INTER:                 -10.199
REMARK INTRA:                  -1.397
REMARK UNBOUND:                -1.816
REMARK SMILES CCCCCCCCCCCCCCC(=O)[O-]
REMARK SMILES IDX 9 1 10 2 11 3 12 4 13 5 14 6 15 7 16 8 17 9 8 10 7 11 6 12
REMARK SMILES IDX 5 13 4 14 3 15 2 16 1 17
REMARK H PARENT
REMARK Flexibility Score: inf
ROOT
ATOM      1  C   UNL     1       4.201  15.064   0.651  1.00  0.00     0.000 C 
ENDROOT
BRANCH   1   2
ATOM      2  C   UNL     1       3.455  13.737   0.840  1.00  0.00     0.000 C 
BRANCH   2   3
ATOM      3  C   UNL     1       2.025  13.977   1.349  1.00  0.00     0.000 C 
BRANCH   3   4
ATOM      4  C   UNL     1       1.986  14.616   2.749  1.00  0.00     0.000 C 
BRANCH   4   5
ATOM      5  C   UNL     1       0.574  14.864   3.311  1.00  0.00     0.006 C 
BRANCH   5   6
ATOM      6  C   UNL     1      -0.520  14.129   2.525  1.00  0.00     0.053 C 
BRANCH   6   7
ATOM      7  C   UNL     1      -1.828  14.218   3.245  1.00  0.00     0.041 C 
ATOM      8  O   UNL     1      -1.855  14.356   4.497  1.00  0.00    -0.550 OA
ATOM      9  O   UNL     1      -3.019  14.099   2.541  1.00  0.00    -0.550 OA
ENDBRANCH   6   7
ENDBRANCH   5   6
ENDBRANCH   4   5
ENDBRANCH   3   4
ENDBRANCH   2   3
ENDBRANCH   1   2
BRANCH   1  10
ATOM     10  C   UNL     1       5.641  14.822   0.172  1.00  0.00     0.000 C 
BRANCH  10  11
ATOM     11  C   UNL     1       6.270  13.562   0.789  1.00  0.00    -0.000 C 
BRANCH  11  12
ATOM     12  C   UNL     1       7.804  13.646   0.868  1.00  0.00    -0.000 C 
BRANCH  12  13
ATOM     13  C   UNL     1       8.286  14.823   1.732  1.00  0.00    -0.000 C 
BRANCH  13  14
ATOM     14  C   UNL     1       7.894  14.667   3.212  1.00  0.00    -0.000 C 
BRANCH  14  15
ATOM     15  C   UNL     1       6.878  15.727   3.676  1.00  0.00    -0.000 C 
BRANCH  15  16
ATOM     16  C   UNL     1       5.474  15.185   3.996  1.00  0.00    -0.003 C 
ATOM     17  C   UNL     1       4.642  16.142   4.848  1.00  0.00     0.004 C 
ENDBRANCH  15  16
ENDBRANCH  14  15
ENDBRANCH  13  14
ENDBRANCH  12  13
ENDBRANCH  11  12
ENDBRANCH  10  11
ENDBRANCH   1  10
TORSDOF 13
ENDMDL
MODEL 4
REMARK VINA RESULT:    -5.488      2.664      5.535
REMARK INTER + INTRA:         -11.474
REMARK INTER:                 -10.285
REMARK INTRA:                  -1.189
REMARK UNBOUND:                -1.816
REMARK SMILES CCCCCCCCCCCCCCC(=O)[O-]
REMARK SMILES IDX 9 1 10 2 11 3 12 4 13 5 14 6 15 7 16 8 17 9 8 10 7 11 6 12
REMARK SMILES IDX 5 13 4 14 3 15 2 16 1 17
REMARK H PARENT
REMARK Flexibility Score: inf
ROOT
ATOM      1  C   UNL     1       5.357  14.030   0.262  1.00  0.00     0.000 C 
ENDROOT
BRANCH   1   2
ATOM      2  C   UNL     1       6.444  13.483   1.197  1.00  0.00     0.000 C 
BRANCH   2   3
ATOM      3  C   UNL     1       7.835  13.974   0.770  1.00  0.00     0.000 C 
BRANCH   3   4
ATOM      4  C   UNL     1       8.579  14.718   1.893  1.00  0.00     0.000 C 
BRANCH   4   5
ATOM      5  C   UNL     1       7.909  14.643   3.278  1.00  0.00     0.006 C 
BRANCH   5   6
ATOM      6  C   UNL     1       7.459  16.014   3.799  1.00  0.00     0.053 C 
BRANCH   6   7
ATOM      7  C   UNL     1       5.969  16.131   3.739  1.00  0.00     0.041 C 
ATOM      8  O   UNL     1       5.263  15.748   4.709  1.00  0.00    -0.550 OA
ATOM      9  O   UNL     1       5.355  16.617   2.591  1.00  0.00    -0.550 OA
ENDBRANCH   6   7
ENDBRANCH   5   6
ENDBRANCH   4   5
ENDBRANCH   3   4
ENDBRANCH   2   3
ENDBRANCH   1   2
BRANCH   1  10
ATOM     10  C   UNL     1       3.968  13.524   0.678  1.00  0.00     0.000 C 
BRANCH  10  11
ATOM     11  C   UNL     1       3.708  13.669   2.186  1.00  0.00    -0.000 C 
BRANCH  11  12
ATOM     12  C   UNL     1       2.329  14.281   2.492  1.00  0.00    -0.000 C 
BRANCH  12  13
ATOM     13  C   UNL     1       1.280  13.930   1.425  1.00  0.00    -0.000 C 
BRANCH  13  14
ATOM     14  C   UNL     1      -0.087  13.576   2.037  1.00  0.00    -0.000 C 
BRANCH  14  15
ATOM     15  C   UNL     1      -0.561  14.605   3.079  1.00  0.00    -0.000 C 
BRANCH  15  16
ATOM     16  C   UNL     1      -1.115  14.002   4.382  1.00  0.00    -0.003 C 
ATOM     17  C   UNL     1      -0.263  14.336   5.606  1.00  0.00     0.004 C 
ENDBRANCH  15  16
ENDBRANCH  14  15
ENDBRANCH  13  14
ENDBRANCH  12  13
ENDBRANCH  11  12
ENDBRANCH  10  11
ENDBRANCH   1  10
TORSDOF 13
ENDMDL
MODEL 5
REMARK VINA RESULT:    -5.482      4.528      6.744
REMARK INTER + INTRA:         -11.465
REMARK INTER:                  -9.523
REMARK INTRA:                  -1.941
REMARK UNBOUND:                -1.816
REMARK SMILES CCCCCCCCCCCCCCC(=O)[O-]
REMARK SMILES IDX 9 1 10 2 11 3 12 4 13 5 14 6 15 7 16 8 17 9 8 10 7 11 6 12
REMARK SMILES IDX 5 13 4 14 3 15 2 16 1 17
REMARK H PARENT
REMARK Flexibility Score: inf
ROOT
ATOM      1  C   UNL     1       5.129  13.006   1.001  1.00  0.00     0.000 C 
ENDROOT
BRANCH   1   2
ATOM      2  C   UNL     1       5.370  14.396   0.398  1.00  0.00     0.000 C 
BRANCH   2   3
ATOM      3  C   UNL     1       6.871  14.716   0.332  1.00  0.00     0.000 C 
BRANCH   3   4
ATOM      4  C   UNL     1       7.757  13.469   0.502  1.00  0.00     0.000 C 
BRANCH   4   5
ATOM      5  C   UNL     1       9.215  13.757   0.906  1.00  0.00     0.006 C 
BRANCH   5   6
ATOM      6  C   UNL     1       9.746  15.075   0.328  1.00  0.00     0.053 C 
BRANCH   6   7
ATOM      7  C   UNL     1      10.704  14.806  -0.790  1.00  0.00     0.041 C 
ATOM      8  O   UNL     1      11.629  15.622  -1.042  1.00  0.00    -0.550 OA
ATOM      9  O   UNL     1      10.545  13.678  -1.585  1.00  0.00    -0.550 OA
ENDBRANCH   6   7
ENDBRANCH   5   6
ENDBRANCH   4   5
ENDBRANCH   3   4
ENDBRANCH   2   3
ENDBRANCH   1   2
BRANCH   1  10
ATOM     10  C   UNL     1       4.062  13.061   2.103  1.00  0.00     0.000 C 
BRANCH  10  11
ATOM     11  C   UNL     1       2.932  14.054   1.789  1.00  0.00    -0.000 C 
BRANCH  11  12
ATOM     12  C   UNL     1       2.512  14.881   3.017  1.00  0.00    -0.000 C 
BRANCH  12  13
ATOM     13  C   UNL     1       3.577  14.870   4.125  1.00  0.00    -0.000 C 
BRANCH  13  14
ATOM     14  C   UNL     1       4.229  16.248   4.332  1.00  0.00    -0.000 C 
BRANCH  14  15
ATOM     15  C   UNL     1       5.541  16.414   3.544  1.00  0.00    -0.000 C 
BRANCH  15  16
ATOM     16  C   UNL     1       6.576  15.296   3.763  1.00  0.00    -0.003 C 
ATOM     17  C   UNL     1       8.019  15.797   3.710  1.00  0.00     0.004 C 
ENDBRANCH  15  16
ENDBRANCH  14  15
ENDBRANCH  13  14
ENDBRANCH  12  13
ENDBRANCH  11  12
ENDBRANCH  10  11
ENDBRANCH   1  10
TORSDOF 13
ENDMDL
MODEL 6
REMARK VINA RESULT:    -5.481      4.829      7.168
REMARK INTER + INTRA:         -11.462
REMARK INTER:                  -9.956
REMARK INTRA:                  -1.506
REMARK UNBOUND:                -1.816
REMARK SMILES CCCCCCCCCCCCCCC(=O)[O-]
REMARK SMILES IDX 9 1 10 2 11 3 12 4 13 5 14 6 15 7 16 8 17 9 8 10 7 11 6 12
REMARK SMILES IDX 5 13 4 14 3 15 2 16 1 17
REMARK H PARENT
REMARK Flexibility Score: inf
ROOT
ATOM      1  C   UNL     1       6.783  14.966   0.503  1.00  0.00     0.000 C 
ENDROOT
BRANCH   1   2
ATOM      2  C   UNL     1       7.727  13.815   0.874  1.00  0.00     0.000 C 
BRANCH   2   3
ATOM      3  C   UNL     1       8.772  14.270   1.904  1.00  0.00     0.000 C 
BRANCH   3   4
ATOM      4  C   UNL     1      10.213  13.919   1.492  1.00  0.00     0.000 C 
BRANCH   4   5
ATOM      5  C   UNL     1      11.049  15.104   0.976  1.00  0.00     0.006 C 
BRANCH   5   6
ATOM      6  C   UNL     1      10.944  15.293  -0.543  1.00  0.00     0.053 C 
BRANCH   6   7
ATOM      7  C   UNL     1      11.257  14.013  -1.250  1.00  0.00     0.041 C 
ATOM      8  O   UNL     1      10.341  13.364  -1.822  1.00  0.00    -0.550 OA
ATOM      9  O   UNL     1      12.551  13.509  -1.236  1.00  0.00    -0.550 OA
ENDBRANCH   6   7
ENDBRANCH   5   6
ENDBRANCH   4   5
ENDBRANCH   3   4
ENDBRANCH   2   3
ENDBRANCH   1   2
BRANCH   1  10
ATOM     10  C   UNL     1       5.344  14.462   0.324  1.00  0.00     0.000 C 
BRANCH  10  11
ATOM     11  C   UNL     1       5.115  13.078   0.952  1.00  0.00    -0.000 C 
BRANCH  11  12
ATOM     12  C   UNL     1       4.194  13.133   2.184  1.00  0.00    -0.000 C 
BRANCH  12  13
ATOM     13  C   UNL     1       3.065  14.164   2.029  1.00  0.00    -0.000 C 
BRANCH  13  14
ATOM     14  C   UNL     1       2.932  15.084   3.255  1.00  0.00    -0.000 C 
BRANCH  14  15
ATOM     15  C   UNL     1       3.960  14.764   4.356  1.00  0.00    -0.000 C 
BRANCH  15  16
ATOM     16  C   UNL     1       4.866  15.940   4.760  1.00  0.00    -0.003 C 
ATOM     17  C   UNL     1       6.153  16.014   3.939  1.00  0.00     0.004 C 
ENDBRANCH  15  16
ENDBRANCH  14  15
ENDBRANCH  13  14
ENDBRANCH  12  13
ENDBRANCH  11  12
ENDBRANCH  10  11
ENDBRANCH   1  10
TORSDOF 13
ENDMDL
MODEL 7
REMARK VINA RESULT:    -5.423      2.010      4.650
REMARK INTER + INTRA:         -11.359
REMARK INTER:                  -9.954
REMARK INTRA:                  -1.406
REMARK UNBOUND:                -1.816
REMARK SMILES CCCCCCCCCCCCCCC(=O)[O-]
REMARK SMILES IDX 9 1 10 2 11 3 12 4 13 5 14 6 15 7 16 8 17 9 8 10 7 11 6 12
REMARK SMILES IDX 5 13 4 14 3 15 2 16 1 17
REMARK H PARENT
REMARK Flexibility Score: inf
ROOT
ATOM      1  C   UNL     1       8.370  13.840   0.839  1.00  0.00     0.000 C 
ENDROOT
BRANCH   1   2
ATOM      2  C   UNL     1       8.662  14.980   1.823  1.00  0.00     0.000 C 
BRANCH   2   3
ATOM      3  C   UNL     1       8.088  14.669   3.213  1.00  0.00     0.000 C 
BRANCH   3   4
ATOM      4  C   UNL     1       7.402  15.882   3.865  1.00  0.00     0.000 C 
BRANCH   4   5
ATOM      5  C   UNL     1       5.899  16.022   3.559  1.00  0.00     0.006 C 
BRANCH   5   6
ATOM      6  C   UNL     1       5.041  14.980   4.289  1.00  0.00     0.053 C 
BRANCH   6   7
ATOM      7  C   UNL     1       3.925  15.649   5.028  1.00  0.00     0.041 C 
ATOM      8  O   UNL     1       2.737  15.265   4.865  1.00  0.00    -0.550 OA
ATOM      9  O   UNL     1       4.192  16.729   5.860  1.00  0.00    -0.550 OA
ENDBRANCH   6   7
ENDBRANCH   5   6
ENDBRANCH   4   5
ENDBRANCH   3   4
ENDBRANCH   2   3
ENDBRANCH   1   2
BRANCH   1  10
ATOM     10  C   UNL     1       6.859  13.679   0.616  1.00  0.00     0.000 C 
BRANCH  10  11
ATOM     11  C   UNL     1       6.168  15.000   0.244  1.00  0.00    -0.000 C 
BRANCH  11  12
ATOM     12  C   UNL     1       4.633  14.894   0.275  1.00  0.00    -0.000 C 
BRANCH  12  13
ATOM     13  C   UNL     1       4.148  13.509   0.734  1.00  0.00    -0.000 C 
BRANCH  13  14
ATOM     14  C   UNL     1       3.045  13.595   1.803  1.00  0.00    -0.000 C 
BRANCH  14  15
ATOM     15  C   UNL     1       1.659  13.901   1.209  1.00  0.00    -0.000 C 
BRANCH  15  16
ATOM     16  C   UNL     1       0.567  14.231   2.242  1.00  0.00    -0.003 C 
ATOM     17  C   UNL     1      -0.753  13.512   1.970  1.00  0.00     0.004 C 
ENDBRANCH  15  16
ENDBRANCH  14  15
ENDBRANCH  13  14
ENDBRANCH  12  13
ENDBRANCH  11  12
ENDBRANCH  10  11
ENDBRANCH   1  10
TORSDOF 13
ENDMDL
MODEL 8
REMARK VINA RESULT:    -5.381      4.782      7.331
REMARK INTER + INTRA:         -11.286
REMARK INTER:                  -9.779
REMARK INTRA:                  -1.506
REMARK UNBOUND:                -1.816
REMARK SMILES CCCCCCCCCCCCCCC(=O)[O-]
REMARK SMILES IDX 9 1 10 2 11 3 12 4 13 5 14 6 15 7 16 8 17 9 8 10 7 11 6 12
REMARK SMILES IDX 5 13 4 14 3 15 2 16 1 17
REMARK H PARENT
REMARK Flexibility Score: inf
ROOT
ATOM      1  C   UNL     1       7.702  15.869   3.821  1.00  0.00     0.000 C 
ENDROOT
BRANCH   1   2
ATOM      2  C   UNL     1       8.416  14.623   3.282  1.00  0.00     0.000 C 
BRANCH   2   3
ATOM      3  C   UNL     1       7.887  14.244   1.890  1.00  0.00     0.000 C 
BRANCH   3   4
ATOM      4  C   UNL     1       8.968  14.318   0.797  1.00  0.00     0.000 C 
BRANCH   4   5
ATOM      5  C   UNL     1      10.177  15.209   1.138  1.00  0.00     0.006 C 
BRANCH   5   6
ATOM      6  C   UNL     1      10.967  15.646  -0.103  1.00  0.00     0.053 C 
BRANCH   6   7
ATOM      7  C   UNL     1      11.360  14.454  -0.917  1.00  0.00     0.041 C 
ATOM      8  O   UNL     1      12.180  13.616  -0.458  1.00  0.00    -0.550 OA
ATOM      9  O   UNL     1      10.860  14.294  -2.202  1.00  0.00    -0.550 OA
ENDBRANCH   6   7
ENDBRANCH   5   6
ENDBRANCH   4   5
ENDBRANCH   3   4
ENDBRANCH   2   3
ENDBRANCH   1   2
BRANCH   1  10
ATOM     10  C   UNL     1       6.270  15.964   3.274  1.00  0.00     0.000 C 
BRANCH  10  11
ATOM     11  C   UNL     1       5.204  15.880   4.378  1.00  0.00    -0.000 C 
BRANCH  11  12
ATOM     12  C   UNL     1       4.247  14.690   4.187  1.00  0.00    -0.000 C 
BRANCH  12  13
ATOM     13  C   UNL     1       2.994  15.067   3.381  1.00  0.00    -0.000 C 
BRANCH  13  14
ATOM     14  C   UNL     1       2.838  14.223   2.104  1.00  0.00    -0.000 C 
BRANCH  14  15
ATOM     15  C   UNL     1       3.993  13.226   1.901  1.00  0.00    -0.000 C 
BRANCH  15  16
ATOM     16  C   UNL     1       4.791  13.413   0.599  1.00  0.00    -0.003 C 
ATOM     17  C   UNL     1       4.842  14.867   0.130  1.00  0.00     0.004 C 
ENDBRANCH  15  16
ENDBRANCH  14  15
ENDBRANCH  13  14
ENDBRANCH  12  13
ENDBRANCH  11  12
ENDBRANCH  10  11
ENDBRANCH   1  10
TORSDOF 13
ENDMDL
MODEL 9
REMARK VINA RESULT:    -5.288      4.881      7.140
REMARK INTER + INTRA:         -11.123
REMARK INTER:                  -9.751
REMARK INTRA:                  -1.372
REMARK UNBOUND:                -1.816
REMARK SMILES CCCCCCCCCCCCCCC(=O)[O-]
REMARK SMILES IDX 9 1 10 2 11 3 12 4 13 5 14 6 15 7 16 8 17 9 8 10 7 11 6 12
REMARK SMILES IDX 5 13 4 14 3 15 2 16 1 17
REMARK H PARENT
REMARK Flexibility Score: inf
ROOT
ATOM      1  C   UNL     1       6.764  15.025   0.725  1.00  0.00     0.000 C 
ENDROOT
BRANCH   1   2
ATOM      2  C   UNL     1       7.528  13.848   1.347  1.00  0.00     0.000 C 
BRANCH   2   3
ATOM      3  C   UNL     1       8.716  13.435   0.466  1.00  0.00     0.000 C 
BRANCH   3   4
ATOM      4  C   UNL     1       9.546  14.636  -0.024  1.00  0.00     0.000 C 
BRANCH   4   5
ATOM      5  C   UNL     1      11.071  14.424  -0.002  1.00  0.00     0.006 C 
BRANCH   5   6
ATOM      6  C   UNL     1      11.782  15.303   1.035  1.00  0.00     0.053 C 
BRANCH   6   7
ATOM      7  C   UNL     1      11.454  16.745   0.809  1.00  0.00     0.041 C 
ATOM      8  O   UNL     1      11.068  17.465   1.768  1.00  0.00    -0.550 OA
ATOM      9  O   UNL     1      11.526  17.283  -0.469  1.00  0.00    -0.550 OA
ENDBRANCH   6   7
ENDBRANCH   5   6
ENDBRANCH   4   5
ENDBRANCH   3   4
ENDBRANCH   2   3
ENDBRANCH   1   2
BRANCH   1  10
ATOM     10  C   UNL     1       5.345  14.605   0.316  1.00  0.00     0.000 C 
BRANCH  10  11
ATOM     11  C   UNL     1       4.999  13.172   0.750  1.00  0.00    -0.000 C 
BRANCH  11  12
ATOM     12  C   UNL     1       4.022  13.133   1.939  1.00  0.00    -0.000 C 
BRANCH  12  13
ATOM     13  C   UNL     1       2.885  14.158   1.799  1.00  0.00    -0.000 C 
BRANCH  13  14
ATOM     14  C   UNL     1       2.702  15.013   3.065  1.00  0.00    -0.000 C 
BRANCH  14  15
ATOM     15  C   UNL     1       3.931  14.982   3.990  1.00  0.00    -0.000 C 
BRANCH  15  16
ATOM     16  C   UNL     1       4.712  16.305   4.079  1.00  0.00    -0.003 C 
ATOM     17  C   UNL     1       6.228  16.109   4.064  1.00  0.00     0.004 C 
ENDBRANCH  15  16
ENDBRANCH  14  15
ENDBRANCH  13  14
ENDBRANCH  12  13
ENDBRANCH  11  12
ENDBRANCH  10  11
ENDBRANCH   1  10
TORSDOF 13
ENDMDL
