MODEL 1
REMARK VINA RESULT:    -5.729      0.000      0.000
REMARK INTER + INTRA:          -9.902
REMARK INTER:                  -8.744
REMARK INTRA:                  -1.158
REMARK UNBOUND:                -1.158
REMARK SMILES CC(=O)CCC=C(C)CCC=C(C)CCC=C(C)C
REMARK SMILES IDX 10 1 11 2 12 3 13 4 14 5 15 6 16 7 18 8 17 9 19 10 9 11 7 12
REMARK SMILES IDX 6 13 8 14 5 15 4 16 2 17 3 18 1 19
REMARK H PARENT
REMARK Flexibility Score: inf
ROOT
ATOM      1  C   UNL     1     -12.308 -24.625  23.932  1.00  0.00     0.032 C 
ENDROOT
BRANCH   1   2
ATOM      2  C   UNL     1     -11.877 -23.814  22.736  1.00  0.00    -0.028 C 
ATOM      3  C   UNL     1     -11.128 -22.689  22.804  1.00  0.00    -0.077 C 
ATOM      4  C   UNL     1     -10.601 -22.161  24.118  1.00  0.00     0.039 C 
BRANCH   3   5
ATOM      5  C   UNL     1     -10.801 -21.946  21.527  1.00  0.00     0.034 C 
BRANCH   5   6
ATOM      6  C   UNL     1     -11.189 -22.774  20.297  1.00  0.00     0.032 C 
BRANCH   6   7
ATOM      7  C   UNL     1     -11.020 -21.979  19.025  1.00  0.00    -0.028 C 
ATOM      8  C   UNL     1      -9.802 -21.103  17.076  1.00  0.00     0.039 C 
ATOM      9  C   UNL     1      -9.861 -21.930  18.335  1.00  0.00    -0.080 C 
ATOM     10  C   UNL     1      -8.634 -22.679  18.797  1.00  0.00     0.039 C 
ENDBRANCH   6   7
ENDBRANCH   5   6
ENDBRANCH   3   5
ENDBRANCH   1   2
BRANCH   1  11
ATOM     11  C   UNL     1     -13.817 -24.495  24.163  1.00  0.00     0.034 C 
BRANCH  11  12
ATOM     12  C   UNL     1     -14.153 -23.152  24.772  1.00  0.00    -0.077 C 
ATOM     13  C   UNL     1     -14.851 -22.256  24.038  1.00  0.00    -0.028 C 
ATOM     14  C   UNL     1     -13.721 -22.858  26.190  1.00  0.00     0.039 C 
BRANCH  13  15
ATOM     15  C   UNL     1     -15.212 -20.867  24.502  1.00  0.00     0.035 C 
BRANCH  15  16
ATOM     16  C   UNL     1     -16.594 -20.463  23.969  1.00  0.00     0.079 C 
BRANCH  16  17
ATOM     17  C   UNL     1     -16.888 -20.882  22.542  1.00  0.00     0.130 C 
ATOM     18  O   UNL     1     -16.076 -20.578  21.682  1.00  0.00    -0.300 OA
ATOM     19  C   UNL     1     -18.112 -21.647  22.108  1.00  0.00     0.087 C 
ENDBRANCH  16  17
ENDBRANCH  15  16
ENDBRANCH  13  15
ENDBRANCH  11  12
ENDBRANCH   1  11
TORSDOF 9
ENDMDL
MODEL 2
REMARK VINA RESULT:    -5.728      1.698      2.545
REMARK INTER + INTRA:          -9.901
REMARK INTER:                  -7.779
REMARK INTRA:                  -2.121
REMARK UNBOUND:                -1.158
REMARK SMILES CC(=O)CCC=C(C)CCC=C(C)CCC=C(C)C
REMARK SMILES IDX 10 1 11 2 12 3 13 4 14 5 15 6 16 7 18 8 17 9 19 10 9 11 7 12
REMARK SMILES IDX 6 13 8 14 5 15 4 16 2 17 3 18 1 19
REMARK H PARENT
REMARK Flexibility Score: inf
ROOT
ATOM      1  C   UNL     1     -11.660 -21.721  24.948  1.00  0.00     0.032 C 
ENDROOT
BRANCH   1   2
ATOM      2  C   UNL     1     -10.385 -21.972  24.181  1.00  0.00    -0.028 C 
ATOM      3  C   UNL     1     -10.170 -23.046  23.386  1.00  0.00    -0.077 C 
ATOM      4  C   UNL     1     -11.236 -24.090  23.150  1.00  0.00     0.039 C 
BRANCH   3   5
ATOM      5  C   UNL     1      -8.827 -23.197  22.705  1.00  0.00     0.034 C 
BRANCH   5   6
ATOM      6  C   UNL     1      -8.966 -23.066  21.184  1.00  0.00     0.032 C 
BRANCH   6   7
ATOM      7  C   UNL     1      -9.208 -21.632  20.778  1.00  0.00    -0.028 C 
ATOM      8  C   UNL     1     -10.473 -19.766  19.796  1.00  0.00     0.039 C 
ATOM      9  C   UNL     1     -10.335 -21.222  20.157  1.00  0.00    -0.080 C 
ATOM     10  C   UNL     1     -11.447 -22.187  19.821  1.00  0.00     0.039 C 
ENDBRANCH   6   7
ENDBRANCH   5   6
ENDBRANCH   3   5
ENDBRANCH   1   2
BRANCH   1  11
ATOM     11  C   UNL     1     -12.570 -20.750  24.188  1.00  0.00     0.034 C 
BRANCH  11  12
ATOM     12  C   UNL     1     -13.772 -21.471  23.622  1.00  0.00    -0.077 C 
ATOM     13  C   UNL     1     -14.000 -21.420  22.290  1.00  0.00    -0.028 C 
ATOM     14  C   UNL     1     -14.670 -22.250  24.555  1.00  0.00     0.039 C 
BRANCH  13  15
ATOM     15  C   UNL     1     -15.183 -22.053  21.600  1.00  0.00     0.035 C 
BRANCH  15  16
ATOM     16  C   UNL     1     -16.274 -21.006  21.335  1.00  0.00     0.079 C 
BRANCH  16  17
ATOM     17  C   UNL     1     -17.477 -21.073  22.256  1.00  0.00     0.130 C 
ATOM     18  O   UNL     1     -18.385 -21.832  21.950  1.00  0.00    -0.300 OA
ATOM     19  C   UNL     1     -17.633 -20.271  23.522  1.00  0.00     0.087 C 
ENDBRANCH  16  17
ENDBRANCH  15  16
ENDBRANCH  13  15
ENDBRANCH  11  12
ENDBRANCH   1  11
TORSDOF 9
ENDMDL
MODEL 3
REMARK VINA RESULT:    -5.692      2.366      6.223
REMARK INTER + INTRA:          -9.845
REMARK INTER:                  -7.939
REMARK INTRA:                  -1.906
REMARK UNBOUND:                -1.158
REMARK SMILES CC(=O)CCC=C(C)CCC=C(C)CCC=C(C)C
REMARK SMILES IDX 10 1 11 2 12 3 13 4 14 5 15 6 16 7 18 8 17 9 19 10 9 11 7 12
REMARK SMILES IDX 6 13 8 14 5 15 4 16 2 17 3 18 1 19
REMARK H PARENT
REMARK Flexibility Score: inf
ROOT
ATOM      1  C   UNL     1     -14.756 -21.120  22.013  1.00  0.00     0.032 C 
ENDROOT
BRANCH   1   2
ATOM      2  C   UNL     1     -14.775 -22.145  23.119  1.00  0.00    -0.028 C 
ATOM      3  C   UNL     1     -13.991 -22.096  24.221  1.00  0.00    -0.077 C 
ATOM      4  C   UNL     1     -13.039 -20.949  24.471  1.00  0.00     0.039 C 
BRANCH   3   5
ATOM      5  C   UNL     1     -14.081 -23.214  25.237  1.00  0.00     0.034 C 
BRANCH   5   6
ATOM      6  C   UNL     1     -13.997 -24.583  24.552  1.00  0.00     0.032 C 
BRANCH   6   7
ATOM      7  C   UNL     1     -12.713 -25.294  24.904  1.00  0.00    -0.028 C 
ATOM      8  C   UNL     1     -10.362 -25.949  24.603  1.00  0.00     0.039 C 
ATOM      9  C   UNL     1     -11.589 -25.197  24.161  1.00  0.00    -0.080 C 
ATOM     10  C   UNL     1     -11.543 -24.358  22.906  1.00  0.00     0.039 C 
ENDBRANCH   6   7
ENDBRANCH   5   6
ENDBRANCH   3   5
ENDBRANCH   1   2
BRANCH   1  11
ATOM     11  C   UNL     1     -14.539 -21.790  20.652  1.00  0.00     0.034 C 
BRANCH  11  12
ATOM     12  C   UNL     1     -13.064 -21.962  20.367  1.00  0.00    -0.077 C 
ATOM     13  C   UNL     1     -12.190 -21.063  20.874  1.00  0.00    -0.028 C 
ATOM     14  C   UNL     1     -12.606 -23.145  19.547  1.00  0.00     0.039 C 
BRANCH  13  15
ATOM     15  C   UNL     1     -10.701 -21.087  20.630  1.00  0.00     0.035 C 
BRANCH  15  16
ATOM     16  C   UNL     1     -10.362 -20.399  19.301  1.00  0.00     0.079 C 
BRANCH  16  17
ATOM     17  C   UNL     1      -9.849 -21.314  18.207  1.00  0.00     0.130 C 
ATOM     18  O   UNL     1     -10.101 -21.013  17.050  1.00  0.00    -0.300 OA
ATOM     19  C   UNL     1      -9.050 -22.569  18.444  1.00  0.00     0.087 C 
ENDBRANCH  16  17
ENDBRANCH  15  16
ENDBRANCH  13  15
ENDBRANCH  11  12
ENDBRANCH   1  11
TORSDOF 9
ENDMDL
MODEL 4
REMARK VINA RESULT:    -5.677      1.765      2.191
REMARK INTER + INTRA:          -9.822
REMARK INTER:                  -7.555
REMARK INTRA:                  -2.267
REMARK UNBOUND:                -1.158
REMARK SMILES CC(=O)CCC=C(C)CCC=C(C)CCC=C(C)C
REMARK SMILES IDX 10 1 11 2 12 3 13 4 14 5 15 6 16 7 18 8 17 9 19 10 9 11 7 12
REMARK SMILES IDX 6 13 8 14 5 15 4 16 2 17 3 18 1 19
REMARK H PARENT
REMARK Flexibility Score: inf
ROOT
ATOM      1  C   UNL     1     -12.262 -25.048  25.299  1.00  0.00     0.032 C 
ENDROOT
BRANCH   1   2
ATOM      2  C   UNL     1     -11.272 -24.865  24.177  1.00  0.00    -0.028 C 
ATOM      3  C   UNL     1     -10.431 -23.812  24.063  1.00  0.00    -0.077 C 
ATOM      4  C   UNL     1     -10.373 -22.722  25.108  1.00  0.00     0.039 C 
BRANCH   3   5
ATOM      5  C   UNL     1      -9.514 -23.730  22.862  1.00  0.00     0.034 C 
BRANCH   5   6
ATOM      6  C   UNL     1      -9.900 -22.554  21.957  1.00  0.00     0.032 C 
BRANCH   6   7
ATOM      7  C   UNL     1     -11.054 -22.915  21.053  1.00  0.00    -0.028 C 
ATOM      8  C   UNL     1     -12.897 -22.466  19.488  1.00  0.00     0.039 C 
ATOM      9  C   UNL     1     -11.763 -21.997  20.362  1.00  0.00    -0.080 C 
ATOM     10  C   UNL     1     -11.445 -20.523  20.450  1.00  0.00     0.039 C 
ENDBRANCH   6   7
ENDBRANCH   5   6
ENDBRANCH   3   5
ENDBRANCH   1   2
BRANCH   1  11
ATOM     11  C   UNL     1     -13.700 -24.908  24.786  1.00  0.00     0.034 C 
BRANCH  11  12
ATOM     12  C   UNL     1     -14.028 -23.460  24.499  1.00  0.00    -0.077 C 
ATOM     13  C   UNL     1     -14.224 -23.074  23.217  1.00  0.00    -0.028 C 
ATOM     14  C   UNL     1     -14.151 -22.491  25.651  1.00  0.00     0.039 C 
BRANCH  13  15
ATOM     15  C   UNL     1     -14.511 -21.658  22.785  1.00  0.00     0.035 C 
BRANCH  15  16
ATOM     16  C   UNL     1     -15.813 -21.595  21.976  1.00  0.00     0.079 C 
BRANCH  16  17
ATOM     17  C   UNL     1     -17.020 -21.065  22.724  1.00  0.00     0.130 C 
ATOM     18  O   UNL     1     -18.114 -21.181  22.193  1.00  0.00    -0.300 OA
ATOM     19  C   UNL     1     -16.968 -20.404  24.078  1.00  0.00     0.087 C 
ENDBRANCH  16  17
ENDBRANCH  15  16
ENDBRANCH  13  15
ENDBRANCH  11  12
ENDBRANCH   1  11
TORSDOF 9
ENDMDL
MODEL 5
REMARK VINA RESULT:    -5.640      5.698      8.046
REMARK INTER + INTRA:          -9.766
REMARK INTER:                  -8.437
REMARK INTRA:                  -1.329
REMARK UNBOUND:                -1.158
REMARK SMILES CC(=O)CCC=C(C)CCC=C(C)CCC=C(C)C
REMARK SMILES IDX 10 1 11 2 12 3 13 4 14 5 15 6 16 7 18 8 17 9 19 10 9 11 7 12
REMARK SMILES IDX 6 13 8 14 5 15 4 16 2 17 3 18 1 19
REMARK H PARENT
REMARK Flexibility Score: inf
ROOT
ATOM      1  C   UNL     1      -9.974 -18.759  21.976  1.00  0.00     0.032 C 
ENDROOT
BRANCH   1   2
ATOM      2  C   UNL     1     -10.187 -19.612  20.750  1.00  0.00    -0.028 C 
ATOM      3  C   UNL     1      -9.654 -20.842  20.572  1.00  0.00    -0.077 C 
ATOM      4  C   UNL     1      -8.816 -21.509  21.637  1.00  0.00     0.039 C 
BRANCH   3   5
ATOM      5  C   UNL     1      -9.914 -21.574  19.273  1.00  0.00     0.034 C 
BRANCH   5   6
ATOM      6  C   UNL     1     -10.824 -22.787  19.501  1.00  0.00     0.032 C 
BRANCH   6   7
ATOM      7  C   UNL     1     -12.279 -22.387  19.499  1.00  0.00    -0.028 C 
ATOM      8  C   UNL     1     -14.471 -21.906  20.507  1.00  0.00     0.039 C 
ATOM      9  C   UNL     1     -13.026 -22.315  20.622  1.00  0.00    -0.080 C 
ATOM     10  C   UNL     1     -12.444 -22.635  21.979  1.00  0.00     0.039 C 
ENDBRANCH   6   7
ENDBRANCH   5   6
ENDBRANCH   3   5
ENDBRANCH   1   2
BRANCH   1  11
ATOM     11  C   UNL     1      -8.618 -18.048  21.916  1.00  0.00     0.034 C 
BRANCH  11  12
ATOM     12  C   UNL     1      -8.567 -16.905  22.906  1.00  0.00    -0.077 C 
ATOM     13  C   UNL     1      -7.912 -15.772  22.565  1.00  0.00    -0.028 C 
ATOM     14  C   UNL     1      -9.268 -17.053  24.236  1.00  0.00     0.039 C 
BRANCH  13  15
ATOM     15  C   UNL     1      -7.744 -14.577  23.471  1.00  0.00     0.035 C 
BRANCH  15  16
ATOM     16  C   UNL     1      -6.257 -14.323  23.756  1.00  0.00     0.079 C 
BRANCH  16  17
ATOM     17  C   UNL     1      -5.578 -15.354  24.636  1.00  0.00     0.130 C 
ATOM     18  O   UNL     1      -4.715 -16.054  24.128  1.00  0.00    -0.300 OA
ATOM     19  C   UNL     1      -5.891 -15.579  26.093  1.00  0.00     0.087 C 
ENDBRANCH  16  17
ENDBRANCH  15  16
ENDBRANCH  13  15
ENDBRANCH  11  12
ENDBRANCH   1  11
TORSDOF 9
ENDMDL
MODEL 6
REMARK VINA RESULT:    -5.605      2.711      6.157
REMARK INTER + INTRA:          -9.712
REMARK INTER:                  -7.249
REMARK INTRA:                  -2.463
REMARK UNBOUND:                -1.158
REMARK SMILES CC(=O)CCC=C(C)CCC=C(C)CCC=C(C)C
REMARK SMILES IDX 10 1 11 2 12 3 13 4 14 5 15 6 16 7 18 8 17 9 19 10 9 11 7 12
REMARK SMILES IDX 6 13 8 14 5 15 4 16 2 17 3 18 1 19
REMARK H PARENT
REMARK Flexibility Score: inf
ROOT
ATOM      1  C   UNL     1     -11.026 -20.155  20.761  1.00  0.00     0.032 C 
ENDROOT
BRANCH   1   2
ATOM      2  C   UNL     1     -12.461 -20.619  20.741  1.00  0.00    -0.028 C 
ATOM      3  C   UNL     1     -12.866 -21.834  20.304  1.00  0.00    -0.077 C 
ATOM      4  C   UNL     1     -11.883 -22.879  19.833  1.00  0.00     0.039 C 
BRANCH   3   5
ATOM      5  C   UNL     1     -14.345 -22.157  20.300  1.00  0.00     0.034 C 
BRANCH   5   6
ATOM      6  C   UNL     1     -15.009 -21.697  21.602  1.00  0.00     0.032 C 
BRANCH   6   7
ATOM      7  C   UNL     1     -14.593 -22.563  22.766  1.00  0.00    -0.028 C 
ATOM      8  C   UNL     1     -14.225 -23.103  25.137  1.00  0.00     0.039 C 
ATOM      9  C   UNL     1     -14.668 -22.157  24.052  1.00  0.00    -0.080 C 
ATOM     10  C   UNL     1     -15.182 -20.784  24.417  1.00  0.00     0.039 C 
ENDBRANCH   6   7
ENDBRANCH   5   6
ENDBRANCH   3   5
ENDBRANCH   1   2
BRANCH   1  11
ATOM     11  C   UNL     1     -10.665 -19.559  22.126  1.00  0.00     0.034 C 
BRANCH  11  12
ATOM     12  C   UNL     1     -10.901 -20.565  23.230  1.00  0.00    -0.077 C 
ATOM     13  C   UNL     1     -10.468 -21.835  23.063  1.00  0.00    -0.028 C 
ATOM     14  C   UNL     1     -11.590 -20.117  24.498  1.00  0.00     0.039 C 
BRANCH  13  15
ATOM     15  C   UNL     1     -10.678 -22.948  24.059  1.00  0.00     0.035 C 
BRANCH  15  16
ATOM     16  C   UNL     1     -11.146 -24.226  23.349  1.00  0.00     0.079 C 
BRANCH  16  17
ATOM     17  C   UNL     1     -10.959 -25.511  24.131  1.00  0.00     0.130 C 
ATOM     18  O   UNL     1      -9.974 -26.190  23.880  1.00  0.00    -0.300 OA
ATOM     19  C   UNL     1     -11.900 -26.012  25.196  1.00  0.00     0.087 C 
ENDBRANCH  16  17
ENDBRANCH  15  16
ENDBRANCH  13  15
ENDBRANCH  11  12
ENDBRANCH   1  11
TORSDOF 9
ENDMDL
MODEL 7
REMARK VINA RESULT:    -5.596      4.659      6.488
REMARK INTER + INTRA:          -9.699
REMARK INTER:                  -8.486
REMARK INTRA:                  -1.213
REMARK UNBOUND:                -1.158
REMARK SMILES CC(=O)CCC=C(C)CCC=C(C)CCC=C(C)C
REMARK SMILES IDX 10 1 11 2 12 3 13 4 14 5 15 6 16 7 18 8 17 9 19 10 9 11 7 12
REMARK SMILES IDX 6 13 8 14 5 15 4 16 2 17 3 18 1 19
REMARK H PARENT
REMARK Flexibility Score: inf
ROOT
ATOM      1  C   UNL     1     -10.163 -20.535  23.410  1.00  0.00     0.032 C 
ENDROOT
BRANCH   1   2
ATOM      2  C   UNL     1     -11.031 -21.423  22.555  1.00  0.00    -0.028 C 
ATOM      3  C   UNL     1     -11.541 -21.066  21.353  1.00  0.00    -0.077 C 
ATOM      4  C   UNL     1     -11.235 -19.727  20.724  1.00  0.00     0.039 C 
BRANCH   3   5
ATOM      5  C   UNL     1     -12.434 -22.041  20.616  1.00  0.00     0.034 C 
BRANCH   5   6
ATOM      6  C   UNL     1     -11.825 -22.424  19.262  1.00  0.00     0.032 C 
BRANCH   6   7
ATOM      7  C   UNL     1     -10.388 -22.858  19.411  1.00  0.00    -0.028 C 
ATOM      8  C   UNL     1      -7.986 -22.873  18.882  1.00  0.00     0.039 C 
ATOM      9  C   UNL     1      -9.386 -22.369  18.649  1.00  0.00    -0.080 C 
ATOM     10  C   UNL     1      -9.643 -21.336  17.577  1.00  0.00     0.039 C 
ENDBRANCH   6   7
ENDBRANCH   5   6
ENDBRANCH   3   5
ENDBRANCH   1   2
BRANCH   1  11
ATOM     11  C   UNL     1     -10.995 -19.841  24.494  1.00  0.00     0.034 C 
BRANCH  11  12
ATOM     12  C   UNL     1     -10.489 -18.438  24.744  1.00  0.00    -0.077 C 
ATOM     13  C   UNL     1      -9.544 -17.926  23.922  1.00  0.00    -0.028 C 
ATOM     14  C   UNL     1     -11.069 -17.638  25.887  1.00  0.00     0.039 C 
BRANCH  13  15
ATOM     15  C   UNL     1      -8.918 -16.563  24.083  1.00  0.00     0.035 C 
BRANCH  15  16
ATOM     16  C   UNL     1      -8.411 -16.041  22.731  1.00  0.00     0.079 C 
BRANCH  16  17
ATOM     17  C   UNL     1      -7.340 -14.971  22.808  1.00  0.00     0.130 C 
ATOM     18  O   UNL     1      -7.330 -14.247  23.793  1.00  0.00    -0.300 OA
ATOM     19  C   UNL     1      -6.287 -14.734  21.756  1.00  0.00     0.087 C 
ENDBRANCH  16  17
ENDBRANCH  15  16
ENDBRANCH  13  15
ENDBRANCH  11  12
ENDBRANCH   1  11
TORSDOF 9
ENDMDL
MODEL 8
REMARK VINA RESULT:    -5.562      3.990      5.957
REMARK INTER + INTRA:          -9.647
REMARK INTER:                  -8.217
REMARK INTRA:                  -1.430
REMARK UNBOUND:                -1.158
REMARK SMILES CC(=O)CCC=C(C)CCC=C(C)CCC=C(C)C
REMARK SMILES IDX 10 1 11 2 12 3 13 4 14 5 15 6 16 7 18 8 17 9 19 10 9 11 7 12
REMARK SMILES IDX 6 13 8 14 5 15 4 16 2 17 3 18 1 19
REMARK H PARENT
REMARK Flexibility Score: inf
ROOT
ATOM      1  C   UNL     1      -8.952 -22.166  21.973  1.00  0.00     0.032 C 
ENDROOT
BRANCH   1   2
ATOM      2  C   UNL     1      -8.558 -20.715  21.854  1.00  0.00    -0.028 C 
ATOM      3  C   UNL     1      -9.371 -19.675  22.147  1.00  0.00    -0.077 C 
ATOM      4  C   UNL     1     -10.768 -19.883  22.685  1.00  0.00     0.039 C 
BRANCH   3   5
ATOM      5  C   UNL     1      -8.862 -18.264  21.943  1.00  0.00     0.034 C 
BRANCH   5   6
ATOM      6  C   UNL     1      -9.347 -17.339  23.065  1.00  0.00     0.032 C 
BRANCH   6   7
ATOM      7  C   UNL     1      -8.225 -16.991  24.011  1.00  0.00    -0.028 C 
ATOM      8  C   UNL     1      -6.430 -15.586  24.936  1.00  0.00     0.039 C 
ATOM      9  C   UNL     1      -7.534 -15.833  23.941  1.00  0.00    -0.080 C 
ATOM     10  C   UNL     1      -7.843 -14.792  22.891  1.00  0.00     0.039 C 
ENDBRANCH   6   7
ENDBRANCH   5   6
ENDBRANCH   3   5
ENDBRANCH   1   2
BRANCH   1  11
ATOM     11  C   UNL     1      -9.043 -22.822  20.591  1.00  0.00     0.034 C 
BRANCH  11  12
ATOM     12  C   UNL     1     -10.339 -22.452  19.906  1.00  0.00    -0.077 C 
ATOM     13  C   UNL     1     -11.510 -22.751  20.513  1.00  0.00    -0.028 C 
ATOM     14  C   UNL     1     -10.291 -21.737  18.575  1.00  0.00     0.039 C 
BRANCH  13  15
ATOM     15  C   UNL     1     -12.872 -22.483  19.923  1.00  0.00     0.035 C 
BRANCH  15  16
ATOM     16  C   UNL     1     -13.583 -21.364  20.697  1.00  0.00     0.079 C 
BRANCH  16  17
ATOM     17  C   UNL     1     -14.823 -21.786  21.460  1.00  0.00     0.130 C 
ATOM     18  O   UNL     1     -14.705 -22.680  22.284  1.00  0.00    -0.300 OA
ATOM     19  C   UNL     1     -16.191 -21.183  21.274  1.00  0.00     0.087 C 
ENDBRANCH  16  17
ENDBRANCH  15  16
ENDBRANCH  13  15
ENDBRANCH  11  12
ENDBRANCH   1  11
TORSDOF 9
ENDMDL
MODEL 9
REMARK VINA RESULT:    -5.467      2.318      6.057
REMARK INTER + INTRA:          -9.501
REMARK INTER:                  -6.801
REMARK INTRA:                  -2.700
REMARK UNBOUND:                -1.158
REMARK SMILES CC(=O)CCC=C(C)CCC=C(C)CCC=C(C)C
REMARK SMILES IDX 10 1 11 2 12 3 13 4 14 5 15 6 16 7 18 8 17 9 19 10 9 11 7 12
REMARK SMILES IDX 6 13 8 14 5 15 4 16 2 17 3 18 1 19
REMARK H PARENT
REMARK Flexibility Score: inf
ROOT
ATOM      1  C   UNL     1     -10.139 -21.343  24.500  1.00  0.00     0.032 C 
ENDROOT
BRANCH   1   2
ATOM      2  C   UNL     1     -11.036 -22.470  24.949  1.00  0.00    -0.028 C 
ATOM      3  C   UNL     1     -11.103 -23.680  24.347  1.00  0.00    -0.077 C 
ATOM      4  C   UNL     1     -10.224 -24.035  23.171  1.00  0.00     0.039 C 
BRANCH   3   5
ATOM      5  C   UNL     1     -12.078 -24.710  24.876  1.00  0.00     0.034 C 
BRANCH   5   6
ATOM      6  C   UNL     1     -13.472 -24.099  25.062  1.00  0.00     0.032 C 
BRANCH   6   7
ATOM      7  C   UNL     1     -14.115 -23.787  23.733  1.00  0.00    -0.028 C 
ATOM      8  C   UNL     1     -15.219 -22.363  22.059  1.00  0.00     0.039 C 
ATOM      9  C   UNL     1     -14.594 -22.565  23.415  1.00  0.00    -0.080 C 
ATOM     10  C   UNL     1     -14.518 -21.410  24.385  1.00  0.00     0.039 C 
ENDBRANCH   6   7
ENDBRANCH   5   6
ENDBRANCH   3   5
ENDBRANCH   1   2
BRANCH   1  11
ATOM     11  C   UNL     1     -10.957 -20.226  23.841  1.00  0.00     0.034 C 
BRANCH  11  12
ATOM     12  C   UNL     1     -10.910 -20.345  22.334  1.00  0.00    -0.077 C 
ATOM     13  C   UNL     1     -11.852 -21.085  21.705  1.00  0.00    -0.028 C 
ATOM     14  C   UNL     1      -9.829 -19.614  21.571  1.00  0.00     0.039 C 
BRANCH  13  15
ATOM     15  C   UNL     1     -11.897 -21.326  20.217  1.00  0.00     0.035 C 
BRANCH  15  16
ATOM     16  C   UNL     1     -11.241 -22.670  19.869  1.00  0.00     0.079 C 
BRANCH  16  17
ATOM     17  C   UNL     1      -9.851 -22.580  19.270  1.00  0.00     0.130 C 
ATOM     18  O   UNL     1      -9.756 -22.213  18.109  1.00  0.00    -0.300 OA
ATOM     19  C   UNL     1      -8.578 -22.912  20.005  1.00  0.00     0.087 C 
ENDBRANCH  16  17
ENDBRANCH  15  16
ENDBRANCH  13  15
ENDBRANCH  11  12
ENDBRANCH   1  11
TORSDOF 9
ENDMDL
