MODEL 1
REMARK VINA RESULT:    -3.226      0.000      0.000
REMARK INTER + INTRA:          -4.638
REMARK INTER:                  -4.357
REMARK INTRA:                  -0.281
REMARK UNBOUND:                -0.281
REMARK SMILES CCCCCCC=CC(=O)[O-]
REMARK SMILES IDX 5 1 6 2 7 3 8 4 9 5 10 6 11 7 4 8 3 9 2 10 1 11
REMARK H PARENT
REMARK Flexibility Score: inf
ROOT
ATOM      1  C   UNL     1      -6.353  22.763  11.776  1.00  0.00     0.004 C 
ENDROOT
BRANCH   1   2
ATOM      2  C   UNL     1      -6.351  22.786  10.243  1.00  0.00     0.027 C 
BRANCH   2   3
ATOM      3  C   UNL     1      -5.142  23.503   9.709  1.00  0.00    -0.025 C 
ATOM      4  C   UNL     1      -4.042  23.676  10.450  1.00  0.00     0.020 C 
BRANCH   4   5
ATOM      5  C   UNL     1      -2.864  24.405   9.955  1.00  0.00     0.064 C 
ATOM      6  O   UNL     1      -1.947  24.771  10.740  1.00  0.00    -0.545 OA
ATOM      7  O   UNL     1      -2.759  24.694   8.601  1.00  0.00    -0.545 OA
ENDBRANCH   4   5
ENDBRANCH   2   3
ENDBRANCH   1   2
BRANCH   1   8
ATOM      8  C   UNL     1      -6.727  21.378  12.334  1.00  0.00     0.000 C 
BRANCH   8   9
ATOM      9  C   UNL     1      -7.919  21.447  13.312  1.00  0.00    -0.000 C 
BRANCH   9  10
ATOM     10  C   UNL     1      -8.939  20.312  13.118  1.00  0.00    -0.003 C 
ATOM     11  C   UNL     1      -9.871  20.541  11.930  1.00  0.00     0.004 C 
ENDBRANCH   9  10
ENDBRANCH   8   9
ENDBRANCH   1   8
TORSDOF 6
ENDMDL
MODEL 2
REMARK VINA RESULT:    -3.179      2.576      4.239
REMARK INTER + INTRA:          -4.575
REMARK INTER:                  -3.857
REMARK INTRA:                  -0.717
REMARK UNBOUND:                -0.281
REMARK SMILES CCCCCCC=CC(=O)[O-]
REMARK SMILES IDX 5 1 6 2 7 3 8 4 9 5 10 6 11 7 4 8 3 9 2 10 1 11
REMARK H PARENT
REMARK Flexibility Score: inf
ROOT
ATOM      1  C   UNL     1      -5.309  23.675   6.499  1.00  0.00     0.004 C 
ENDROOT
BRANCH   1   2
ATOM      2  C   UNL     1      -3.791  23.877   6.439  1.00  0.00     0.027 C 
BRANCH   2   3
ATOM      3  C   UNL     1      -3.159  23.678   7.789  1.00  0.00    -0.025 C 
ATOM      4  C   UNL     1      -3.638  24.277   8.885  1.00  0.00     0.020 C 
BRANCH   4   5
ATOM      5  C   UNL     1      -3.012  24.122  10.206  1.00  0.00     0.064 C 
ATOM      6  O   UNL     1      -3.489  23.330  11.064  1.00  0.00    -0.545 OA
ATOM      7  O   UNL     1      -1.876  24.858  10.515  1.00  0.00    -0.545 OA
ENDBRANCH   4   5
ENDBRANCH   2   3
ENDBRANCH   1   2
BRANCH   1   8
ATOM      8  C   UNL     1      -5.712  22.216   6.214  1.00  0.00     0.000 C 
BRANCH   8   9
ATOM      9  C   UNL     1      -6.625  21.639   7.316  1.00  0.00    -0.000 C 
BRANCH   9  10
ATOM     10  C   UNL     1      -6.979  22.653   8.416  1.00  0.00    -0.003 C 
ATOM     11  C   UNL     1      -6.630  22.161   9.819  1.00  0.00     0.004 C 
ENDBRANCH   9  10
ENDBRANCH   8   9
ENDBRANCH   1   8
TORSDOF 6
ENDMDL
MODEL 3
REMARK VINA RESULT:    -3.165      1.212      1.733
REMARK INTER + INTRA:          -4.556
REMARK INTER:                  -4.308
REMARK INTRA:                  -0.248
REMARK UNBOUND:                -0.281
REMARK SMILES CCCCCCC=CC(=O)[O-]
REMARK SMILES IDX 5 1 6 2 7 3 8 4 9 5 10 6 11 7 4 8 3 9 2 10 1 11
REMARK H PARENT
REMARK Flexibility Score: inf
ROOT
ATOM      1  C   UNL     1      -6.783  22.034   9.980  1.00  0.00     0.004 C 
ENDROOT
BRANCH   1   2
ATOM      2  C   UNL     1      -6.631  23.179   8.972  1.00  0.00     0.027 C 
BRANCH   2   3
ATOM      3  C   UNL     1      -5.249  23.770   9.019  1.00  0.00    -0.025 C 
ATOM      4  C   UNL     1      -4.429  23.726   7.964  1.00  0.00     0.020 C 
BRANCH   4   5
ATOM      5  C   UNL     1      -3.062  24.267   8.004  1.00  0.00     0.064 C 
ATOM      6  O   UNL     1      -2.597  24.783   9.057  1.00  0.00    -0.545 OA
ATOM      7  O   UNL     1      -2.270  24.209   6.866  1.00  0.00    -0.545 OA
ENDBRANCH   4   5
ENDBRANCH   2   3
ENDBRANCH   1   2
BRANCH   1   8
ATOM      8  C   UNL     1      -6.331  22.442  11.393  1.00  0.00     0.000 C 
BRANCH   8   9
ATOM      9  C   UNL     1      -6.757  21.412  12.461  1.00  0.00    -0.000 C 
BRANCH   9  10
ATOM     10  C   UNL     1      -8.208  21.587  12.938  1.00  0.00    -0.003 C 
ATOM     11  C   UNL     1      -8.845  20.280  13.406  1.00  0.00     0.004 C 
ENDBRANCH   9  10
ENDBRANCH   8   9
ENDBRANCH   1   8
TORSDOF 6
ENDMDL
MODEL 4
REMARK VINA RESULT:    -3.065      1.659      2.838
REMARK INTER + INTRA:          -4.421
REMARK INTER:                  -3.971
REMARK INTRA:                  -0.450
REMARK UNBOUND:                -0.281
REMARK SMILES CCCCCCC=CC(=O)[O-]
REMARK SMILES IDX 5 1 6 2 7 3 8 4 9 5 10 6 11 7 4 8 3 9 2 10 1 11
REMARK H PARENT
REMARK Flexibility Score: inf
ROOT
ATOM      1  C   UNL     1      -5.848  23.690   8.448  1.00  0.00     0.004 C 
ENDROOT
BRANCH   1   2
ATOM      2  C   UNL     1      -4.405  23.557   7.946  1.00  0.00     0.027 C 
BRANCH   2   3
ATOM      3  C   UNL     1      -3.419  23.991   8.994  1.00  0.00    -0.025 C 
ATOM      4  C   UNL     1      -3.816  24.522  10.156  1.00  0.00     0.020 C 
BRANCH   4   5
ATOM      5  C   UNL     1      -2.865  24.985  11.177  1.00  0.00     0.064 C 
ATOM      6  O   UNL     1      -3.253  25.650  12.176  1.00  0.00    -0.545 OA
ATOM      7  O   UNL     1      -1.516  24.683  11.042  1.00  0.00    -0.545 OA
ENDBRANCH   4   5
ENDBRANCH   2   3
ENDBRANCH   1   2
BRANCH   1   8
ATOM      8  C   UNL     1      -6.479  22.323   8.769  1.00  0.00     0.000 C 
BRANCH   8   9
ATOM      9  C   UNL     1      -7.273  22.345  10.091  1.00  0.00    -0.000 C 
BRANCH   9  10
ATOM     10  C   UNL     1      -6.384  22.267  11.343  1.00  0.00    -0.003 C 
ATOM     11  C   UNL     1      -6.912  21.291  12.393  1.00  0.00     0.004 C 
ENDBRANCH   9  10
ENDBRANCH   8   9
ENDBRANCH   1   8
TORSDOF 6
ENDMDL
MODEL 5
REMARK VINA RESULT:    -3.063      2.660      4.374
REMARK INTER + INTRA:          -4.418
REMARK INTER:                  -3.705
REMARK INTRA:                  -0.713
REMARK UNBOUND:                -0.281
REMARK SMILES CCCCCCC=CC(=O)[O-]
REMARK SMILES IDX 5 1 6 2 7 3 8 4 9 5 10 6 11 7 4 8 3 9 2 10 1 11
REMARK H PARENT
REMARK Flexibility Score: inf
ROOT
ATOM      1  C   UNL     1      -9.891  21.066  14.164  1.00  0.00     0.004 C 
ENDROOT
BRANCH   1   2
ATOM      2  C   UNL     1      -8.620  20.467  13.552  1.00  0.00     0.027 C 
BRANCH   2   3
ATOM      3  C   UNL     1      -8.085  21.334  12.446  1.00  0.00    -0.025 C 
ATOM      4  C   UNL     1      -6.784  21.631  12.351  1.00  0.00     0.020 C 
BRANCH   4   5
ATOM      5  C   UNL     1      -6.250  22.506  11.296  1.00  0.00     0.064 C 
ATOM      6  O   UNL     1      -6.970  22.874  10.328  1.00  0.00    -0.545 OA
ATOM      7  O   UNL     1      -4.932  22.935  11.367  1.00  0.00    -0.545 OA
ENDBRANCH   4   5
ENDBRANCH   2   3
ENDBRANCH   1   2
BRANCH   1   8
ATOM      8  C   UNL     1      -9.738  22.567  14.468  1.00  0.00     0.000 C 
BRANCH   8   9
ATOM      9  C   UNL     1      -8.987  22.819  15.792  1.00  0.00    -0.000 C 
BRANCH   9  10
ATOM     10  C   UNL     1      -7.821  23.813  15.658  1.00  0.00    -0.003 C 
ATOM     11  C   UNL     1      -7.837  24.580  14.338  1.00  0.00     0.004 C 
ENDBRANCH   9  10
ENDBRANCH   8   9
ENDBRANCH   1   8
TORSDOF 6
ENDMDL
MODEL 6
REMARK VINA RESULT:    -3.060      2.397      3.236
REMARK INTER + INTRA:          -4.414
REMARK INTER:                  -3.776
REMARK INTRA:                  -0.639
REMARK UNBOUND:                -0.281
REMARK SMILES CCCCCCC=CC(=O)[O-]
REMARK SMILES IDX 5 1 6 2 7 3 8 4 9 5 10 6 11 7 4 8 3 9 2 10 1 11
REMARK H PARENT
REMARK Flexibility Score: inf
ROOT
ATOM      1  C   UNL     1      -5.337  24.132  10.916  1.00  0.00     0.004 C 
ENDROOT
BRANCH   1   2
ATOM      2  C   UNL     1      -3.813  24.154  11.075  1.00  0.00     0.027 C 
BRANCH   2   3
ATOM      3  C   UNL     1      -3.122  24.037   9.744  1.00  0.00    -0.025 C 
ATOM      4  C   UNL     1      -3.807  23.839   8.612  1.00  0.00     0.020 C 
BRANCH   4   5
ATOM      5  C   UNL     1      -3.146  23.687   7.308  1.00  0.00     0.064 C 
ATOM      6  O   UNL     1      -2.175  24.423   6.979  1.00  0.00    -0.545 OA
ATOM      7  O   UNL     1      -3.596  22.717   6.422  1.00  0.00    -0.545 OA
ENDBRANCH   4   5
ENDBRANCH   2   3
ENDBRANCH   1   2
BRANCH   1   8
ATOM      8  C   UNL     1      -5.968  22.881  11.553  1.00  0.00     0.000 C 
BRANCH   8   9
ATOM      9  C   UNL     1      -6.613  21.954  10.501  1.00  0.00    -0.000 C 
BRANCH   9  10
ATOM     10  C   UNL     1      -7.219  22.709   9.306  1.00  0.00    -0.003 C 
ATOM     11  C   UNL     1      -6.895  22.060   7.962  1.00  0.00     0.004 C 
ENDBRANCH   9  10
ENDBRANCH   8   9
ENDBRANCH   1   8
TORSDOF 6
ENDMDL
MODEL 7
REMARK VINA RESULT:    -3.038      4.187      5.988
REMARK INTER + INTRA:          -4.384
REMARK INTER:                  -4.032
REMARK INTRA:                  -0.352
REMARK UNBOUND:                -0.281
REMARK SMILES CCCCCCC=CC(=O)[O-]
REMARK SMILES IDX 5 1 6 2 7 3 8 4 9 5 10 6 11 7 4 8 3 9 2 10 1 11
REMARK H PARENT
REMARK Flexibility Score: inf
ROOT
ATOM      1  C   UNL     1      -5.825  22.787   7.626  1.00  0.00     0.004 C 
ENDROOT
BRANCH   1   2
ATOM      2  C   UNL     1      -7.273  22.484   8.032  1.00  0.00     0.027 C 
BRANCH   2   3
ATOM      3  C   UNL     1      -7.434  22.489   9.526  1.00  0.00    -0.025 C 
ATOM      4  C   UNL     1      -6.490  21.998  10.338  1.00  0.00     0.020 C 
BRANCH   4   5
ATOM      5  C   UNL     1      -6.647  21.963  11.799  1.00  0.00     0.064 C 
ATOM      6  O   UNL     1      -7.083  22.963  12.432  1.00  0.00    -0.545 OA
ATOM      7  O   UNL     1      -6.312  20.810  12.495  1.00  0.00    -0.545 OA
ENDBRANCH   4   5
ENDBRANCH   2   3
ENDBRANCH   1   2
BRANCH   1   8
ATOM      8  C   UNL     1      -5.444  22.117   6.294  1.00  0.00     0.000 C 
BRANCH   8   9
ATOM      9  C   UNL     1      -6.355  20.915   5.965  1.00  0.00    -0.000 C 
BRANCH   9  10
ATOM     10  C   UNL     1      -5.692  19.875   5.047  1.00  0.00    -0.003 C 
ATOM     11  C   UNL     1      -4.328  20.322   4.523  1.00  0.00     0.004 C 
ENDBRANCH   9  10
ENDBRANCH   8   9
ENDBRANCH   1   8
TORSDOF 6
ENDMDL
MODEL 8
REMARK VINA RESULT:    -3.020      3.113      5.701
REMARK INTER + INTRA:          -4.360
REMARK INTER:                  -3.797
REMARK INTRA:                  -0.562
REMARK UNBOUND:                -0.281
REMARK SMILES CCCCCCC=CC(=O)[O-]
REMARK SMILES IDX 5 1 6 2 7 3 8 4 9 5 10 6 11 7 4 8 3 9 2 10 1 11
REMARK H PARENT
REMARK Flexibility Score: inf
ROOT
ATOM      1  C   UNL     1      -6.047  23.844   8.068  1.00  0.00     0.004 C 
ENDROOT
BRANCH   1   2
ATOM      2  C   UNL     1      -6.650  22.473   8.398  1.00  0.00     0.027 C 
BRANCH   2   3
ATOM      3  C   UNL     1      -6.343  22.067   9.812  1.00  0.00    -0.025 C 
ATOM      4  C   UNL     1      -7.224  22.249  10.803  1.00  0.00     0.020 C 
BRANCH   4   5
ATOM      5  C   UNL     1      -6.927  21.890  12.198  1.00  0.00     0.064 C 
ATOM      6  O   UNL     1      -6.263  20.855  12.477  1.00  0.00    -0.545 OA
ATOM      7  O   UNL     1      -7.383  22.705  13.225  1.00  0.00    -0.545 OA
ENDBRANCH   4   5
ENDBRANCH   2   3
ENDBRANCH   1   2
BRANCH   1   8
ATOM      8  C   UNL     1      -4.820  23.730   7.144  1.00  0.00     0.000 C 
BRANCH   8   9
ATOM      9  C   UNL     1      -3.502  23.624   7.939  1.00  0.00    -0.000 C 
BRANCH   9  10
ATOM     10  C   UNL     1      -3.427  24.584   9.137  1.00  0.00    -0.003 C 
ATOM     11  C   UNL     1      -3.184  23.867  10.464  1.00  0.00     0.004 C 
ENDBRANCH   9  10
ENDBRANCH   8   9
ENDBRANCH   1   8
TORSDOF 6
ENDMDL
MODEL 9
REMARK VINA RESULT:    -2.948      4.925      6.072
REMARK INTER + INTRA:          -4.263
REMARK INTER:                  -3.934
REMARK INTRA:                  -0.329
REMARK UNBOUND:                -0.281
REMARK SMILES CCCCCCC=CC(=O)[O-]
REMARK SMILES IDX 5 1 6 2 7 3 8 4 9 5 10 6 11 7 4 8 3 9 2 10 1 11
REMARK H PARENT
REMARK Flexibility Score: inf
ROOT
ATOM      1  C   UNL     1      -7.849  22.554  13.528  1.00  0.00     0.004 C 
ENDROOT
BRANCH   1   2
ATOM      2  C   UNL     1      -8.537  22.532  14.898  1.00  0.00     0.027 C 
BRANCH   2   3
ATOM      3  C   UNL     1      -8.100  23.694  15.747  1.00  0.00    -0.025 C 
ATOM      4  C   UNL     1      -7.425  23.516  16.889  1.00  0.00     0.020 C 
BRANCH   4   5
ATOM      5  C   UNL     1      -7.021  24.638  17.748  1.00  0.00     0.064 C 
ATOM      6  O   UNL     1      -5.827  25.044  17.772  1.00  0.00    -0.545 OA
ATOM      7  O   UNL     1      -7.969  25.264  18.546  1.00  0.00    -0.545 OA
ENDBRANCH   4   5
ENDBRANCH   2   3
ENDBRANCH   1   2
BRANCH   1   8
ATOM      8  C   UNL     1      -7.879  21.175  12.843  1.00  0.00     0.000 C 
BRANCH   8   9
ATOM      9  C   UNL     1      -8.926  20.234  13.475  1.00  0.00    -0.000 C 
BRANCH   9  10
ATOM     10  C   UNL     1     -10.082  19.876  12.527  1.00  0.00    -0.003 C 
ATOM     11  C   UNL     1     -10.112  20.738  11.266  1.00  0.00     0.004 C 
ENDBRANCH   9  10
ENDBRANCH   8   9
ENDBRANCH   1   8
TORSDOF 6
ENDMDL
