MODEL 1
REMARK VINA RESULT:    -2.869      0.000      0.000
REMARK INTER + INTRA:          -4.309
REMARK INTER:                  -3.875
REMARK INTRA:                  -0.434
REMARK UNBOUND:                -0.434
REMARK SMILES CCCCCCCC=O
REMARK SMILES IDX 5 1 4 2 3 3 2 4 1 5 6 6 7 7 8 8 9 9
REMARK H PARENT
REMARK Flexibility Score: inf
ROOT
ATOM      1  C   UNL     1     136.760 141.247 128.828  1.00  0.00     0.000 C 
ENDROOT
BRANCH   1   2
ATOM      2  C   UNL     1     135.391 140.625 128.516  1.00  0.00     0.000 C 
BRANCH   2   3
ATOM      3  C   UNL     1     134.782 139.880 129.718  1.00  0.00    -0.000 C 
BRANCH   3   4
ATOM      4  C   UNL     1     134.756 138.348 129.583  1.00  0.00    -0.003 C 
ATOM      5  C   UNL     1     135.729 137.647 130.530  1.00  0.00     0.004 C 
ENDBRANCH   3   4
ENDBRANCH   2   3
ENDBRANCH   1   2
BRANCH   1   6
ATOM      6  C   UNL     1     137.881 140.211 128.677  1.00  0.00     0.008 C 
BRANCH   6   7
ATOM      7  C   UNL     1     138.661 140.051 129.986  1.00  0.00     0.072 C 
BRANCH   7   8
ATOM      8  C   UNL     1     140.112 140.385 129.798  1.00  0.00     0.224 C 
ATOM      9  O   UNL     1     140.691 140.030 128.783  1.00  0.00    -0.303 OA
ENDBRANCH   7   8
ENDBRANCH   6   7
ENDBRANCH   1   6
TORSDOF 6
ENDMDL
MODEL 2
REMARK VINA RESULT:    -2.857      4.187      5.669
REMARK INTER + INTRA:          -4.293
REMARK INTER:                  -3.991
REMARK INTRA:                  -0.302
REMARK UNBOUND:                -0.434
REMARK SMILES CCCCCCCC=O
REMARK SMILES IDX 5 1 4 2 3 3 2 4 1 5 6 6 7 7 8 8 9 9
REMARK H PARENT
REMARK Flexibility Score: inf
ROOT
ATOM      1  C   UNL     1     140.247 137.293 128.733  1.00  0.00     0.000 C 
ENDROOT
BRANCH   1   2
ATOM      2  C   UNL     1     141.240 138.447 128.939  1.00  0.00     0.000 C 
BRANCH   2   3
ATOM      3  C   UNL     1     140.593 139.833 128.762  1.00  0.00    -0.000 C 
BRANCH   3   4
ATOM      4  C   UNL     1     139.725 140.298 129.943  1.00  0.00    -0.003 C 
ATOM      5  C   UNL     1     140.376 140.045 131.302  1.00  0.00     0.004 C 
ENDBRANCH   3   4
ENDBRANCH   2   3
ENDBRANCH   1   2
BRANCH   1   6
ATOM      6  C   UNL     1     140.196 136.384 129.967  1.00  0.00     0.008 C 
BRANCH   6   7
ATOM      7  C   UNL     1     140.320 134.910 129.569  1.00  0.00     0.072 C 
BRANCH   7   8
ATOM      8  C   UNL     1     139.612 134.635 128.274  1.00  0.00     0.224 C 
ATOM      9  O   UNL     1     138.917 133.639 128.161  1.00  0.00    -0.303 OA
ENDBRANCH   7   8
ENDBRANCH   6   7
ENDBRANCH   1   6
TORSDOF 6
ENDMDL
MODEL 3
REMARK VINA RESULT:    -2.836      5.141      6.722
REMARK INTER + INTRA:          -4.265
REMARK INTER:                  -3.976
REMARK INTRA:                  -0.289
REMARK UNBOUND:                -0.434
REMARK SMILES CCCCCCCC=O
REMARK SMILES IDX 5 1 4 2 3 3 2 4 1 5 6 6 7 7 8 8 9 9
REMARK H PARENT
REMARK Flexibility Score: inf
ROOT
ATOM      1  C   UNL     1     138.267 134.171 129.109  1.00  0.00     0.000 C 
ENDROOT
BRANCH   1   2
ATOM      2  C   UNL     1     139.628 134.735 128.675  1.00  0.00     0.000 C 
BRANCH   2   3
ATOM      3  C   UNL     1     140.564 135.026 129.862  1.00  0.00    -0.000 C 
BRANCH   3   4
ATOM      4  C   UNL     1     139.855 135.211 131.215  1.00  0.00    -0.003 C 
ATOM      5  C   UNL     1     140.413 134.306 132.312  1.00  0.00     0.004 C 
ENDBRANCH   3   4
ENDBRANCH   2   3
ENDBRANCH   1   2
BRANCH   1   6
ATOM      6  C   UNL     1     137.125 135.102 128.682  1.00  0.00     0.008 C 
BRANCH   6   7
ATOM      7  C   UNL     1     135.982 135.072 129.702  1.00  0.00     0.072 C 
BRANCH   7   8
ATOM      8  C   UNL     1     134.695 135.542 129.089  1.00  0.00     0.224 C 
ATOM      9  O   UNL     1     134.585 135.598 127.875  1.00  0.00    -0.303 OA
ENDBRANCH   7   8
ENDBRANCH   6   7
ENDBRANCH   1   6
TORSDOF 6
ENDMDL
MODEL 4
REMARK VINA RESULT:    -2.810      2.392      4.628
REMARK INTER + INTRA:          -4.229
REMARK INTER:                  -3.831
REMARK INTRA:                  -0.398
REMARK UNBOUND:                -0.434
REMARK SMILES CCCCCCCC=O
REMARK SMILES IDX 5 1 4 2 3 3 2 4 1 5 6 6 7 7 8 8 9 9
REMARK H PARENT
REMARK Flexibility Score: inf
ROOT
ATOM      1  C   UNL     1     138.471 140.276 129.815  1.00  0.00     0.000 C 
ENDROOT
BRANCH   1   2
ATOM      2  C   UNL     1     140.005 140.267 129.902  1.00  0.00     0.000 C 
BRANCH   2   3
ATOM      3  C   UNL     1     140.675 139.733 128.622  1.00  0.00    -0.000 C 
BRANCH   3   4
ATOM      4  C   UNL     1     141.413 138.394 128.789  1.00  0.00    -0.003 C 
ATOM      5  C   UNL     1     140.522 137.286 129.350  1.00  0.00     0.004 C 
ENDBRANCH   3   4
ENDBRANCH   2   3
ENDBRANCH   1   2
BRANCH   1   6
ATOM      6  C   UNL     1     138.000 139.976 128.387  1.00  0.00     0.008 C 
BRANCH   6   7
ATOM      7  C   UNL     1     136.784 139.042 128.395  1.00  0.00     0.072 C 
BRANCH   7   8
ATOM      8  C   UNL     1     135.514 139.806 128.632  1.00  0.00     0.224 C 
ATOM      9  O   UNL     1     135.406 140.949 128.218  1.00  0.00    -0.303 OA
ENDBRANCH   7   8
ENDBRANCH   6   7
ENDBRANCH   1   6
TORSDOF 6
ENDMDL
MODEL 5
REMARK VINA RESULT:    -2.798      3.692      4.792
REMARK INTER + INTRA:          -4.213
REMARK INTER:                  -3.851
REMARK INTRA:                  -0.362
REMARK UNBOUND:                -0.434
REMARK SMILES CCCCCCCC=O
REMARK SMILES IDX 5 1 4 2 3 3 2 4 1 5 6 6 7 7 8 8 9 9
REMARK H PARENT
REMARK Flexibility Score: inf
ROOT
ATOM      1  C   UNL     1     140.259 136.956 129.555  1.00  0.00     0.000 C 
ENDROOT
BRANCH   1   2
ATOM      2  C   UNL     1     140.345 135.434 129.744  1.00  0.00     0.000 C 
BRANCH   2   3
ATOM      3  C   UNL     1     139.718 134.648 128.578  1.00  0.00    -0.000 C 
BRANCH   3   4
ATOM      4  C   UNL     1     138.456 133.847 128.942  1.00  0.00    -0.003 C 
ATOM      5  C   UNL     1     137.264 134.736 129.295  1.00  0.00     0.004 C 
ENDBRANCH   3   4
ENDBRANCH   2   3
ENDBRANCH   1   2
BRANCH   1   6
ATOM      6  C   UNL     1     139.927 137.311 128.100  1.00  0.00     0.008 C 
BRANCH   6   7
ATOM      7  C   UNL     1     139.797 138.827 127.921  1.00  0.00     0.072 C 
BRANCH   7   8
ATOM      8  C   UNL     1     140.601 139.567 128.950  1.00  0.00     0.224 C 
ATOM      9  O   UNL     1     140.132 140.555 129.492  1.00  0.00    -0.303 OA
ENDBRANCH   7   8
ENDBRANCH   6   7
ENDBRANCH   1   6
TORSDOF 6
ENDMDL
MODEL 6
REMARK VINA RESULT:    -2.787      2.648      3.942
REMARK INTER + INTRA:          -4.198
REMARK INTER:                  -3.871
REMARK INTRA:                  -0.327
REMARK UNBOUND:                -0.434
REMARK SMILES CCCCCCCC=O
REMARK SMILES IDX 5 1 4 2 3 3 2 4 1 5 6 6 7 7 8 8 9 9
REMARK H PARENT
REMARK Flexibility Score: inf
ROOT
ATOM      1  C   UNL     1     135.358 137.819 128.913  1.00  0.00     0.000 C 
ENDROOT
BRANCH   1   2
ATOM      2  C   UNL     1     134.162 136.887 128.667  1.00  0.00     0.000 C 
BRANCH   2   3
ATOM      3  C   UNL     1     134.541 135.395 128.725  1.00  0.00    -0.000 C 
BRANCH   3   4
ATOM      4  C   UNL     1     135.533 135.023 129.840  1.00  0.00    -0.003 C 
ATOM      5  C   UNL     1     134.869 134.880 131.209  1.00  0.00     0.004 C 
ENDBRANCH   3   4
ENDBRANCH   2   3
ENDBRANCH   1   2
BRANCH   1   6
ATOM      6  C   UNL     1     135.121 138.703 130.143  1.00  0.00     0.008 C 
BRANCH   6   7
ATOM      7  C   UNL     1     134.718 140.122 129.731  1.00  0.00     0.072 C 
BRANCH   7   8
ATOM      8  C   UNL     1     135.545 140.608 128.576  1.00  0.00     0.224 C 
ATOM      9  O   UNL     1     136.537 141.288 128.782  1.00  0.00    -0.303 OA
ENDBRANCH   7   8
ENDBRANCH   6   7
ENDBRANCH   1   6
TORSDOF 6
ENDMDL
MODEL 7
REMARK VINA RESULT:    -2.728      1.295      1.974
REMARK INTER + INTRA:          -4.119
REMARK INTER:                  -3.851
REMARK INTRA:                  -0.268
REMARK UNBOUND:                -0.434
REMARK SMILES CCCCCCCC=O
REMARK SMILES IDX 5 1 4 2 3 3 2 4 1 5 6 6 7 7 8 8 9 9
REMARK H PARENT
REMARK Flexibility Score: inf
ROOT
ATOM      1  C   UNL     1     137.929 140.073 128.627  1.00  0.00     0.000 C 
ENDROOT
BRANCH   1   2
ATOM      2  C   UNL     1     136.858 141.151 128.854  1.00  0.00     0.000 C 
BRANCH   2   3
ATOM      3  C   UNL     1     135.425 140.626 128.645  1.00  0.00    -0.000 C 
BRANCH   3   4
ATOM      4  C   UNL     1     134.892 139.733 129.779  1.00  0.00    -0.003 C 
ATOM      5  C   UNL     1     135.139 140.319 131.169  1.00  0.00     0.004 C 
ENDBRANCH   3   4
ENDBRANCH   2   3
ENDBRANCH   1   2
BRANCH   1   6
ATOM      6  C   UNL     1     139.046 140.180 129.672  1.00  0.00     0.008 C 
BRANCH   6   7
ATOM      7  C   UNL     1     140.418 139.928 129.038  1.00  0.00     0.072 C 
BRANCH   7   8
ATOM      8  C   UNL     1     140.569 138.494 128.622  1.00  0.00     0.224 C 
ATOM      9  O   UNL     1     140.703 137.626 129.469  1.00  0.00    -0.303 OA
ENDBRANCH   7   8
ENDBRANCH   6   7
ENDBRANCH   1   6
TORSDOF 6
ENDMDL
MODEL 8
REMARK VINA RESULT:    -2.725      3.003      4.538
REMARK INTER + INTRA:          -4.115
REMARK INTER:                  -3.670
REMARK INTRA:                  -0.445
REMARK UNBOUND:                -0.434
REMARK SMILES CCCCCCCC=O
REMARK SMILES IDX 5 1 4 2 3 3 2 4 1 5 6 6 7 7 8 8 9 9
REMARK H PARENT
REMARK Flexibility Score: inf
ROOT
ATOM      1  C   UNL     1     141.012 138.412 128.823  1.00  0.00     0.000 C 
ENDROOT
BRANCH   1   2
ATOM      2  C   UNL     1     140.597 139.891 128.834  1.00  0.00     0.000 C 
BRANCH   2   3
ATOM      3  C   UNL     1     139.946 140.322 130.161  1.00  0.00    -0.000 C 
BRANCH   3   4
ATOM      4  C   UNL     1     138.468 139.923 130.316  1.00  0.00    -0.003 C 
ATOM      5  C   UNL     1     137.587 140.433 129.176  1.00  0.00     0.004 C 
ENDBRANCH   3   4
ENDBRANCH   2   3
ENDBRANCH   1   2
BRANCH   1   6
ATOM      6  C   UNL     1     140.084 137.587 127.923  1.00  0.00     0.008 C 
BRANCH   6   7
ATOM      7  C   UNL     1     139.735 136.246 128.576  1.00  0.00     0.072 C 
BRANCH   7   8
ATOM      8  C   UNL     1     140.235 136.183 129.990  1.00  0.00     0.224 C 
ATOM      9  O   UNL     1     140.590 135.116 130.462  1.00  0.00    -0.303 OA
ENDBRANCH   7   8
ENDBRANCH   6   7
ENDBRANCH   1   6
TORSDOF 6
ENDMDL
MODEL 9
REMARK VINA RESULT:    -2.718      4.357      6.144
REMARK INTER + INTRA:          -4.105
REMARK INTER:                  -3.663
REMARK INTRA:                  -0.442
REMARK UNBOUND:                -0.434
REMARK SMILES CCCCCCCC=O
REMARK SMILES IDX 5 1 4 2 3 3 2 4 1 5 6 6 7 7 8 8 9 9
REMARK H PARENT
REMARK Flexibility Score: inf
ROOT
ATOM      1  C   UNL     1     137.232 134.803 129.366  1.00  0.00     0.000 C 
ENDROOT
BRANCH   1   2
ATOM      2  C   UNL     1     138.364 133.850 128.953  1.00  0.00     0.000 C 
BRANCH   2   3
ATOM      3  C   UNL     1     139.650 134.589 128.540  1.00  0.00    -0.000 C 
BRANCH   3   4
ATOM      4  C   UNL     1     140.311 135.412 129.658  1.00  0.00    -0.003 C 
ATOM      5  C   UNL     1     140.354 136.909 129.355  1.00  0.00     0.004 C 
ENDBRANCH   3   4
ENDBRANCH   2   3
ENDBRANCH   1   2
BRANCH   1   6
ATOM      6  C   UNL     1     136.649 135.526 128.146  1.00  0.00     0.008 C 
BRANCH   6   7
ATOM      7  C   UNL     1     136.509 137.028 128.412  1.00  0.00     0.072 C 
BRANCH   7   8
ATOM      8  C   UNL     1     135.088 137.480 128.242  1.00  0.00     0.224 C 
ATOM      9  O   UNL     1     134.222 137.053 128.987  1.00  0.00    -0.303 OA
ENDBRANCH   7   8
ENDBRANCH   6   7
ENDBRANCH   1   6
TORSDOF 6
ENDMDL
