MODEL 1
REMARK VINA RESULT:    -6.296      0.000      0.000
REMARK INTER + INTRA:          -9.847
REMARK INTER:                  -9.792
REMARK INTRA:                  -0.055
REMARK UNBOUND:                -0.055
REMARK SMILES C[C@]12C[C@]3(O)O[C@H](O1)[C@@]1(COC(=O)c4ccccc4)[C@@H]3C[C@]12O[C@H]1O[C@H](CO)[C@H](O)[C@@H](O)[C@@H]1O
REMARK SMILES IDX 1 1 2 2 3 3 4 4 20 5 21 6 22 7 9 8 7 9 8 10 6 11 23 12 24 13
REMARK SMILES IDX 33 14 25 15 31 16 26 17 29 18 34 19 32 21 27 23 28 24 30 26
REMARK SMILES IDX 5 28 10 30 11 31 12 32 13 33 14 34 15 35 19 36 16 37 18 38
REMARK SMILES IDX 17 39
REMARK H PARENT 34 20 32 22 28 25 30 27 5 29
REMARK Flexibility Score: inf
ROOT
ATOM      1  C   UNL     1      -3.538  40.726  18.692  1.00  0.00     0.046 C 
ATOM      2  C   UNL     1      -2.678  39.622  18.079  1.00  0.00     0.104 C 
ATOM      3  C   UNL     1      -1.255  40.165  17.685  1.00  0.00     0.104 C 
ATOM      4  C   UNL     1      -0.509  38.886  17.168  1.00  0.00     0.175 C 
ATOM      5  C   UNL     1      -0.675  37.708  18.180  1.00  0.00     0.070 C 
ATOM      6  C   UNL     1      -1.116  38.177  19.581  1.00  0.00     0.050 C 
ATOM      7  C   UNL     1      -2.536  38.329  18.972  1.00  0.00     0.115 C 
ATOM      8  C   UNL     1      -2.125  37.356  17.866  1.00  0.00     0.096 C 
ATOM      9  C   UNL     1      -2.458  38.028  16.545  1.00  0.00     0.267 C 
ATOM     10  O   UNL     1      -3.252  39.156  16.874  1.00  0.00    -0.342 OA
ATOM     11  O   UNL     1      -1.216  38.468  16.018  1.00  0.00    -0.320 OA
ENDROOT
BRANCH   7  12
ATOM     12  O   UNL     1      -3.740  37.959  19.656  1.00  0.00    -0.339 OA
BRANCH  12  13
ATOM     13  C   UNL     1      -3.983  38.656  20.869  1.00  0.00     0.282 C 
ATOM     14  C   UNL     1      -3.688  37.750  22.088  1.00  0.00     0.202 C 
ATOM     15  O   UNL     1      -5.292  39.207  20.918  1.00  0.00    -0.341 OA
ATOM     16  C   UNL     1      -4.812  36.720  22.357  1.00  0.00     0.179 C 
ATOM     17  C   UNL     1      -6.288  38.198  20.933  1.00  0.00     0.178 C 
ATOM     18  C   UNL     1      -6.208  37.358  22.226  1.00  0.00     0.177 C 
BRANCH  14  19
ATOM     19  O   UNL     1      -3.519  38.564  23.222  1.00  0.00    -0.385 OA
ATOM     20  H   UNL     1      -4.426  38.798  23.549  1.00  0.00     0.211 HD
ENDBRANCH  14  19
BRANCH  16  21
ATOM     21  O   UNL     1      -4.683  35.581  21.540  1.00  0.00    -0.387 OA
ATOM     22  H   UNL     1      -5.236  35.708  20.730  1.00  0.00     0.211 HD
ENDBRANCH  16  21
BRANCH  17  23
ATOM     23  C   UNL     1      -7.665  38.848  20.746  1.00  0.00     0.191 C 
BRANCH  23  24
ATOM     24  O   UNL     1      -7.885  39.834  21.717  1.00  0.00    -0.394 OA
ATOM     25  H   UNL     1      -8.006  40.686  21.223  1.00  0.00     0.210 HD
ENDBRANCH  23  24
ENDBRANCH  17  23
BRANCH  18  26
ATOM     26  O   UNL     1      -6.445  38.168  23.351  1.00  0.00    -0.387 OA
ATOM     27  H   UNL     1      -5.706  38.005  23.993  1.00  0.00     0.211 HD
ENDBRANCH  18  26
ENDBRANCH  12  13
ENDBRANCH   7  12
BRANCH   4  28
ATOM     28  O   UNL     1       0.833  39.141  16.855  1.00  0.00    -0.365 OA
ATOM     29  H   UNL     1       1.289  38.261  16.818  1.00  0.00     0.214 HD
ENDBRANCH   4  28
BRANCH   8  30
ATOM     30  C   UNL     1      -2.489  35.863  18.016  1.00  0.00     0.249 C 
BRANCH  30  31
ATOM     31  O   UNL     1      -1.306  35.064  18.054  1.00  0.00    -0.461 OA
BRANCH  31  32
ATOM     32  C   UNL     1      -0.795  34.363  16.956  1.00  0.00     0.338 C 
ATOM     33  O   UNL     1      -0.545  34.965  15.875  1.00  0.00    -0.246 OA
BRANCH  32  34
ATOM     34  C   UNL     1      -0.550  32.908  17.067  1.00  0.00     0.060 A 
ATOM     35  C   UNL     1       0.373  32.267  16.218  1.00  0.00     0.015 A 
ATOM     36  C   UNL     1      -1.234  32.146  18.032  1.00  0.00     0.015 A 
ATOM     37  C   UNL     1       0.603  30.892  16.334  1.00  0.00     0.001 A 
ATOM     38  C   UNL     1      -0.998  30.772  18.144  1.00  0.00     0.001 A 
ATOM     39  C   UNL     1      -0.081  30.146  17.297  1.00  0.00     0.000 A 
ENDBRANCH  32  34
ENDBRANCH  31  32
ENDBRANCH  30  31
ENDBRANCH   8  30
TORSDOF 12
ENDMDL
MODEL 2
REMARK VINA RESULT:    -6.214      2.922      8.506
REMARK INTER + INTRA:          -9.720
REMARK INTER:                  -9.551
REMARK INTRA:                  -0.169
REMARK UNBOUND:                -0.055
REMARK SMILES C[C@]12C[C@]3(O)O[C@H](O1)[C@@]1(COC(=O)c4ccccc4)[C@@H]3C[C@]12O[C@H]1O[C@H](CO)[C@H](O)[C@@H](O)[C@@H]1O
REMARK SMILES IDX 1 1 2 2 3 3 4 4 20 5 21 6 22 7 9 8 7 9 8 10 6 11 23 12 24 13
REMARK SMILES IDX 33 14 25 15 31 16 26 17 29 18 34 19 32 21 27 23 28 24 30 26
REMARK SMILES IDX 5 28 10 30 11 31 12 32 13 33 14 34 15 35 19 36 16 37 18 38
REMARK SMILES IDX 17 39
REMARK H PARENT 34 20 32 22 28 25 30 27 5 29
REMARK Flexibility Score: inf
ROOT
ATOM      1  C   UNL     1      -5.975  37.736  18.132  1.00  0.00     0.046 C 
ATOM      2  C   UNL     1      -5.967  38.214  19.583  1.00  0.00     0.104 C 
ATOM      3  C   UNL     1      -6.550  37.115  20.545  1.00  0.00     0.104 C 
ATOM      4  C   UNL     1      -6.375  37.750  21.969  1.00  0.00     0.175 C 
ATOM      5  C   UNL     1      -4.923  38.299  22.149  1.00  0.00     0.070 C 
ATOM      6  C   UNL     1      -3.929  37.717  21.126  1.00  0.00     0.050 C 
ATOM      7  C   UNL     1      -4.560  38.701  20.104  1.00  0.00     0.115 C 
ATOM      8  C   UNL     1      -5.054  39.545  21.280  1.00  0.00     0.096 C 
ATOM      9  C   UNL     1      -6.541  39.769  21.065  1.00  0.00     0.267 C 
ATOM     10  O   UNL     1      -6.809  39.339  19.740  1.00  0.00    -0.342 OA
ATOM     11  O   UNL     1      -7.193  38.902  21.978  1.00  0.00    -0.320 OA
ENDROOT
BRANCH   7  12
ATOM     12  O   UNL     1      -3.804  39.438  19.136  1.00  0.00    -0.339 OA
BRANCH  12  13
ATOM     13  C   UNL     1      -2.397  39.251  19.199  1.00  0.00     0.282 C 
ATOM     14  C   UNL     1      -1.666  40.332  18.366  1.00  0.00     0.202 C 
ATOM     15  O   UNL     1      -2.012  37.936  18.823  1.00  0.00    -0.341 OA
ATOM     16  C   UNL     1      -1.718  40.054  16.844  1.00  0.00     0.179 C 
ATOM     17  C   UNL     1      -2.301  37.673  17.460  1.00  0.00     0.178 C 
ATOM     18  C   UNL     1      -1.455  38.569  16.530  1.00  0.00     0.177 C 
BRANCH  14  19
ATOM     19  O   UNL     1      -0.325  40.388  18.785  1.00  0.00    -0.385 OA
ATOM     20  H   UNL     1       0.179  40.876  18.082  1.00  0.00     0.211 HD
ENDBRANCH  14  19
BRANCH  16  21
ATOM     21  O   UNL     1      -2.924  40.500  16.273  1.00  0.00    -0.387 OA
ATOM     22  H   UNL     1      -3.342  39.747  15.785  1.00  0.00     0.211 HD
ENDBRANCH  16  21
BRANCH  17  23
ATOM     23  C   UNL     1      -2.087  36.179  17.181  1.00  0.00     0.191 C 
BRANCH  23  24
ATOM     24  O   UNL     1      -0.868  35.743  17.718  1.00  0.00    -0.394 OA
ATOM     25  H   UNL     1      -0.996  35.711  18.702  1.00  0.00     0.210 HD
ENDBRANCH  23  24
ENDBRANCH  17  23
BRANCH  18  26
ATOM     26  O   UNL     1      -0.086  38.302  16.706  1.00  0.00    -0.387 OA
ATOM     27  H   UNL     1       0.117  37.463  16.217  1.00  0.00     0.211 HD
ENDBRANCH  18  26
ENDBRANCH  12  13
ENDBRANCH   7  12
BRANCH   4  28
ATOM     28  O   UNL     1      -6.749  36.871  22.994  1.00  0.00    -0.365 OA
ATOM     29  H   UNL     1      -7.385  36.222  22.596  1.00  0.00     0.214 HD
ENDBRANCH   4  28
BRANCH   8  30
ATOM     30  C   UNL     1      -4.211  40.757  21.732  1.00  0.00     0.249 C 
BRANCH  30  31
ATOM     31  O   UNL     1      -4.423  41.020  23.119  1.00  0.00    -0.461 OA
BRANCH  31  32
ATOM     32  C   UNL     1      -3.501  40.715  24.128  1.00  0.00     0.338 C 
ATOM     33  O   UNL     1      -2.331  40.346  23.830  1.00  0.00    -0.246 OA
BRANCH  32  34
ATOM     34  C   UNL     1      -3.905  40.824  25.546  1.00  0.00     0.060 A 
ATOM     35  C   UNL     1      -5.253  41.030  25.897  1.00  0.00     0.015 A 
ATOM     36  C   UNL     1      -2.943  40.713  26.568  1.00  0.00     0.015 A 
ATOM     37  C   UNL     1      -5.627  41.125  27.241  1.00  0.00     0.001 A 
ATOM     38  C   UNL     1      -3.324  40.808  27.910  1.00  0.00     0.001 A 
ATOM     39  C   UNL     1      -4.663  41.013  28.246  1.00  0.00     0.000 A 
ENDBRANCH  32  34
ENDBRANCH  31  32
ENDBRANCH  30  31
ENDBRANCH   8  30
TORSDOF 12
ENDMDL
MODEL 3
REMARK VINA RESULT:    -4.828      1.837      2.633
REMARK INTER + INTRA:          -7.564
REMARK INTER:                  -8.060
REMARK INTRA:                   0.496
REMARK UNBOUND:                -0.055
REMARK SMILES C[C@]12C[C@]3(O)O[C@H](O1)[C@@]1(COC(=O)c4ccccc4)[C@@H]3C[C@]12O[C@H]1O[C@H](CO)[C@H](O)[C@@H](O)[C@@H]1O
REMARK SMILES IDX 1 1 2 2 3 3 4 4 20 5 21 6 22 7 9 8 7 9 8 10 6 11 23 12 24 13
REMARK SMILES IDX 33 14 25 15 31 16 26 17 29 18 34 19 32 21 27 23 28 24 30 26
REMARK SMILES IDX 5 28 10 30 11 31 12 32 13 33 14 34 15 35 19 36 16 37 18 38
REMARK SMILES IDX 17 39
REMARK H PARENT 34 20 32 22 28 25 30 27 5 29
REMARK Flexibility Score: inf
ROOT
ATOM      1  C   UNL     1      -2.093  40.444  21.895  1.00  0.00     0.046 C 
ATOM      2  C   UNL     1      -2.040  40.241  20.382  1.00  0.00     0.104 C 
ATOM      3  C   UNL     1      -0.626  40.620  19.808  1.00  0.00     0.104 C 
ATOM      4  C   UNL     1      -0.744  40.263  18.285  1.00  0.00     0.175 C 
ATOM      5  C   UNL     1      -1.337  38.829  18.102  1.00  0.00     0.070 C 
ATOM      6  C   UNL     1      -1.243  37.973  19.380  1.00  0.00     0.050 C 
ATOM      7  C   UNL     1      -2.453  38.796  19.899  1.00  0.00     0.115 C 
ATOM      8  C   UNL     1      -2.787  39.148  18.449  1.00  0.00     0.096 C 
ATOM      9  C   UNL     1      -2.925  40.660  18.385  1.00  0.00     0.267 C 
ATOM     10  O   UNL     1      -2.954  41.103  19.732  1.00  0.00    -0.342 OA
ATOM     11  O   UNL     1      -1.736  41.125  17.766  1.00  0.00    -0.320 OA
ENDROOT
BRANCH   7  12
ATOM     12  O   UNL     1      -3.548  38.230  20.629  1.00  0.00    -0.339 OA
BRANCH  12  13
ATOM     13  C   UNL     1      -4.421  39.172  21.235  1.00  0.00     0.282 C 
ATOM     14  C   UNL     1      -4.787  38.730  22.673  1.00  0.00     0.202 C 
ATOM     15  O   UNL     1      -5.574  39.422  20.444  1.00  0.00    -0.341 OA
ATOM     16  C   UNL     1      -5.848  37.603  22.702  1.00  0.00     0.179 C 
ATOM     17  C   UNL     1      -6.392  38.270  20.326  1.00  0.00     0.178 C 
ATOM     18  C   UNL     1      -6.982  37.865  21.694  1.00  0.00     0.177 C 
BRANCH  14  19
ATOM     19  O   UNL     1      -5.273  39.847  23.375  1.00  0.00    -0.385 OA
ATOM     20  H   UNL     1      -5.955  39.515  24.015  1.00  0.00     0.211 HD
ENDBRANCH  14  19
BRANCH  16  21
ATOM     21  O   UNL     1      -5.267  36.335  22.513  1.00  0.00    -0.387 OA
ATOM     22  H   UNL     1      -5.890  35.776  21.985  1.00  0.00     0.211 HD
ENDBRANCH  16  21
BRANCH  17  23
ATOM     23  C   UNL     1      -7.480  38.532  19.277  1.00  0.00     0.191 C 
BRANCH  23  24
ATOM     24  O   UNL     1      -7.079  38.068  18.017  1.00  0.00    -0.394 OA
ATOM     25  H   UNL     1      -6.120  38.304  17.929  1.00  0.00     0.210 HD
ENDBRANCH  23  24
ENDBRANCH  17  23
BRANCH  18  26
ATOM     26  O   UNL     1      -7.806  38.890  22.193  1.00  0.00    -0.387 OA
ATOM     27  H   UNL     1      -8.669  38.839  21.705  1.00  0.00     0.211 HD
ENDBRANCH  18  26
ENDBRANCH  12  13
ENDBRANCH   7  12
BRANCH   4  28
ATOM     28  O   UNL     1       0.466  40.437  17.601  1.00  0.00    -0.365 OA
ATOM     29  H   UNL     1       1.173  40.024  18.163  1.00  0.00     0.214 HD
ENDBRANCH   4  28
BRANCH   8  30
ATOM     30  C   UNL     1      -3.845  38.306  17.704  1.00  0.00     0.249 C 
BRANCH  30  31
ATOM     31  O   UNL     1      -3.287  37.747  16.514  1.00  0.00    -0.461 OA
BRANCH  31  32
ATOM     32  C   UNL     1      -3.252  36.377  16.230  1.00  0.00     0.338 C 
ATOM     33  O   UNL     1      -4.304  35.773  15.876  1.00  0.00    -0.246 OA
BRANCH  32  34
ATOM     34  C   UNL     1      -1.977  35.636  16.349  1.00  0.00     0.060 A 
ATOM     35  C   UNL     1      -0.773  36.199  15.885  1.00  0.00     0.015 A 
ATOM     36  C   UNL     1      -1.952  34.359  16.937  1.00  0.00     0.015 A 
ATOM     37  C   UNL     1       0.429  35.495  16.008  1.00  0.00     0.001 A 
ATOM     38  C   UNL     1      -0.746  33.660  17.058  1.00  0.00     0.001 A 
ATOM     39  C   UNL     1       0.443  34.227  16.594  1.00  0.00     0.000 A 
ENDBRANCH  32  34
ENDBRANCH  31  32
ENDBRANCH  30  31
ENDBRANCH   8  30
TORSDOF 12
ENDMDL
MODEL 4
REMARK VINA RESULT:    -4.201     11.097     15.427
REMARK INTER + INTRA:          -6.588
REMARK INTER:                  -8.159
REMARK INTRA:                   1.571
REMARK UNBOUND:                -0.055
REMARK SMILES C[C@]12C[C@]3(O)O[C@H](O1)[C@@]1(COC(=O)c4ccccc4)[C@@H]3C[C@]12O[C@H]1O[C@H](CO)[C@H](O)[C@@H](O)[C@@H]1O
REMARK SMILES IDX 1 1 2 2 3 3 4 4 20 5 21 6 22 7 9 8 7 9 8 10 6 11 23 12 24 13
REMARK SMILES IDX 33 14 25 15 31 16 26 17 29 18 34 19 32 21 27 23 28 24 30 26
REMARK SMILES IDX 5 28 10 30 11 31 12 32 13 33 14 34 15 35 19 36 16 37 18 38
REMARK SMILES IDX 17 39
REMARK H PARENT 34 20 32 22 28 25 30 27 5 29
REMARK Flexibility Score: inf
ROOT
ATOM      1  C   UNL     1      -2.779  41.124  32.087  1.00  0.00     0.046 C 
ATOM      2  C   UNL     1      -3.202  40.406  33.367  1.00  0.00     0.104 C 
ATOM      3  C   UNL     1      -4.429  41.124  34.040  1.00  0.00     0.104 C 
ATOM      4  C   UNL     1      -4.762  40.202  35.265  1.00  0.00     0.175 C 
ATOM      5  C   UNL     1      -4.841  38.707  34.819  1.00  0.00     0.070 C 
ATOM      6  C   UNL     1      -5.020  38.542  33.297  1.00  0.00     0.050 C 
ATOM      7  C   UNL     1      -3.505  38.868  33.186  1.00  0.00     0.115 C 
ATOM      8  C   UNL     1      -3.347  38.452  34.649  1.00  0.00     0.096 C 
ATOM      9  C   UNL     1      -2.630  39.590  35.355  1.00  0.00     0.267 C 
ATOM     10  O   UNL     1      -2.165  40.450  34.327  1.00  0.00    -0.342 OA
ATOM     11  O   UNL     1      -3.629  40.261  36.107  1.00  0.00    -0.320 OA
ENDROOT
BRANCH   7  12
ATOM     12  O   UNL     1      -2.610  38.200  32.290  1.00  0.00    -0.339 OA
BRANCH  12  13
ATOM     13  C   UNL     1      -3.227  37.575  31.174  1.00  0.00     0.282 C 
ATOM     14  C   UNL     1      -2.174  37.215  30.099  1.00  0.00     0.202 C 
ATOM     15  O   UNL     1      -4.289  38.354  30.642  1.00  0.00    -0.341 OA
ATOM     16  C   UNL     1      -1.722  38.441  29.267  1.00  0.00     0.179 C 
ATOM     17  C   UNL     1      -3.823  39.576  30.096  1.00  0.00     0.178 C 
ATOM     18  C   UNL     1      -2.917  39.328  28.870  1.00  0.00     0.177 C 
BRANCH  14  19
ATOM     19  O   UNL     1      -2.723  36.246  29.241  1.00  0.00    -0.385 OA
ATOM     20  H   UNL     1      -3.703  36.243  29.394  1.00  0.00     0.211 HD
ENDBRANCH  14  19
BRANCH  16  21
ATOM     21  O   UNL     1      -0.723  39.180  29.928  1.00  0.00    -0.387 OA
ATOM     22  H   UNL     1      -1.145  39.706  30.652  1.00  0.00     0.211 HD
ENDBRANCH  16  21
BRANCH  17  23
ATOM     23  C   UNL     1      -5.026  40.467  29.759  1.00  0.00     0.191 C 
BRANCH  23  24
ATOM     24  O   UNL     1      -6.228  39.771  29.942  1.00  0.00    -0.394 OA
ATOM     25  H   UNL     1      -6.952  40.441  29.848  1.00  0.00     0.210 HD
ENDBRANCH  23  24
ENDBRANCH  17  23
BRANCH  18  26
ATOM     26  O   UNL     1      -3.641  38.686  27.850  1.00  0.00    -0.387 OA
ATOM     27  H   UNL     1      -4.006  37.845  28.231  1.00  0.00     0.211 HD
ENDBRANCH  18  26
ENDBRANCH  12  13
ENDBRANCH   7  12
BRANCH   4  28
ATOM     28  O   UNL     1      -5.909  40.621  35.952  1.00  0.00    -0.365 OA
ATOM     29  H   UNL     1      -5.756  40.418  36.911  1.00  0.00     0.214 HD
ENDBRANCH   4  28
BRANCH   8  30
ATOM     30  C   UNL     1      -2.882  37.014  34.967  1.00  0.00     0.249 C 
BRANCH  30  31
ATOM     31  O   UNL     1      -3.987  36.220  35.401  1.00  0.00    -0.461 OA
BRANCH  31  32
ATOM     32  C   UNL     1      -4.621  35.255  34.610  1.00  0.00     0.338 C 
ATOM     33  O   UNL     1      -4.122  34.912  33.501  1.00  0.00    -0.246 OA
BRANCH  32  34
ATOM     34  C   UNL     1      -5.882  34.638  35.077  1.00  0.00     0.060 A 
ATOM     35  C   UNL     1      -6.949  35.438  35.528  1.00  0.00     0.015 A 
ATOM     36  C   UNL     1      -6.033  33.239  35.067  1.00  0.00     0.015 A 
ATOM     37  C   UNL     1      -8.141  34.847  35.961  1.00  0.00     0.001 A 
ATOM     38  C   UNL     1      -7.227  32.654  35.501  1.00  0.00     0.001 A 
ATOM     39  C   UNL     1      -8.279  33.457  35.947  1.00  0.00     0.000 A 
ENDBRANCH  32  34
ENDBRANCH  31  32
ENDBRANCH  30  31
ENDBRANCH   8  30
TORSDOF 12
ENDMDL
MODEL 5
REMARK VINA RESULT:    -4.020      2.507      4.116
REMARK INTER + INTRA:          -6.307
REMARK INTER:                  -7.413
REMARK INTRA:                   1.105
REMARK UNBOUND:                -0.055
REMARK SMILES C[C@]12C[C@]3(O)O[C@H](O1)[C@@]1(COC(=O)c4ccccc4)[C@@H]3C[C@]12O[C@H]1O[C@H](CO)[C@H](O)[C@@H](O)[C@@H]1O
REMARK SMILES IDX 1 1 2 2 3 3 4 4 20 5 21 6 22 7 9 8 7 9 8 10 6 11 23 12 24 13
REMARK SMILES IDX 33 14 25 15 31 16 26 17 29 18 34 19 32 21 27 23 28 24 30 26
REMARK SMILES IDX 5 28 10 30 11 31 12 32 13 33 14 34 15 35 19 36 16 37 18 38
REMARK SMILES IDX 17 39
REMARK H PARENT 34 20 32 22 28 25 30 27 5 29
REMARK Flexibility Score: inf
ROOT
ATOM      1  C   UNL     1      -5.317  36.782  21.764  1.00  0.00     0.046 C 
ATOM      2  C   UNL     1      -4.653  37.199  20.454  1.00  0.00     0.104 C 
ATOM      3  C   UNL     1      -5.711  37.324  19.297  1.00  0.00     0.104 C 
ATOM      4  C   UNL     1      -4.861  37.838  18.082  1.00  0.00     0.175 C 
ATOM      5  C   UNL     1      -3.977  39.054  18.508  1.00  0.00     0.070 C 
ATOM      6  C   UNL     1      -4.454  39.716  19.815  1.00  0.00     0.050 C 
ATOM      7  C   UNL     1      -3.791  38.517  20.546  1.00  0.00     0.115 C 
ATOM      8  C   UNL     1      -2.926  38.288  19.306  1.00  0.00     0.096 C 
ATOM      9  C   UNL     1      -3.078  36.825  18.929  1.00  0.00     0.267 C 
ATOM     10  O   UNL     1      -3.738  36.210  20.024  1.00  0.00    -0.342 OA
ATOM     11  O   UNL     1      -3.936  36.809  17.799  1.00  0.00    -0.320 OA
ENDROOT
BRANCH   7  12
ATOM     12  O   UNL     1      -3.044  38.640  21.762  1.00  0.00    -0.339 OA
BRANCH  12  13
ATOM     13  C   UNL     1      -3.106  39.916  22.383  1.00  0.00     0.282 C 
ATOM     14  C   UNL     1      -2.629  39.831  23.853  1.00  0.00     0.202 C 
ATOM     15  O   UNL     1      -4.394  40.505  22.273  1.00  0.00    -0.341 OA
ATOM     16  C   UNL     1      -3.698  39.228  24.797  1.00  0.00     0.179 C 
ATOM     17  C   UNL     1      -5.374  39.765  22.982  1.00  0.00     0.178 C 
ATOM     18  C   UNL     1      -5.100  39.794  24.502  1.00  0.00     0.177 C 
BRANCH  14  19
ATOM     19  O   UNL     1      -2.296  41.125  24.291  1.00  0.00    -0.385 OA
ATOM     20  H   UNL     1      -3.119  41.676  24.225  1.00  0.00     0.211 HD
ENDBRANCH  14  19
BRANCH  16  21
ATOM     21  O   UNL     1      -3.689  37.821  24.764  1.00  0.00    -0.387 OA
ATOM     22  H   UNL     1      -4.594  37.503  24.522  1.00  0.00     0.211 HD
ENDBRANCH  16  21
BRANCH  17  23
ATOM     23  C   UNL     1      -6.765  40.308  22.632  1.00  0.00     0.191 C 
BRANCH  23  24
ATOM     24  O   UNL     1      -7.710  39.273  22.604  1.00  0.00    -0.394 OA
ATOM     25  H   UNL     1      -8.534  39.641  23.017  1.00  0.00     0.210 HD
ENDBRANCH  23  24
ENDBRANCH  17  23
BRANCH  18  26
ATOM     26  O   UNL     1      -5.168  41.113  24.985  1.00  0.00    -0.387 OA
ATOM     27  H   UNL     1      -6.020  41.199  25.488  1.00  0.00     0.211 HD
ENDBRANCH  18  26
ENDBRANCH  12  13
ENDBRANCH   7  12
BRANCH   4  28
ATOM     28  O   UNL     1      -5.650  38.115  16.958  1.00  0.00    -0.365 OA
ATOM     29  H   UNL     1      -5.362  37.486  16.246  1.00  0.00     0.214 HD
ENDBRANCH   4  28
BRANCH   8  30
ATOM     30  C   UNL     1      -1.504  38.887  19.269  1.00  0.00     0.249 C 
BRANCH  30  31
ATOM     31  O   UNL     1      -1.278  39.556  18.028  1.00  0.00    -0.461 OA
BRANCH  31  32
ATOM     32  C   UNL     1      -0.158  39.347  17.214  1.00  0.00     0.338 C 
ATOM     33  O   UNL     1       0.563  40.321  16.861  1.00  0.00    -0.246 OA
BRANCH  32  34
ATOM     34  C   UNL     1       0.175  37.977  16.766  1.00  0.00     0.060 A 
ATOM     35  C   UNL     1       1.502  37.507  16.816  1.00  0.00     0.015 A 
ATOM     36  C   UNL     1      -0.835  37.121  16.292  1.00  0.00     0.015 A 
ATOM     37  C   UNL     1       1.807  36.208  16.398  1.00  0.00     0.001 A 
ATOM     38  C   UNL     1      -0.524  35.823  15.875  1.00  0.00     0.001 A 
ATOM     39  C   UNL     1       0.795  35.367  15.928  1.00  0.00     0.000 A 
ENDBRANCH  32  34
ENDBRANCH  31  32
ENDBRANCH  30  31
ENDBRANCH   8  30
TORSDOF 12
ENDMDL
MODEL 6
REMARK VINA RESULT:    -3.923      2.833      6.441
REMARK INTER + INTRA:          -6.157
REMARK INTER:                  -5.788
REMARK INTRA:                  -0.369
REMARK UNBOUND:                -0.055
REMARK SMILES C[C@]12C[C@]3(O)O[C@H](O1)[C@@]1(COC(=O)c4ccccc4)[C@@H]3C[C@]12O[C@H]1O[C@H](CO)[C@H](O)[C@@H](O)[C@@H]1O
REMARK SMILES IDX 1 1 2 2 3 3 4 4 20 5 21 6 22 7 9 8 7 9 8 10 6 11 23 12 24 13
REMARK SMILES IDX 33 14 25 15 31 16 26 17 29 18 34 19 32 21 27 23 28 24 30 26
REMARK SMILES IDX 5 28 10 30 11 31 12 32 13 33 14 34 15 35 19 36 16 37 18 38
REMARK SMILES IDX 17 39
REMARK H PARENT 34 20 32 22 28 25 30 27 5 29
REMARK Flexibility Score: inf
ROOT
ATOM      1  C   UNL     1      -2.000  36.374  18.198  1.00  0.00     0.046 C 
ATOM      2  C   UNL     1      -1.616  37.853  18.233  1.00  0.00     0.104 C 
ATOM      3  C   UNL     1      -1.053  38.325  16.843  1.00  0.00     0.104 C 
ATOM      4  C   UNL     1      -0.806  39.860  17.053  1.00  0.00     0.175 C 
ATOM      5  C   UNL     1      -2.062  40.534  17.692  1.00  0.00     0.070 C 
ATOM      6  C   UNL     1      -3.339  39.682  17.551  1.00  0.00     0.050 C 
ATOM      7  C   UNL     1      -2.769  38.819  18.709  1.00  0.00     0.115 C 
ATOM      8  C   UNL     1      -1.893  40.005  19.112  1.00  0.00     0.096 C 
ATOM      9  C   UNL     1      -0.469  39.485  19.215  1.00  0.00     0.267 C 
ATOM     10  O   UNL     1      -0.569  38.072  19.159  1.00  0.00    -0.342 OA
ATOM     11  O   UNL     1       0.192  39.954  18.050  1.00  0.00    -0.320 OA
ENDROOT
BRANCH   7  12
ATOM     12  O   UNL     1      -3.565  38.292  19.777  1.00  0.00    -0.339 OA
BRANCH  12  13
ATOM     13  C   UNL     1      -4.825  37.764  19.387  1.00  0.00     0.282 C 
ATOM     14  C   UNL     1      -5.762  38.894  18.896  1.00  0.00     0.202 C 
ATOM     15  O   UNL     1      -5.421  36.985  20.414  1.00  0.00    -0.341 OA
ATOM     16  C   UNL     1      -6.372  39.715  20.058  1.00  0.00     0.179 C 
ATOM     17  C   UNL     1      -5.750  37.770  21.548  1.00  0.00     0.178 C 
ATOM     18  C   UNL     1      -6.844  38.806  21.208  1.00  0.00     0.177 C 
BRANCH  14  19
ATOM     19  O   UNL     1      -6.796  38.320  18.136  1.00  0.00    -0.385 OA
ATOM     20  H   UNL     1      -7.549  38.141  18.758  1.00  0.00     0.211 HD
ENDBRANCH  14  19
BRANCH  16  21
ATOM     21  O   UNL     1      -5.489  40.712  20.513  1.00  0.00    -0.387 OA
ATOM     22  H   UNL     1      -5.841  41.086  21.358  1.00  0.00     0.211 HD
ENDBRANCH  16  21
BRANCH  17  23
ATOM     23  C   UNL     1      -6.163  36.844  22.699  1.00  0.00     0.191 C 
BRANCH  23  24
ATOM     24  O   UNL     1      -7.204  37.412  23.445  1.00  0.00    -0.394 OA
ATOM     25  H   UNL     1      -7.825  37.818  22.788  1.00  0.00     0.210 HD
ENDBRANCH  23  24
ENDBRANCH  17  23
BRANCH  18  26
ATOM     26  O   UNL     1      -8.028  38.156  20.817  1.00  0.00    -0.387 OA
ATOM     27  H   UNL     1      -8.114  38.265  19.834  1.00  0.00     0.211 HD
ENDBRANCH  18  26
ENDBRANCH  12  13
ENDBRANCH   7  12
BRANCH   4  28
ATOM     28  O   UNL     1      -0.390  40.500  15.879  1.00  0.00    -0.365 OA
ATOM     29  H   UNL     1       0.287  39.910  15.457  1.00  0.00     0.214 HD
ENDBRANCH   4  28
BRANCH   8  30
ATOM     30  C   UNL     1      -2.387  40.948  20.231  1.00  0.00     0.249 C 
BRANCH  30  31
ATOM     31  O   UNL     1      -2.584  40.219  21.443  1.00  0.00    -0.461 OA
BRANCH  31  32
ATOM     32  C   UNL     1      -2.120  40.637  22.697  1.00  0.00     0.338 C 
ATOM     33  O   UNL     1      -0.953  41.104  22.820  1.00  0.00    -0.246 OA
BRANCH  32  34
ATOM     34  C   UNL     1      -3.003  40.527  23.878  1.00  0.00     0.060 A 
ATOM     35  C   UNL     1      -2.557  40.933  25.150  1.00  0.00     0.015 A 
ATOM     36  C   UNL     1      -4.310  40.022  23.742  1.00  0.00     0.015 A 
ATOM     37  C   UNL     1      -3.401  40.832  26.261  1.00  0.00     0.001 A 
ATOM     38  C   UNL     1      -5.149  39.924  24.856  1.00  0.00     0.001 A 
ATOM     39  C   UNL     1      -4.696  40.329  26.113  1.00  0.00     0.000 A 
ENDBRANCH  32  34
ENDBRANCH  31  32
ENDBRANCH  30  31
ENDBRANCH   8  30
TORSDOF 12
ENDMDL
MODEL 7
REMARK VINA RESULT:    -3.889     11.239     15.610
REMARK INTER + INTRA:          -6.104
REMARK INTER:                  -8.253
REMARK INTRA:                   2.149
REMARK UNBOUND:                -0.055
REMARK SMILES C[C@]12C[C@]3(O)O[C@H](O1)[C@@]1(COC(=O)c4ccccc4)[C@@H]3C[C@]12O[C@H]1O[C@H](CO)[C@H](O)[C@@H](O)[C@@H]1O
REMARK SMILES IDX 1 1 2 2 3 3 4 4 20 5 21 6 22 7 9 8 7 9 8 10 6 11 23 12 24 13
REMARK SMILES IDX 33 14 25 15 31 16 26 17 29 18 34 19 32 21 27 23 28 24 30 26
REMARK SMILES IDX 5 28 10 30 11 31 12 32 13 33 14 34 15 35 19 36 16 37 18 38
REMARK SMILES IDX 17 39
REMARK H PARENT 34 20 32 22 28 25 30 27 5 29
REMARK Flexibility Score: inf
ROOT
ATOM      1  C   UNL     1      -4.373  41.125  31.608  1.00  0.00     0.046 C 
ATOM      2  C   UNL     1      -4.367  40.537  33.018  1.00  0.00     0.104 C 
ATOM      3  C   UNL     1      -5.547  41.120  33.879  1.00  0.00     0.104 C 
ATOM      4  C   UNL     1      -5.425  40.342  35.236  1.00  0.00     0.175 C 
ATOM      5  C   UNL     1      -5.290  38.807  34.977  1.00  0.00     0.070 C 
ATOM      6  C   UNL     1      -5.743  38.394  33.562  1.00  0.00     0.050 C 
ATOM      7  C   UNL     1      -4.383  38.960  33.072  1.00  0.00     0.115 C 
ATOM      8  C   UNL     1      -3.844  38.795  34.493  1.00  0.00     0.096 C 
ATOM      9  C   UNL     1      -3.243  40.131  34.893  1.00  0.00     0.267 C 
ATOM     10  O   UNL     1      -3.184  40.900  33.703  1.00  0.00    -0.342 OA
ATOM     11  O   UNL     1      -4.178  40.719  35.783  1.00  0.00    -0.320 OA
ENDROOT
BRANCH   7  12
ATOM     12  O   UNL     1      -3.576  38.336  32.066  1.00  0.00    -0.339 OA
BRANCH  12  13
ATOM     13  C   UNL     1      -3.181  39.183  30.997  1.00  0.00     0.282 C 
ATOM     14  C   UNL     1      -3.021  38.372  29.689  1.00  0.00     0.202 C 
ATOM     15  O   UNL     1      -2.013  39.931  31.307  1.00  0.00    -0.341 OA
ATOM     16  C   UNL     1      -1.703  37.560  29.643  1.00  0.00     0.179 C 
ATOM     17  C   UNL     1      -0.882  39.094  31.477  1.00  0.00     0.178 C 
ATOM     18  C   UNL     1      -0.509  38.389  30.155  1.00  0.00     0.177 C 
BRANCH  14  19
ATOM     19  O   UNL     1      -3.059  39.262  28.601  1.00  0.00    -0.385 OA
ATOM     20  H   UNL     1      -3.429  38.762  27.828  1.00  0.00     0.211 HD
ENDBRANCH  14  19
BRANCH  16  21
ATOM     21  O   UNL     1      -1.818  36.337  30.330  1.00  0.00    -0.387 OA
ATOM     22  H   UNL     1      -0.991  36.186  30.850  1.00  0.00     0.211 HD
ENDBRANCH  16  21
BRANCH  17  23
ATOM     23  C   UNL     1       0.278  39.926  32.039  1.00  0.00     0.191 C 
BRANCH  23  24
ATOM     24  O   UNL     1       1.471  39.639  31.361  1.00  0.00    -0.394 OA
ATOM     25  H   UNL     1       2.197  39.726  32.031  1.00  0.00     0.210 HD
ENDBRANCH  23  24
ENDBRANCH  17  23
BRANCH  18  26
ATOM     26  O   UNL     1      -0.161  39.337  29.176  1.00  0.00    -0.387 OA
ATOM     27  H   UNL     1       0.795  39.566  29.313  1.00  0.00     0.211 HD
ENDBRANCH  18  26
ENDBRANCH  12  13
ENDBRANCH   7  12
BRANCH   4  28
ATOM     28  O   UNL     1      -6.465  40.648  36.122  1.00  0.00    -0.365 OA
ATOM     29  H   UNL     1      -6.275  41.553  36.483  1.00  0.00     0.214 HD
ENDBRANCH   4  28
BRANCH   8  30
ATOM     30  C   UNL     1      -3.042  37.523  34.841  1.00  0.00     0.249 C 
BRANCH  30  31
ATOM     31  O   UNL     1      -3.922  36.481  35.266  1.00  0.00    -0.461 OA
BRANCH  31  32
ATOM     32  C   UNL     1      -4.478  35.523  34.410  1.00  0.00     0.338 C 
ATOM     33  O   UNL     1      -4.026  35.375  33.240  1.00  0.00    -0.246 OA
BRANCH  32  34
ATOM     34  C   UNL     1      -5.601  34.684  34.882  1.00  0.00     0.060 A 
ATOM     35  C   UNL     1      -5.588  33.290  34.688  1.00  0.00     0.015 A 
ATOM     36  C   UNL     1      -6.697  35.272  35.541  1.00  0.00     0.015 A 
ATOM     37  C   UNL     1      -6.651  32.503  35.144  1.00  0.00     0.001 A 
ATOM     38  C   UNL     1      -7.756  34.480  35.995  1.00  0.00     0.001 A 
ATOM     39  C   UNL     1      -7.734  33.098  35.797  1.00  0.00     0.000 A 
ENDBRANCH  32  34
ENDBRANCH  31  32
ENDBRANCH  30  31
ENDBRANCH   8  30
TORSDOF 12
ENDMDL
