MODEL 1
REMARK VINA RESULT:     5.013      0.000      0.000
REMARK INTER + INTRA:           7.395
REMARK INTER:                   7.651
REMARK INTRA:                  -0.256
REMARK UNBOUND:                -0.256
REMARK SMILES O=C([O-])CCCCCCCCC(=O)[O-]
REMARK SMILES IDX 7 1 6 2 5 3 4 4 2 5 1 6 3 7 8 8 9 9 10 10 11 11 12 12 13 13
REMARK SMILES IDX 14 14
REMARK H PARENT
REMARK Flexibility Score: inf
ROOT
ATOM      1  C   UNL     1     -34.407  14.372  17.907  1.00  0.00     0.000 C 
ENDROOT
BRANCH   1   2
ATOM      2  C   UNL     1     -33.746  13.252  17.084  1.00  0.00     0.000 C 
BRANCH   2   3
ATOM      3  C   UNL     1     -33.610  11.903  17.813  1.00  0.00     0.006 C 
BRANCH   3   4
ATOM      4  C   UNL     1     -32.848  12.015  19.140  1.00  0.00     0.053 C 
BRANCH   4   5
ATOM      5  C   UNL     1     -33.677  11.479  20.264  1.00  0.00     0.041 C 
ATOM      6  O   UNL     1     -34.128  12.256  21.146  1.00  0.00    -0.550 OA
ATOM      7  O   UNL     1     -33.992  10.126  20.312  1.00  0.00    -0.550 OA
ENDBRANCH   4   5
ENDBRANCH   3   4
ENDBRANCH   2   3
ENDBRANCH   1   2
BRANCH   1   8
ATOM      8  C   UNL     1     -34.943  15.519  17.038  1.00  0.00     0.000 C 
BRANCH   8   9
ATOM      9  C   UNL     1     -35.169  16.785  17.873  1.00  0.00     0.000 C 
BRANCH   9  10
ATOM     10  C   UNL     1     -36.659  16.973  18.196  1.00  0.00     0.006 C 
BRANCH  10  11
ATOM     11  C   UNL     1     -37.494  15.741  17.821  1.00  0.00     0.053 C 
BRANCH  11  12
ATOM     12  C   UNL     1     -38.829  15.748  18.498  1.00  0.00     0.041 C 
ATOM     13  O   UNL     1     -38.997  15.119  19.577  1.00  0.00    -0.550 OA
ATOM     14  O   UNL     1     -39.900  16.420  17.921  1.00  0.00    -0.550 OA
ENDBRANCH  11  12
ENDBRANCH  10  11
ENDBRANCH   9  10
ENDBRANCH   8   9
ENDBRANCH   1   8
TORSDOF 9
ENDMDL
MODEL 2
REMARK VINA RESULT:     5.146      0.078      5.990
REMARK INTER + INTRA:           7.598
REMARK INTER:                   7.880
REMARK INTRA:                  -0.282
REMARK UNBOUND:                -0.256
REMARK SMILES O=C([O-])CCCCCCCCC(=O)[O-]
REMARK SMILES IDX 7 1 6 2 5 3 4 4 2 5 1 6 3 7 8 8 9 9 10 10 11 11 12 12 13 13
REMARK SMILES IDX 14 14
REMARK H PARENT
REMARK Flexibility Score: inf
ROOT
ATOM      1  C   UNL     1     -34.832  15.477  17.003  1.00  0.00     0.000 C 
ENDROOT
BRANCH   1   2
ATOM      2  C   UNL     1     -35.160  16.743  17.815  1.00  0.00     0.000 C 
BRANCH   2   3
ATOM      3  C   UNL     1     -36.641  16.901  18.204  1.00  0.00     0.006 C 
BRANCH   3   4
ATOM      4  C   UNL     1     -37.505  15.713  17.764  1.00  0.00     0.053 C 
BRANCH   4   5
ATOM      5  C   UNL     1     -38.810  15.718  18.495  1.00  0.00     0.041 C 
ATOM      6  O   UNL     1     -38.900  15.195  19.636  1.00  0.00    -0.550 OA
ATOM      7  O   UNL     1     -39.918  16.344  17.936  1.00  0.00    -0.550 OA
ENDBRANCH   4   5
ENDBRANCH   3   4
ENDBRANCH   2   3
ENDBRANCH   1   2
BRANCH   1   8
ATOM      8  C   UNL     1     -34.387  14.300  17.883  1.00  0.00     0.000 C 
BRANCH   8   9
ATOM      9  C   UNL     1     -33.641  13.246  17.055  1.00  0.00     0.000 C 
BRANCH   9  10
ATOM     10  C   UNL     1     -33.596  11.898  17.792  1.00  0.00     0.006 C 
BRANCH  10  11
ATOM     11  C   UNL     1     -32.846  11.991  19.127  1.00  0.00     0.053 C 
BRANCH  11  12
ATOM     12  C   UNL     1     -33.681  11.500  20.269  1.00  0.00     0.041 C 
ATOM     13  O   UNL     1     -34.081  12.302  21.154  1.00  0.00    -0.550 OA
ATOM     14  O   UNL     1     -33.989  10.149  20.376  1.00  0.00    -0.550 OA
ENDBRANCH  11  12
ENDBRANCH  10  11
ENDBRANCH   9  10
ENDBRANCH   8   9
ENDBRANCH   1   8
TORSDOF 9
ENDMDL
MODEL 3
REMARK VINA RESULT:     6.397      2.213      2.753
REMARK INTER + INTRA:           9.506
REMARK INTER:                   9.570
REMARK INTRA:                  -0.063
REMARK UNBOUND:                -0.256
REMARK SMILES O=C([O-])CCCCCCCCC(=O)[O-]
REMARK SMILES IDX 7 1 6 2 5 3 4 4 2 5 1 6 3 7 8 8 9 9 10 10 11 11 12 12 13 13
REMARK SMILES IDX 14 14
REMARK H PARENT
REMARK Flexibility Score: inf
ROOT
ATOM      1  C   UNL     1     -33.727  13.234  16.963  1.00  0.00     0.000 C 
ENDROOT
BRANCH   1   2
ATOM      2  C   UNL     1     -32.782  12.311  17.754  1.00  0.00     0.000 C 
BRANCH   2   3
ATOM      3  C   UNL     1     -33.157  12.110  19.233  1.00  0.00     0.006 C 
BRANCH   3   4
ATOM      4  C   UNL     1     -33.505  10.654  19.570  1.00  0.00     0.053 C 
BRANCH   4   5
ATOM      5  C   UNL     1     -33.946  10.539  20.995  1.00  0.00     0.041 C 
ATOM      6  O   UNL     1     -34.018   9.410  21.547  1.00  0.00    -0.550 OA
ATOM      7  O   UNL     1     -34.230  11.684  21.729  1.00  0.00    -0.550 OA
ENDBRANCH   4   5
ENDBRANCH   3   4
ENDBRANCH   2   3
ENDBRANCH   1   2
BRANCH   1   8
ATOM      8  C   UNL     1     -34.381  14.313  17.839  1.00  0.00     0.000 C 
BRANCH   8   9
ATOM      9  C   UNL     1     -35.092  15.364  16.977  1.00  0.00     0.000 C 
BRANCH   9  10
ATOM     10  C   UNL     1     -36.501  15.656  17.516  1.00  0.00     0.006 C 
BRANCH  10  11
ATOM     11  C   UNL     1     -36.605  17.054  18.141  1.00  0.00     0.053 C 
BRANCH  11  12
ATOM     12  C   UNL     1     -35.255  17.645  18.407  1.00  0.00     0.041 C 
ATOM     13  O   UNL     1     -34.622  17.337  19.452  1.00  0.00    -0.550 OA
ATOM     14  O   UNL     1     -34.709  18.564  17.519  1.00  0.00    -0.550 OA
ENDBRANCH  11  12
ENDBRANCH  10  11
ENDBRANCH   9  10
ENDBRANCH   8   9
ENDBRANCH   1   8
TORSDOF 9
ENDMDL
