MODEL 1
REMARK VINA RESULT:    -5.655      0.000      0.000
REMARK INTER + INTRA:          -7.015
REMARK INTER:                  -6.812
REMARK INTRA:                  -0.203
REMARK UNBOUND:                -0.203
REMARK SMILES O=c1c(O)c(-c2ccc(O)c(O)c2)oc2cc(O)cc(O)c12
REMARK SMILES IDX 5 1 3 2 2 3 1 4 22 5 20 6 19 7 17 8 16 9 15 10 14 11 6 12
REMARK SMILES IDX 7 13 8 14 9 15 13 16 11 17 10 18 12 20 4 22 21 24 18 26
REMARK H PARENT 10 19 12 21 4 23 21 25 18 27
REMARK Flexibility Score: inf
ROOT
ATOM      1  C   UNL     1     176.015 169.346 170.698  1.00  0.00     0.180 A 
ATOM      2  C   UNL     1     175.024 169.535 169.719  1.00  0.00     0.208 A 
ATOM      3  C   UNL     1     174.714 168.476 168.851  1.00  0.00     0.238 A 
ATOM      4  O   UNL     1     173.788 168.634 168.012  1.00  0.00    -0.285 OA
ATOM      5  C   UNL     1     175.410 167.248 168.960  1.00  0.00     0.111 A 
ATOM      6  C   UNL     1     175.205 166.122 168.107  1.00  0.00     0.134 A 
ATOM      7  C   UNL     1     175.856 164.914 168.389  1.00  0.00     0.093 A 
ATOM      8  C   UNL     1     176.750 164.811 169.453  1.00  0.00     0.123 A 
ATOM      9  C   UNL     1     177.003 165.922 170.257  1.00  0.00     0.094 A 
ATOM     10  C   UNL     1     176.343 167.130 170.023  1.00  0.00     0.146 A 
ATOM     11  O   UNL     1     176.603 168.161 170.819  1.00  0.00    -0.452 OA
ENDROOT
BRANCH   1  12
ATOM     12  C   UNL     1     176.415 170.422 171.633  1.00  0.00     0.025 A 
ATOM     13  C   UNL     1     175.531 170.815 172.651  1.00  0.00     0.016 A 
ATOM     14  C   UNL     1     175.896 171.814 173.557  1.00  0.00     0.051 A 
ATOM     15  C   UNL     1     177.151 172.424 173.470  1.00  0.00     0.157 A 
ATOM     16  C   UNL     1     177.685 171.022 171.560  1.00  0.00     0.062 A 
ATOM     17  C   UNL     1     178.052 172.025 172.470  1.00  0.00     0.158 A 
BRANCH  15  18
ATOM     18  O   UNL     1     177.485 173.421 174.387  1.00  0.00    -0.504 OA
ATOM     19  H   UNL     1     176.785 173.897 174.943  1.00  0.00     0.293 HD
ENDBRANCH  15  18
BRANCH  17  20
ATOM     20  O   UNL     1     179.311 172.618 172.386  1.00  0.00    -0.504 OA
ATOM     21  H   UNL     1     180.045 172.404 173.050  1.00  0.00     0.293 HD
ENDBRANCH  17  20
ENDBRANCH   1  12
BRANCH   2  22
ATOM     22  O   UNL     1     174.334 170.748 169.643  1.00  0.00    -0.502 OA
ATOM     23  H   UNL     1     173.672 171.043 170.351  1.00  0.00     0.293 HD
ENDBRANCH   2  22
BRANCH   6  24
ATOM     24  O   UNL     1     174.402 166.146 166.962  1.00  0.00    -0.507 OA
ATOM     25  H   UNL     1     174.480 166.824 166.220  1.00  0.00     0.293 HD
ENDBRANCH   6  24
BRANCH   8  26
ATOM     26  O   UNL     1     177.393 163.597 169.695  1.00  0.00    -0.508 OA
ATOM     27  H   UNL     1     177.481 162.891 168.973  1.00  0.00     0.293 HD
ENDBRANCH   8  26
TORSDOF 6
ENDMDL
MODEL 2
REMARK VINA RESULT:    -5.650      3.765      5.665
REMARK INTER + INTRA:          -7.009
REMARK INTER:                  -6.941
REMARK INTRA:                  -0.068
REMARK UNBOUND:                -0.203
REMARK SMILES O=c1c(O)c(-c2ccc(O)c(O)c2)oc2cc(O)cc(O)c12
REMARK SMILES IDX 5 1 3 2 2 3 1 4 22 5 20 6 19 7 17 8 16 9 15 10 14 11 6 12
REMARK SMILES IDX 7 13 8 14 9 15 13 16 11 17 10 18 12 20 4 22 21 24 18 26
REMARK H PARENT 10 19 12 21 4 23 21 25 18 27
REMARK Flexibility Score: inf
ROOT
ATOM      1  C   UNL     1     174.377 169.871 172.841  1.00  0.00     0.180 A 
ATOM      2  C   UNL     1     174.347 168.492 173.114  1.00  0.00     0.208 A 
ATOM      3  C   UNL     1     173.105 167.846 173.218  1.00  0.00     0.238 A 
ATOM      4  O   UNL     1     173.086 166.602 173.408  1.00  0.00    -0.285 OA
ATOM      5  C   UNL     1     171.909 168.588 173.064  1.00  0.00     0.111 A 
ATOM      6  C   UNL     1     170.595 168.043 173.188  1.00  0.00     0.134 A 
ATOM      7  C   UNL     1     169.485 168.841 172.887  1.00  0.00     0.093 A 
ATOM      8  C   UNL     1     169.637 170.180 172.528  1.00  0.00     0.123 A 
ATOM      9  C   UNL     1     170.914 170.739 172.461  1.00  0.00     0.094 A 
ATOM     10  C   UNL     1     172.043 169.959 172.722  1.00  0.00     0.146 A 
ATOM     11  O   UNL     1     173.240 170.526 172.636  1.00  0.00    -0.452 OA
ENDROOT
BRANCH   1  12
ATOM     12  C   UNL     1     175.646 170.627 172.742  1.00  0.00     0.025 A 
ATOM     13  C   UNL     1     176.599 170.253 171.780  1.00  0.00     0.016 A 
ATOM     14  C   UNL     1     177.794 170.965 171.655  1.00  0.00     0.051 A 
ATOM     15  C   UNL     1     178.050 172.068 172.476  1.00  0.00     0.157 A 
ATOM     16  C   UNL     1     175.897 171.749 173.552  1.00  0.00     0.062 A 
ATOM     17  C   UNL     1     177.096 172.465 173.426  1.00  0.00     0.158 A 
BRANCH  15  18
ATOM     18  O   UNL     1     179.254 172.757 172.330  1.00  0.00    -0.504 OA
ATOM     19  H   UNL     1     179.286 173.734 172.065  1.00  0.00     0.293 HD
ENDBRANCH  15  18
BRANCH  17  20
ATOM     20  O   UNL     1     177.338 173.573 174.239  1.00  0.00    -0.504 OA
ATOM     21  H   UNL     1     177.462 173.480 175.240  1.00  0.00     0.293 HD
ENDBRANCH  17  20
ENDBRANCH   1  12
BRANCH   2  22
ATOM     22  O   UNL     1     175.540 167.775 173.240  1.00  0.00    -0.502 OA
ATOM     23  H   UNL     1     175.649 167.012 173.899  1.00  0.00     0.293 HD
ENDBRANCH   2  22
BRANCH   6  24
ATOM     24  O   UNL     1     170.328 166.743 173.629  1.00  0.00    -0.507 OA
ATOM     25  H   UNL     1     169.846 166.041 173.089  1.00  0.00     0.293 HD
ENDBRANCH   6  24
BRANCH   8  26
ATOM     26  O   UNL     1     168.509 170.950 172.251  1.00  0.00    -0.508 OA
ATOM     27  H   UNL     1     168.552 171.748 171.628  1.00  0.00     0.293 HD
ENDBRANCH   8  26
TORSDOF 6
ENDMDL
MODEL 3
REMARK VINA RESULT:    -5.617      3.362      4.076
REMARK INTER + INTRA:          -6.969
REMARK INTER:                  -6.756
REMARK INTRA:                  -0.213
REMARK UNBOUND:                -0.203
REMARK SMILES O=c1c(O)c(-c2ccc(O)c(O)c2)oc2cc(O)cc(O)c12
REMARK SMILES IDX 5 1 3 2 2 3 1 4 22 5 20 6 19 7 17 8 16 9 15 10 14 11 6 12
REMARK SMILES IDX 7 13 8 14 9 15 13 16 11 17 10 18 12 20 4 22 21 24 18 26
REMARK H PARENT 10 19 12 21 4 23 21 25 18 27
REMARK Flexibility Score: inf
ROOT
ATOM      1  C   UNL     1     174.463 170.573 170.739  1.00  0.00     0.180 A 
ATOM      2  C   UNL     1     173.182 170.279 171.238  1.00  0.00     0.208 A 
ATOM      3  C   UNL     1     172.163 169.934 170.336  1.00  0.00     0.238 A 
ATOM      4  O   UNL     1     171.033 169.620 170.794  1.00  0.00    -0.285 OA
ATOM      5  C   UNL     1     172.431 169.904 168.946  1.00  0.00     0.111 A 
ATOM      6  C   UNL     1     171.463 169.606 167.940  1.00  0.00     0.134 A 
ATOM      7  C   UNL     1     171.871 169.476 166.606  1.00  0.00     0.093 A 
ATOM      8  C   UNL     1     173.197 169.695 166.235  1.00  0.00     0.123 A 
ATOM      9  C   UNL     1     174.139 170.045 167.202  1.00  0.00     0.094 A 
ATOM     10  C   UNL     1     173.771 170.147 168.545  1.00  0.00     0.146 A 
ATOM     11  O   UNL     1     174.700 170.471 169.436  1.00  0.00    -0.452 OA
ENDROOT
BRANCH   1  12
ATOM     12  C   UNL     1     175.581 170.969 171.624  1.00  0.00     0.025 A 
ATOM     13  C   UNL     1     176.181 170.006 172.451  1.00  0.00     0.016 A 
ATOM     14  C   UNL     1     177.251 170.353 173.279  1.00  0.00     0.051 A 
ATOM     15  C   UNL     1     177.748 171.659 173.283  1.00  0.00     0.157 A 
ATOM     16  C   UNL     1     176.096 172.278 171.614  1.00  0.00     0.062 A 
ATOM     17  C   UNL     1     177.172 172.627 172.445  1.00  0.00     0.158 A 
BRANCH  15  18
ATOM     18  O   UNL     1     178.816 171.977 174.123  1.00  0.00    -0.504 OA
ATOM     19  H   UNL     1     179.202 171.308 174.779  1.00  0.00     0.293 HD
ENDBRANCH  15  18
BRANCH  17  20
ATOM     20  O   UNL     1     177.671 173.929 172.432  1.00  0.00    -0.504 OA
ATOM     21  H   UNL     1     177.229 174.662 171.892  1.00  0.00     0.293 HD
ENDBRANCH  17  20
ENDBRANCH   1  12
BRANCH   2  22
ATOM     22  O   UNL     1     172.944 170.294 172.615  1.00  0.00    -0.502 OA
ATOM     23  H   UNL     1     172.634 169.474 173.122  1.00  0.00     0.293 HD
ENDBRANCH   2  22
BRANCH   6  24
ATOM     24  O   UNL     1     170.096 169.459 168.192  1.00  0.00    -0.507 OA
ATOM     25  H   UNL     1     169.464 170.219 168.396  1.00  0.00     0.293 HD
ENDBRANCH   6  24
BRANCH   8  26
ATOM     26  O   UNL     1     173.564 169.573 164.896  1.00  0.00    -0.508 OA
ATOM     27  H   UNL     1     174.461 169.907 164.560  1.00  0.00     0.293 HD
ENDBRANCH   8  26
TORSDOF 6
ENDMDL
MODEL 4
REMARK VINA RESULT:    -5.599      3.247      3.961
REMARK INTER + INTRA:          -6.948
REMARK INTER:                  -6.688
REMARK INTRA:                  -0.261
REMARK UNBOUND:                -0.203
REMARK SMILES O=c1c(O)c(-c2ccc(O)c(O)c2)oc2cc(O)cc(O)c12
REMARK SMILES IDX 5 1 3 2 2 3 1 4 22 5 20 6 19 7 17 8 16 9 15 10 14 11 6 12
REMARK SMILES IDX 7 13 8 14 9 15 13 16 11 17 10 18 12 20 4 22 21 24 18 26
REMARK H PARENT 10 19 12 21 4 23 21 25 18 27
REMARK Flexibility Score: inf
ROOT
ATOM      1  C   UNL     1     175.811 168.803 172.361  1.00  0.00     0.180 A 
ATOM      2  C   UNL     1     176.077 167.875 171.338  1.00  0.00     0.208 A 
ATOM      3  C   UNL     1     175.568 166.572 171.453  1.00  0.00     0.238 A 
ATOM      4  O   UNL     1     175.765 165.762 170.509  1.00  0.00    -0.285 OA
ATOM      5  C   UNL     1     174.814 166.207 172.594  1.00  0.00     0.111 A 
ATOM      6  C   UNL     1     174.284 164.903 172.832  1.00  0.00     0.134 A 
ATOM      7  C   UNL     1     173.443 164.690 173.932  1.00  0.00     0.093 A 
ATOM      8  C   UNL     1     173.165 165.715 174.834  1.00  0.00     0.123 A 
ATOM      9  C   UNL     1     173.725 166.978 174.643  1.00  0.00     0.094 A 
ATOM     10  C   UNL     1     174.540 167.231 173.537  1.00  0.00     0.146 A 
ATOM     11  O   UNL     1     175.044 168.450 173.386  1.00  0.00    -0.452 OA
ENDROOT
BRANCH   1  12
ATOM     12  C   UNL     1     176.333 170.187 172.323  1.00  0.00     0.025 A 
ATOM     13  C   UNL     1     175.718 171.136 171.490  1.00  0.00     0.016 A 
ATOM     14  C   UNL     1     176.182 172.453 171.455  1.00  0.00     0.051 A 
ATOM     15  C   UNL     1     177.255 172.847 172.260  1.00  0.00     0.157 A 
ATOM     16  C   UNL     1     177.399 170.591 173.148  1.00  0.00     0.062 A 
ATOM     17  C   UNL     1     177.864 171.914 173.114  1.00  0.00     0.158 A 
BRANCH  15  18
ATOM     18  O   UNL     1     177.698 174.169 172.201  1.00  0.00    -0.504 OA
ATOM     19  H   UNL     1     177.100 174.923 171.884  1.00  0.00     0.293 HD
ENDBRANCH  15  18
BRANCH  17  20
ATOM     20  O   UNL     1     178.926 172.303 173.931  1.00  0.00    -0.504 OA
ATOM     21  H   UNL     1     179.642 171.648 174.219  1.00  0.00     0.293 HD
ENDBRANCH  17  20
ENDBRANCH   1  12
BRANCH   2  22
ATOM     22  O   UNL     1     176.805 168.262 170.210  1.00  0.00    -0.502 OA
ATOM     23  H   UNL     1     177.804 168.113 170.130  1.00  0.00     0.293 HD
ENDBRANCH   2  22
BRANCH   6  24
ATOM     24  O   UNL     1     174.575 163.786 172.043  1.00  0.00    -0.507 OA
ATOM     25  H   UNL     1     173.886 163.218 171.574  1.00  0.00     0.293 HD
ENDBRANCH   6  24
BRANCH   8  26
ATOM     26  O   UNL     1     172.336 165.463 175.926  1.00  0.00    -0.508 OA
ATOM     27  H   UNL     1     172.709 165.369 176.864  1.00  0.00     0.293 HD
ENDBRANCH   8  26
TORSDOF 6
ENDMDL
MODEL 5
REMARK VINA RESULT:    -5.517      3.748      4.514
REMARK INTER + INTRA:          -6.850
REMARK INTER:                  -6.530
REMARK INTRA:                  -0.320
REMARK UNBOUND:                -0.203
REMARK SMILES O=c1c(O)c(-c2ccc(O)c(O)c2)oc2cc(O)cc(O)c12
REMARK SMILES IDX 5 1 3 2 2 3 1 4 22 5 20 6 19 7 17 8 16 9 15 10 14 11 6 12
REMARK SMILES IDX 7 13 8 14 9 15 13 16 11 17 10 18 12 20 4 22 21 24 18 26
REMARK H PARENT 10 19 12 21 4 23 21 25 18 27
REMARK Flexibility Score: inf
ROOT
ATOM      1  C   UNL     1     174.383 169.729 172.671  1.00  0.00     0.180 A 
ATOM      2  C   UNL     1     173.321 169.930 171.773  1.00  0.00     0.208 A 
ATOM      3  C   UNL     1     172.204 169.081 171.839  1.00  0.00     0.238 A 
ATOM      4  O   UNL     1     171.233 169.300 171.068  1.00  0.00    -0.285 OA
ATOM      5  C   UNL     1     172.171 168.033 172.790  1.00  0.00     0.111 A 
ATOM      6  C   UNL     1     171.107 167.089 172.919  1.00  0.00     0.134 A 
ATOM      7  C   UNL     1     171.120 166.175 173.980  1.00  0.00     0.093 A 
ATOM      8  C   UNL     1     172.186 166.129 174.876  1.00  0.00     0.123 A 
ATOM      9  C   UNL     1     173.259 167.007 174.724  1.00  0.00     0.094 A 
ATOM     10  C   UNL     1     173.259 167.954 173.698  1.00  0.00     0.146 A 
ATOM     11  O   UNL     1     174.293 168.779 173.595  1.00  0.00    -0.452 OA
ENDROOT
BRANCH   1  12
ATOM     12  C   UNL     1     175.604 170.566 172.646  1.00  0.00     0.025 A 
ATOM     13  C   UNL     1     176.649 170.237 171.767  1.00  0.00     0.016 A 
ATOM     14  C   UNL     1     177.801 171.026 171.712  1.00  0.00     0.051 A 
ATOM     15  C   UNL     1     177.921 172.160 172.520  1.00  0.00     0.157 A 
ATOM     16  C   UNL     1     175.718 171.720 173.442  1.00  0.00     0.062 A 
ATOM     17  C   UNL     1     176.875 172.513 173.386  1.00  0.00     0.158 A 
BRANCH  15  18
ATOM     18  O   UNL     1     179.085 172.926 172.445  1.00  0.00    -0.504 OA
ATOM     19  H   UNL     1     179.195 173.790 172.962  1.00  0.00     0.293 HD
ENDBRANCH  15  18
BRANCH  17  20
ATOM     20  O   UNL     1     176.981 173.651 174.185  1.00  0.00    -0.504 OA
ATOM     21  H   UNL     1     176.936 174.583 173.790  1.00  0.00     0.293 HD
ENDBRANCH  17  20
ENDBRANCH   1  12
BRANCH   2  22
ATOM     22  O   UNL     1     173.364 170.985 170.857  1.00  0.00    -0.502 OA
ATOM     23  H   UNL     1     173.124 170.866 169.879  1.00  0.00     0.293 HD
ENDBRANCH   2  22
BRANCH   6  24
ATOM     24  O   UNL     1     170.039 166.989 172.021  1.00  0.00    -0.507 OA
ATOM     25  H   UNL     1     169.066 167.060 172.276  1.00  0.00     0.293 HD
ENDBRANCH   6  24
BRANCH   8  26
ATOM     26  O   UNL     1     172.174 165.195 175.912  1.00  0.00    -0.508 OA
ATOM     27  H   UNL     1     172.849 165.232 176.667  1.00  0.00     0.293 HD
ENDBRANCH   8  26
TORSDOF 6
ENDMDL
MODEL 6
REMARK VINA RESULT:    -5.514      3.329      6.655
REMARK INTER + INTRA:          -6.846
REMARK INTER:                  -6.533
REMARK INTRA:                  -0.312
REMARK UNBOUND:                -0.203
REMARK SMILES O=c1c(O)c(-c2ccc(O)c(O)c2)oc2cc(O)cc(O)c12
REMARK SMILES IDX 5 1 3 2 2 3 1 4 22 5 20 6 19 7 17 8 16 9 15 10 14 11 6 12
REMARK SMILES IDX 7 13 8 14 9 15 13 16 11 17 10 18 12 20 4 22 21 24 18 26
REMARK H PARENT 10 19 12 21 4 23 21 25 18 27
REMARK Flexibility Score: inf
ROOT
ATOM      1  C   UNL     1     173.977 169.792 171.956  1.00  0.00     0.180 A 
ATOM      2  C   UNL     1     174.787 169.121 171.023  1.00  0.00     0.208 A 
ATOM      3  C   UNL     1     176.134 169.499 170.897  1.00  0.00     0.238 A 
ATOM      4  O   UNL     1     176.868 168.858 170.100  1.00  0.00    -0.285 OA
ATOM      5  C   UNL     1     176.648 170.552 171.691  1.00  0.00     0.111 A 
ATOM      6  C   UNL     1     177.987 171.043 171.618  1.00  0.00     0.134 A 
ATOM      7  C   UNL     1     178.423 172.000 172.542  1.00  0.00     0.093 A 
ATOM      8  C   UNL     1     177.553 172.529 173.495  1.00  0.00     0.123 A 
ATOM      9  C   UNL     1     176.227 172.099 173.537  1.00  0.00     0.094 A 
ATOM     10  C   UNL     1     175.772 171.120 172.652  1.00  0.00     0.146 A 
ATOM     11  O   UNL     1     174.505 170.730 172.733  1.00  0.00    -0.452 OA
ENDROOT
BRANCH   1  12
ATOM     12  C   UNL     1     172.542 169.468 172.128  1.00  0.00     0.025 A 
ATOM     13  C   UNL     1     172.169 168.426 172.992  1.00  0.00     0.016 A 
ATOM     14  C   UNL     1     170.821 168.117 173.186  1.00  0.00     0.051 A 
ATOM     15  C   UNL     1     169.825 168.851 172.534  1.00  0.00     0.157 A 
ATOM     16  C   UNL     1     171.539 170.219 171.489  1.00  0.00     0.062 A 
ATOM     17  C   UNL     1     170.184 169.909 171.684  1.00  0.00     0.158 A 
BRANCH  15  18
ATOM     18  O   UNL     1     168.488 168.516 172.745  1.00  0.00    -0.504 OA
ATOM     19  H   UNL     1     168.166 167.556 172.742  1.00  0.00     0.293 HD
ENDBRANCH  15  18
BRANCH  17  20
ATOM     20  O   UNL     1     169.197 170.656 171.041  1.00  0.00    -0.504 OA
ATOM     21  H   UNL     1     168.709 171.408 171.512  1.00  0.00     0.293 HD
ENDBRANCH  17  20
ENDBRANCH   1  12
BRANCH   2  22
ATOM     22  O   UNL     1     174.265 168.070 170.265  1.00  0.00    -0.502 OA
ATOM     23  H   UNL     1     173.513 168.201 169.599  1.00  0.00     0.293 HD
ENDBRANCH   2  22
BRANCH   6  24
ATOM     24  O   UNL     1     178.911 170.648 170.645  1.00  0.00    -0.507 OA
ATOM     25  H   UNL     1     179.912 170.682 170.756  1.00  0.00     0.293 HD
ENDBRANCH   6  24
BRANCH   8  26
ATOM     26  O   UNL     1     178.017 173.492 174.389  1.00  0.00    -0.508 OA
ATOM     27  H   UNL     1     177.481 173.757 175.208  1.00  0.00     0.293 HD
ENDBRANCH   8  26
TORSDOF 6
ENDMDL
MODEL 7
REMARK VINA RESULT:    -5.498      1.588      2.963
REMARK INTER + INTRA:          -6.826
REMARK INTER:                  -6.536
REMARK INTRA:                  -0.290
REMARK UNBOUND:                -0.203
REMARK SMILES O=c1c(O)c(-c2ccc(O)c(O)c2)oc2cc(O)cc(O)c12
REMARK SMILES IDX 5 1 3 2 2 3 1 4 22 5 20 6 19 7 17 8 16 9 15 10 14 11 6 12
REMARK SMILES IDX 7 13 8 14 9 15 13 16 11 17 10 18 12 20 4 22 21 24 18 26
REMARK H PARENT 10 19 12 21 4 23 21 25 18 27
REMARK Flexibility Score: inf
ROOT
ATOM      1  C   UNL     1     175.765 169.446 170.908  1.00  0.00     0.180 A 
ATOM      2  C   UNL     1     175.659 168.115 171.346  1.00  0.00     0.208 A 
ATOM      3  C   UNL     1     175.102 167.157 170.483  1.00  0.00     0.238 A 
ATOM      4  O   UNL     1     175.059 165.957 170.861  1.00  0.00    -0.285 OA
ATOM      5  C   UNL     1     174.644 167.545 169.201  1.00  0.00     0.111 A 
ATOM      6  C   UNL     1     174.027 166.665 168.260  1.00  0.00     0.134 A 
ATOM      7  C   UNL     1     173.732 167.129 166.972  1.00  0.00     0.093 A 
ATOM      8  C   UNL     1     173.973 168.454 166.612  1.00  0.00     0.123 A 
ATOM      9  C   UNL     1     174.521 169.337 167.542  1.00  0.00     0.094 A 
ATOM     10  C   UNL     1     174.858 168.896 168.823  1.00  0.00     0.146 A 
ATOM     11  O   UNL     1     175.388 169.766 169.675  1.00  0.00    -0.452 OA
ENDROOT
BRANCH   1  12
ATOM     12  C   UNL     1     176.317 170.517 171.769  1.00  0.00     0.025 A 
ATOM     13  C   UNL     1     175.513 171.078 172.774  1.00  0.00     0.016 A 
ATOM     14  C   UNL     1     176.020 172.074 173.612  1.00  0.00     0.051 A 
ATOM     15  C   UNL     1     177.340 172.514 173.470  1.00  0.00     0.157 A 
ATOM     16  C   UNL     1     177.651 170.946 171.641  1.00  0.00     0.062 A 
ATOM     17  C   UNL     1     178.161 171.945 172.483  1.00  0.00     0.158 A 
BRANCH  15  18
ATOM     18  O   UNL     1     177.817 173.513 174.319  1.00  0.00    -0.504 OA
ATOM     19  H   UNL     1     178.528 174.173 174.026  1.00  0.00     0.293 HD
ENDBRANCH  15  18
BRANCH  17  20
ATOM     20  O   UNL     1     179.483 172.369 172.344  1.00  0.00    -0.504 OA
ATOM     21  H   UNL     1     179.840 173.170 172.850  1.00  0.00     0.293 HD
ENDBRANCH  17  20
ENDBRANCH   1  12
BRANCH   2  22
ATOM     22  O   UNL     1     176.137 167.749 172.607  1.00  0.00    -0.502 OA
ATOM     23  H   UNL     1     176.963 167.176 172.730  1.00  0.00     0.293 HD
ENDBRANCH   2  22
BRANCH   6  24
ATOM     24  O   UNL     1     173.660 165.347 168.549  1.00  0.00    -0.507 OA
ATOM     25  H   UNL     1     174.179 164.724 169.148  1.00  0.00     0.293 HD
ENDBRANCH   6  24
BRANCH   8  26
ATOM     26  O   UNL     1     173.652 168.885 165.325  1.00  0.00    -0.508 OA
ATOM     27  H   UNL     1     173.697 168.259 164.530  1.00  0.00     0.293 HD
ENDBRANCH   8  26
TORSDOF 6
ENDMDL
MODEL 8
REMARK VINA RESULT:    -5.442      3.040      4.700
REMARK INTER + INTRA:          -6.759
REMARK INTER:                  -6.450
REMARK INTRA:                  -0.309
REMARK UNBOUND:                -0.203
REMARK SMILES O=c1c(O)c(-c2ccc(O)c(O)c2)oc2cc(O)cc(O)c12
REMARK SMILES IDX 5 1 3 2 2 3 1 4 22 5 20 6 19 7 17 8 16 9 15 10 14 11 6 12
REMARK SMILES IDX 7 13 8 14 9 15 13 16 11 17 10 18 12 20 4 22 21 24 18 26
REMARK H PARENT 10 19 12 21 4 23 21 25 18 27
REMARK Flexibility Score: inf
ROOT
ATOM      1  C   UNL     1     174.374 170.308 171.218  1.00  0.00     0.180 A 
ATOM      2  C   UNL     1     174.472 169.461 170.101  1.00  0.00     0.208 A 
ATOM      3  C   UNL     1     173.296 168.941 169.535  1.00  0.00     0.238 A 
ATOM      4  O   UNL     1     173.387 168.227 168.503  1.00  0.00    -0.285 OA
ATOM      5  C   UNL     1     172.040 169.262 170.103  1.00  0.00     0.111 A 
ATOM      6  C   UNL     1     170.787 168.760 169.636  1.00  0.00     0.134 A 
ATOM      7  C   UNL     1     169.597 169.247 170.192  1.00  0.00     0.093 A 
ATOM      8  C   UNL     1     169.616 170.168 171.238  1.00  0.00     0.123 A 
ATOM      9  C   UNL     1     170.836 170.621 171.742  1.00  0.00     0.094 A 
ATOM     10  C   UNL     1     172.039 170.180 171.185  1.00  0.00     0.146 A 
ATOM     11  O   UNL     1     173.177 170.644 171.686  1.00  0.00    -0.452 OA
ENDROOT
BRANCH   1  12
ATOM     12  C   UNL     1     175.569 170.874 171.884  1.00  0.00     0.025 A 
ATOM     13  C   UNL     1     176.276 170.094 172.813  1.00  0.00     0.016 A 
ATOM     14  C   UNL     1     177.418 170.600 173.438  1.00  0.00     0.051 A 
ATOM     15  C   UNL     1     177.881 171.884 173.134  1.00  0.00     0.157 A 
ATOM     16  C   UNL     1     176.048 172.157 171.564  1.00  0.00     0.062 A 
ATOM     17  C   UNL     1     177.196 172.666 172.190  1.00  0.00     0.158 A 
BRANCH  15  18
ATOM     18  O   UNL     1     179.023 172.363 173.776  1.00  0.00    -0.504 OA
ATOM     19  H   UNL     1     179.677 171.746 174.242  1.00  0.00     0.293 HD
ENDBRANCH  15  18
BRANCH  17  20
ATOM     20  O   UNL     1     177.660 173.942 171.870  1.00  0.00    -0.504 OA
ATOM     21  H   UNL     1     177.863 174.210 170.915  1.00  0.00     0.293 HD
ENDBRANCH  17  20
ENDBRANCH   1  12
BRANCH   2  22
ATOM     22  O   UNL     1     175.721 169.174 169.543  1.00  0.00    -0.502 OA
ATOM     23  H   UNL     1     175.847 169.002 168.552  1.00  0.00     0.293 HD
ENDBRANCH   2  22
BRANCH   6  24
ATOM     24  O   UNL     1     170.660 167.769 168.658  1.00  0.00    -0.507 OA
ATOM     25  H   UNL     1     170.672 167.938 167.663  1.00  0.00     0.293 HD
ENDBRANCH   6  24
BRANCH   8  26
ATOM     26  O   UNL     1     168.413 170.620 171.778  1.00  0.00    -0.508 OA
ATOM     27  H   UNL     1     167.753 171.156 171.226  1.00  0.00     0.293 HD
ENDBRANCH   8  26
TORSDOF 6
ENDMDL
MODEL 9
REMARK VINA RESULT:    -5.417      2.560      2.850
REMARK INTER + INTRA:          -6.729
REMARK INTER:                  -6.434
REMARK INTRA:                  -0.295
REMARK UNBOUND:                -0.203
REMARK SMILES O=c1c(O)c(-c2ccc(O)c(O)c2)oc2cc(O)cc(O)c12
REMARK SMILES IDX 5 1 3 2 2 3 1 4 22 5 20 6 19 7 17 8 16 9 15 10 14 11 6 12
REMARK SMILES IDX 7 13 8 14 9 15 13 16 11 17 10 18 12 20 4 22 21 24 18 26
REMARK H PARENT 10 19 12 21 4 23 21 25 18 27
REMARK Flexibility Score: inf
ROOT
ATOM      1  C   UNL     1     175.577 168.722 172.274  1.00  0.00     0.180 A 
ATOM      2  C   UNL     1     174.332 168.426 172.857  1.00  0.00     0.208 A 
ATOM      3  C   UNL     1     173.807 167.131 172.719  1.00  0.00     0.238 A 
ATOM      4  O   UNL     1     172.718 166.858 173.289  1.00  0.00    -0.285 OA
ATOM      5  C   UNL     1     174.524 166.154 171.988  1.00  0.00     0.111 A 
ATOM      6  C   UNL     1     174.068 164.821 171.753  1.00  0.00     0.134 A 
ATOM      7  C   UNL     1     174.918 163.901 171.128  1.00  0.00     0.093 A 
ATOM      8  C   UNL     1     176.181 164.280 170.674  1.00  0.00     0.123 A 
ATOM      9  C   UNL     1     176.613 165.595 170.847  1.00  0.00     0.094 A 
ATOM     10  C   UNL     1     175.802 166.527 171.498  1.00  0.00     0.146 A 
ATOM     11  O   UNL     1     176.256 167.765 171.652  1.00  0.00    -0.452 OA
ENDROOT
BRANCH   1  12
ATOM     12  C   UNL     1     176.183 170.070 172.354  1.00  0.00     0.025 A 
ATOM     13  C   UNL     1     175.731 171.083 171.493  1.00  0.00     0.016 A 
ATOM     14  C   UNL     1     176.274 172.368 171.565  1.00  0.00     0.051 A 
ATOM     15  C   UNL     1     177.263 172.666 172.507  1.00  0.00     0.157 A 
ATOM     16  C   UNL     1     177.164 170.378 173.315  1.00  0.00     0.062 A 
ATOM     17  C   UNL     1     177.709 171.668 173.389  1.00  0.00     0.158 A 
BRANCH  15  18
ATOM     18  O   UNL     1     177.789 173.957 172.553  1.00  0.00    -0.504 OA
ATOM     19  H   UNL     1     177.212 174.778 172.418  1.00  0.00     0.293 HD
ENDBRANCH  15  18
BRANCH  17  20
ATOM     20  O   UNL     1     178.685 171.961 174.340  1.00  0.00    -0.504 OA
ATOM     21  H   UNL     1     179.623 172.234 174.073  1.00  0.00     0.293 HD
ENDBRANCH  17  20
ENDBRANCH   1  12
BRANCH   2  22
ATOM     22  O   UNL     1     173.651 169.400 173.593  1.00  0.00    -0.502 OA
ATOM     23  H   UNL     1     172.856 169.180 174.181  1.00  0.00     0.293 HD
ENDBRANCH   2  22
BRANCH   6  24
ATOM     24  O   UNL     1     172.788 164.365 172.084  1.00  0.00    -0.507 OA
ATOM     25  H   UNL     1     171.954 164.555 171.549  1.00  0.00     0.293 HD
ENDBRANCH   6  24
BRANCH   8  26
ATOM     26  O   UNL     1     176.995 163.341 170.042  1.00  0.00    -0.508 OA
ATOM     27  H   UNL     1     177.931 163.142 170.376  1.00  0.00     0.293 HD
ENDBRANCH   8  26
TORSDOF 6
ENDMDL
