MODEL 1
REMARK VINA RESULT:    -2.839      0.000      0.000
REMARK INTER + INTRA:          -3.372
REMARK INTER:                  -3.337
REMARK INTRA:                  -0.035
REMARK UNBOUND:                -0.035
REMARK SMILES O=C([O-])CCC(=O)[O-]
REMARK SMILES IDX 4 1 2 2 1 3 3 4 5 5 6 6 7 7 8 8
REMARK H PARENT
REMARK Flexibility Score: inf
ROOT
ATOM      1  C   UNL     1      59.890  -0.054  95.060  1.00  0.00     0.059 C 
ENDROOT
BRANCH   1   2
ATOM      2  C   UNL     1      60.417   0.281  96.421  1.00  0.00     0.042 C 
ATOM      3  O   UNL     1      61.117  -0.555  97.052  1.00  0.00    -0.550 OA
ATOM      4  O   UNL     1      60.101   1.498  97.011  1.00  0.00    -0.550 OA
ENDBRANCH   1   2
BRANCH   1   5
ATOM      5  C   UNL     1      60.821  -1.016  94.314  1.00  0.00     0.059 C 
BRANCH   5   6
ATOM      6  C   UNL     1      60.367  -1.239  92.903  1.00  0.00     0.042 C 
ATOM      7  O   UNL     1      59.855  -0.295  92.245  1.00  0.00    -0.550 OA
ATOM      8  O   UNL     1      60.474  -2.499  92.329  1.00  0.00    -0.550 OA
ENDBRANCH   5   6
ENDBRANCH   1   5
TORSDOF 3
ENDMDL
MODEL 2
REMARK VINA RESULT:    -2.799      1.777      4.285
REMARK INTER + INTRA:          -3.325
REMARK INTER:                  -3.207
REMARK INTRA:                  -0.118
REMARK UNBOUND:                -0.035
REMARK SMILES O=C([O-])CCC(=O)[O-]
REMARK SMILES IDX 4 1 2 2 1 3 3 4 5 5 6 6 7 7 8 8
REMARK H PARENT
REMARK Flexibility Score: inf
ROOT
ATOM      1  C   UNL     1      59.769  -0.456  96.096  1.00  0.00     0.059 C 
ENDROOT
BRANCH   1   2
ATOM      2  C   UNL     1      60.078  -0.518  94.632  1.00  0.00     0.042 C 
ATOM      3  O   UNL     1      61.101  -1.132  94.226  1.00  0.00    -0.550 OA
ATOM      4  O   UNL     1      59.261   0.136  93.719  1.00  0.00    -0.550 OA
ENDBRANCH   1   2
BRANCH   1   5
ATOM      5  C   UNL     1      60.349   0.807  96.743  1.00  0.00     0.059 C 
BRANCH   5   6
ATOM      6  C   UNL     1      59.304   1.868  96.915  1.00  0.00     0.042 C 
ATOM      7  O   UNL     1      58.083   1.572  96.836  1.00  0.00    -0.550 OA
ATOM      8  O   UNL     1      59.681   3.188  97.124  1.00  0.00    -0.550 OA
ENDBRANCH   5   6
ENDBRANCH   1   5
TORSDOF 3
ENDMDL
MODEL 3
REMARK VINA RESULT:    -2.780      1.098      1.723
REMARK INTER + INTRA:          -3.303
REMARK INTER:                  -3.224
REMARK INTRA:                  -0.079
REMARK UNBOUND:                -0.035
REMARK SMILES O=C([O-])CCC(=O)[O-]
REMARK SMILES IDX 4 1 2 2 1 3 3 4 5 5 6 6 7 7 8 8
REMARK H PARENT
REMARK Flexibility Score: inf
ROOT
ATOM      1  C   UNL     1      61.125  -0.971  94.957  1.00  0.00     0.059 C 
ENDROOT
BRANCH   1   2
ATOM      2  C   UNL     1      60.265  -0.396  96.039  1.00  0.00     0.042 C 
ATOM      3  O   UNL     1      60.724   0.488  96.810  1.00  0.00    -0.550 OA
ATOM      4  O   UNL     1      58.971  -0.865  96.224  1.00  0.00    -0.550 OA
ENDBRANCH   1   2
BRANCH   1   5
ATOM      5  C   UNL     1      60.366  -2.009  94.122  1.00  0.00     0.059 C 
BRANCH   5   6
ATOM      6  C   UNL     1      60.356  -1.647  92.668  1.00  0.00     0.042 C 
ATOM      7  O   UNL     1      60.752  -2.475  91.806  1.00  0.00    -0.550 OA
ATOM      8  O   UNL     1      59.948  -0.380  92.270  1.00  0.00    -0.550 OA
ENDBRANCH   5   6
ENDBRANCH   1   5
TORSDOF 3
ENDMDL
MODEL 4
REMARK VINA RESULT:    -2.768      1.114      1.220
REMARK INTER + INTRA:          -3.288
REMARK INTER:                  -3.193
REMARK INTRA:                  -0.095
REMARK UNBOUND:                -0.035
REMARK SMILES O=C([O-])CCC(=O)[O-]
REMARK SMILES IDX 4 1 2 2 1 3 3 4 5 5 6 6 7 7 8 8
REMARK H PARENT
REMARK Flexibility Score: inf
ROOT
ATOM      1  C   UNL     1      61.125  -0.994  94.917  1.00  0.00     0.059 C 
ENDROOT
BRANCH   1   2
ATOM      2  C   UNL     1      60.238  -0.347  95.936  1.00  0.00     0.042 C 
ATOM      3  O   UNL     1      59.028  -0.685  96.027  1.00  0.00    -0.550 OA
ATOM      4  O   UNL     1      60.736   0.657  96.757  1.00  0.00    -0.550 OA
ENDBRANCH   1   2
BRANCH   1   5
ATOM      5  C   UNL     1      60.369  -2.042  94.093  1.00  0.00     0.059 C 
BRANCH   5   6
ATOM      6  C   UNL     1      60.381  -1.709  92.632  1.00  0.00     0.042 C 
ATOM      7  O   UNL     1      60.007  -0.573  92.238  1.00  0.00    -0.550 OA
ATOM      8  O   UNL     1      60.768  -2.667  91.703  1.00  0.00    -0.550 OA
ENDBRANCH   5   6
ENDBRANCH   1   5
TORSDOF 3
ENDMDL
MODEL 5
REMARK VINA RESULT:    -2.703      1.096      4.088
REMARK INTER + INTRA:          -3.212
REMARK INTER:                  -3.170
REMARK INTRA:                  -0.042
REMARK UNBOUND:                -0.035
REMARK SMILES O=C([O-])CCC(=O)[O-]
REMARK SMILES IDX 4 1 2 2 1 3 3 4 5 5 6 6 7 7 8 8
REMARK H PARENT
REMARK Flexibility Score: inf
ROOT
ATOM      1  C   UNL     1      60.908  -0.759  94.980  1.00  0.00     0.059 C 
ENDROOT
BRANCH   1   2
ATOM      2  C   UNL     1      60.596  -1.427  93.677  1.00  0.00     0.042 C 
ATOM      3  O   UNL     1      60.737  -2.673  93.554  1.00  0.00    -0.550 OA
ATOM      4  O   UNL     1      60.190  -0.669  92.585  1.00  0.00    -0.550 OA
ENDBRANCH   1   2
BRANCH   1   5
ATOM      5  C   UNL     1      59.642  -0.522  95.812  1.00  0.00     0.059 C 
BRANCH   5   6
ATOM      6  C   UNL     1      59.538   0.903  96.263  1.00  0.00     0.042 C 
ATOM      7  O   UNL     1      60.424   1.398  97.008  1.00  0.00    -0.550 OA
ATOM      8  O   UNL     1      58.442   1.672  95.892  1.00  0.00    -0.550 OA
ENDBRANCH   5   6
ENDBRANCH   1   5
TORSDOF 3
ENDMDL
MODEL 6
REMARK VINA RESULT:    -2.505      2.079      3.244
REMARK INTER + INTRA:          -2.980
REMARK INTER:                  -2.874
REMARK INTRA:                  -0.106
REMARK UNBOUND:                -0.035
REMARK SMILES O=C([O-])CCC(=O)[O-]
REMARK SMILES IDX 4 1 2 2 1 3 3 4 5 5 6 6 7 7 8 8
REMARK H PARENT
REMARK Flexibility Score: inf
ROOT
ATOM      1  C   UNL     1      58.387   0.869  95.257  1.00  0.00     0.059 C 
ENDROOT
BRANCH   1   2
ATOM      2  C   UNL     1      57.840   1.511  96.495  1.00  0.00     0.042 C 
ATOM      3  O   UNL     1      56.718   1.158  96.948  1.00  0.00    -0.550 OA
ATOM      4  O   UNL     1      58.547   2.527  97.124  1.00  0.00    -0.550 OA
ENDBRANCH   1   2
BRANCH   1   5
ATOM      5  C   UNL     1      58.919  -0.541  95.539  1.00  0.00     0.059 C 
BRANCH   5   6
ATOM      6  C   UNL     1      60.413  -0.553  95.655  1.00  0.00     0.042 C 
ATOM      7  O   UNL     1      61.122  -0.869  94.664  1.00  0.00    -0.550 OA
ATOM      8  O   UNL     1      61.019  -0.255  96.869  1.00  0.00    -0.550 OA
ENDBRANCH   5   6
ENDBRANCH   1   5
TORSDOF 3
ENDMDL
MODEL 7
REMARK VINA RESULT:    -2.436      1.728      3.735
REMARK INTER + INTRA:          -2.898
REMARK INTER:                  -2.757
REMARK INTRA:                  -0.141
REMARK UNBOUND:                -0.035
REMARK SMILES O=C([O-])CCC(=O)[O-]
REMARK SMILES IDX 4 1 2 2 1 3 3 4 5 5 6 6 7 7 8 8
REMARK H PARENT
REMARK Flexibility Score: inf
ROOT
ATOM      1  C   UNL     1      60.749  -1.015  94.598  1.00  0.00     0.059 C 
ENDROOT
BRANCH   1   2
ATOM      2  C   UNL     1      60.413  -1.342  93.176  1.00  0.00     0.042 C 
ATOM      3  O   UNL     1      60.522  -2.525  92.755  1.00  0.00    -0.550 OA
ATOM      4  O   UNL     1      60.017  -0.336  92.304  1.00  0.00    -0.550 OA
ENDBRANCH   1   2
BRANCH   1   5
ATOM      5  C   UNL     1      59.840   0.086  95.155  1.00  0.00     0.059 C 
BRANCH   5   6
ATOM      6  C   UNL     1      58.448  -0.416  95.393  1.00  0.00     0.042 C 
ATOM      7  O   UNL     1      57.493   0.009  94.692  1.00  0.00    -0.550 OA
ATOM      8  O   UNL     1      58.202  -1.323  96.416  1.00  0.00    -0.550 OA
ENDBRANCH   5   6
ENDBRANCH   1   5
TORSDOF 3
ENDMDL
MODEL 8
REMARK VINA RESULT:    -2.425      2.506      3.597
REMARK INTER + INTRA:          -2.886
REMARK INTER:                  -2.781
REMARK INTRA:                  -0.105
REMARK UNBOUND:                -0.035
REMARK SMILES O=C([O-])CCC(=O)[O-]
REMARK SMILES IDX 4 1 2 2 1 3 3 4 5 5 6 6 7 7 8 8
REMARK H PARENT
REMARK Flexibility Score: inf
ROOT
ATOM      1  C   UNL     1      58.034  -0.608  95.002  1.00  0.00     0.059 C 
ENDROOT
BRANCH   1   2
ATOM      2  C   UNL     1      57.259  -0.727  96.278  1.00  0.00     0.042 C 
ATOM      3  O   UNL     1      56.718   0.290  96.787  1.00  0.00    -0.550 OA
ATOM      4  O   UNL     1      57.170  -1.952  96.927  1.00  0.00    -0.550 OA
ENDBRANCH   1   2
BRANCH   1   5
ATOM      5  C   UNL     1      59.166   0.418  95.121  1.00  0.00     0.059 C 
BRANCH   5   6
ATOM      6  C   UNL     1      60.450  -0.226  95.550  1.00  0.00     0.042 C 
ATOM      7  O   UNL     1      61.125  -0.901  94.729  1.00  0.00    -0.550 OA
ATOM      8  O   UNL     1      60.880  -0.111  96.866  1.00  0.00    -0.550 OA
ENDBRANCH   5   6
ENDBRANCH   1   5
TORSDOF 3
ENDMDL
