MODEL 1
REMARK VINA RESULT:    -4.236      0.000      0.000
REMARK INTER + INTRA:          -6.169
REMARK INTER:                  -6.464
REMARK INTRA:                   0.295
REMARK UNBOUND:                 0.295
REMARK SMILES CC1=CCC[C@H](C)C(=O)C[C@@H](C(C)C)C(=O)C1
REMARK SMILES IDX 8 1 9 2 6 3 7 4 5 5 4 6 3 7 2 8 1 9 10 11 11 12 15 13 16 14
REMARK SMILES IDX 17 15 12 17 13 18 14 19
REMARK H PARENT
REMARK Flexibility Score: 70.00
ROOT
ATOM      1  C   UNL     1       5.252 -26.997 -10.381  1.00  0.00     0.136 C 
ATOM      2  O   UNL     1       4.651 -25.946 -10.559  1.00  0.00    -0.299 OA
ENDROOT
BRANCH   1   3
ATOM      3  C   UNL     1       4.557 -28.315 -10.661  1.00  0.00     0.053 C 
ATOM      4  C   UNL     1       3.050 -28.097 -10.858  1.00  0.00     0.016 C 
BRANCH   3   5
ATOM      5  C   UNL     1       5.183 -28.996 -11.898  1.00  0.00     0.015 C 
BRANCH   5   6
ATOM      6  C   UNL     1       6.431 -29.827 -11.535  1.00  0.00     0.028 C 
BRANCH   6   7
ATOM      7  C   UNL     1       7.400 -29.894 -12.688  1.00  0.00    -0.028 C 
ATOM      8  C   UNL     1       8.486 -29.101 -12.841  1.00  0.00    -0.070 CG0
ATOM      9  C   UNL     1       9.312 -29.268 -14.090  1.00  0.00     0.039 C 
ATOM     10  G   UNL     1       8.902 -28.047 -11.825  1.00  0.00     0.000 G0
ENDBRANCH   6   7
ENDBRANCH   5   6
ENDBRANCH   3   5
ENDBRANCH   1   3
BRANCH   1  11
ATOM     11  C   UNL     1       6.678 -26.955  -9.882  1.00  0.00     0.087 C 
BRANCH  11  12
ATOM     12  C   UNL     1       7.577 -26.024 -10.737  1.00  0.00     0.066 C 
BRANCH  12  13
ATOM     13  C   UNL     1       8.125 -26.763 -11.953  1.00  0.00     0.140 C 
ATOM     14  O   UNL     1       7.973 -26.265 -13.060  1.00  0.00    -0.299 OA
BRANCH  13  15
ATOM     15  C   UNL     1       8.908 -28.049 -11.824  1.00  0.00     0.106 CG0
ATOM     16  G   UNL     1       8.481 -29.089 -12.849  1.00  0.00     0.000 G0
ENDBRANCH  13  15
ENDBRANCH  12  13
BRANCH  12  17
ATOM     17  C   UNL     1       8.722 -25.353  -9.910  1.00  0.00    -0.006 C 
ATOM     18  C   UNL     1       9.110 -26.177  -8.669  1.00  0.00     0.008 C 
ATOM     19  C   UNL     1       8.319 -23.938  -9.456  1.00  0.00     0.008 C 
ENDBRANCH  12  17
ENDBRANCH  11  12
ENDBRANCH   1  11
TORSDOF 1
ENDMDL
MODEL 2
REMARK VINA RESULT:    -3.807      7.828     10.380
REMARK INTER + INTRA:          -5.515
REMARK INTER:                  -5.693
REMARK INTRA:                   0.178
REMARK UNBOUND:                 0.295
REMARK SMILES CC1=CCC[C@H](C)C(=O)C[C@@H](C(C)C)C(=O)C1
REMARK SMILES IDX 8 1 9 2 6 3 7 4 5 5 4 6 3 7 2 8 1 9 10 11 11 12 15 13 16 14
REMARK SMILES IDX 17 15 12 17 13 18 14 19
REMARK H PARENT
REMARK Flexibility Score: 70.00
ROOT
ATOM      1  C   UNL     1      -1.421 -24.173  -9.475  1.00  0.00     0.136 C 
ATOM      2  O   UNL     1      -0.862 -24.744  -8.549  1.00  0.00    -0.299 OA
ENDROOT
BRANCH   1   3
ATOM      3  C   UNL     1      -2.278 -22.954  -9.198  1.00  0.00     0.053 C 
ATOM      4  C   UNL     1      -1.501 -21.667  -9.513  1.00  0.00     0.016 C 
BRANCH   3   5
ATOM      5  C   UNL     1      -3.587 -23.024 -10.016  1.00  0.00     0.015 C 
BRANCH   5   6
ATOM      6  C   UNL     1      -3.805 -21.761 -10.874  1.00  0.00     0.028 C 
BRANCH   6   7
ATOM      7  C   UNL     1      -3.956 -22.108 -12.332  1.00  0.00    -0.028 C 
ATOM      8  C   UNL     1      -2.941 -22.197 -13.222  1.00  0.00    -0.070 CG0
ATOM      9  C   UNL     1      -3.285 -22.497 -14.659  1.00  0.00     0.039 C 
ATOM     10  G   UNL     1      -1.480 -21.999 -12.846  1.00  0.00     0.000 G0
ENDBRANCH   6   7
ENDBRANCH   5   6
ENDBRANCH   3   5
ENDBRANCH   1   3
BRANCH   1  11
ATOM     11  C   UNL     1      -1.245 -24.703 -10.880  1.00  0.00     0.087 C 
BRANCH  11  12
ATOM     12  C   UNL     1      -0.127 -23.961 -11.657  1.00  0.00     0.066 C 
BRANCH  12  13
ATOM     13  C   UNL     1      -0.684 -23.298 -12.912  1.00  0.00     0.140 C 
ATOM     14  O   UNL     1      -0.539 -23.860 -13.987  1.00  0.00    -0.299 OA
BRANCH  13  15
ATOM     15  C   UNL     1      -1.470 -22.007 -12.854  1.00  0.00     0.106 CG0
ATOM     16  G   UNL     1      -2.935 -22.209 -13.214  1.00  0.00     0.000 G0
ENDBRANCH  13  15
ENDBRANCH  12  13
BRANCH  12  17
ATOM     17  C   UNL     1       1.097 -24.875 -11.987  1.00  0.00    -0.006 C 
ATOM     18  C   UNL     1       0.703 -26.357 -12.125  1.00  0.00     0.008 C 
ATOM     19  C   UNL     1       2.186 -24.754 -10.904  1.00  0.00     0.008 C 
ENDBRANCH  12  17
ENDBRANCH  11  12
ENDBRANCH   1  11
TORSDOF 1
ENDMDL
MODEL 3
REMARK VINA RESULT:    -3.732      2.067      4.456
REMARK INTER + INTRA:          -5.400
REMARK INTER:                  -5.337
REMARK INTRA:                  -0.062
REMARK UNBOUND:                 0.295
REMARK SMILES CC1=CCC[C@H](C)C(=O)C[C@@H](C(C)C)C(=O)C1
REMARK SMILES IDX 8 1 9 2 6 3 7 4 5 5 4 6 3 7 2 8 1 9 10 11 11 12 15 13 16 14
REMARK SMILES IDX 17 15 12 17 13 18 14 19
REMARK H PARENT
REMARK Flexibility Score: 70.00
ROOT
ATOM      1  C   UNL     1       7.200 -25.683 -10.621  1.00  0.00     0.136 C 
ATOM      2  O   UNL     1       6.028 -25.334 -10.559  1.00  0.00    -0.299 OA
ENDROOT
BRANCH   1   3
ATOM      3  C   UNL     1       8.248 -24.938  -9.818  1.00  0.00     0.053 C 
ATOM      4  C   UNL     1       7.706 -23.579  -9.355  1.00  0.00     0.016 C 
BRANCH   3   5
ATOM      5  C   UNL     1       8.703 -25.792  -8.613  1.00  0.00     0.015 C 
BRANCH   5   6
ATOM      6  C   UNL     1      10.086 -26.434  -8.845  1.00  0.00     0.028 C 
BRANCH   6   7
ATOM      7  C   UNL     1      10.122 -27.855  -8.345  1.00  0.00    -0.028 C 
ATOM      8  C   UNL     1       9.867 -28.952  -9.096  1.00  0.00    -0.070 CG0
ATOM      9  C   UNL     1       9.889 -30.296  -8.414  1.00  0.00     0.039 C 
ATOM     10  G   UNL     1       9.550 -28.892 -10.583  1.00  0.00     0.000 G0
ENDBRANCH   6   7
ENDBRANCH   5   6
ENDBRANCH   3   5
ENDBRANCH   1   3
BRANCH   1  11
ATOM     11  C   UNL     1       7.573 -26.853 -11.502  1.00  0.00     0.087 C 
BRANCH  11  12
ATOM     12  C   UNL     1       6.988 -28.193 -10.987  1.00  0.00     0.066 C 
BRANCH  12  13
ATOM     13  C   UNL     1       8.078 -29.254 -10.873  1.00  0.00     0.140 C 
ATOM     14  O   UNL     1       7.780 -30.424 -11.068  1.00  0.00    -0.299 OA
BRANCH  13  15
ATOM     15  C   UNL     1       9.520 -28.895 -10.599  1.00  0.00     0.106 CG0
ATOM     16  G   UNL     1       9.855 -28.949  -9.115  1.00  0.00     0.000 G0
ENDBRANCH  13  15
ENDBRANCH  12  13
BRANCH  12  17
ATOM     17  C   UNL     1       5.781 -28.700 -11.840  1.00  0.00    -0.006 C 
ATOM     18  C   UNL     1       6.018 -28.532 -13.351  1.00  0.00     0.008 C 
ATOM     19  C   UNL     1       4.485 -27.960 -11.459  1.00  0.00     0.008 C 
ENDBRANCH  12  17
ENDBRANCH  11  12
ENDBRANCH   1  11
TORSDOF 1
ENDMDL
MODEL 4
REMARK VINA RESULT:    -3.648      5.134      7.685
REMARK INTER + INTRA:          -5.272
REMARK INTER:                  -5.677
REMARK INTRA:                   0.405
REMARK UNBOUND:                 0.295
REMARK SMILES CC1=CCC[C@H](C)C(=O)C[C@@H](C(C)C)C(=O)C1
REMARK SMILES IDX 8 1 9 2 6 3 7 4 5 5 4 6 3 7 2 8 1 9 10 11 11 12 15 13 16 14
REMARK SMILES IDX 17 15 12 17 13 18 14 19
REMARK H PARENT
REMARK Flexibility Score: 70.00
ROOT
ATOM      1  C   UNL     1       1.151 -26.180 -12.936  1.00  0.00     0.136 C 
ATOM      2  O   UNL     1       1.883 -25.342 -13.443  1.00  0.00    -0.299 OA
ENDROOT
BRANCH   1   3
ATOM      3  C   UNL     1       1.461 -27.653 -13.112  1.00  0.00     0.053 C 
ATOM      4  C   UNL     1       1.812 -27.958 -14.576  1.00  0.00     0.016 C 
BRANCH   3   5
ATOM      5  C   UNL     1       2.612 -28.073 -12.169  1.00  0.00     0.015 C 
BRANCH   5   6
ATOM      6  C   UNL     1       2.376 -27.603 -10.719  1.00  0.00     0.028 C 
BRANCH   6   7
ATOM      7  C   UNL     1       3.144 -26.342 -10.419  1.00  0.00    -0.028 C 
ATOM      8  C   UNL     1       2.608 -25.199  -9.931  1.00  0.00    -0.070 CG0
ATOM      9  C   UNL     1       3.518 -24.012  -9.748  1.00  0.00     0.039 C 
ATOM     10  G   UNL     1       1.136 -25.054  -9.572  1.00  0.00     0.000 G0
ENDBRANCH   6   7
ENDBRANCH   5   6
ENDBRANCH   3   5
ENDBRANCH   1   3
BRANCH   1  11
ATOM     11  C   UNL     1      -0.053 -25.723 -12.144  1.00  0.00     0.087 C 
BRANCH  11  12
ATOM     12  C   UNL     1      -0.008 -24.208 -11.819  1.00  0.00     0.066 C 
BRANCH  12  13
ATOM     13  C   UNL     1       0.442 -23.972 -10.381  1.00  0.00     0.140 C 
ATOM     14  O   UNL     1       0.187 -22.899  -9.855  1.00  0.00    -0.299 OA
BRANCH  13  15
ATOM     15  C   UNL     1       1.126 -25.049  -9.569  1.00  0.00     0.106 CG0
ATOM     16  G   UNL     1       2.598 -25.193  -9.928  1.00  0.00     0.000 G0
ENDBRANCH  13  15
ENDBRANCH  12  13
BRANCH  12  17
ATOM     17  C   UNL     1      -1.356 -23.478 -12.125  1.00  0.00    -0.006 C 
ATOM     18  C   UNL     1      -2.576 -24.252 -11.596  1.00  0.00     0.008 C 
ATOM     19  C   UNL     1      -1.532 -23.253 -13.639  1.00  0.00     0.008 C 
ENDBRANCH  12  17
ENDBRANCH  11  12
ENDBRANCH   1  11
TORSDOF 1
ENDMDL
MODEL 5
REMARK VINA RESULT:    -3.602      4.935      7.310
REMARK INTER + INTRA:          -5.203
REMARK INTER:                  -5.791
REMARK INTRA:                   0.588
REMARK UNBOUND:                 0.295
REMARK SMILES CC1=CCC[C@H](C)C(=O)C[C@@H](C(C)C)C(=O)C1
REMARK SMILES IDX 8 1 9 2 6 3 7 4 5 5 4 6 3 7 2 8 1 9 10 11 11 12 15 13 16 14
REMARK SMILES IDX 17 15 12 17 13 18 14 19
REMARK H PARENT
REMARK Flexibility Score: 70.00
ROOT
ATOM      1  C   UNL     1       1.705 -24.769  -9.909  1.00  0.00     0.136 C 
ATOM      2  O   UNL     1       1.441 -25.365  -8.874  1.00  0.00    -0.299 OA
ENDROOT
BRANCH   1   3
ATOM      3  C   UNL     1       3.099 -24.866 -10.497  1.00  0.00     0.053 C 
ATOM      4  C   UNL     1       4.010 -23.781  -9.904  1.00  0.00     0.016 C 
BRANCH   3   5
ATOM      5  C   UNL     1       3.685 -26.275 -10.250  1.00  0.00     0.015 C 
BRANCH   5   6
ATOM      6  C   UNL     1       2.679 -27.392 -10.597  1.00  0.00     0.028 C 
BRANCH   6   7
ATOM      7  C   UNL     1       2.763 -27.772 -12.053  1.00  0.00    -0.028 C 
ATOM      8  C   UNL     1       1.754 -27.657 -12.948  1.00  0.00    -0.070 CG0
ATOM      9  C   UNL     1       1.997 -28.145 -14.354  1.00  0.00     0.039 C 
ATOM     10  G   UNL     1       0.391 -27.075 -12.602  1.00  0.00     0.000 G0
ENDBRANCH   6   7
ENDBRANCH   5   6
ENDBRANCH   3   5
ENDBRANCH   1   3
BRANCH   1  11
ATOM     11  C   UNL     1       0.629 -23.945 -10.579  1.00  0.00     0.087 C 
BRANCH  11  12
ATOM     12  C   UNL     1      -0.342 -24.812 -11.422  1.00  0.00     0.066 C 
BRANCH  12  13
ATOM     13  C   UNL     1       0.408 -25.559 -12.519  1.00  0.00     0.140 C 
ATOM     14  O   UNL     1       1.091 -24.918 -13.304  1.00  0.00    -0.299 OA
BRANCH  13  15
ATOM     15  C   UNL     1       0.389 -27.068 -12.618  1.00  0.00     0.106 CG0
ATOM     16  G   UNL     1       1.762 -27.642 -12.934  1.00  0.00     0.000 G0
ENDBRANCH  13  15
ENDBRANCH  12  13
BRANCH  12  17
ATOM     17  C   UNL     1      -1.542 -23.996 -12.001  1.00  0.00    -0.006 C 
ATOM     18  C   UNL     1      -1.245 -22.488 -12.079  1.00  0.00     0.008 C 
ATOM     19  C   UNL     1      -2.813 -24.204 -11.155  1.00  0.00     0.008 C 
ENDBRANCH  12  17
ENDBRANCH  11  12
ENDBRANCH   1  11
TORSDOF 1
ENDMDL
MODEL 6
REMARK VINA RESULT:    -3.300      6.873      9.709
REMARK INTER + INTRA:          -4.741
REMARK INTER:                  -5.410
REMARK INTRA:                   0.670
REMARK UNBOUND:                 0.295
REMARK SMILES CC1=CCC[C@H](C)C(=O)C[C@@H](C(C)C)C(=O)C1
REMARK SMILES IDX 8 1 9 2 6 3 7 4 5 5 4 6 3 7 2 8 1 9 10 11 11 12 15 13 16 14
REMARK SMILES IDX 17 15 12 17 13 18 14 19
REMARK H PARENT
REMARK Flexibility Score: 70.00
ROOT
ATOM      1  C   UNL     1      -1.701 -23.775 -12.506  1.00  0.00     0.136 C 
ATOM      2  O   UNL     1      -2.455 -24.660 -12.123  1.00  0.00    -0.299 OA
ENDROOT
BRANCH   1   3
ATOM      3  C   UNL     1      -2.231 -22.366 -12.687  1.00  0.00     0.053 C 
ATOM      4  C   UNL     1      -2.902 -22.216 -14.060  1.00  0.00     0.016 C 
BRANCH   3   5
ATOM      5  C   UNL     1      -3.216 -22.015 -11.549  1.00  0.00     0.015 C 
BRANCH   5   6
ATOM      6  C   UNL     1      -2.486 -21.633 -10.246  1.00  0.00     0.028 C 
BRANCH   6   7
ATOM      7  C   UNL     1      -2.283 -22.833  -9.358  1.00  0.00    -0.028 C 
ATOM      8  C   UNL     1      -1.126 -23.523  -9.231  1.00  0.00    -0.070 CG0
ATOM      9  C   UNL     1      -1.121 -24.739  -8.341  1.00  0.00     0.039 C 
ATOM     10  G   UNL     1       0.159 -23.140  -9.951  1.00  0.00     0.000 G0
ENDBRANCH   6   7
ENDBRANCH   5   6
ENDBRANCH   3   5
ENDBRANCH   1   3
BRANCH   1  11
ATOM     11  C   UNL     1      -0.256 -24.111 -12.791  1.00  0.00     0.087 C 
BRANCH  11  12
ATOM     12  C   UNL     1       0.341 -25.093 -11.749  1.00  0.00     0.066 C 
BRANCH  12  13
ATOM     13  C   UNL     1       0.868 -24.341 -10.532  1.00  0.00     0.140 C 
ATOM     14  O   UNL     1       1.939 -24.680 -10.050  1.00  0.00    -0.299 OA
BRANCH  13  15
ATOM     15  C   UNL     1       0.143 -23.147  -9.951  1.00  0.00     0.106 CG0
ATOM     16  G   UNL     1      -1.135 -23.546  -9.229  1.00  0.00     0.000 G0
ENDBRANCH  13  15
ENDBRANCH  12  13
BRANCH  12  17
ATOM     17  C   UNL     1       1.429 -26.038 -12.354  1.00  0.00    -0.006 C 
ATOM     18  C   UNL     1       1.312 -26.165 -13.884  1.00  0.00     0.008 C 
ATOM     19  C   UNL     1       1.345 -27.446 -11.735  1.00  0.00     0.008 C 
ENDBRANCH  12  17
ENDBRANCH  11  12
ENDBRANCH   1  11
TORSDOF 1
ENDMDL
MODEL 7
REMARK VINA RESULT:    -3.299      1.807      3.923
REMARK INTER + INTRA:          -4.739
REMARK INTER:                  -5.017
REMARK INTRA:                   0.278
REMARK UNBOUND:                 0.295
REMARK SMILES CC1=CCC[C@H](C)C(=O)C[C@@H](C(C)C)C(=O)C1
REMARK SMILES IDX 8 1 9 2 6 3 7 4 5 5 4 6 3 7 2 8 1 9 10 11 11 12 15 13 16 14
REMARK SMILES IDX 17 15 12 17 13 18 14 19
REMARK H PARENT
REMARK Flexibility Score: 70.00
ROOT
ATOM      1  C   UNL     1       8.485 -27.484 -13.066  1.00  0.00     0.136 C 
ATOM      2  O   UNL     1       9.672 -27.497 -13.366  1.00  0.00    -0.299 OA
ENDROOT
BRANCH   1   3
ATOM      3  C   UNL     1       7.521 -28.410 -13.780  1.00  0.00     0.053 C 
ATOM      4  C   UNL     1       7.828 -28.453 -15.284  1.00  0.00     0.016 C 
BRANCH   3   5
ATOM      5  C   UNL     1       7.585 -29.826 -13.163  1.00  0.00     0.015 C 
BRANCH   5   6
ATOM      6  C   UNL     1       6.597 -29.994 -11.990  1.00  0.00     0.028 C 
BRANCH   6   7
ATOM      7  C   UNL     1       5.224 -29.491 -12.354  1.00  0.00    -0.028 C 
ATOM      8  C   UNL     1       4.482 -28.641 -11.606  1.00  0.00    -0.070 CG0
ATOM      9  C   UNL     1       3.100 -28.291 -12.097  1.00  0.00     0.039 C 
ATOM     10  G   UNL     1       4.968 -28.037 -10.297  1.00  0.00     0.000 G0
ENDBRANCH   6   7
ENDBRANCH   5   6
ENDBRANCH   3   5
ENDBRANCH   1   3
BRANCH   1  11
ATOM     11  C   UNL     1       8.009 -26.538 -11.988  1.00  0.00     0.087 C 
BRANCH  11  12
ATOM     12  C   UNL     1       7.474 -27.286 -10.739  1.00  0.00     0.066 C 
BRANCH  12  13
ATOM     13  C   UNL     1       6.004 -26.958 -10.497  1.00  0.00     0.140 C 
ATOM     14  O   UNL     1       5.650 -25.789 -10.534  1.00  0.00    -0.299 OA
BRANCH  13  15
ATOM     15  C   UNL     1       4.967 -28.038 -10.286  1.00  0.00     0.106 CG0
ATOM     16  G   UNL     1       4.485 -28.637 -11.599  1.00  0.00     0.000 G0
ENDBRANCH  13  15
ENDBRANCH  12  13
BRANCH  12  17
ATOM     17  C   UNL     1       8.335 -27.032  -9.460  1.00  0.00    -0.006 C 
ATOM     18  C   UNL     1       9.105 -25.701  -9.524  1.00  0.00     0.008 C 
ATOM     19  C   UNL     1       9.345 -28.174  -9.237  1.00  0.00     0.008 C 
ENDBRANCH  12  17
ENDBRANCH  11  12
ENDBRANCH   1  11
TORSDOF 1
ENDMDL
MODEL 8
REMARK VINA RESULT:    -3.186      7.428     10.412
REMARK INTER + INTRA:          -4.567
REMARK INTER:                  -5.328
REMARK INTRA:                   0.760
REMARK UNBOUND:                 0.295
REMARK SMILES CC1=CCC[C@H](C)C(=O)C[C@@H](C(C)C)C(=O)C1
REMARK SMILES IDX 8 1 9 2 6 3 7 4 5 5 4 6 3 7 2 8 1 9 10 11 11 12 15 13 16 14
REMARK SMILES IDX 17 15 12 17 13 18 14 19
REMARK H PARENT
REMARK Flexibility Score: 70.00
ROOT
ATOM      1  C   UNL     1       0.453 -24.826 -12.243  1.00  0.00     0.136 C 
ATOM      2  O   UNL     1       1.508 -24.295 -12.564  1.00  0.00    -0.299 OA
ENDROOT
BRANCH   1   3
ATOM      3  C   UNL     1       0.447 -25.888 -11.162  1.00  0.00     0.053 C 
ATOM      4  C   UNL     1       1.389 -27.042 -11.536  1.00  0.00     0.016 C 
BRANCH   3   5
ATOM      5  C   UNL     1       0.844 -25.269  -9.803  1.00  0.00     0.015 C 
BRANCH   5   6
ATOM      6  C   UNL     1      -0.363 -25.125  -8.855  1.00  0.00     0.028 C 
BRANCH   6   7
ATOM      7  C   UNL     1      -0.809 -23.689  -8.747  1.00  0.00    -0.028 C 
ATOM      8  C   UNL     1      -1.964 -23.192  -9.245  1.00  0.00    -0.070 CG0
ATOM      9  C   UNL     1      -2.220 -21.714  -9.097  1.00  0.00     0.039 C 
ATOM     10  G   UNL     1      -3.005 -24.046  -9.953  1.00  0.00     0.000 G0
ENDBRANCH   6   7
ENDBRANCH   5   6
ENDBRANCH   3   5
ENDBRANCH   1   3
BRANCH   1  11
ATOM     11  C   UNL     1      -0.823 -24.409 -12.938  1.00  0.00     0.087 C 
BRANCH  11  12
ATOM     12  C   UNL     1      -1.627 -23.363 -12.124  1.00  0.00     0.066 C 
BRANCH  12  13
ATOM     13  C   UNL     1      -2.839 -24.006 -11.458  1.00  0.00     0.140 C 
ATOM     14  O   UNL     1      -3.664 -24.570 -12.162  1.00  0.00    -0.299 OA
BRANCH  13  15
ATOM     15  C   UNL     1      -3.010 -24.029  -9.956  1.00  0.00     0.106 CG0
ATOM     16  G   UNL     1      -1.952 -23.200  -9.243  1.00  0.00     0.000 G0
ENDBRANCH  13  15
ENDBRANCH  12  13
BRANCH  12  17
ATOM     17  C   UNL     1      -2.032 -22.112 -12.968  1.00  0.00    -0.006 C 
ATOM     18  C   UNL     1      -3.025 -21.200 -12.227  1.00  0.00     0.008 C 
ATOM     19  C   UNL     1      -2.658 -22.532 -14.312  1.00  0.00     0.008 C 
ENDBRANCH  12  17
ENDBRANCH  11  12
ENDBRANCH   1  11
TORSDOF 1
ENDMDL
MODEL 9
REMARK VINA RESULT:    -3.140      7.520     10.345
REMARK INTER + INTRA:          -4.498
REMARK INTER:                  -5.546
REMARK INTRA:                   1.048
REMARK UNBOUND:                 0.295
REMARK SMILES CC1=CCC[C@H](C)C(=O)C[C@@H](C(C)C)C(=O)C1
REMARK SMILES IDX 8 1 9 2 6 3 7 4 5 5 4 6 3 7 2 8 1 9 10 11 11 12 15 13 16 14
REMARK SMILES IDX 17 15 12 17 13 18 14 19
REMARK H PARENT
REMARK Flexibility Score: 70.00
ROOT
ATOM      1  C   UNL     1      -1.505 -22.465 -12.575  1.00  0.00     0.136 C 
ATOM      2  O   UNL     1      -1.318 -21.374 -12.053  1.00  0.00    -0.299 OA
ENDROOT
BRANCH   1   3
ATOM      3  C   UNL     1      -2.899 -22.849 -13.032  1.00  0.00     0.053 C 
ATOM      4  C   UNL     1      -3.088 -22.516 -14.519  1.00  0.00     0.016 C 
BRANCH   3   5
ATOM      5  C   UNL     1      -3.154 -24.349 -12.764  1.00  0.00     0.015 C 
BRANCH   5   6
ATOM      6  C   UNL     1      -3.779 -24.594 -11.376  1.00  0.00     0.028 C 
BRANCH   6   7
ATOM      7  C   UNL     1      -3.709 -23.357 -10.517  1.00  0.00    -0.028 C 
ATOM      8  C   UNL     1      -2.748 -23.098  -9.601  1.00  0.00    -0.070 CG0
ATOM      9  C   UNL     1      -2.870 -21.835  -8.787  1.00  0.00     0.039 C 
ATOM     10  G   UNL     1      -1.564 -24.020  -9.347  1.00  0.00     0.000 G0
ENDBRANCH   6   7
ENDBRANCH   5   6
ENDBRANCH   3   5
ENDBRANCH   1   3
BRANCH   1  11
ATOM     11  C   UNL     1      -0.337 -23.409 -12.749  1.00  0.00     0.087 C 
BRANCH  11  12
ATOM     12  C   UNL     1      -0.227 -24.435 -11.592  1.00  0.00     0.066 C 
BRANCH  12  13
ATOM     13  C   UNL     1      -0.386 -23.750 -10.239  1.00  0.00     0.140 C 
ATOM     14  O   UNL     1       0.434 -22.906  -9.908  1.00  0.00    -0.299 OA
BRANCH  13  15
ATOM     15  C   UNL     1      -1.564 -24.030  -9.333  1.00  0.00     0.106 CG0
ATOM     16  G   UNL     1      -2.734 -23.095  -9.604  1.00  0.00     0.000 G0
ENDBRANCH  13  15
ENDBRANCH  12  13
BRANCH  12  17
ATOM     17  C   UNL     1       1.083 -25.285 -11.653  1.00  0.00    -0.006 C 
ATOM     18  C   UNL     1       1.128 -26.208 -12.883  1.00  0.00     0.008 C 
ATOM     19  C   UNL     1       1.244 -26.146 -10.385  1.00  0.00     0.008 C 
ENDBRANCH  12  17
ENDBRANCH  11  12
ENDBRANCH   1  11
TORSDOF 1
ENDMDL
