MODEL 1
REMARK VINA RESULT:    -3.883      0.000      0.000
REMARK INTER + INTRA:          -5.852
REMARK INTER:                  -5.926
REMARK INTRA:                   0.074
REMARK UNBOUND:                 0.074
REMARK SMILES CC1=CCC[C@@H](C)C(=O)C[C@@H](C(C)C)C(=O)C1
REMARK SMILES IDX 8 1 9 2 6 3 7 4 5 5 4 6 3 7 2 8 1 9 10 11 11 12 15 13 16 14
REMARK SMILES IDX 17 15 12 17 13 18 14 19
REMARK H PARENT
REMARK Flexibility Score: 70.00
ROOT
ATOM      1  C   UNL     1      17.755  28.899  29.652  1.00  0.00     0.136 C 
ATOM      2  O   UNL     1      17.310  28.004  30.356  1.00  0.00    -0.299 OA
ENDROOT
BRANCH   1   3
ATOM      3  C   UNL     1      18.764  28.547  28.573  1.00  0.00     0.053 C 
ATOM      4  C   UNL     1      18.129  27.645  27.508  1.00  0.00     0.016 C 
BRANCH   3   5
ATOM      5  C   UNL     1      20.027  27.898  29.167  1.00  0.00     0.015 C 
BRANCH   5   6
ATOM      6  C   UNL     1      21.230  28.857  29.153  1.00  0.00     0.028 C 
BRANCH   6   7
ATOM      7  C   UNL     1      21.691  29.153  30.556  1.00  0.00    -0.028 C 
ATOM      8  C   UNL     1      21.495  30.329  31.197  1.00  0.00    -0.070 CG0
ATOM      9  C   UNL     1      21.958  30.441  32.628  1.00  0.00     0.039 C 
ATOM     10  G   UNL     1      20.846  31.534  30.533  1.00  0.00     0.000 G0
ENDBRANCH   6   7
ENDBRANCH   5   6
ENDBRANCH   3   5
ENDBRANCH   1   3
BRANCH   1  11
ATOM     11  C   UNL     1      17.301  30.319  29.910  1.00  0.00     0.087 C 
BRANCH  11  12
ATOM     12  C   UNL     1      18.399  31.359  29.559  1.00  0.00     0.066 C 
BRANCH  12  13
ATOM     13  C   UNL     1      19.348  31.584  30.729  1.00  0.00     0.140 C 
ATOM     14  O   UNL     1      18.899  31.853  31.834  1.00  0.00    -0.299 OA
BRANCH  13  15
ATOM     15  C   UNL     1      20.845  31.547  30.535  1.00  0.00     0.106 CG0
ATOM     16  G   UNL     1      21.479  30.324  31.180  1.00  0.00     0.000 G0
ENDBRANCH  13  15
ENDBRANCH  12  13
BRANCH  12  17
ATOM     17  C   UNL     1      17.788  32.693  29.028  1.00  0.00    -0.006 C 
ATOM     18  C   UNL     1      18.620  33.909  29.463  1.00  0.00     0.008 C 
ATOM     19  C   UNL     1      16.310  32.900  29.406  1.00  0.00     0.008 C 
ENDBRANCH  12  17
ENDBRANCH  11  12
ENDBRANCH   1  11
TORSDOF 1
ENDMDL
MODEL 2
REMARK VINA RESULT:    -3.624      1.950      3.595
REMARK INTER + INTRA:          -5.456
REMARK INTER:                  -4.987
REMARK INTRA:                  -0.469
REMARK UNBOUND:                 0.074
REMARK SMILES CC1=CCC[C@@H](C)C(=O)C[C@@H](C(C)C)C(=O)C1
REMARK SMILES IDX 8 1 9 2 6 3 7 4 5 5 4 6 3 7 2 8 1 9 10 11 11 12 15 13 16 14
REMARK SMILES IDX 17 15 12 17 13 18 14 19
REMARK H PARENT
REMARK Flexibility Score: 70.00
ROOT
ATOM      1  C   UNL     1      17.180  32.556  31.305  1.00  0.00     0.136 C 
ATOM      2  O   UNL     1      16.169  32.754  31.964  1.00  0.00    -0.299 OA
ENDROOT
BRANCH   1   3
ATOM      3  C   UNL     1      17.037  32.074  29.873  1.00  0.00     0.053 C 
ATOM      4  C   UNL     1      16.233  33.080  29.039  1.00  0.00     0.016 C 
BRANCH   3   5
ATOM      5  C   UNL     1      16.407  30.670  29.806  1.00  0.00     0.015 C 
BRANCH   5   6
ATOM      6  C   UNL     1      17.197  29.644  30.636  1.00  0.00     0.028 C 
BRANCH   6   7
ATOM      7  C   UNL     1      18.422  29.185  29.889  1.00  0.00    -0.028 C 
ATOM      8  C   UNL     1      19.691  29.321  30.339  1.00  0.00    -0.070 CG0
ATOM      9  C   UNL     1      20.804  28.746  29.501  1.00  0.00     0.039 C 
ATOM     10  G   UNL     1      20.036  30.037  31.636  1.00  0.00     0.000 G0
ENDBRANCH   6   7
ENDBRANCH   5   6
ENDBRANCH   3   5
ENDBRANCH   1   3
BRANCH   1  11
ATOM     11  C   UNL     1      18.527  32.770  31.961  1.00  0.00     0.087 C 
BRANCH  11  12
ATOM     12  C   UNL     1      19.703  32.558  30.969  1.00  0.00     0.066 C 
BRANCH  12  13
ATOM     13  C   UNL     1      20.605  31.413  31.412  1.00  0.00     0.140 C 
ATOM     14  O   UNL     1      21.808  31.597  31.528  1.00  0.00    -0.299 OA
BRANCH  13  15
ATOM     15  C   UNL     1      20.048  30.030  31.647  1.00  0.00     0.106 CG0
ATOM     16  G   UNL     1      19.698  29.321  30.348  1.00  0.00     0.000 G0
ENDBRANCH  13  15
ENDBRANCH  12  13
BRANCH  12  17
ATOM     17  C   UNL     1      20.499  33.877  30.721  1.00  0.00    -0.006 C 
ATOM     18  C   UNL     1      20.366  34.849  31.903  1.00  0.00     0.008 C 
ATOM     19  C   UNL     1      20.138  34.590  29.405  1.00  0.00     0.008 C 
ENDBRANCH  12  17
ENDBRANCH  11  12
ENDBRANCH   1  11
TORSDOF 1
ENDMDL
MODEL 3
REMARK VINA RESULT:    -3.542      1.754      3.569
REMARK INTER + INTRA:          -5.331
REMARK INTER:                  -5.371
REMARK INTRA:                   0.040
REMARK UNBOUND:                 0.074
REMARK SMILES CC1=CCC[C@@H](C)C(=O)C[C@@H](C(C)C)C(=O)C1
REMARK SMILES IDX 8 1 9 2 6 3 7 4 5 5 4 6 3 7 2 8 1 9 10 11 11 12 15 13 16 14
REMARK SMILES IDX 17 15 12 17 13 18 14 19
REMARK H PARENT
REMARK Flexibility Score: 70.00
ROOT
ATOM      1  C   UNL     1      20.973  28.188  29.699  1.00  0.00     0.136 C 
ATOM      2  O   UNL     1      21.072  26.977  29.558  1.00  0.00    -0.299 OA
ENDROOT
BRANCH   1   3
ATOM      3  C   UNL     1      22.171  29.062  29.370  1.00  0.00     0.053 C 
ATOM      4  C   UNL     1      23.139  28.327  28.435  1.00  0.00     0.016 C 
BRANCH   3   5
ATOM      5  C   UNL     1      22.889  29.543  30.644  1.00  0.00     0.015 C 
BRANCH   5   6
ATOM      6  C   UNL     1      22.062  30.589  31.412  1.00  0.00     0.028 C 
BRANCH   6   7
ATOM      7  C   UNL     1      21.805  31.799  30.553  1.00  0.00    -0.028 C 
ATOM      8  C   UNL     1      20.576  32.285  30.258  1.00  0.00    -0.070 CG0
ATOM      9  C   UNL     1      20.492  33.548  29.441  1.00  0.00     0.039 C 
ATOM     10  G   UNL     1      19.290  31.604  30.702  1.00  0.00     0.000 G0
ENDBRANCH   6   7
ENDBRANCH   5   6
ENDBRANCH   3   5
ENDBRANCH   1   3
BRANCH   1  11
ATOM     11  C   UNL     1      19.672  28.754  30.224  1.00  0.00     0.087 C 
BRANCH  11  12
ATOM     12  C   UNL     1      18.880  29.519  29.129  1.00  0.00     0.066 C 
BRANCH  12  13
ATOM     13  C   UNL     1      18.550  30.939  29.570  1.00  0.00     0.140 C 
ATOM     14  O   UNL     1      17.710  31.586  28.961  1.00  0.00    -0.299 OA
BRANCH  13  15
ATOM     15  C   UNL     1      19.292  31.592  30.712  1.00  0.00     0.106 CG0
ATOM     16  G   UNL     1      20.558  32.297  30.248  1.00  0.00     0.000 G0
ENDBRANCH  13  15
ENDBRANCH  12  13
BRANCH  12  17
ATOM     17  C   UNL     1      17.613  28.732  28.671  1.00  0.00    -0.006 C 
ATOM     18  C   UNL     1      16.784  28.249  29.870  1.00  0.00     0.008 C 
ATOM     19  C   UNL     1      17.914  27.555  27.725  1.00  0.00     0.008 C 
ENDBRANCH  12  17
ENDBRANCH  11  12
ENDBRANCH   1  11
TORSDOF 1
ENDMDL
MODEL 4
REMARK VINA RESULT:    -3.530     11.276     13.287
REMARK INTER + INTRA:          -5.313
REMARK INTER:                  -5.162
REMARK INTRA:                  -0.150
REMARK UNBOUND:                 0.074
REMARK SMILES CC1=CCC[C@@H](C)C(=O)C[C@@H](C(C)C)C(=O)C1
REMARK SMILES IDX 8 1 9 2 6 3 7 4 5 5 4 6 3 7 2 8 1 9 10 11 11 12 15 13 16 14
REMARK SMILES IDX 17 15 12 17 13 18 14 19
REMARK H PARENT
REMARK Flexibility Score: 70.00
ROOT
ATOM      1  C   UNL     1      30.182  31.164  28.588  1.00  0.00     0.136 C 
ATOM      2  O   UNL     1      29.197  30.516  28.266  1.00  0.00    -0.299 OA
ENDROOT
BRANCH   1   3
ATOM      3  C   UNL     1      30.365  31.538  30.048  1.00  0.00     0.053 C 
ATOM      4  C   UNL     1      30.242  30.300  30.946  1.00  0.00     0.016 C 
BRANCH   3   5
ATOM      5  C   UNL     1      29.378  32.637  30.482  1.00  0.00     0.015 C 
BRANCH   5   6
ATOM      6  C   UNL     1      30.039  34.026  30.515  1.00  0.00     0.028 C 
BRANCH   6   7
ATOM      7  C   UNL     1      31.459  33.927  31.009  1.00  0.00    -0.028 C 
ATOM      8  C   UNL     1      32.554  34.030  30.221  1.00  0.00    -0.070 CG0
ATOM      9  C   UNL     1      33.908  33.978  30.881  1.00  0.00     0.039 C 
ATOM     10  G   UNL     1      32.474  34.179  28.709  1.00  0.00     0.000 G0
ENDBRANCH   6   7
ENDBRANCH   5   6
ENDBRANCH   3   5
ENDBRANCH   1   3
BRANCH   1  11
ATOM     11  C   UNL     1      31.156  31.590  27.511  1.00  0.00     0.087 C 
BRANCH  11  12
ATOM     12  C   UNL     1      32.621  31.625  28.024  1.00  0.00     0.066 C 
BRANCH  12  13
ATOM     13  C   UNL     1      33.191  33.037  27.987  1.00  0.00     0.140 C 
ATOM     14  O   UNL     1      34.250  33.251  27.415  1.00  0.00    -0.299 OA
BRANCH  13  15
ATOM     15  C   UNL     1      32.501  34.173  28.703  1.00  0.00     0.106 CG0
ATOM     16  G   UNL     1      32.565  34.024  30.215  1.00  0.00     0.000 G0
ENDBRANCH  13  15
ENDBRANCH  12  13
BRANCH  12  17
ATOM     17  C   UNL     1      33.526  30.602  27.270  1.00  0.00    -0.006 C 
ATOM     18  C   UNL     1      32.985  30.296  25.866  1.00  0.00     0.008 C 
ATOM     19  C   UNL     1      33.770  29.292  28.041  1.00  0.00     0.008 C 
ENDBRANCH  12  17
ENDBRANCH  11  12
ENDBRANCH   1  11
TORSDOF 1
ENDMDL
MODEL 5
REMARK VINA RESULT:    -3.448      1.842      4.122
REMARK INTER + INTRA:          -5.188
REMARK INTER:                  -4.779
REMARK INTRA:                  -0.409
REMARK UNBOUND:                 0.074
REMARK SMILES CC1=CCC[C@@H](C)C(=O)C[C@@H](C(C)C)C(=O)C1
REMARK SMILES IDX 8 1 9 2 6 3 7 4 5 5 4 6 3 7 2 8 1 9 10 11 11 12 15 13 16 14
REMARK SMILES IDX 17 15 12 17 13 18 14 19
REMARK H PARENT
REMARK Flexibility Score: 70.00
ROOT
ATOM      1  C   UNL     1      16.838  32.503  29.932  1.00  0.00     0.136 C 
ATOM      2  O   UNL     1      16.018  33.304  29.507  1.00  0.00    -0.299 OA
ENDROOT
BRANCH   1   3
ATOM      3  C   UNL     1      17.811  32.954  31.007  1.00  0.00     0.053 C 
ATOM      4  C   UNL     1      17.058  33.441  32.252  1.00  0.00     0.016 C 
BRANCH   3   5
ATOM      5  C   UNL     1      18.774  34.036  30.485  1.00  0.00     0.015 C 
BRANCH   5   6
ATOM      6  C   UNL     1      19.933  33.432  29.672  1.00  0.00     0.028 C 
BRANCH   6   7
ATOM      7  C   UNL     1      20.689  32.422  30.495  1.00  0.00    -0.028 C 
ATOM      8  C   UNL     1      20.729  31.094  30.234  1.00  0.00    -0.070 CG0
ATOM      9  C   UNL     1      21.590  30.225  31.115  1.00  0.00     0.039 C 
ATOM     10  G   UNL     1      19.935  30.449  29.109  1.00  0.00     0.000 G0
ENDBRANCH   6   7
ENDBRANCH   5   6
ENDBRANCH   3   5
ENDBRANCH   1   3
BRANCH   1  11
ATOM     11  C   UNL     1      16.866  31.110  29.342  1.00  0.00     0.087 C 
BRANCH  11  12
ATOM     12  C   UNL     1      17.596  30.096  30.265  1.00  0.00     0.066 C 
BRANCH  12  13
ATOM     13  C   UNL     1      18.838  29.526  29.592  1.00  0.00     0.140 C 
ATOM     14  O   UNL     1      18.979  28.315  29.501  1.00  0.00    -0.299 OA
BRANCH  13  15
ATOM     15  C   UNL     1      19.938  30.432  29.093  1.00  0.00     0.106 CG0
ATOM     16  G   UNL     1      20.716  31.074  30.231  1.00  0.00     0.000 G0
ENDBRANCH  13  15
ENDBRANCH  12  13
BRANCH  12  17
ATOM     17  C   UNL     1      16.634  28.979  30.777  1.00  0.00    -0.006 C 
ATOM     18  C   UNL     1      15.332  28.937  29.963  1.00  0.00     0.008 C 
ATOM     19  C   UNL     1      16.317  29.065  32.281  1.00  0.00     0.008 C 
ENDBRANCH  12  17
ENDBRANCH  11  12
ENDBRANCH   1  11
TORSDOF 1
ENDMDL
MODEL 6
REMARK VINA RESULT:    -3.411      2.673      4.330
REMARK INTER + INTRA:          -5.132
REMARK INTER:                  -5.404
REMARK INTRA:                   0.272
REMARK UNBOUND:                 0.074
REMARK SMILES CC1=CCC[C@@H](C)C(=O)C[C@@H](C(C)C)C(=O)C1
REMARK SMILES IDX 8 1 9 2 6 3 7 4 5 5 4 6 3 7 2 8 1 9 10 11 11 12 15 13 16 14
REMARK SMILES IDX 17 15 12 17 13 18 14 19
REMARK H PARENT
REMARK Flexibility Score: 70.00
ROOT
ATOM      1  C   UNL     1      19.798  28.481  28.790  1.00  0.00     0.136 C 
ATOM      2  O   UNL     1      20.942  28.904  28.698  1.00  0.00    -0.299 OA
ENDROOT
BRANCH   1   3
ATOM      3  C   UNL     1      19.581  26.985  28.928  1.00  0.00     0.053 C 
ATOM      4  C   UNL     1      20.908  26.266  29.202  1.00  0.00     0.016 C 
BRANCH   3   5
ATOM      5  C   UNL     1      18.878  26.397  27.690  1.00  0.00     0.015 C 
BRANCH   5   6
ATOM      6  C   UNL     1      17.377  26.735  27.665  1.00  0.00     0.028 C 
BRANCH   6   7
ATOM      7  C   UNL     1      16.715  26.315  28.951  1.00  0.00    -0.028 C 
ATOM      8  C   UNL     1      16.083  27.158  29.801  1.00  0.00    -0.070 CG0
ATOM      9  C   UNL     1      15.411  26.568  31.014  1.00  0.00     0.039 C 
ATOM     10  G   UNL     1      16.038  28.664  29.589  1.00  0.00     0.000 G0
ENDBRANCH   6   7
ENDBRANCH   5   6
ENDBRANCH   3   5
ENDBRANCH   1   3
BRANCH   1  11
ATOM     11  C   UNL     1      18.653  29.468  28.731  1.00  0.00     0.087 C 
BRANCH  11  12
ATOM     12  C   UNL     1      18.243  29.977  30.139  1.00  0.00     0.066 C 
BRANCH  12  13
ATOM     13  C   UNL     1      16.888  29.423  30.560  1.00  0.00     0.140 C 
ATOM     14  O   UNL     1      16.515  29.541  31.718  1.00  0.00    -0.299 OA
BRANCH  13  15
ATOM     15  C   UNL     1      16.019  28.667  29.584  1.00  0.00     0.106 CG0
ATOM     16  G   UNL     1      16.087  27.163  29.797  1.00  0.00     0.000 G0
ENDBRANCH  13  15
ENDBRANCH  12  13
BRANCH  12  17
ATOM     17  C   UNL     1      18.301  31.534  30.235  1.00  0.00    -0.006 C 
ATOM     18  C   UNL     1      17.533  32.199  29.083  1.00  0.00     0.008 C 
ATOM     19  C   UNL     1      19.729  32.104  30.319  1.00  0.00     0.008 C 
ENDBRANCH  12  17
ENDBRANCH  11  12
ENDBRANCH   1  11
TORSDOF 1
ENDMDL
MODEL 7
REMARK VINA RESULT:    -3.399      1.939      4.032
REMARK INTER + INTRA:          -5.113
REMARK INTER:                  -4.662
REMARK INTRA:                  -0.451
REMARK UNBOUND:                 0.074
REMARK SMILES CC1=CCC[C@@H](C)C(=O)C[C@@H](C(C)C)C(=O)C1
REMARK SMILES IDX 8 1 9 2 6 3 7 4 5 5 4 6 3 7 2 8 1 9 10 11 11 12 15 13 16 14
REMARK SMILES IDX 17 15 12 17 13 18 14 19
REMARK H PARENT
REMARK Flexibility Score: 70.00
ROOT
ATOM      1  C   UNL     1      18.143  32.133  29.469  1.00  0.00     0.136 C 
ATOM      2  O   UNL     1      17.946  32.995  28.625  1.00  0.00    -0.299 OA
ENDROOT
BRANCH   1   3
ATOM      3  C   UNL     1      17.321  32.157  30.745  1.00  0.00     0.053 C 
ATOM      4  C   UNL     1      15.846  32.441  30.436  1.00  0.00     0.016 C 
BRANCH   3   5
ATOM      5  C   UNL     1      17.879  33.171  31.761  1.00  0.00     0.015 C 
BRANCH   5   6
ATOM      6  C   UNL     1      18.741  32.492  32.839  1.00  0.00     0.028 C 
BRANCH   6   7
ATOM      7  C   UNL     1      20.199  32.811  32.633  1.00  0.00    -0.028 C 
ATOM      8  C   UNL     1      21.157  31.890  32.375  1.00  0.00    -0.070 CG0
ATOM      9  C   UNL     1      22.560  32.381  32.125  1.00  0.00     0.039 C 
ATOM     10  G   UNL     1      20.880  30.395  32.344  1.00  0.00     0.000 G0
ENDBRANCH   6   7
ENDBRANCH   5   6
ENDBRANCH   3   5
ENDBRANCH   1   3
BRANCH   1  11
ATOM     11  C   UNL     1      19.219  31.100  29.214  1.00  0.00     0.087 C 
BRANCH  11  12
ATOM     12  C   UNL     1      19.245  29.996  30.306  1.00  0.00     0.066 C 
BRANCH  12  13
ATOM     13  C   UNL     1      20.625  29.872  30.940  1.00  0.00     0.140 C 
ATOM     14  O   UNL     1      21.523  29.305  30.335  1.00  0.00    -0.299 OA
BRANCH  13  15
ATOM     15  C   UNL     1      20.888  30.379  32.337  1.00  0.00     0.106 CG0
ATOM     16  G   UNL     1      21.151  31.877  32.366  1.00  0.00     0.000 G0
ENDBRANCH  13  15
ENDBRANCH  12  13
BRANCH  12  17
ATOM     17  C   UNL     1      18.716  28.631  29.766  1.00  0.00    -0.006 C 
ATOM     18  C   UNL     1      18.577  28.644  28.237  1.00  0.00     0.008 C 
ATOM     19  C   UNL     1      17.399  28.168  30.415  1.00  0.00     0.008 C 
ENDBRANCH  12  17
ENDBRANCH  11  12
ENDBRANCH   1  11
TORSDOF 1
ENDMDL
MODEL 8
REMARK VINA RESULT:    -3.399      2.017      4.226
REMARK INTER + INTRA:          -5.113
REMARK INTER:                  -4.792
REMARK INTRA:                  -0.321
REMARK UNBOUND:                 0.074
REMARK SMILES CC1=CCC[C@@H](C)C(=O)C[C@@H](C(C)C)C(=O)C1
REMARK SMILES IDX 8 1 9 2 6 3 7 4 5 5 4 6 3 7 2 8 1 9 10 11 11 12 15 13 16 14
REMARK SMILES IDX 17 15 12 17 13 18 14 19
REMARK H PARENT
REMARK Flexibility Score: 70.00
ROOT
ATOM      1  C   UNL     1      18.021  29.902  29.623  1.00  0.00     0.136 C 
ATOM      2  O   UNL     1      17.367  29.134  28.932  1.00  0.00    -0.299 OA
ENDROOT
BRANCH   1   3
ATOM      3  C   UNL     1      17.575  30.159  31.052  1.00  0.00     0.053 C 
ATOM      4  C   UNL     1      17.423  28.841  31.820  1.00  0.00     0.016 C 
BRANCH   3   5
ATOM      5  C   UNL     1      16.273  30.982  31.101  1.00  0.00     0.015 C 
BRANCH   5   6
ATOM      6  C   UNL     1      16.461  32.394  30.520  1.00  0.00     0.028 C 
BRANCH   6   7
ATOM      7  C   UNL     1      17.298  33.242  31.442  1.00  0.00    -0.028 C 
ATOM      8  C   UNL     1      18.431  33.885  31.077  1.00  0.00    -0.070 CG0
ATOM      9  C   UNL     1      19.116  34.751  32.103  1.00  0.00     0.039 C 
ATOM     10  G   UNL     1      19.044  33.757  29.690  1.00  0.00     0.000 G0
ENDBRANCH   6   7
ENDBRANCH   5   6
ENDBRANCH   3   5
ENDBRANCH   1   3
BRANCH   1  11
ATOM     11  C   UNL     1      19.225  30.584  29.012  1.00  0.00     0.087 C 
BRANCH  11  12
ATOM     12  C   UNL     1      20.062  31.356  30.067  1.00  0.00     0.066 C 
BRANCH  12  13
ATOM     13  C   UNL     1      20.228  32.821  29.684  1.00  0.00     0.140 C 
ATOM     14  O   UNL     1      21.337  33.256  29.409  1.00  0.00    -0.299 OA
BRANCH  13  15
ATOM     15  C   UNL     1      19.052  33.768  29.702  1.00  0.00     0.106 CG0
ATOM     16  G   UNL     1      18.425  33.881  31.083  1.00  0.00     0.000 G0
ENDBRANCH  13  15
ENDBRANCH  12  13
BRANCH  12  17
ATOM     17  C   UNL     1      21.430  30.659  30.347  1.00  0.00    -0.006 C 
ATOM     18  C   UNL     1      21.627  29.423  29.458  1.00  0.00     0.008 C 
ATOM     19  C   UNL     1      21.655  30.290  31.825  1.00  0.00     0.008 C 
ENDBRANCH  12  17
ENDBRANCH  11  12
ENDBRANCH   1  11
TORSDOF 1
ENDMDL
MODEL 9
REMARK VINA RESULT:    -3.393      1.599      4.072
REMARK INTER + INTRA:          -5.104
REMARK INTER:                  -5.277
REMARK INTRA:                   0.173
REMARK UNBOUND:                 0.074
REMARK SMILES CC1=CCC[C@@H](C)C(=O)C[C@@H](C(C)C)C(=O)C1
REMARK SMILES IDX 8 1 9 2 6 3 7 4 5 5 4 6 3 7 2 8 1 9 10 11 11 12 15 13 16 14
REMARK SMILES IDX 17 15 12 17 13 18 14 19
REMARK H PARENT
REMARK Flexibility Score: 70.00
ROOT
ATOM      1  C   UNL     1      18.072  30.321  29.538  1.00  0.00     0.136 C 
ATOM      2  O   UNL     1      17.146  29.645  29.962  1.00  0.00    -0.299 OA
ENDROOT
BRANCH   1   3
ATOM      3  C   UNL     1      18.151  31.784  29.938  1.00  0.00     0.053 C 
ATOM      4  C   UNL     1      17.293  32.650  29.007  1.00  0.00     0.016 C 
BRANCH   3   5
ATOM      5  C   UNL     1      19.607  32.285  29.975  1.00  0.00     0.015 C 
BRANCH   5   6
ATOM      6  C   UNL     1      20.277  32.012  31.333  1.00  0.00     0.028 C 
BRANCH   6   7
ATOM      7  C   UNL     1      21.738  31.693  31.150  1.00  0.00    -0.028 C 
ATOM      8  C   UNL     1      22.239  30.444  31.005  1.00  0.00    -0.070 CG0
ATOM      9  C   UNL     1      23.720  30.299  30.762  1.00  0.00     0.039 C 
ATOM     10  G   UNL     1      21.378  29.193  31.092  1.00  0.00     0.000 G0
ENDBRANCH   6   7
ENDBRANCH   5   6
ENDBRANCH   3   5
ENDBRANCH   1   3
BRANCH   1  11
ATOM     11  C   UNL     1      19.078  29.676  28.611  1.00  0.00     0.087 C 
BRANCH  11  12
ATOM     12  C   UNL     1      19.683  28.378  29.212  1.00  0.00     0.066 C 
BRANCH  12  13
ATOM     13  C   UNL     1      21.107  28.603  29.703  1.00  0.00     0.140 C 
ATOM     14  O   UNL     1      22.052  28.255  29.011  1.00  0.00    -0.299 OA
BRANCH  13  15
ATOM     15  C   UNL     1      21.375  29.191  31.068  1.00  0.00     0.106 CG0
ATOM     16  G   UNL     1      22.243  30.438  30.997  1.00  0.00     0.000 G0
ENDBRANCH  13  15
ENDBRANCH  12  13
BRANCH  12  17
ATOM     17  C   UNL     1      19.582  27.177  28.221  1.00  0.00    -0.006 C 
ATOM     18  C   UNL     1      18.233  27.162  27.487  1.00  0.00     0.008 C 
ATOM     19  C   UNL     1      19.848  25.806  28.869  1.00  0.00     0.008 C 
ENDBRANCH  12  17
ENDBRANCH  11  12
ENDBRANCH   1  11
TORSDOF 1
ENDMDL
