MODEL 1
REMARK VINA RESULT:    -4.804      0.000      0.000
REMARK INTER + INTRA:          -6.410
REMARK INTER:                  -6.770
REMARK INTRA:                   0.360
REMARK UNBOUND:                 0.360
REMARK SMILES C=C(CC[C@H](C(=O)[O-])[C@H]1[C@@H](O)C[C@]2(C)C3=C(CC[C@]12C)[C@@]1(C)CC[C@H](O)C(C)(C)[C@H]1CC3)C(C)C
REMARK SMILES IDX 4 1 5 2 6 3 7 4 8 5 9 6 10 7 19 8 12 9 13 10 18 11 20 12
REMARK SMILES IDX 14 13 15 14 17 15 16 16 32 17 21 18 31 19 30 20 23 21 22 22
REMARK SMILES IDX 27 23 24 24 25 25 28 26 29 27 11 28 26 30 3 32 2 33 1 34
REMARK SMILES IDX 33 35 34 36 35 37
REMARK H PARENT 11 29 26 31
REMARK Flexibility Score: inf
ROOT
ATOM      1  C   UNL     1      91.068 111.559 107.700  1.00  0.00     0.014 C 
ENDROOT
BRANCH   1   2
ATOM      2  C   UNL     1      91.404 112.883 108.452  1.00  0.00     0.042 C 
BRANCH   2   3
ATOM      3  C   UNL     1      90.355 113.951 108.188  1.00  0.00     0.045 C 
ATOM      4  O   UNL     1      90.281 114.529 107.075  1.00  0.00    -0.550 OA
ATOM      5  O   UNL     1      89.547 114.411 109.223  1.00  0.00    -0.550 OA
ENDBRANCH   2   3
BRANCH   2   6
ATOM      6  C   UNL     1      92.952 113.265 108.316  1.00  0.00     0.033 C 
ATOM      7  C   UNL     1      93.734 113.520 109.624  1.00  0.00     0.119 C 
ATOM      8  C   UNL     1      93.909 112.332 107.454  1.00  0.00    -0.017 C 
ATOM      9  C   UNL     1      94.644 112.308 109.845  1.00  0.00     0.043 C 
ATOM     10  C   UNL     1      94.720 111.481 108.524  1.00  0.00    -0.003 C 
ATOM     11  C   UNL     1      94.878 113.232 106.591  1.00  0.00     0.012 C 
ATOM     12  C   UNL     1      93.162 111.460 106.392  1.00  0.00     0.013 C 
ATOM     13  C   UNL     1      94.042 110.097 108.771  1.00  0.00     0.017 C 
ATOM     14  C   UNL     1      96.223 111.294 108.145  1.00  0.00    -0.064 C 
ATOM     15  C   UNL     1      96.189 113.600 107.276  1.00  0.00     0.032 C 
ATOM     16  C   UNL     1      96.949 112.343 107.659  1.00  0.00    -0.064 C 
ATOM     17  C   UNL     1      96.971 110.008 108.432  1.00  0.00     0.032 C 
ATOM     18  C   UNL     1      98.470 112.216 107.356  1.00  0.00    -0.008 C 
ATOM     19  C   UNL     1      98.230 110.339 109.201  1.00  0.00     0.009 C 
ATOM     20  C   UNL     1      99.202 111.194 108.349  1.00  0.00     0.007 C 
ATOM     21  C   UNL     1      99.155 113.627 107.384  1.00  0.00     0.014 C 
ATOM     22  C   UNL     1      98.578 111.690 105.899  1.00  0.00     0.016 C 
ATOM     23  C   UNL     1     100.346 111.812 109.244  1.00  0.00    -0.006 C 
ATOM     24  C   UNL     1     100.683 113.604 107.354  1.00  0.00     0.033 C 
ATOM     25  C   UNL     1     101.345 112.625 108.349  1.00  0.00     0.120 C 
ATOM     26  C   UNL     1     101.155 110.677 109.939  1.00  0.00     0.014 C 
ATOM     27  C   UNL     1      99.769 112.719 110.379  1.00  0.00     0.014 C 
BRANCH   7  28
ATOM     28  O   UNL     1      92.917 113.755 110.739  1.00  0.00    -0.393 OA
ATOM     29  H   UNL     1      92.265 113.012 110.778  1.00  0.00     0.210 HD
ENDBRANCH   7  28
BRANCH  25  30
ATOM     30  O   UNL     1     102.238 111.779 107.653  1.00  0.00    -0.393 OA
ATOM     31  H   UNL     1     101.844 111.581 106.760  1.00  0.00     0.210 HD
ENDBRANCH  25  30
ENDBRANCH   2   6
ENDBRANCH   1   2
BRANCH   1  32
ATOM     32  C   UNL     1      89.567 111.188 107.585  1.00  0.00     0.031 C 
BRANCH  32  33
ATOM     33  C   UNL     1      89.296 109.831 106.958  1.00  0.00    -0.075 C 
ATOM     34  C   UNL     1      90.001 109.452 105.876  1.00  0.00     0.008 C 
BRANCH  33  35
ATOM     35  C   UNL     1      88.104 109.003 107.435  1.00  0.00     0.008 C 
ATOM     36  C   UNL     1      88.280 107.503 107.154  1.00  0.00     0.012 C 
ATOM     37  C   UNL     1      86.797 109.529 106.822  1.00  0.00     0.012 C 
ENDBRANCH  33  35
ENDBRANCH  32  33
ENDBRANCH   1  32
TORSDOF 8
ENDMDL
MODEL 2
REMARK VINA RESULT:    -2.777      5.258     10.181
REMARK INTER + INTRA:          -3.554
REMARK INTER:                  -2.602
REMARK INTRA:                  -0.952
REMARK UNBOUND:                 0.360
REMARK SMILES C=C(CC[C@H](C(=O)[O-])[C@H]1[C@@H](O)C[C@]2(C)C3=C(CC[C@]12C)[C@@]1(C)CC[C@H](O)C(C)(C)[C@H]1CC3)C(C)C
REMARK SMILES IDX 4 1 5 2 6 3 7 4 8 5 9 6 10 7 19 8 12 9 13 10 18 11 20 12
REMARK SMILES IDX 14 13 15 14 17 15 16 16 32 17 21 18 31 19 30 20 23 21 22 22
REMARK SMILES IDX 27 23 24 24 25 25 28 26 29 27 11 28 26 30 3 32 2 33 1 34
REMARK SMILES IDX 33 35 34 36 35 37
REMARK H PARENT 11 29 26 31
REMARK Flexibility Score: inf
ROOT
ATOM      1  C   UNL     1     100.351 112.841 117.345  1.00  0.00     0.014 C 
ENDROOT
BRANCH   1   2
ATOM      2  C   UNL     1     100.606 112.599 115.825  1.00  0.00     0.042 C 
BRANCH   2   3
ATOM      3  C   UNL     1     101.910 113.237 115.375  1.00  0.00     0.045 C 
ATOM      4  O   UNL     1     102.594 112.736 114.447  1.00  0.00    -0.550 OA
ATOM      5  O   UNL     1     102.446 114.309 116.081  1.00  0.00    -0.550 OA
ENDBRANCH   2   3
BRANCH   2   6
ATOM      6  C   UNL     1      99.283 112.841 114.957  1.00  0.00     0.033 C 
ATOM      7  C   UNL     1      99.283 114.047 113.992  1.00  0.00     0.119 C 
ATOM      8  C   UNL     1      98.687 111.642 114.100  1.00  0.00    -0.017 C 
ATOM      9  C   UNL     1      99.419 113.484 112.574  1.00  0.00     0.043 C 
ATOM     10  C   UNL     1      99.132 111.951 112.605  1.00  0.00    -0.003 C 
ATOM     11  C   UNL     1      97.114 111.634 114.235  1.00  0.00     0.012 C 
ATOM     12  C   UNL     1      99.115 110.224 114.602  1.00  0.00     0.013 C 
ATOM     13  C   UNL     1     100.450 111.196 112.244  1.00  0.00     0.017 C 
ATOM     14  C   UNL     1      98.017 111.637 111.558  1.00  0.00    -0.064 C 
ATOM     15  C   UNL     1      96.378 112.474 113.198  1.00  0.00     0.032 C 
ATOM     16  C   UNL     1      96.721 111.995 111.799  1.00  0.00    -0.064 C 
ATOM     17  C   UNL     1      98.335 111.066 110.191  1.00  0.00     0.032 C 
ATOM     18  C   UNL     1      95.601 111.779 110.740  1.00  0.00    -0.008 C 
ATOM     19  C   UNL     1      97.696 111.943 109.138  1.00  0.00     0.009 C 
ATOM     20  C   UNL     1      96.150 111.914 109.241  1.00  0.00     0.007 C 
ATOM     21  C   UNL     1      94.405 112.759 111.000  1.00  0.00     0.014 C 
ATOM     22  C   UNL     1      95.064 110.339 110.969  1.00  0.00     0.016 C 
ATOM     23  C   UNL     1      95.502 113.064 108.378  1.00  0.00    -0.006 C 
ATOM     24  C   UNL     1      93.364 112.817 109.882  1.00  0.00     0.033 C 
ATOM     25  C   UNL     1      93.938 112.977 108.456  1.00  0.00     0.120 C 
ATOM     26  C   UNL     1      95.907 112.905 106.882  1.00  0.00     0.014 C 
ATOM     27  C   UNL     1      95.992 114.477 108.832  1.00  0.00     0.014 C 
BRANCH   7  28
ATOM     28  O   UNL     1     100.282 114.993 114.263  1.00  0.00    -0.393 OA
ATOM     29  H   UNL     1      99.915 115.611 114.942  1.00  0.00     0.210 HD
ENDBRANCH   7  28
BRANCH  25  30
ATOM     30  O   UNL     1      93.425 111.956 107.625  1.00  0.00    -0.393 OA
ATOM     31  H   UNL     1      93.155 111.192 108.204  1.00  0.00     0.210 HD
ENDBRANCH  25  30
ENDBRANCH   2   6
ENDBRANCH   1   2
BRANCH   1  32
ATOM     32  C   UNL     1      99.134 112.110 117.968  1.00  0.00     0.031 C 
BRANCH  32  33
ATOM     33  C   UNL     1      99.421 111.411 119.286  1.00  0.00    -0.075 C 
ATOM     34  C   UNL     1      99.458 112.135 120.421  1.00  0.00     0.008 C 
BRANCH  33  35
ATOM     35  C   UNL     1      99.854 109.947 119.286  1.00  0.00     0.008 C 
ATOM     36  C   UNL     1     101.241 109.744 119.916  1.00  0.00     0.012 C 
ATOM     37  C   UNL     1      99.804 109.365 117.866  1.00  0.00     0.012 C 
ENDBRANCH  33  35
ENDBRANCH  32  33
ENDBRANCH   1  32
TORSDOF 8
ENDMDL
MODEL 3
REMARK VINA RESULT:    -2.470      5.449      9.943
REMARK INTER + INTRA:          -3.122
REMARK INTER:                  -2.993
REMARK INTRA:                  -0.129
REMARK UNBOUND:                 0.360
REMARK SMILES C=C(CC[C@H](C(=O)[O-])[C@H]1[C@@H](O)C[C@]2(C)C3=C(CC[C@]12C)[C@@]1(C)CC[C@H](O)C(C)(C)[C@H]1CC3)C(C)C
REMARK SMILES IDX 4 1 5 2 6 3 7 4 8 5 9 6 10 7 19 8 12 9 13 10 18 11 20 12
REMARK SMILES IDX 14 13 15 14 17 15 16 16 32 17 21 18 31 19 30 20 23 21 22 22
REMARK SMILES IDX 27 23 24 24 25 25 28 26 29 27 11 28 26 30 3 32 2 33 1 34
REMARK SMILES IDX 33 35 34 36 35 37
REMARK H PARENT 11 29 26 31
REMARK Flexibility Score: inf
ROOT
ATOM      1  C   UNL     1      98.974 112.086 116.691  1.00  0.00     0.014 C 
ENDROOT
BRANCH   1   2
ATOM      2  C   UNL     1     100.325 111.929 115.928  1.00  0.00     0.042 C 
BRANCH   2   3
ATOM      3  C   UNL     1     101.261 113.091 116.217  1.00  0.00     0.045 C 
ATOM      4  O   UNL     1     102.413 113.139 115.717  1.00  0.00    -0.550 OA
ATOM      5  O   UNL     1     100.913 114.054 117.159  1.00  0.00    -0.550 OA
ENDBRANCH   2   3
BRANCH   2   6
ATOM      6  C   UNL     1     100.098 111.474 114.410  1.00  0.00     0.033 C 
ATOM      7  C   UNL     1      99.319 110.162 114.176  1.00  0.00     0.119 C 
ATOM      8  C   UNL     1      99.466 112.505 113.377  1.00  0.00    -0.017 C 
ATOM      9  C   UNL     1      97.929 110.552 113.663  1.00  0.00     0.043 C 
ATOM     10  C   UNL     1      97.951 112.049 113.223  1.00  0.00    -0.003 C 
ATOM     11  C   UNL     1     100.233 112.403 112.001  1.00  0.00     0.012 C 
ATOM     12  C   UNL     1      99.632 114.005 113.789  1.00  0.00     0.013 C 
ATOM     13  C   UNL     1      97.021 112.857 114.182  1.00  0.00     0.017 C 
ATOM     14  C   UNL     1      97.431 112.139 111.754  1.00  0.00    -0.064 C 
ATOM     15  C   UNL     1      99.661 111.383 111.023  1.00  0.00     0.032 C 
ATOM     16  C   UNL     1      98.211 111.709 110.718  1.00  0.00    -0.064 C 
ATOM     17  C   UNL     1      96.013 112.559 111.426  1.00  0.00     0.032 C 
ATOM     18  C   UNL     1      97.691 111.700 109.251  1.00  0.00    -0.008 C 
ATOM     19  C   UNL     1      95.389 111.508 110.535  1.00  0.00     0.009 C 
ATOM     20  C   UNL     1      96.115 111.425 109.168  1.00  0.00     0.007 C 
ATOM     21  C   UNL     1      98.496 110.667 108.389  1.00  0.00     0.014 C 
ATOM     22  C   UNL     1      98.002 113.109 108.674  1.00  0.00     0.016 C 
ATOM     23  C   UNL     1      95.689 110.126 108.379  1.00  0.00    -0.006 C 
ATOM     24  C   UNL     1      97.912 110.385 107.005  1.00  0.00     0.033 C 
ATOM     25  C   UNL     1      96.394 110.096 106.979  1.00  0.00     0.120 C 
ATOM     26  C   UNL     1      94.151 110.130 108.130  1.00  0.00     0.014 C 
ATOM     27  C   UNL     1      96.015 108.826 109.182  1.00  0.00     0.014 C 
BRANCH   7  28
ATOM     28  O   UNL     1      99.232 109.341 115.309  1.00  0.00    -0.393 OA
ATOM     29  H   UNL     1      98.654 108.577 115.066  1.00  0.00     0.210 HD
ENDBRANCH   7  28
BRANCH  25  30
ATOM     30  O   UNL     1      95.767 110.960 106.053  1.00  0.00    -0.393 OA
ATOM     31  H   UNL     1      96.431 111.646 105.771  1.00  0.00     0.210 HD
ENDBRANCH  25  30
ENDBRANCH   2   6
ENDBRANCH   1   2
BRANCH   1  32
ATOM     32  C   UNL     1      98.634 110.988 117.731  1.00  0.00     0.031 C 
BRANCH  32  33
ATOM     33  C   UNL     1      99.545 110.961 118.946  1.00  0.00    -0.075 C 
ATOM     34  C   UNL     1      99.487 111.970 119.836  1.00  0.00     0.008 C 
BRANCH  33  35
ATOM     35  C   UNL     1     100.644 109.905 119.043  1.00  0.00     0.008 C 
ATOM     36  C   UNL     1     100.176 108.523 118.562  1.00  0.00     0.012 C 
ATOM     37  C   UNL     1     101.203 109.832 120.472  1.00  0.00     0.012 C 
ENDBRANCH  33  35
ENDBRANCH  32  33
ENDBRANCH   1  32
TORSDOF 8
ENDMDL
