MODEL 1
REMARK VINA RESULT:    -6.355      0.000      0.000
REMARK INTER + INTRA:         -10.613
REMARK INTER:                  -8.770
REMARK INTRA:                  -1.844
REMARK UNBOUND:                -1.844
REMARK SMILES CC[C@@H](CC[C@H](C)[C@@H]1CC[C@H]2[C@H]3CC=C4C[C@@H](O)CC[C@@]4(C)[C@@H]3CC[C@]21C)C(C)C
REMARK SMILES IDX 5 1 4 2 3 3 2 4 1 5 28 6 29 7 30 8 6 9 7 10 8 11 9 12 26 13
REMARK SMILES IDX 10 14 11 15 25 16 27 17 12 18 24 19 23 20 13 21 21 22 14 23
REMARK SMILES IDX 15 24 20 25 22 26 16 27 19 28 17 29 18 30
REMARK H PARENT 18 31
REMARK Flexibility Score: inf
ROOT
ATOM      1  C   UNL     1      -1.078  -0.071  -5.547  1.00  0.00     0.004 C 
ENDROOT
BRANCH   1   2
ATOM      2  C   UNL     1      -1.810   1.119  -6.226  1.00  0.00     0.004 C 
BRANCH   2   3
ATOM      3  C   UNL     1      -2.525   2.079  -5.230  1.00  0.00    -0.009 C 
BRANCH   3   4
ATOM      4  C   UNL     1      -3.974   1.588  -4.931  1.00  0.00     0.000 C 
ATOM      5  C   UNL     1      -4.064   0.799  -3.635  1.00  0.00     0.004 C 
ENDBRANCH   3   4
BRANCH   3   6
ATOM      6  C   UNL     1      -2.467   3.568  -5.731  1.00  0.00    -0.014 C 
ATOM      7  C   UNL     1      -1.725   4.492  -4.751  1.00  0.00     0.007 C 
ATOM      8  C   UNL     1      -3.849   4.156  -6.096  1.00  0.00     0.007 C 
ENDBRANCH   3   6
ENDBRANCH   2   3
ENDBRANCH   1   2
BRANCH   1   9
ATOM      9  C   UNL     1       0.481   0.093  -5.539  1.00  0.00    -0.011 C 
ATOM     10  C   UNL     1       1.127  -1.293  -5.803  1.00  0.00     0.008 C 
BRANCH   9  11
ATOM     11  C   UNL     1       1.050   0.776  -4.233  1.00  0.00    -0.002 C 
ATOM     12  C   UNL     1      -0.057   1.124  -3.225  1.00  0.00     0.005 C 
ATOM     13  C   UNL     1       1.850   2.131  -4.422  1.00  0.00    -0.026 C 
ATOM     14  C   UNL     1       0.468   2.258  -2.374  1.00  0.00     0.005 C 
ATOM     15  C   UNL     1       1.277   3.112  -3.339  1.00  0.00    -0.001 C 
ATOM     16  C   UNL     1       3.391   1.905  -4.222  1.00  0.00     0.007 C 
ATOM     17  C   UNL     1       1.645   2.811  -5.804  1.00  0.00     0.012 C 
ATOM     18  C   UNL     1       2.369   4.004  -2.692  1.00  0.00     0.000 C 
ATOM     19  C   UNL     1       3.811   1.859  -2.746  1.00  0.00     0.005 C 
ATOM     20  C   UNL     1       3.491   3.189  -2.000  1.00  0.00     0.003 C 
ATOM     21  C   UNL     1       1.840   5.031  -1.691  1.00  0.00     0.031 C 
ATOM     22  C   UNL     1       4.727   4.111  -1.667  1.00  0.00    -0.008 C 
ATOM     23  C   UNL     1       2.969   5.887  -1.170  1.00  0.00    -0.027 C 
ATOM     24  C   UNL     1       4.259   5.466  -1.099  1.00  0.00    -0.065 C 
ATOM     25  C   UNL     1       5.587   3.419  -0.557  1.00  0.00     0.014 C 
ATOM     26  C   UNL     1       5.593   4.337  -2.933  1.00  0.00     0.016 C 
ATOM     27  C   UNL     1       5.304   6.382  -0.499  1.00  0.00     0.063 C 
ATOM     28  C   UNL     1       6.717   4.321  -0.034  1.00  0.00     0.033 C 
ATOM     29  C   UNL     1       6.181   5.639   0.527  1.00  0.00     0.118 C 
BRANCH  29  30
ATOM     30  O   UNL     1       5.469   5.402   1.723  1.00  0.00    -0.393 OA
ATOM     31  H   UNL     1       5.943   4.660   2.194  1.00  0.00     0.210 HD
ENDBRANCH  29  30
ENDBRANCH   9  11
ENDBRANCH   1   9
TORSDOF 7
ENDMDL
MODEL 2
REMARK VINA RESULT:    -6.280      4.431      6.864
REMARK INTER + INTRA:         -10.511
REMARK INTER:                  -8.644
REMARK INTRA:                  -1.866
REMARK UNBOUND:                -1.844
REMARK SMILES CC[C@@H](CC[C@H](C)[C@@H]1CC[C@H]2[C@H]3CC=C4C[C@@H](O)CC[C@@]4(C)[C@@H]3CC[C@]21C)C(C)C
REMARK SMILES IDX 5 1 4 2 3 3 2 4 1 5 28 6 29 7 30 8 6 9 7 10 8 11 9 12 26 13
REMARK SMILES IDX 10 14 11 15 25 16 27 17 12 18 24 19 23 20 13 21 21 22 14 23
REMARK SMILES IDX 15 24 20 25 22 26 16 27 19 28 17 29 18 30
REMARK H PARENT 18 31
REMARK Flexibility Score: inf
ROOT
ATOM      1  C   UNL     1      -5.229  -1.400  -3.589  1.00  0.00     0.004 C 
ENDROOT
BRANCH   1   2
ATOM      2  C   UNL     1      -5.375  -1.022  -2.089  1.00  0.00     0.004 C 
BRANCH   2   3
ATOM      3  C   UNL     1      -4.561  -1.931  -1.121  1.00  0.00    -0.009 C 
BRANCH   3   4
ATOM      4  C   UNL     1      -4.054  -3.209  -1.856  1.00  0.00     0.000 C 
ATOM      5  C   UNL     1      -2.540  -3.340  -1.815  1.00  0.00     0.004 C 
ENDBRANCH   3   4
BRANCH   3   6
ATOM      6  C   UNL     1      -5.376  -2.249   0.184  1.00  0.00    -0.014 C 
ATOM      7  C   UNL     1      -5.189  -3.699   0.659  1.00  0.00     0.007 C 
ATOM      8  C   UNL     1      -6.878  -1.897   0.082  1.00  0.00     0.007 C 
ENDBRANCH   3   6
ENDBRANCH   2   3
ENDBRANCH   1   2
BRANCH   1   9
ATOM      9  C   UNL     1      -4.651  -0.233  -4.461  1.00  0.00    -0.011 C 
ATOM     10  C   UNL     1      -5.716   0.174  -5.514  1.00  0.00     0.008 C 
BRANCH   9  11
ATOM     11  C   UNL     1      -3.253  -0.555  -5.122  1.00  0.00    -0.002 C 
ATOM     12  C   UNL     1      -2.957  -2.062  -5.160  1.00  0.00     0.005 C 
ATOM     13  C   UNL     1      -1.972   0.081  -4.437  1.00  0.00    -0.026 C 
ATOM     14  C   UNL     1      -1.453  -2.210  -5.213  1.00  0.00     0.005 C 
ATOM     15  C   UNL     1      -0.931  -1.089  -4.327  1.00  0.00    -0.001 C 
ATOM     16  C   UNL     1      -1.404   1.265  -5.299  1.00  0.00     0.007 C 
ATOM     17  C   UNL     1      -2.212   0.613  -2.997  1.00  0.00     0.012 C 
ATOM     18  C   UNL     1       0.524  -0.632  -4.610  1.00  0.00     0.000 C 
ATOM     19  C   UNL     1      -0.544   0.796  -6.481  1.00  0.00     0.005 C 
ATOM     20  C   UNL     1       0.706  -0.011  -6.017  1.00  0.00     0.003 C 
ATOM     21  C   UNL     1       1.579  -1.724  -4.431  1.00  0.00     0.031 C 
ATOM     22  C   UNL     1       2.091   0.736  -6.124  1.00  0.00    -0.008 C 
ATOM     23  C   UNL     1       2.961  -1.164  -4.666  1.00  0.00    -0.027 C 
ATOM     24  C   UNL     1       3.211  -0.097  -5.469  1.00  0.00    -0.065 C 
ATOM     25  C   UNL     1       2.461   0.896  -7.637  1.00  0.00     0.014 C 
ATOM     26  C   UNL     1       2.009   2.132  -5.456  1.00  0.00     0.016 C 
ATOM     27  C   UNL     1       4.643   0.345  -5.687  1.00  0.00     0.063 C 
ATOM     28  C   UNL     1       3.881   1.452  -7.844  1.00  0.00     0.033 C 
ATOM     29  C   UNL     1       4.941   0.571  -7.182  1.00  0.00     0.118 C 
BRANCH  29  30
ATOM     30  O   UNL     1       5.045  -0.659  -7.868  1.00  0.00    -0.393 OA
ATOM     31  H   UNL     1       4.227  -0.738  -8.436  1.00  0.00     0.210 HD
ENDBRANCH  29  30
ENDBRANCH   9  11
ENDBRANCH   1   9
TORSDOF 7
ENDMDL
MODEL 3
REMARK VINA RESULT:    -6.266      4.852      9.473
REMARK INTER + INTRA:         -10.491
REMARK INTER:                  -9.267
REMARK INTRA:                  -1.224
REMARK UNBOUND:                -1.844
REMARK SMILES CC[C@@H](CC[C@H](C)[C@@H]1CC[C@H]2[C@H]3CC=C4C[C@@H](O)CC[C@@]4(C)[C@@H]3CC[C@]21C)C(C)C
REMARK SMILES IDX 5 1 4 2 3 3 2 4 1 5 28 6 29 7 30 8 6 9 7 10 8 11 9 12 26 13
REMARK SMILES IDX 10 14 11 15 25 16 27 17 12 18 24 19 23 20 13 21 21 22 14 23
REMARK SMILES IDX 15 24 20 25 22 26 16 27 19 28 17 29 18 30
REMARK H PARENT 18 31
REMARK Flexibility Score: inf
ROOT
ATOM      1  C   UNL     1      -2.179   1.950  -5.705  1.00  0.00     0.004 C 
ENDROOT
BRANCH   1   2
ATOM      2  C   UNL     1      -2.370   3.307  -4.971  1.00  0.00     0.004 C 
BRANCH   2   3
ATOM      3  C   UNL     1      -1.061   3.894  -4.368  1.00  0.00    -0.009 C 
BRANCH   3   4
ATOM      4  C   UNL     1      -0.957   3.569  -2.847  1.00  0.00     0.000 C 
ATOM      5  C   UNL     1       0.359   2.900  -2.484  1.00  0.00     0.004 C 
ENDBRANCH   3   4
BRANCH   3   6
ATOM      6  C   UNL     1      -0.924   5.428  -4.684  1.00  0.00    -0.014 C 
ATOM      7  C   UNL     1       0.253   5.734  -5.625  1.00  0.00     0.007 C 
ATOM      8  C   UNL     1      -0.862   6.320  -3.423  1.00  0.00     0.007 C 
ENDBRANCH   3   6
ENDBRANCH   2   3
ENDBRANCH   1   2
BRANCH   1   9
ATOM      9  C   UNL     1      -3.369   0.957  -5.474  1.00  0.00    -0.011 C 
ATOM     10  C   UNL     1      -4.692   1.668  -5.864  1.00  0.00     0.008 C 
BRANCH   9  11
ATOM     11  C   UNL     1      -3.427   0.350  -4.017  1.00  0.00    -0.002 C 
ATOM     12  C   UNL     1      -2.028   0.139  -3.415  1.00  0.00     0.005 C 
ATOM     13  C   UNL     1      -4.141  -1.056  -3.853  1.00  0.00    -0.026 C 
ATOM     14  C   UNL     1      -2.160  -0.950  -2.375  1.00  0.00     0.005 C 
ATOM     15  C   UNL     1      -3.174  -1.918  -2.967  1.00  0.00    -0.001 C 
ATOM     16  C   UNL     1      -5.544  -0.895  -3.166  1.00  0.00     0.007 C 
ATOM     17  C   UNL     1      -4.349  -1.830  -5.184  1.00  0.00     0.012 C 
ATOM     18  C   UNL     1      -3.924  -2.812  -1.945  1.00  0.00     0.000 C 
ATOM     19  C   UNL     1      -5.461  -0.755  -1.640  1.00  0.00     0.005 C 
ATOM     20  C   UNL     1      -4.815  -2.005  -0.968  1.00  0.00     0.003 C 
ATOM     21  C   UNL     1      -3.022  -3.729  -1.120  1.00  0.00     0.031 C 
ATOM     22  C   UNL     1      -5.802  -2.961  -0.192  1.00  0.00    -0.008 C 
ATOM     23  C   UNL     1      -3.851  -4.599  -0.206  1.00  0.00    -0.027 C 
ATOM     24  C   UNL     1      -5.074  -4.241   0.264  1.00  0.00    -0.065 C 
ATOM     25  C   UNL     1      -6.301  -2.229   1.099  1.00  0.00     0.014 C 
ATOM     26  C   UNL     1      -7.015  -3.330  -1.085  1.00  0.00     0.016 C 
ATOM     27  C   UNL     1      -5.794  -5.161   1.227  1.00  0.00     0.063 C 
ATOM     28  C   UNL     1      -7.127  -3.146   2.017  1.00  0.00     0.033 C 
ATOM     29  C   UNL     1      -6.340  -4.386   2.443  1.00  0.00     0.118 C 
BRANCH  29  30
ATOM     30  O   UNL     1      -5.296  -4.020   3.319  1.00  0.00    -0.393 OA
ATOM     31  H   UNL     1      -5.360  -3.030   3.440  1.00  0.00     0.210 HD
ENDBRANCH  29  30
ENDBRANCH   9  11
ENDBRANCH   1   9
TORSDOF 7
ENDMDL
MODEL 4
REMARK VINA RESULT:    -6.248      5.448      9.695
REMARK INTER + INTRA:         -10.466
REMARK INTER:                  -8.390
REMARK INTRA:                  -2.076
REMARK UNBOUND:                -1.844
REMARK SMILES CC[C@@H](CC[C@H](C)[C@@H]1CC[C@H]2[C@H]3CC=C4C[C@@H](O)CC[C@@]4(C)[C@@H]3CC[C@]21C)C(C)C
REMARK SMILES IDX 5 1 4 2 3 3 2 4 1 5 28 6 29 7 30 8 6 9 7 10 8 11 9 12 26 13
REMARK SMILES IDX 10 14 11 15 25 16 27 17 12 18 24 19 23 20 13 21 21 22 14 23
REMARK SMILES IDX 15 24 20 25 22 26 16 27 19 28 17 29 18 30
REMARK H PARENT 18 31
REMARK Flexibility Score: inf
ROOT
ATOM      1  C   UNL     1      -1.786   1.535  -5.796  1.00  0.00     0.004 C 
ENDROOT
BRANCH   1   2
ATOM      2  C   UNL     1      -1.290   0.404  -6.739  1.00  0.00     0.004 C 
BRANCH   2   3
ATOM      3  C   UNL     1      -0.179  -0.496  -6.123  1.00  0.00    -0.009 C 
BRANCH   3   4
ATOM      4  C   UNL     1       1.174  -0.296  -6.872  1.00  0.00     0.000 C 
ATOM      5  C   UNL     1       2.332  -0.042  -5.921  1.00  0.00     0.004 C 
ENDBRANCH   3   4
BRANCH   3   6
ATOM      6  C   UNL     1      -0.633  -1.999  -6.056  1.00  0.00    -0.014 C 
ATOM      7  C   UNL     1      -0.044  -2.741  -4.845  1.00  0.00     0.007 C 
ATOM      8  C   UNL     1      -0.373  -2.787  -7.360  1.00  0.00     0.007 C 
ENDBRANCH   3   6
ENDBRANCH   2   3
ENDBRANCH   1   2
BRANCH   1   9
ATOM      9  C   UNL     1      -3.246   1.303  -5.277  1.00  0.00    -0.011 C 
ATOM     10  C   UNL     1      -4.000   2.660  -5.290  1.00  0.00     0.008 C 
BRANCH   9  11
ATOM     11  C   UNL     1      -3.322   0.594  -3.867  1.00  0.00    -0.002 C 
ATOM     12  C   UNL     1      -1.934   0.378  -3.245  1.00  0.00     0.005 C 
ATOM     13  C   UNL     1      -4.001  -0.838  -3.820  1.00  0.00    -0.026 C 
ATOM     14  C   UNL     1      -2.060  -0.784  -2.287  1.00  0.00     0.005 C 
ATOM     15  C   UNL     1      -3.032  -1.734  -2.970  1.00  0.00    -0.001 C 
ATOM     16  C   UNL     1      -5.425  -0.762  -3.161  1.00  0.00     0.007 C 
ATOM     17  C   UNL     1      -4.155  -1.521  -5.206  1.00  0.00     0.012 C 
ATOM     18  C   UNL     1      -3.782  -2.717  -2.033  1.00  0.00     0.000 C 
ATOM     19  C   UNL     1      -5.383  -0.727  -1.626  1.00  0.00     0.005 C 
ATOM     20  C   UNL     1      -4.719  -2.004  -1.027  1.00  0.00     0.003 C 
ATOM     21  C   UNL     1      -2.875  -3.665  -1.250  1.00  0.00     0.031 C 
ATOM     22  C   UNL     1      -5.698  -3.037  -0.345  1.00  0.00    -0.008 C 
ATOM     23  C   UNL     1      -3.702  -4.619  -0.421  1.00  0.00    -0.027 C 
ATOM     24  C   UNL     1      -4.946  -4.326   0.041  1.00  0.00    -0.065 C 
ATOM     25  C   UNL     1      -6.248  -2.411   0.980  1.00  0.00     0.014 C 
ATOM     26  C   UNL     1      -6.878  -3.374  -1.292  1.00  0.00     0.016 C 
ATOM     27  C   UNL     1      -5.663  -5.330   0.919  1.00  0.00     0.063 C 
ATOM     28  C   UNL     1      -7.070  -3.410   1.811  1.00  0.00     0.033 C 
ATOM     29  C   UNL     1      -6.259  -4.656   2.170  1.00  0.00     0.118 C 
BRANCH  29  30
ATOM     30  O   UNL     1      -5.248  -4.326   3.097  1.00  0.00    -0.393 OA
ATOM     31  H   UNL     1      -4.808  -3.496   2.754  1.00  0.00     0.210 HD
ENDBRANCH  29  30
ENDBRANCH   9  11
ENDBRANCH   1   9
TORSDOF 7
ENDMDL
MODEL 5
REMARK VINA RESULT:    -6.207      4.184      8.799
REMARK INTER + INTRA:         -10.409
REMARK INTER:                  -8.941
REMARK INTRA:                  -1.468
REMARK UNBOUND:                -1.844
REMARK SMILES CC[C@@H](CC[C@H](C)[C@@H]1CC[C@H]2[C@H]3CC=C4C[C@@H](O)CC[C@@]4(C)[C@@H]3CC[C@]21C)C(C)C
REMARK SMILES IDX 5 1 4 2 3 3 2 4 1 5 28 6 29 7 30 8 6 9 7 10 8 11 9 12 26 13
REMARK SMILES IDX 10 14 11 15 25 16 27 17 12 18 24 19 23 20 13 21 21 22 14 23
REMARK SMILES IDX 15 24 20 25 22 26 16 27 19 28 17 29 18 30
REMARK H PARENT 18 31
REMARK Flexibility Score: inf
ROOT
ATOM      1  C   UNL     1       0.884   3.360  -4.944  1.00  0.00     0.004 C 
ENDROOT
BRANCH   1   2
ATOM      2  C   UNL     1       1.040   4.727  -4.220  1.00  0.00     0.004 C 
BRANCH   2   3
ATOM      3  C   UNL     1       2.127   4.737  -3.106  1.00  0.00    -0.009 C 
BRANCH   3   4
ATOM      4  C   UNL     1       1.876   3.593  -2.076  1.00  0.00     0.000 C 
ATOM      5  C   UNL     1       3.069   2.661  -1.942  1.00  0.00     0.004 C 
ENDBRANCH   3   4
BRANCH   3   6
ATOM      6  C   UNL     1       2.247   6.155  -2.439  1.00  0.00    -0.014 C 
ATOM      7  C   UNL     1       3.579   6.850  -2.765  1.00  0.00     0.007 C 
ATOM      8  C   UNL     1       1.992   6.149  -0.914  1.00  0.00     0.007 C 
ENDBRANCH   3   6
ENDBRANCH   2   3
ENDBRANCH   1   2
BRANCH   1   9
ATOM      9  C   UNL     1      -0.553   2.752  -4.801  1.00  0.00    -0.011 C 
ATOM     10  C   UNL     1      -1.482   3.818  -4.160  1.00  0.00     0.008 C 
BRANCH   9  11
ATOM     11  C   UNL     1      -0.596   1.379  -4.021  1.00  0.00    -0.002 C 
ATOM     12  C   UNL     1       0.755   0.647  -4.050  1.00  0.00     0.005 C 
ATOM     13  C   UNL     1      -1.640   0.298  -4.528  1.00  0.00    -0.026 C 
ATOM     14  C   UNL     1       0.459  -0.823  -3.852  1.00  0.00     0.005 C 
ATOM     15  C   UNL     1      -0.843  -1.052  -4.605  1.00  0.00    -0.001 C 
ATOM     16  C   UNL     1      -2.853   0.183  -3.537  1.00  0.00     0.007 C 
ATOM     17  C   UNL     1      -2.210   0.572  -5.947  1.00  0.00     0.012 C 
ATOM     18  C   UNL     1      -1.678  -2.275  -4.145  1.00  0.00     0.000 C 
ATOM     19  C   UNL     1      -2.551  -0.682  -2.305  1.00  0.00     0.005 C 
ATOM     20  C   UNL     1      -2.192  -2.149  -2.689  1.00  0.00     0.003 C 
ATOM     21  C   UNL     1      -0.965  -3.620  -4.284  1.00  0.00     0.031 C 
ATOM     22  C   UNL     1      -3.300  -3.233  -2.391  1.00  0.00    -0.008 C 
ATOM     23  C   UNL     1      -1.882  -4.746  -3.872  1.00  0.00    -0.027 C 
ATOM     24  C   UNL     1      -2.896  -4.600  -2.980  1.00  0.00    -0.065 C 
ATOM     25  C   UNL     1      -3.421  -3.417  -0.841  1.00  0.00     0.014 C 
ATOM     26  C   UNL     1      -4.666  -2.787  -2.973  1.00  0.00     0.016 C 
ATOM     27  C   UNL     1      -3.717  -5.810  -2.588  1.00  0.00     0.063 C 
ATOM     28  C   UNL     1      -4.347  -4.582  -0.454  1.00  0.00     0.033 C 
ATOM     29  C   UNL     1      -3.880  -5.907  -1.058  1.00  0.00     0.118 C 
BRANCH  29  30
ATOM     30  O   UNL     1      -2.678  -6.321  -0.446  1.00  0.00    -0.393 OA
ATOM     31  H   UNL     1      -2.109  -6.709  -1.170  1.00  0.00     0.210 HD
ENDBRANCH  29  30
ENDBRANCH   9  11
ENDBRANCH   1   9
TORSDOF 7
ENDMDL
MODEL 6
REMARK VINA RESULT:    -6.172      4.268      7.471
REMARK INTER + INTRA:         -10.362
REMARK INTER:                  -8.663
REMARK INTRA:                  -1.699
REMARK UNBOUND:                -1.844
REMARK SMILES CC[C@@H](CC[C@H](C)[C@@H]1CC[C@H]2[C@H]3CC=C4C[C@@H](O)CC[C@@]4(C)[C@@H]3CC[C@]21C)C(C)C
REMARK SMILES IDX 5 1 4 2 3 3 2 4 1 5 28 6 29 7 30 8 6 9 7 10 8 11 9 12 26 13
REMARK SMILES IDX 10 14 11 15 25 16 27 17 12 18 24 19 23 20 13 21 21 22 14 23
REMARK SMILES IDX 15 24 20 25 22 26 16 27 19 28 17 29 18 30
REMARK H PARENT 18 31
REMARK Flexibility Score: inf
ROOT
ATOM      1  C   UNL     1      -5.086  -4.148  -2.134  1.00  0.00     0.004 C 
ENDROOT
BRANCH   1   2
ATOM      2  C   UNL     1      -5.496  -4.841  -0.805  1.00  0.00     0.004 C 
BRANCH   2   3
ATOM      3  C   UNL     1      -6.571  -4.066   0.012  1.00  0.00    -0.009 C 
BRANCH   3   4
ATOM      4  C   UNL     1      -7.600  -3.380  -0.938  1.00  0.00     0.000 C 
ATOM      5  C   UNL     1      -9.025  -3.847  -0.685  1.00  0.00     0.004 C 
ENDBRANCH   3   4
BRANCH   3   6
ATOM      6  C   UNL     1      -5.907  -3.068   1.028  1.00  0.00    -0.014 C 
ATOM      7  C   UNL     1      -5.521  -3.745   2.354  1.00  0.00     0.007 C 
ATOM      8  C   UNL     1      -6.744  -1.795   1.289  1.00  0.00     0.007 C 
ENDBRANCH   3   6
ENDBRANCH   2   3
ENDBRANCH   1   2
BRANCH   1   9
ATOM      9  C   UNL     1      -3.610  -3.623  -2.121  1.00  0.00    -0.011 C 
ATOM     10  C   UNL     1      -2.878  -4.228  -0.893  1.00  0.00     0.008 C 
BRANCH   9  11
ATOM     11  C   UNL     1      -3.486  -2.048  -2.171  1.00  0.00    -0.002 C 
ATOM     12  C   UNL     1      -4.840  -1.349  -1.972  1.00  0.00     0.005 C 
ATOM     13  C   UNL     1      -2.908  -1.416  -3.504  1.00  0.00    -0.026 C 
ATOM     14  C   UNL     1      -4.729   0.010  -2.627  1.00  0.00     0.005 C 
ATOM     15  C   UNL     1      -3.876  -0.234  -3.863  1.00  0.00    -0.001 C 
ATOM     16  C   UNL     1      -1.440  -0.900  -3.290  1.00  0.00     0.007 C 
ATOM     17  C   UNL     1      -2.899  -2.382  -4.721  1.00  0.00     0.012 C 
ATOM     18  C   UNL     1      -3.134   1.009  -4.422  1.00  0.00     0.000 C 
ATOM     19  C   UNL     1      -1.373   0.473  -2.605  1.00  0.00     0.005 C 
ATOM     20  C   UNL     1      -2.082   1.582  -3.440  1.00  0.00     0.003 C 
ATOM     21  C   UNL     1      -4.049   2.151  -4.861  1.00  0.00     0.031 C 
ATOM     22  C   UNL     1      -1.133   2.608  -4.174  1.00  0.00    -0.008 C 
ATOM     23  C   UNL     1      -3.236   3.281  -5.446  1.00  0.00    -0.027 C 
ATOM     24  C   UNL     1      -1.946   3.532  -5.103  1.00  0.00    -0.065 C 
ATOM     25  C   UNL     1      -0.450   3.520  -3.101  1.00  0.00     0.014 C 
ATOM     26  C   UNL     1      -0.048   1.858  -4.989  1.00  0.00     0.016 C 
ATOM     27  C   UNL     1      -1.242   4.731  -5.703  1.00  0.00     0.063 C 
ATOM     28  C   UNL     1       0.356   4.670  -3.727  1.00  0.00     0.033 C 
ATOM     29  C   UNL     1      -0.514   5.554  -4.622  1.00  0.00     0.118 C 
BRANCH  29  30
ATOM     30  O   UNL     1      -1.433   6.283  -3.838  1.00  0.00    -0.393 OA
ATOM     31  H   UNL     1      -1.481   5.821  -2.953  1.00  0.00     0.210 HD
ENDBRANCH  29  30
ENDBRANCH   9  11
ENDBRANCH   1   9
TORSDOF 7
ENDMDL
MODEL 7
REMARK VINA RESULT:    -6.098      3.339      5.289
REMARK INTER + INTRA:         -10.259
REMARK INTER:                  -8.520
REMARK INTRA:                  -1.739
REMARK UNBOUND:                -1.844
REMARK SMILES CC[C@@H](CC[C@H](C)[C@@H]1CC[C@H]2[C@H]3CC=C4C[C@@H](O)CC[C@@]4(C)[C@@H]3CC[C@]21C)C(C)C
REMARK SMILES IDX 5 1 4 2 3 3 2 4 1 5 28 6 29 7 30 8 6 9 7 10 8 11 9 12 26 13
REMARK SMILES IDX 10 14 11 15 25 16 27 17 12 18 24 19 23 20 13 21 21 22 14 23
REMARK SMILES IDX 15 24 20 25 22 26 16 27 19 28 17 29 18 30
REMARK H PARENT 18 31
REMARK Flexibility Score: inf
ROOT
ATOM      1  C   UNL     1      -2.959  -3.496  -4.633  1.00  0.00     0.004 C 
ENDROOT
BRANCH   1   2
ATOM      2  C   UNL     1      -3.245  -4.813  -3.859  1.00  0.00     0.004 C 
BRANCH   2   3
ATOM      3  C   UNL     1      -4.195  -4.640  -2.638  1.00  0.00    -0.009 C 
BRANCH   3   4
ATOM      4  C   UNL     1      -5.326  -3.616  -2.958  1.00  0.00     0.000 C 
ATOM      5  C   UNL     1      -6.691  -4.276  -3.074  1.00  0.00     0.004 C 
ENDBRANCH   3   4
BRANCH   3   6
ATOM      6  C   UNL     1      -3.392  -4.289  -1.334  1.00  0.00    -0.014 C 
ATOM      7  C   UNL     1      -2.955  -5.539  -0.554  1.00  0.00     0.007 C 
ATOM      8  C   UNL     1      -4.121  -3.291  -0.404  1.00  0.00     0.007 C 
ENDBRANCH   3   6
ENDBRANCH   2   3
ENDBRANCH   1   2
BRANCH   1   9
ATOM      9  C   UNL     1      -1.458  -3.054  -4.556  1.00  0.00    -0.011 C 
ATOM     10  C   UNL     1      -0.629  -4.214  -3.941  1.00  0.00     0.008 C 
BRANCH   9  11
ATOM     11  C   UNL     1      -1.227  -1.689  -3.795  1.00  0.00    -0.002 C 
ATOM     12  C   UNL     1      -2.501  -1.183  -3.102  1.00  0.00     0.005 C 
ATOM     13  C   UNL     1      -0.736  -0.457  -4.664  1.00  0.00    -0.026 C 
ATOM     14  C   UNL     1      -2.357   0.315  -2.962  1.00  0.00     0.005 C 
ATOM     15  C   UNL     1      -1.647   0.747  -4.237  1.00  0.00    -0.001 C 
ATOM     16  C   UNL     1       0.779  -0.146  -4.390  1.00  0.00     0.007 C 
ATOM     17  C   UNL     1      -0.914  -0.641  -6.197  1.00  0.00     0.012 C 
ATOM     18  C   UNL     1      -0.876   2.090  -4.153  1.00  0.00     0.000 C 
ATOM     19  C   UNL     1       1.010   0.663  -3.106  1.00  0.00     0.005 C 
ATOM     20  C   UNL     1       0.305   2.053  -3.151  1.00  0.00     0.003 C 
ATOM     21  C   UNL     1      -1.745   3.303  -3.821  1.00  0.00     0.031 C 
ATOM     22  C   UNL     1       1.249   3.301  -3.353  1.00  0.00    -0.008 C 
ATOM     23  C   UNL     1      -0.913   4.563  -3.827  1.00  0.00    -0.027 C 
ATOM     24  C   UNL     1       0.419   4.584  -3.561  1.00  0.00    -0.065 C 
ATOM     25  C   UNL     1       2.097   3.507  -2.053  1.00  0.00     0.014 C 
ATOM     26  C   UNL     1       2.194   3.079  -4.562  1.00  0.00     0.016 C 
ATOM     27  C   UNL     1       1.146   5.912  -3.530  1.00  0.00     0.063 C 
ATOM     28  C   UNL     1       2.918   4.807  -2.081  1.00  0.00     0.033 C 
ATOM     29  C   UNL     1       2.032   6.038  -2.275  1.00  0.00     0.118 C 
BRANCH  29  30
ATOM     30  O   UNL     1       1.247   6.257  -1.123  1.00  0.00    -0.393 OA
ATOM     31  H   UNL     1       0.586   5.509  -1.082  1.00  0.00     0.210 HD
ENDBRANCH  29  30
ENDBRANCH   9  11
ENDBRANCH   1   9
TORSDOF 7
ENDMDL
MODEL 8
REMARK VINA RESULT:    -6.049      3.507      6.037
REMARK INTER + INTRA:         -10.192
REMARK INTER:                  -7.783
REMARK INTRA:                  -2.408
REMARK UNBOUND:                -1.844
REMARK SMILES CC[C@@H](CC[C@H](C)[C@@H]1CC[C@H]2[C@H]3CC=C4C[C@@H](O)CC[C@@]4(C)[C@@H]3CC[C@]21C)C(C)C
REMARK SMILES IDX 5 1 4 2 3 3 2 4 1 5 28 6 29 7 30 8 6 9 7 10 8 11 9 12 26 13
REMARK SMILES IDX 10 14 11 15 25 16 27 17 12 18 24 19 23 20 13 21 21 22 14 23
REMARK SMILES IDX 15 24 20 25 22 26 16 27 19 28 17 29 18 30
REMARK H PARENT 18 31
REMARK Flexibility Score: inf
ROOT
ATOM      1  C   UNL     1      -2.801  -4.578  -3.447  1.00  0.00     0.004 C 
ENDROOT
BRANCH   1   2
ATOM      2  C   UNL     1      -3.907  -5.046  -4.434  1.00  0.00     0.004 C 
BRANCH   2   3
ATOM      3  C   UNL     1      -3.971  -4.224  -5.755  1.00  0.00    -0.009 C 
BRANCH   3   4
ATOM      4  C   UNL     1      -5.334  -3.477  -5.875  1.00  0.00     0.000 C 
ATOM      5  C   UNL     1      -5.158  -1.991  -6.151  1.00  0.00     0.004 C 
ENDBRANCH   3   4
BRANCH   3   6
ATOM      6  C   UNL     1      -3.645  -5.122  -7.002  1.00  0.00    -0.014 C 
ATOM      7  C   UNL     1      -3.276  -6.563  -6.613  1.00  0.00     0.007 C 
ATOM      8  C   UNL     1      -2.575  -4.519  -7.941  1.00  0.00     0.007 C 
ENDBRANCH   3   6
ENDBRANCH   2   3
ENDBRANCH   1   2
BRANCH   1   9
ATOM      9  C   UNL     1      -1.736  -3.646  -4.119  1.00  0.00    -0.011 C 
ATOM     10  C   UNL     1      -0.336  -4.299  -3.966  1.00  0.00     0.008 C 
BRANCH   9  11
ATOM     11  C   UNL     1      -1.758  -2.157  -3.592  1.00  0.00    -0.002 C 
ATOM     12  C   UNL     1      -3.138  -1.750  -3.049  1.00  0.00     0.005 C 
ATOM     13  C   UNL     1      -1.395  -1.020  -4.635  1.00  0.00    -0.026 C 
ATOM     14  C   UNL     1      -3.223  -0.244  -3.160  1.00  0.00     0.005 C 
ATOM     15  C   UNL     1      -2.499   0.082  -4.458  1.00  0.00    -0.001 C 
ATOM     16  C   UNL     1       0.036  -0.437  -4.353  1.00  0.00     0.007 C 
ATOM     17  C   UNL     1      -1.439  -1.474  -6.120  1.00  0.00     0.012 C 
ATOM     18  C   UNL     1      -1.938   1.524  -4.569  1.00  0.00     0.000 C 
ATOM     19  C   UNL     1       0.059   0.594  -3.216  1.00  0.00     0.005 C 
ATOM     20  C   UNL     1      -0.836   1.832  -3.526  1.00  0.00     0.003 C 
ATOM     21  C   UNL     1      -2.995   2.624  -4.486  1.00  0.00     0.031 C 
ATOM     22  C   UNL     1      -0.073   3.162  -3.895  1.00  0.00    -0.008 C 
ATOM     23  C   UNL     1      -2.358   3.981  -4.669  1.00  0.00    -0.027 C 
ATOM     24  C   UNL     1      -1.064   4.250  -4.354  1.00  0.00    -0.065 C 
ATOM     25  C   UNL     1       0.645   3.704  -2.614  1.00  0.00     0.014 C 
ATOM     26  C   UNL     1       0.975   2.897  -5.007  1.00  0.00     0.016 C 
ATOM     27  C   UNL     1      -0.542   5.662  -4.517  1.00  0.00     0.063 C 
ATOM     28  C   UNL     1       1.269   5.094  -2.827  1.00  0.00     0.033 C 
ATOM     29  C   UNL     1       0.228   6.125  -3.265  1.00  0.00     0.118 C 
BRANCH  29  30
ATOM     30  O   UNL     1      -0.657   6.402  -2.201  1.00  0.00    -0.393 OA
ATOM     31  H   UNL     1      -1.344   5.676  -2.205  1.00  0.00     0.210 HD
ENDBRANCH  29  30
ENDBRANCH   9  11
ENDBRANCH   1   9
TORSDOF 7
ENDMDL
MODEL 9
REMARK VINA RESULT:    -6.012      2.469      4.188
REMARK INTER + INTRA:         -10.140
REMARK INTER:                  -7.997
REMARK INTRA:                  -2.143
REMARK UNBOUND:                -1.844
REMARK SMILES CC[C@@H](CC[C@H](C)[C@@H]1CC[C@H]2[C@H]3CC=C4C[C@@H](O)CC[C@@]4(C)[C@@H]3CC[C@]21C)C(C)C
REMARK SMILES IDX 5 1 4 2 3 3 2 4 1 5 28 6 29 7 30 8 6 9 7 10 8 11 9 12 26 13
REMARK SMILES IDX 10 14 11 15 25 16 27 17 12 18 24 19 23 20 13 21 21 22 14 23
REMARK SMILES IDX 15 24 20 25 22 26 16 27 19 28 17 29 18 30
REMARK H PARENT 18 31
REMARK Flexibility Score: inf
ROOT
ATOM      1  C   UNL     1      -3.359  -3.626  -4.194  1.00  0.00     0.004 C 
ENDROOT
BRANCH   1   2
ATOM      2  C   UNL     1      -4.376  -2.987  -5.180  1.00  0.00     0.004 C 
BRANCH   2   3
ATOM      3  C   UNL     1      -5.015  -1.664  -4.666  1.00  0.00    -0.009 C 
BRANCH   3   4
ATOM      4  C   UNL     1      -6.235  -1.961  -3.742  1.00  0.00     0.000 C 
ATOM      5  C   UNL     1      -6.160  -1.209  -2.422  1.00  0.00     0.004 C 
ENDBRANCH   3   4
BRANCH   3   6
ATOM      6  C   UNL     1      -5.360  -0.697  -5.856  1.00  0.00    -0.014 C 
ATOM      7  C   UNL     1      -4.815  -1.199  -7.203  1.00  0.00     0.007 C 
ATOM      8  C   UNL     1      -4.939   0.770  -5.608  1.00  0.00     0.007 C 
ENDBRANCH   3   6
ENDBRANCH   2   3
ENDBRANCH   1   2
BRANCH   1   9
ATOM      9  C   UNL     1      -1.879  -3.198  -4.479  1.00  0.00    -0.011 C 
ATOM     10  C   UNL     1      -0.958  -4.431  -4.280  1.00  0.00     0.008 C 
BRANCH   9  11
ATOM     11  C   UNL     1      -1.396  -1.952  -3.636  1.00  0.00    -0.002 C 
ATOM     12  C   UNL     1      -2.467  -1.463  -2.649  1.00  0.00     0.005 C 
ATOM     13  C   UNL     1      -0.986  -0.653  -4.447  1.00  0.00    -0.026 C 
ATOM     14  C   UNL     1      -2.178  -0.004  -2.379  1.00  0.00     0.005 C 
ATOM     15  C   UNL     1      -1.697   0.540  -3.716  1.00  0.00    -0.001 C 
ATOM     16  C   UNL     1       0.573  -0.464  -4.453  1.00  0.00     0.007 C 
ATOM     17  C   UNL     1      -1.472  -0.637  -5.923  1.00  0.00     0.012 C 
ATOM     18  C   UNL     1      -0.818   1.817  -3.644  1.00  0.00     0.000 C 
ATOM     19  C   UNL     1       1.113   0.167  -3.161  1.00  0.00     0.005 C 
ATOM     20  C   UNL     1       0.527   1.590  -2.911  1.00  0.00     0.003 C 
ATOM     21  C   UNL     1      -1.506   3.027  -3.014  1.00  0.00     0.031 C 
ATOM     22  C   UNL     1       1.512   2.797  -3.163  1.00  0.00    -0.008 C 
ATOM     23  C   UNL     1      -0.593   4.229  -3.050  1.00  0.00    -0.027 C 
ATOM     24  C   UNL     1       0.763   4.141  -3.058  1.00  0.00    -0.065 C 
ATOM     25  C   UNL     1       2.609   2.793  -2.046  1.00  0.00     0.014 C 
ATOM     26  C   UNL     1       2.183   2.671  -4.555  1.00  0.00     0.016 C 
ATOM     27  C   UNL     1       1.586   5.411  -3.030  1.00  0.00     0.063 C 
ATOM     28  C   UNL     1       3.511   4.038  -2.098  1.00  0.00     0.033 C 
ATOM     29  C   UNL     1       2.706   5.332  -1.974  1.00  0.00     0.118 C 
BRANCH  29  30
ATOM     30  O   UNL     1       2.180   5.452  -0.670  1.00  0.00    -0.393 OA
ATOM     31  H   UNL     1       1.250   5.802  -0.769  1.00  0.00     0.210 HD
ENDBRANCH  29  30
ENDBRANCH   9  11
ENDBRANCH   1   9
TORSDOF 7
ENDMDL
