MODEL 1
REMARK VINA RESULT:    -6.978      0.000      0.000
REMARK INTER + INTRA:          -9.249
REMARK INTER:                  -8.813
REMARK INTRA:                  -0.436
REMARK UNBOUND:                -0.436
REMARK SMILES Oc1cc(O)cc(CCc2ccccc2O)c1
REMARK SMILES IDX 9 1 10 2 12 3 13 4 11 5 14 6 15 7 16 8 8 10 7 11 6 12 17 13
REMARK SMILES IDX 4 14 2 15 3 16 5 17 1 19
REMARK H PARENT 16 9 5 18 1 20
REMARK Flexibility Score: inf
ROOT
ATOM      1  C   UNL     1     -17.853  -6.284  41.020  1.00  0.00     0.044 C 
ENDROOT
BRANCH   1   2
ATOM      2  C   UNL     1     -16.794  -6.118  39.961  1.00  0.00    -0.006 A 
ATOM      3  C   UNL     1     -14.604  -5.287  39.301  1.00  0.00     0.001 A 
ATOM      4  C   UNL     1     -14.767  -5.850  38.035  1.00  0.00     0.004 A 
ATOM      5  C   UNL     1     -15.609  -5.424  40.263  1.00  0.00     0.007 A 
ATOM      6  C   UNL     1     -15.933  -6.554  37.726  1.00  0.00     0.046 A 
ATOM      7  C   UNL     1     -16.947  -6.698  38.685  1.00  0.00     0.118 A 
BRANCH   7   8
ATOM      8  O   UNL     1     -18.103  -7.415  38.374  1.00  0.00    -0.508 OA
ATOM      9  H   UNL     1     -18.962  -7.290  38.894  1.00  0.00     0.293 HD
ENDBRANCH   7   8
ENDBRANCH   1   2
BRANCH   1  10
ATOM     10  C   UNL     1     -17.827  -7.704  41.592  1.00  0.00     0.040 C 
BRANCH  10  11
ATOM     11  C   UNL     1     -17.540  -7.674  43.069  1.00  0.00    -0.040 A 
ATOM     12  C   UNL     1     -17.757  -8.818  43.855  1.00  0.00     0.050 A 
ATOM     13  C   UNL     1     -17.001  -6.522  43.662  1.00  0.00     0.050 A 
ATOM     14  C   UNL     1     -17.459  -8.802  45.222  1.00  0.00     0.119 A 
ATOM     15  C   UNL     1     -16.703  -6.502  45.028  1.00  0.00     0.119 A 
ATOM     16  C   UNL     1     -16.935  -7.643  45.809  1.00  0.00     0.092 A 
BRANCH  14  17
ATOM     17  O   UNL     1     -17.687  -9.944  45.987  1.00  0.00    -0.508 OA
ATOM     18  H   UNL     1     -18.591 -10.401  46.002  1.00  0.00     0.293 HD
ENDBRANCH  14  17
BRANCH  15  19
ATOM     19  O   UNL     1     -16.175  -5.347  45.601  1.00  0.00    -0.508 OA
ATOM     20  H   UNL     1     -16.333  -5.119  46.575  1.00  0.00     0.293 HD
ENDBRANCH  15  19
ENDBRANCH  10  11
ENDBRANCH   1  10
TORSDOF 6
ENDMDL
MODEL 2
REMARK VINA RESULT:    -6.958      3.985      6.698
REMARK INTER + INTRA:          -9.225
REMARK INTER:                  -8.670
REMARK INTRA:                  -0.555
REMARK UNBOUND:                -0.436
REMARK SMILES Oc1cc(O)cc(CCc2ccccc2O)c1
REMARK SMILES IDX 9 1 10 2 12 3 13 4 11 5 14 6 15 7 16 8 8 10 7 11 6 12 17 13
REMARK SMILES IDX 4 14 2 15 3 16 5 17 1 19
REMARK H PARENT 16 9 5 18 1 20
REMARK Flexibility Score: inf
ROOT
ATOM      1  C   UNL     1     -14.070  -5.707  38.632  1.00  0.00     0.044 C 
ENDROOT
BRANCH   1   2
ATOM      2  C   UNL     1     -15.414  -6.075  39.207  1.00  0.00    -0.006 A 
ATOM      3  C   UNL     1     -17.668  -6.931  38.880  1.00  0.00     0.001 A 
ATOM      4  C   UNL     1     -17.908  -6.835  40.251  1.00  0.00     0.004 A 
ATOM      5  C   UNL     1     -16.425  -6.558  38.358  1.00  0.00     0.007 A 
ATOM      6  C   UNL     1     -16.907  -6.371  41.107  1.00  0.00     0.046 A 
ATOM      7  C   UNL     1     -15.657  -5.995  40.593  1.00  0.00     0.118 A 
BRANCH   7   8
ATOM      8  O   UNL     1     -14.657  -5.545  41.456  1.00  0.00    -0.508 OA
ATOM      9  H   UNL     1     -13.678  -5.575  41.197  1.00  0.00     0.293 HD
ENDBRANCH   7   8
ENDBRANCH   1   2
BRANCH   1  10
ATOM     10  C   UNL     1     -13.637  -6.730  37.577  1.00  0.00     0.040 C 
BRANCH  10  11
ATOM     11  C   UNL     1     -12.536  -7.606  38.110  1.00  0.00    -0.040 A 
ATOM     12  C   UNL     1     -12.188  -7.557  39.471  1.00  0.00     0.050 A 
ATOM     13  C   UNL     1     -11.885  -8.519  37.265  1.00  0.00     0.050 A 
ATOM     14  C   UNL     1     -11.188  -8.393  39.975  1.00  0.00     0.119 A 
ATOM     15  C   UNL     1     -10.883  -9.356  37.765  1.00  0.00     0.119 A 
ATOM     16  C   UNL     1     -10.533  -9.291  39.121  1.00  0.00     0.092 A 
BRANCH  14  17
ATOM     17  O   UNL     1     -10.852  -8.326  41.326  1.00  0.00    -0.508 OA
ATOM     18  H   UNL     1     -11.350  -7.718  41.966  1.00  0.00     0.293 HD
ENDBRANCH  14  17
BRANCH  15  19
ATOM     19  O   UNL     1     -10.244 -10.250  36.910  1.00  0.00    -0.508 OA
ATOM     20  H   UNL     1      -9.257 -10.168  36.699  1.00  0.00     0.293 HD
ENDBRANCH  15  19
ENDBRANCH  10  11
ENDBRANCH   1  10
TORSDOF 6
ENDMDL
MODEL 3
REMARK VINA RESULT:    -6.958      3.983      6.613
REMARK INTER + INTRA:          -9.224
REMARK INTER:                  -8.665
REMARK INTRA:                  -0.559
REMARK UNBOUND:                -0.436
REMARK SMILES Oc1cc(O)cc(CCc2ccccc2O)c1
REMARK SMILES IDX 9 1 10 2 12 3 13 4 11 5 14 6 15 7 16 8 8 10 7 11 6 12 17 13
REMARK SMILES IDX 4 14 2 15 3 16 5 17 1 19
REMARK H PARENT 16 9 5 18 1 20
REMARK Flexibility Score: inf
ROOT
ATOM      1  C   UNL     1     -14.052  -5.704  38.707  1.00  0.00     0.044 C 
ENDROOT
BRANCH   1   2
ATOM      2  C   UNL     1     -15.406  -6.094  39.245  1.00  0.00    -0.006 A 
ATOM      3  C   UNL     1     -17.634  -6.989  38.856  1.00  0.00     0.001 A 
ATOM      4  C   UNL     1     -17.914  -6.898  40.220  1.00  0.00     0.004 A 
ATOM      5  C   UNL     1     -16.385  -6.594  38.368  1.00  0.00     0.007 A 
ATOM      6  C   UNL     1     -16.945  -6.417  41.103  1.00  0.00     0.046 A 
ATOM      7  C   UNL     1     -15.688  -6.020  40.624  1.00  0.00     0.118 A 
BRANCH   7   8
ATOM      8  O   UNL     1     -14.719  -5.553  41.514  1.00  0.00    -0.508 OA
ATOM      9  H   UNL     1     -13.738  -5.774  41.396  1.00  0.00     0.293 HD
ENDBRANCH   7   8
ENDBRANCH   1   2
BRANCH   1  10
ATOM     10  C   UNL     1     -13.603  -6.681  37.616  1.00  0.00     0.040 C 
BRANCH  10  11
ATOM     11  C   UNL     1     -12.551  -7.617  38.146  1.00  0.00    -0.040 A 
ATOM     12  C   UNL     1     -11.897  -8.509  37.280  1.00  0.00     0.050 A 
ATOM     13  C   UNL     1     -12.174  -7.566  39.497  1.00  0.00     0.050 A 
ATOM     14  C   UNL     1     -10.895  -9.357  37.764  1.00  0.00     0.119 A 
ATOM     15  C   UNL     1     -11.173  -8.413  39.985  1.00  0.00     0.119 A 
ATOM     16  C   UNL     1     -10.536  -9.310  39.118  1.00  0.00     0.092 A 
BRANCH  14  17
ATOM     17  O   UNL     1     -10.262 -10.240  36.892  1.00  0.00    -0.508 OA
ATOM     18  H   UNL     1      -9.731  -9.909  36.095  1.00  0.00     0.293 HD
ENDBRANCH  14  17
BRANCH  15  19
ATOM     19  O   UNL     1     -10.818  -8.353  41.330  1.00  0.00    -0.508 OA
ATOM     20  H   UNL     1     -10.695  -9.193  41.884  1.00  0.00     0.293 HD
ENDBRANCH  15  19
ENDBRANCH  10  11
ENDBRANCH   1  10
TORSDOF 6
ENDMDL
MODEL 4
REMARK VINA RESULT:    -6.948      0.159      2.044
REMARK INTER + INTRA:          -9.212
REMARK INTER:                  -8.780
REMARK INTRA:                  -0.432
REMARK UNBOUND:                -0.436
REMARK SMILES Oc1cc(O)cc(CCc2ccccc2O)c1
REMARK SMILES IDX 9 1 10 2 12 3 13 4 11 5 14 6 15 7 16 8 8 10 7 11 6 12 17 13
REMARK SMILES IDX 4 14 2 15 3 16 5 17 1 19
REMARK H PARENT 16 9 5 18 1 20
REMARK Flexibility Score: inf
ROOT
ATOM      1  C   UNL     1     -17.788  -6.351  41.074  1.00  0.00     0.044 C 
ENDROOT
BRANCH   1   2
ATOM      2  C   UNL     1     -16.735  -6.171  40.010  1.00  0.00    -0.006 A 
ATOM      3  C   UNL     1     -14.536  -5.362  39.356  1.00  0.00     0.001 A 
ATOM      4  C   UNL     1     -14.722  -5.880  38.074  1.00  0.00     0.004 A 
ATOM      5  C   UNL     1     -15.535  -5.510  40.323  1.00  0.00     0.007 A 
ATOM      6  C   UNL     1     -15.903  -6.551  37.754  1.00  0.00     0.046 A 
ATOM      7  C   UNL     1     -16.911  -6.706  38.718  1.00  0.00     0.118 A 
BRANCH   7   8
ATOM      8  O   UNL     1     -18.083  -7.391  38.395  1.00  0.00    -0.508 OA
ATOM      9  H   UNL     1     -18.764  -7.006  37.751  1.00  0.00     0.293 HD
ENDBRANCH   7   8
ENDBRANCH   1   2
BRANCH   1  10
ATOM     10  C   UNL     1     -17.788  -7.792  41.595  1.00  0.00     0.040 C 
BRANCH  10  11
ATOM     11  C   UNL     1     -17.470  -7.822  43.066  1.00  0.00    -0.040 A 
ATOM     12  C   UNL     1     -17.024  -6.660  43.717  1.00  0.00     0.050 A 
ATOM     13  C   UNL     1     -17.672  -8.995  43.810  1.00  0.00     0.050 A 
ATOM     14  C   UNL     1     -16.761  -6.677  45.091  1.00  0.00     0.119 A 
ATOM     15  C   UNL     1     -17.408  -9.017  45.183  1.00  0.00     0.119 A 
ATOM     16  C   UNL     1     -16.950  -7.857  45.823  1.00  0.00     0.092 A 
BRANCH  14  17
ATOM     17  O   UNL     1     -16.313  -5.517  45.719  1.00  0.00    -0.508 OA
ATOM     18  H   UNL     1     -16.803  -5.121  46.512  1.00  0.00     0.293 HD
ENDBRANCH  14  17
BRANCH  15  19
ATOM     19  O   UNL     1     -17.607 -10.192  45.902  1.00  0.00    -0.508 OA
ATOM     20  H   UNL     1     -17.379 -11.099  45.511  1.00  0.00     0.293 HD
ENDBRANCH  15  19
ENDBRANCH  10  11
ENDBRANCH   1  10
TORSDOF 6
ENDMDL
MODEL 5
REMARK VINA RESULT:    -6.799      5.821      8.266
REMARK INTER + INTRA:          -9.024
REMARK INTER:                  -8.608
REMARK INTRA:                  -0.416
REMARK UNBOUND:                -0.436
REMARK SMILES Oc1cc(O)cc(CCc2ccccc2O)c1
REMARK SMILES IDX 9 1 10 2 12 3 13 4 11 5 14 6 15 7 16 8 8 10 7 11 6 12 17 13
REMARK SMILES IDX 4 14 2 15 3 16 5 17 1 19
REMARK H PARENT 16 9 5 18 1 20
REMARK Flexibility Score: inf
ROOT
ATOM      1  C   UNL     1     -10.982  -9.135  38.508  1.00  0.00     0.044 C 
ENDROOT
BRANCH   1   2
ATOM      2  C   UNL     1      -9.866  -9.906  39.168  1.00  0.00    -0.006 A 
ATOM      3  C   UNL     1      -8.893 -10.872  41.177  1.00  0.00     0.001 A 
ATOM      4  C   UNL     1      -7.844 -11.397  40.422  1.00  0.00     0.004 A 
ATOM      5  C   UNL     1      -9.904 -10.134  40.554  1.00  0.00     0.007 A 
ATOM      6  C   UNL     1      -7.802 -11.190  39.042  1.00  0.00     0.046 A 
ATOM      7  C   UNL     1      -8.812 -10.451  38.408  1.00  0.00     0.118 A 
BRANCH   7   8
ATOM      8  O   UNL     1      -8.772 -10.261  37.026  1.00  0.00    -0.508 OA
ATOM      9  H   UNL     1      -8.881 -11.033  36.379  1.00  0.00     0.293 HD
ENDBRANCH   7   8
ENDBRANCH   1   2
BRANCH   1  10
ATOM     10  C   UNL     1     -11.475  -8.011  39.423  1.00  0.00     0.040 C 
BRANCH  10  11
ATOM     11  C   UNL     1     -12.587  -7.241  38.761  1.00  0.00    -0.040 A 
ATOM     12  C   UNL     1     -12.848  -7.412  37.392  1.00  0.00     0.050 A 
ATOM     13  C   UNL     1     -13.406  -6.389  39.519  1.00  0.00     0.050 A 
ATOM     14  C   UNL     1     -13.902  -6.722  36.783  1.00  0.00     0.119 A 
ATOM     15  C   UNL     1     -14.460  -5.697  38.914  1.00  0.00     0.119 A 
ATOM     16  C   UNL     1     -14.705  -5.862  37.544  1.00  0.00     0.092 A 
BRANCH  14  17
ATOM     17  O   UNL     1     -14.142  -6.899  35.422  1.00  0.00    -0.508 OA
ATOM     18  H   UNL     1     -14.340  -7.814  35.033  1.00  0.00     0.293 HD
ENDBRANCH  14  17
BRANCH  15  19
ATOM     19  O   UNL     1     -15.257  -4.851  39.680  1.00  0.00    -0.508 OA
ATOM     20  H   UNL     1     -15.899  -4.195  39.251  1.00  0.00     0.293 HD
ENDBRANCH  15  19
ENDBRANCH  10  11
ENDBRANCH   1  10
TORSDOF 6
ENDMDL
MODEL 6
REMARK VINA RESULT:    -6.796      5.796      8.379
REMARK INTER + INTRA:          -9.020
REMARK INTER:                  -8.609
REMARK INTRA:                  -0.411
REMARK UNBOUND:                -0.436
REMARK SMILES Oc1cc(O)cc(CCc2ccccc2O)c1
REMARK SMILES IDX 9 1 10 2 12 3 13 4 11 5 14 6 15 7 16 8 8 10 7 11 6 12 17 13
REMARK SMILES IDX 4 14 2 15 3 16 5 17 1 19
REMARK H PARENT 16 9 5 18 1 20
REMARK Flexibility Score: inf
ROOT
ATOM      1  C   UNL     1     -11.053  -9.162  38.182  1.00  0.00     0.044 C 
ENDROOT
BRANCH   1   2
ATOM      2  C   UNL     1      -9.874  -9.909  38.753  1.00  0.00    -0.006 A 
ATOM      3  C   UNL     1      -8.782 -10.955  40.659  1.00  0.00     0.001 A 
ATOM      4  C   UNL     1      -7.729 -11.361  39.838  1.00  0.00     0.004 A 
ATOM      5  C   UNL     1      -9.854 -10.237  40.120  1.00  0.00     0.007 A 
ATOM      6  C   UNL     1      -7.744 -11.055  38.476  1.00  0.00     0.046 A 
ATOM      7  C   UNL     1      -8.815 -10.335  37.926  1.00  0.00     0.118 A 
BRANCH   7   8
ATOM      8  O   UNL     1      -8.831 -10.045  36.560  1.00  0.00    -0.508 OA
ATOM      9  H   UNL     1      -9.637 -10.250  35.982  1.00  0.00     0.293 HD
ENDBRANCH   7   8
ENDBRANCH   1   2
BRANCH   1  10
ATOM     10  C   UNL     1     -11.530  -8.081  39.156  1.00  0.00     0.040 C 
BRANCH  10  11
ATOM     11  C   UNL     1     -12.666  -7.296  38.560  1.00  0.00    -0.040 A 
ATOM     12  C   UNL     1     -13.425  -6.428  39.363  1.00  0.00     0.050 A 
ATOM     13  C   UNL     1     -12.941  -7.381  37.186  1.00  0.00     0.050 A 
ATOM     14  C   UNL     1     -14.460  -5.672  38.803  1.00  0.00     0.119 A 
ATOM     15  C   UNL     1     -13.976  -6.628  36.623  1.00  0.00     0.119 A 
ATOM     16  C   UNL     1     -14.737  -5.774  37.433  1.00  0.00     0.092 A 
BRANCH  14  17
ATOM     17  O   UNL     1     -15.206  -4.821  39.617  1.00  0.00    -0.508 OA
ATOM     18  H   UNL     1     -14.768  -4.255  40.334  1.00  0.00     0.293 HD
ENDBRANCH  14  17
BRANCH  15  19
ATOM     19  O   UNL     1     -14.239  -6.731  35.259  1.00  0.00    -0.508 OA
ATOM     20  H   UNL     1     -14.890  -7.415  34.895  1.00  0.00     0.293 HD
ENDBRANCH  15  19
ENDBRANCH  10  11
ENDBRANCH   1  10
TORSDOF 6
ENDMDL
MODEL 7
REMARK VINA RESULT:    -6.766      6.293      8.259
REMARK INTER + INTRA:          -8.982
REMARK INTER:                  -8.557
REMARK INTRA:                  -0.425
REMARK UNBOUND:                -0.436
REMARK SMILES Oc1cc(O)cc(CCc2ccccc2O)c1
REMARK SMILES IDX 9 1 10 2 12 3 13 4 11 5 14 6 15 7 16 8 8 10 7 11 6 12 17 13
REMARK SMILES IDX 4 14 2 15 3 16 5 17 1 19
REMARK H PARENT 16 9 5 18 1 20
REMARK Flexibility Score: inf
ROOT
ATOM      1  C   UNL     1     -11.747  -8.229  37.983  1.00  0.00     0.044 C 
ENDROOT
BRANCH   1   2
ATOM      2  C   UNL     1     -12.872  -7.244  38.173  1.00  0.00    -0.006 A 
ATOM      3  C   UNL     1     -14.023  -5.626  39.579  1.00  0.00     0.001 A 
ATOM      4  C   UNL     1     -14.913  -5.349  38.540  1.00  0.00     0.004 A 
ATOM      5  C   UNL     1     -13.004  -6.565  39.397  1.00  0.00     0.007 A 
ATOM      6  C   UNL     1     -14.784  -6.005  37.315  1.00  0.00     0.046 A 
ATOM      7  C   UNL     1     -13.764  -6.948  37.122  1.00  0.00     0.118 A 
BRANCH   7   8
ATOM      8  O   UNL     1     -13.632  -7.590  35.889  1.00  0.00    -0.508 OA
ATOM      9  H   UNL     1     -12.777  -8.064  35.625  1.00  0.00     0.293 HD
ENDBRANCH   7   8
ENDBRANCH   1   2
BRANCH   1  10
ATOM     10  C   UNL     1     -11.248  -8.745  39.336  1.00  0.00     0.040 C 
BRANCH  10  11
ATOM     11  C   UNL     1     -10.039  -9.622  39.154  1.00  0.00    -0.040 A 
ATOM     12  C   UNL     1      -9.429  -9.734  37.893  1.00  0.00     0.050 A 
ATOM     13  C   UNL     1      -9.477 -10.291  40.253  1.00  0.00     0.050 A 
ATOM     14  C   UNL     1      -8.286 -10.523  37.729  1.00  0.00     0.119 A 
ATOM     15  C   UNL     1      -8.335 -11.081  40.093  1.00  0.00     0.119 A 
ATOM     16  C   UNL     1      -7.740 -11.198  38.829  1.00  0.00     0.092 A 
BRANCH  14  17
ATOM     17  O   UNL     1      -7.699 -10.627  36.469  1.00  0.00    -0.508 OA
ATOM     18  H   UNL     1      -8.185 -10.328  35.632  1.00  0.00     0.293 HD
ENDBRANCH  14  17
BRANCH  15  19
ATOM     19  O   UNL     1      -7.796 -11.742  41.193  1.00  0.00    -0.508 OA
ATOM     20  H   UNL     1      -7.378 -11.235  41.964  1.00  0.00     0.293 HD
ENDBRANCH  15  19
ENDBRANCH  10  11
ENDBRANCH   1  10
TORSDOF 6
ENDMDL
MODEL 8
REMARK VINA RESULT:    -6.750      6.295      8.192
REMARK INTER + INTRA:          -8.962
REMARK INTER:                  -8.535
REMARK INTRA:                  -0.427
REMARK UNBOUND:                -0.436
REMARK SMILES Oc1cc(O)cc(CCc2ccccc2O)c1
REMARK SMILES IDX 9 1 10 2 12 3 13 4 11 5 14 6 15 7 16 8 8 10 7 11 6 12 17 13
REMARK SMILES IDX 4 14 2 15 3 16 5 17 1 19
REMARK H PARENT 16 9 5 18 1 20
REMARK Flexibility Score: inf
ROOT
ATOM      1  C   UNL     1     -11.757  -8.241  37.984  1.00  0.00     0.044 C 
ENDROOT
BRANCH   1   2
ATOM      2  C   UNL     1     -12.886  -7.260  38.179  1.00  0.00    -0.006 A 
ATOM      3  C   UNL     1     -14.043  -5.656  39.595  1.00  0.00     0.001 A 
ATOM      4  C   UNL     1     -14.932  -5.374  38.557  1.00  0.00     0.004 A 
ATOM      5  C   UNL     1     -13.020  -6.590  39.408  1.00  0.00     0.007 A 
ATOM      6  C   UNL     1     -14.800  -6.022  37.328  1.00  0.00     0.046 A 
ATOM      7  C   UNL     1     -13.777  -6.961  37.129  1.00  0.00     0.118 A 
BRANCH   7   8
ATOM      8  O   UNL     1     -13.643  -7.594  35.893  1.00  0.00    -0.508 OA
ATOM      9  H   UNL     1     -13.604  -8.603  35.813  1.00  0.00     0.293 HD
ENDBRANCH   7   8
ENDBRANCH   1   2
BRANCH   1  10
ATOM     10  C   UNL     1     -11.254  -8.760  39.334  1.00  0.00     0.040 C 
BRANCH  10  11
ATOM     11  C   UNL     1     -10.008  -9.583  39.152  1.00  0.00    -0.040 A 
ATOM     12  C   UNL     1      -9.456 -10.283  40.239  1.00  0.00     0.050 A 
ATOM     13  C   UNL     1      -9.418  -9.705  37.884  1.00  0.00     0.050 A 
ATOM     14  C   UNL     1      -8.317 -11.075  40.065  1.00  0.00     0.119 A 
ATOM     15  C   UNL     1      -8.278 -10.495  37.706  1.00  0.00     0.119 A 
ATOM     16  C   UNL     1      -7.726 -11.178  38.798  1.00  0.00     0.092 A 
BRANCH  14  17
ATOM     17  O   UNL     1      -7.781 -11.756  41.156  1.00  0.00    -0.508 OA
ATOM     18  H   UNL     1      -8.069 -11.547  42.105  1.00  0.00     0.293 HD
ENDBRANCH  14  17
BRANCH  15  19
ATOM     19  O   UNL     1      -7.703 -10.598  36.442  1.00  0.00    -0.508 OA
ATOM     20  H   UNL     1      -8.065 -11.238  35.745  1.00  0.00     0.293 HD
ENDBRANCH  15  19
ENDBRANCH  10  11
ENDBRANCH   1  10
TORSDOF 6
ENDMDL
MODEL 9
REMARK VINA RESULT:    -6.664      3.348      5.168
REMARK INTER + INTRA:          -8.854
REMARK INTER:                  -8.297
REMARK INTRA:                  -0.557
REMARK UNBOUND:                -0.436
REMARK SMILES Oc1cc(O)cc(CCc2ccccc2O)c1
REMARK SMILES IDX 9 1 10 2 12 3 13 4 11 5 14 6 15 7 16 8 8 10 7 11 6 12 17 13
REMARK SMILES IDX 4 14 2 15 3 16 5 17 1 19
REMARK H PARENT 16 9 5 18 1 20
REMARK Flexibility Score: inf
ROOT
ATOM      1  C   UNL     1     -12.614  -6.590  40.808  1.00  0.00     0.044 C 
ENDROOT
BRANCH   1   2
ATOM      2  C   UNL     1     -12.128  -7.481  39.693  1.00  0.00    -0.006 A 
ATOM      3  C   UNL     1     -12.144  -8.083  37.336  1.00  0.00     0.001 A 
ATOM      4  C   UNL     1     -11.194  -9.076  37.578  1.00  0.00     0.004 A 
ATOM      5  C   UNL     1     -12.607  -7.284  38.386  1.00  0.00     0.007 A 
ATOM      6  C   UNL     1     -10.700  -9.272  38.869  1.00  0.00     0.046 A 
ATOM      7  C   UNL     1     -11.157  -8.475  39.930  1.00  0.00     0.118 A 
BRANCH   7   8
ATOM      8  O   UNL     1     -10.648  -8.667  41.215  1.00  0.00    -0.508 OA
ATOM      9  H   UNL     1      -9.990  -8.018  41.629  1.00  0.00     0.293 HD
ENDBRANCH   7   8
ENDBRANCH   1   2
BRANCH   1  10
ATOM     10  C   UNL     1     -13.588  -5.537  40.271  1.00  0.00     0.040 C 
BRANCH  10  11
ATOM     11  C   UNL     1     -15.008  -5.916  40.596  1.00  0.00    -0.040 A 
ATOM     12  C   UNL     1     -15.920  -6.191  39.564  1.00  0.00     0.050 A 
ATOM     13  C   UNL     1     -15.416  -6.053  41.932  1.00  0.00     0.050 A 
ATOM     14  C   UNL     1     -17.231  -6.576  39.865  1.00  0.00     0.119 A 
ATOM     15  C   UNL     1     -16.725  -6.436  42.237  1.00  0.00     0.119 A 
ATOM     16  C   UNL     1     -17.634  -6.695  41.202  1.00  0.00     0.092 A 
BRANCH  14  17
ATOM     17  O   UNL     1     -18.124  -6.839  38.828  1.00  0.00    -0.508 OA
ATOM     18  H   UNL     1     -18.643  -7.709  38.783  1.00  0.00     0.293 HD
ENDBRANCH  14  17
BRANCH  15  19
ATOM     19  O   UNL     1     -17.114  -6.559  43.568  1.00  0.00    -0.508 OA
ATOM     20  H   UNL     1     -16.459  -6.415  44.327  1.00  0.00     0.293 HD
ENDBRANCH  15  19
ENDBRANCH  10  11
ENDBRANCH   1  10
TORSDOF 6
ENDMDL
