MODEL 1
REMARK VINA RESULT:    -3.323      0.000      0.000
REMARK INTER + INTRA:          -4.455
REMARK INTER:                  -4.295
REMARK INTRA:                  -0.160
REMARK UNBOUND:                -0.160
REMARK SMILES CCCCCCC(=O)[O-]
REMARK SMILES IDX 5 1 6 2 7 3 8 4 9 5 4 6 3 7 2 8 1 9
REMARK H PARENT
REMARK Flexibility Score: inf
ROOT
ATOM      1  C   UNL     1      43.612  30.399  89.885  1.00  0.00     0.006 C 
ENDROOT
BRANCH   1   2
ATOM      2  C   UNL     1      44.626  31.063  90.825  1.00  0.00     0.053 C 
BRANCH   2   3
ATOM      3  C   UNL     1      44.219  30.871  92.252  1.00  0.00     0.041 C 
ATOM      4  O   UNL     1      43.905  29.726  92.673  1.00  0.00    -0.550 OA
ATOM      5  O   UNL     1      44.138  31.964  93.105  1.00  0.00    -0.550 OA
ENDBRANCH   2   3
ENDBRANCH   1   2
BRANCH   1   6
ATOM      6  C   UNL     1      43.607  31.024  88.481  1.00  0.00     0.000 C 
BRANCH   6   7
ATOM      7  C   UNL     1      42.189  31.213  87.922  1.00  0.00    -0.000 C 
BRANCH   7   8
ATOM      8  C   UNL     1      41.173  30.389  88.719  1.00  0.00    -0.003 C 
ATOM      9  C   UNL     1      39.742  30.734  88.313  1.00  0.00     0.004 C 
ENDBRANCH   7   8
ENDBRANCH   6   7
ENDBRANCH   1   6
TORSDOF 5
ENDMDL
MODEL 2
REMARK VINA RESULT:    -3.142      1.233      1.529
REMARK INTER + INTRA:          -4.220
REMARK INTER:                  -3.975
REMARK INTRA:                  -0.246
REMARK UNBOUND:                -0.160
REMARK SMILES CCCCCCC(=O)[O-]
REMARK SMILES IDX 5 1 6 2 7 3 8 4 9 5 4 6 3 7 2 8 1 9
REMARK H PARENT
REMARK Flexibility Score: inf
ROOT
ATOM      1  C   UNL     1      43.715  31.308  88.937  1.00  0.00     0.006 C 
ENDROOT
BRANCH   1   2
ATOM      2  C   UNL     1      43.872  30.502  90.233  1.00  0.00     0.053 C 
BRANCH   2   3
ATOM      3  C   UNL     1      44.773  31.219  91.187  1.00  0.00     0.041 C 
ATOM      4  O   UNL     1      45.921  31.587  90.821  1.00  0.00    -0.550 OA
ATOM      5  O   UNL     1      44.365  31.440  92.497  1.00  0.00    -0.550 OA
ENDBRANCH   2   3
ENDBRANCH   1   2
BRANCH   1   6
ATOM      6  C   UNL     1      42.953  30.536  87.848  1.00  0.00     0.000 C 
BRANCH   6   7
ATOM      7  C   UNL     1      41.718  31.294  87.339  1.00  0.00    -0.000 C 
BRANCH   7   8
ATOM      8  C   UNL     1      40.479  30.940  88.168  1.00  0.00    -0.003 C 
ATOM      9  C   UNL     1      40.414  29.441  88.449  1.00  0.00     0.004 C 
ENDBRANCH   7   8
ENDBRANCH   6   7
ENDBRANCH   1   6
TORSDOF 5
ENDMDL
MODEL 3
REMARK VINA RESULT:    -3.073      3.035      4.677
REMARK INTER + INTRA:          -4.131
REMARK INTER:                  -3.895
REMARK INTRA:                  -0.236
REMARK UNBOUND:                -0.160
REMARK SMILES CCCCCCC(=O)[O-]
REMARK SMILES IDX 5 1 6 2 7 3 8 4 9 5 4 6 3 7 2 8 1 9
REMARK H PARENT
REMARK Flexibility Score: inf
ROOT
ATOM      1  C   UNL     1      43.679  31.212  88.846  1.00  0.00     0.006 C 
ENDROOT
BRANCH   1   2
ATOM      2  C   UNL     1      42.395  30.386  88.996  1.00  0.00     0.053 C 
BRANCH   2   3
ATOM      3  C   UNL     1      41.331  30.906  88.084  1.00  0.00     0.041 C 
ATOM      4  O   UNL     1      40.127  30.581  88.263  1.00  0.00    -0.550 OA
ATOM      5  O   UNL     1      41.672  31.713  87.006  1.00  0.00    -0.550 OA
ENDBRANCH   2   3
ENDBRANCH   1   2
BRANCH   1   6
ATOM      6  C   UNL     1      44.518  31.243  90.134  1.00  0.00     0.000 C 
BRANCH   6   7
ATOM      7  C   UNL     1      44.479  29.911  90.897  1.00  0.00    -0.000 C 
BRANCH   7   8
ATOM      8  C   UNL     1      44.179  30.141  92.383  1.00  0.00    -0.003 C 
ATOM      9  C   UNL     1      44.271  31.621  92.742  1.00  0.00     0.004 C 
ENDBRANCH   7   8
ENDBRANCH   6   7
ENDBRANCH   1   6
TORSDOF 5
ENDMDL
MODEL 4
REMARK VINA RESULT:    -3.052     16.219     17.239
REMARK INTER + INTRA:          -4.104
REMARK INTER:                  -3.787
REMARK INTRA:                  -0.316
REMARK UNBOUND:                -0.160
REMARK SMILES CCCCCCC(=O)[O-]
REMARK SMILES IDX 5 1 6 2 7 3 8 4 9 5 4 6 3 7 2 8 1 9
REMARK H PARENT
REMARK Flexibility Score: inf
ROOT
ATOM      1  C   UNL     1      53.183  19.579  84.433  1.00  0.00     0.006 C 
ENDROOT
BRANCH   1   2
ATOM      2  C   UNL     1      52.149  18.449  84.520  1.00  0.00     0.053 C 
BRANCH   2   3
ATOM      3  C   UNL     1      50.943  18.903  85.279  1.00  0.00     0.041 C 
ATOM      4  O   UNL     1      51.073  19.625  86.304  1.00  0.00    -0.550 OA
ATOM      5  O   UNL     1      49.676  18.490  84.885  1.00  0.00    -0.550 OA
ENDBRANCH   2   3
ENDBRANCH   1   2
BRANCH   1   6
ATOM      6  C   UNL     1      54.598  19.117  84.815  1.00  0.00     0.000 C 
BRANCH   6   7
ATOM      7  C   UNL     1      54.607  18.180  86.031  1.00  0.00    -0.000 C 
BRANCH   7   8
ATOM      8  C   UNL     1      55.502  16.962  85.778  1.00  0.00    -0.003 C 
ATOM      9  C   UNL     1      56.125  17.016  84.385  1.00  0.00     0.004 C 
ENDBRANCH   7   8
ENDBRANCH   6   7
ENDBRANCH   1   6
TORSDOF 5
ENDMDL
MODEL 5
REMARK VINA RESULT:    -3.027      2.039      2.378
REMARK INTER + INTRA:          -4.072
REMARK INTER:                  -3.924
REMARK INTRA:                  -0.147
REMARK UNBOUND:                -0.160
REMARK SMILES CCCCCCC(=O)[O-]
REMARK SMILES IDX 5 1 6 2 7 3 8 4 9 5 4 6 3 7 2 8 1 9
REMARK H PARENT
REMARK Flexibility Score: inf
ROOT
ATOM      1  C   UNL     1      43.771  30.489  89.939  1.00  0.00     0.006 C 
ENDROOT
BRANCH   1   2
ATOM      2  C   UNL     1      44.779  31.263  90.799  1.00  0.00     0.053 C 
BRANCH   2   3
ATOM      3  C   UNL     1      46.169  31.054  90.288  1.00  0.00     0.041 C 
ATOM      4  O   UNL     1      46.686  31.887  89.497  1.00  0.00    -0.550 OA
ATOM      5  O   UNL     1      46.878  29.914  90.647  1.00  0.00    -0.550 OA
ENDBRANCH   2   3
ENDBRANCH   1   2
BRANCH   1   6
ATOM      6  C   UNL     1      43.394  31.238  88.650  1.00  0.00     0.000 C 
BRANCH   6   7
ATOM      7  C   UNL     1      42.417  30.445  87.769  1.00  0.00    -0.000 C 
BRANCH   7   8
ATOM      8  C   UNL     1      41.106  31.215  87.577  1.00  0.00    -0.003 C 
ATOM      9  C   UNL     1      39.988  30.624  88.431  1.00  0.00     0.004 C 
ENDBRANCH   7   8
ENDBRANCH   6   7
ENDBRANCH   1   6
TORSDOF 5
ENDMDL
MODEL 6
REMARK VINA RESULT:    -3.003      2.755      4.695
REMARK INTER + INTRA:          -4.041
REMARK INTER:                  -3.823
REMARK INTRA:                  -0.217
REMARK UNBOUND:                -0.160
REMARK SMILES CCCCCCC(=O)[O-]
REMARK SMILES IDX 5 1 6 2 7 3 8 4 9 5 4 6 3 7 2 8 1 9
REMARK H PARENT
REMARK Flexibility Score: inf
ROOT
ATOM      1  C   UNL     1      43.140  30.456  88.173  1.00  0.00     0.006 C 
ENDROOT
BRANCH   1   2
ATOM      2  C   UNL     1      41.792  31.027  87.713  1.00  0.00     0.053 C 
BRANCH   2   3
ATOM      3  C   UNL     1      40.689  30.532  88.593  1.00  0.00     0.041 C 
ATOM      4  O   UNL     1      40.952  29.837  89.610  1.00  0.00    -0.550 OA
ATOM      5  O   UNL     1      39.365  30.797  88.264  1.00  0.00    -0.550 OA
ENDBRANCH   2   3
ENDBRANCH   1   2
BRANCH   1   6
ATOM      6  C   UNL     1      43.991  31.486  88.932  1.00  0.00     0.000 C 
BRANCH   6   7
ATOM      7  C   UNL     1      44.254  31.077  90.390  1.00  0.00    -0.000 C 
BRANCH   7   8
ATOM      8  C   UNL     1      45.689  31.418  90.803  1.00  0.00    -0.003 C 
ATOM      9  C   UNL     1      46.572  31.663  89.582  1.00  0.00     0.004 C 
ENDBRANCH   7   8
ENDBRANCH   6   7
ENDBRANCH   1   6
TORSDOF 5
ENDMDL
MODEL 7
REMARK VINA RESULT:    -2.982      1.517      2.146
REMARK INTER + INTRA:          -4.014
REMARK INTER:                  -3.737
REMARK INTRA:                  -0.277
REMARK UNBOUND:                -0.160
REMARK SMILES CCCCCCC(=O)[O-]
REMARK SMILES IDX 5 1 6 2 7 3 8 4 9 5 4 6 3 7 2 8 1 9
REMARK H PARENT
REMARK Flexibility Score: inf
ROOT
ATOM      1  C   UNL     1      42.670  30.449  88.131  1.00  0.00     0.006 C 
ENDROOT
BRANCH   1   2
ATOM      2  C   UNL     1      43.729  31.334  88.801  1.00  0.00     0.053 C 
BRANCH   2   3
ATOM      3  C   UNL     1      44.093  30.785  90.144  1.00  0.00     0.041 C 
ATOM      4  O   UNL     1      43.281  30.055  90.772  1.00  0.00    -0.550 OA
ATOM      5  O   UNL     1      45.310  31.119  90.725  1.00  0.00    -0.550 OA
ENDBRANCH   2   3
ENDBRANCH   1   2
BRANCH   1   6
ATOM      6  C   UNL     1      41.493  31.259  87.564  1.00  0.00     0.000 C 
BRANCH   6   7
ATOM      7  C   UNL     1      40.165  30.946  88.269  1.00  0.00    -0.000 C 
BRANCH   7   8
ATOM      8  C   UNL     1      40.231  29.592  88.984  1.00  0.00    -0.003 C 
ATOM      9  C   UNL     1      39.407  28.539  88.247  1.00  0.00     0.004 C 
ENDBRANCH   7   8
ENDBRANCH   6   7
ENDBRANCH   1   6
TORSDOF 5
ENDMDL
MODEL 8
REMARK VINA RESULT:    -2.932      1.564      2.023
REMARK INTER + INTRA:          -3.949
REMARK INTER:                  -3.713
REMARK INTRA:                  -0.236
REMARK UNBOUND:                -0.160
REMARK SMILES CCCCCCC(=O)[O-]
REMARK SMILES IDX 5 1 6 2 7 3 8 4 9 5 4 6 3 7 2 8 1 9
REMARK H PARENT
REMARK Flexibility Score: inf
ROOT
ATOM      1  C   UNL     1      43.067  30.007  90.447  1.00  0.00     0.006 C 
ENDROOT
BRANCH   1   2
ATOM      2  C   UNL     1      44.155  31.018  90.061  1.00  0.00     0.053 C 
BRANCH   2   3
ATOM      3  C   UNL     1      45.421  30.730  90.802  1.00  0.00     0.041 C 
ATOM      4  O   UNL     1      45.463  29.797  91.648  1.00  0.00    -0.550 OA
ATOM      5  O   UNL     1      46.544  31.522  90.594  1.00  0.00    -0.550 OA
ENDBRANCH   2   3
ENDBRANCH   1   2
BRANCH   1   6
ATOM      6  C   UNL     1      42.216  29.565  89.246  1.00  0.00     0.000 C 
BRANCH   6   7
ATOM      7  C   UNL     1      40.735  29.941  89.400  1.00  0.00    -0.000 C 
BRANCH   7   8
ATOM      8  C   UNL     1      40.288  30.881  88.276  1.00  0.00    -0.003 C 
ATOM      9  C   UNL     1      41.465  31.278  87.388  1.00  0.00     0.004 C 
ENDBRANCH   7   8
ENDBRANCH   6   7
ENDBRANCH   1   6
TORSDOF 5
ENDMDL
MODEL 9
REMARK VINA RESULT:    -2.926      3.146      4.972
REMARK INTER + INTRA:          -3.942
REMARK INTER:                  -3.735
REMARK INTRA:                  -0.206
REMARK UNBOUND:                -0.160
REMARK SMILES CCCCCCC(=O)[O-]
REMARK SMILES IDX 5 1 6 2 7 3 8 4 9 5 4 6 3 7 2 8 1 9
REMARK H PARENT
REMARK Flexibility Score: inf
ROOT
ATOM      1  C   UNL     1      43.816  31.392  88.960  1.00  0.00     0.006 C 
ENDROOT
BRANCH   1   2
ATOM      2  C   UNL     1      42.688  30.361  88.830  1.00  0.00     0.053 C 
BRANCH   2   3
ATOM      3  C   UNL     1      41.546  30.933  88.051  1.00  0.00     0.041 C 
ATOM      4  O   UNL     1      41.765  31.651  87.039  1.00  0.00    -0.550 OA
ATOM      5  O   UNL     1      40.240  30.713  88.470  1.00  0.00    -0.550 OA
ENDBRANCH   2   3
ENDBRANCH   1   2
BRANCH   1   6
ATOM      6  C   UNL     1      44.602  31.248  90.274  1.00  0.00     0.000 C 
BRANCH   6   7
ATOM      7  C   UNL     1      46.119  31.382  90.074  1.00  0.00    -0.000 C 
BRANCH   7   8
ATOM      8  C   UNL     1      46.841  30.096  90.492  1.00  0.00    -0.003 C 
ATOM      9  C   UNL     1      45.924  29.187  91.306  1.00  0.00     0.004 C 
ENDBRANCH   7   8
ENDBRANCH   6   7
ENDBRANCH   1   6
TORSDOF 5
ENDMDL
