MODEL 1
REMARK VINA RESULT:    -4.418      0.000      0.000
REMARK INTER + INTRA:          -7.181
REMARK INTER:                  -6.742
REMARK INTRA:                  -0.439
REMARK UNBOUND:                -0.439
REMARK SMILES CCCCCCCCCCC(=O)[O-]
REMARK SMILES IDX 7 1 8 2 9 3 10 4 11 5 12 6 13 7 6 8 5 9 4 10 3 11 2 12 1 13
REMARK H PARENT
REMARK Flexibility Score: inf
ROOT
ATOM      1  C   UNL     1      11.912  49.592  97.641  1.00  0.00     0.000 C 
ENDROOT
BRANCH   1   2
ATOM      2  C   UNL     1      10.956  48.592  96.973  1.00  0.00     0.000 C 
BRANCH   2   3
ATOM      3  C   UNL     1       9.555  48.599  97.610  1.00  0.00     0.006 C 
BRANCH   3   4
ATOM      4  C   UNL     1       9.229  49.944  98.274  1.00  0.00     0.053 C 
BRANCH   4   5
ATOM      5  C   UNL     1       8.144  50.673  97.543  1.00  0.00     0.041 C 
ATOM      6  O   UNL     1       7.497  51.589  98.117  1.00  0.00    -0.550 OA
ATOM      7  O   UNL     1       7.869  50.362  96.217  1.00  0.00    -0.550 OA
ENDBRANCH   4   5
ENDBRANCH   3   4
ENDBRANCH   2   3
ENDBRANCH   1   2
BRANCH   1   8
ATOM      8  C   UNL     1      13.379  49.370  97.232  1.00  0.00     0.000 C 
BRANCH   8   9
ATOM      9  C   UNL     1      14.128  50.687  96.969  1.00  0.00    -0.000 C 
BRANCH   9  10
ATOM     10  C   UNL     1      14.303  50.976  95.468  1.00  0.00    -0.000 C 
BRANCH  10  11
ATOM     11  C   UNL     1      15.713  50.633  94.954  1.00  0.00    -0.000 C 
BRANCH  11  12
ATOM     12  C   UNL     1      15.972  49.136  94.713  1.00  0.00    -0.003 C 
ATOM     13  C   UNL     1      15.459  48.649  93.358  1.00  0.00     0.004 C 
ENDBRANCH  11  12
ENDBRANCH  10  11
ENDBRANCH   9  10
ENDBRANCH   8   9
ENDBRANCH   1   8
TORSDOF 9
ENDMDL
MODEL 2
REMARK VINA RESULT:    -4.141      4.425      7.359
REMARK INTER + INTRA:          -6.759
REMARK INTER:                  -6.286
REMARK INTRA:                  -0.473
REMARK UNBOUND:                -0.439
REMARK SMILES CCCCCCCCCCC(=O)[O-]
REMARK SMILES IDX 7 1 8 2 9 3 10 4 11 5 12 6 13 7 6 8 5 9 4 10 3 11 2 12 1 13
REMARK H PARENT
REMARK Flexibility Score: inf
ROOT
ATOM      1  C   UNL     1      15.019  49.703  95.927  1.00  0.00     0.000 C 
ENDROOT
BRANCH   1   2
ATOM      2  C   UNL     1      14.976  49.970  94.414  1.00  0.00     0.000 C 
BRANCH   2   3
ATOM      3  C   UNL     1      15.785  48.937  93.610  1.00  0.00     0.006 C 
BRANCH   3   4
ATOM      4  C   UNL     1      16.613  48.018  94.518  1.00  0.00     0.053 C 
BRANCH   4   5
ATOM      5  C   UNL     1      17.191  46.864  93.757  1.00  0.00     0.041 C 
ATOM      6  O   UNL     1      16.661  46.486  92.678  1.00  0.00    -0.550 OA
ATOM      7  O   UNL     1      18.334  46.227  94.223  1.00  0.00    -0.550 OA
ENDBRANCH   4   5
ENDBRANCH   3   4
ENDBRANCH   2   3
ENDBRANCH   1   2
BRANCH   1   8
ATOM      8  C   UNL     1      14.136  50.680  96.724  1.00  0.00     0.000 C 
BRANCH   8   9
ATOM      9  C   UNL     1      13.063  49.963  97.560  1.00  0.00    -0.000 C 
BRANCH   9  10
ATOM     10  C   UNL     1      12.335  48.863  96.767  1.00  0.00    -0.000 C 
BRANCH  10  11
ATOM     11  C   UNL     1      10.876  48.667  97.218  1.00  0.00    -0.000 C 
BRANCH  11  12
ATOM     12  C   UNL     1      10.416  49.594  98.356  1.00  0.00    -0.003 C 
ATOM     13  C   UNL     1       8.979  50.087  98.183  1.00  0.00     0.004 C 
ENDBRANCH  11  12
ENDBRANCH  10  11
ENDBRANCH   9  10
ENDBRANCH   8   9
ENDBRANCH   1   8
TORSDOF 9
ENDMDL
MODEL 3
REMARK VINA RESULT:    -4.126      1.861      2.736
REMARK INTER + INTRA:          -6.736
REMARK INTER:                  -6.093
REMARK INTRA:                  -0.643
REMARK UNBOUND:                -0.439
REMARK SMILES CCCCCCCCCCC(=O)[O-]
REMARK SMILES IDX 7 1 8 2 9 3 10 4 11 5 12 6 13 7 6 8 5 9 4 10 3 11 2 12 1 13
REMARK H PARENT
REMARK Flexibility Score: inf
ROOT
ATOM      1  C   UNL     1      10.538  49.415  98.304  1.00  0.00     0.000 C 
ENDROOT
BRANCH   1   2
ATOM      2  C   UNL     1       9.137  50.005  98.079  1.00  0.00     0.000 C 
BRANCH   2   3
ATOM      3  C   UNL     1       8.373  49.297  96.946  1.00  0.00     0.006 C 
BRANCH   3   4
ATOM      4  C   UNL     1       7.919  50.276  95.856  1.00  0.00     0.053 C 
BRANCH   4   5
ATOM      5  C   UNL     1       8.246  49.768  94.484  1.00  0.00     0.041 C 
ATOM      6  O   UNL     1       7.335  49.626  93.626  1.00  0.00    -0.550 OA
ATOM      7  O   UNL     1       9.563  49.483  94.145  1.00  0.00    -0.550 OA
ENDBRANCH   4   5
ENDBRANCH   3   4
ENDBRANCH   2   3
ENDBRANCH   1   2
BRANCH   1   8
ATOM      8  C   UNL     1      11.031  48.590  97.102  1.00  0.00     0.000 C 
BRANCH   8   9
ATOM      9  C   UNL     1      12.410  49.045  96.596  1.00  0.00    -0.000 C 
BRANCH   9  10
ATOM     10  C   UNL     1      13.122  49.982  97.587  1.00  0.00    -0.000 C 
BRANCH  10  11
ATOM     11  C   UNL     1      14.313  50.726  96.956  1.00  0.00    -0.000 C 
BRANCH  11  12
ATOM     12  C   UNL     1      14.289  50.810  95.420  1.00  0.00    -0.003 C 
ATOM     13  C   UNL     1      15.633  50.465  94.780  1.00  0.00     0.004 C 
ENDBRANCH  11  12
ENDBRANCH  10  11
ENDBRANCH   9  10
ENDBRANCH   8   9
ENDBRANCH   1   8
TORSDOF 9
ENDMDL
MODEL 4
REMARK VINA RESULT:    -4.072      1.306      2.099
REMARK INTER + INTRA:          -6.654
REMARK INTER:                  -6.265
REMARK INTRA:                  -0.389
REMARK UNBOUND:                -0.439
REMARK SMILES CCCCCCCCCCC(=O)[O-]
REMARK SMILES IDX 7 1 8 2 9 3 10 4 11 5 12 6 13 7 6 8 5 9 4 10 3 11 2 12 1 13
REMARK H PARENT
REMARK Flexibility Score: inf
ROOT
ATOM      1  C   UNL     1      13.808  49.372  96.803  1.00  0.00     0.000 C 
ENDROOT
BRANCH   1   2
ATOM      2  C   UNL     1      12.333  49.069  96.495  1.00  0.00     0.000 C 
BRANCH   2   3
ATOM      3  C   UNL     1      11.425  49.254  97.724  1.00  0.00     0.006 C 
BRANCH   3   4
ATOM      4  C   UNL     1      10.229  48.292  97.708  1.00  0.00     0.053 C 
BRANCH   4   5
ATOM      5  C   UNL     1       8.926  49.028  97.784  1.00  0.00     0.041 C 
ATOM      6  O   UNL     1       8.911  50.287  97.836  1.00  0.00    -0.550 OA
ATOM      7  O   UNL     1       7.729  48.324  97.766  1.00  0.00    -0.550 OA
ENDBRANCH   4   5
ENDBRANCH   3   4
ENDBRANCH   2   3
ENDBRANCH   1   2
BRANCH   1   8
ATOM      8  C   UNL     1      14.230  50.779  96.344  1.00  0.00     0.000 C 
BRANCH   8   9
ATOM      9  C   UNL     1      15.364  50.750  95.306  1.00  0.00    -0.000 C 
BRANCH   9  10
ATOM     10  C   UNL     1      15.816  49.319  94.966  1.00  0.00    -0.000 C 
BRANCH  10  11
ATOM     11  C   UNL     1      15.512  48.925  93.509  1.00  0.00    -0.000 C 
BRANCH  11  12
ATOM     12  C   UNL     1      16.369  47.774  92.954  1.00  0.00    -0.003 C 
ATOM     13  C   UNL     1      16.696  47.933  91.470  1.00  0.00     0.004 C 
ENDBRANCH  11  12
ENDBRANCH  10  11
ENDBRANCH   9  10
ENDBRANCH   8   9
ENDBRANCH   1   8
TORSDOF 9
ENDMDL
MODEL 5
REMARK VINA RESULT:    -4.051      3.977      6.091
REMARK INTER + INTRA:          -6.622
REMARK INTER:                  -6.182
REMARK INTRA:                  -0.440
REMARK UNBOUND:                -0.439
REMARK SMILES CCCCCCCCCCC(=O)[O-]
REMARK SMILES IDX 7 1 8 2 9 3 10 4 11 5 12 6 13 7 6 8 5 9 4 10 3 11 2 12 1 13
REMARK H PARENT
REMARK Flexibility Score: inf
ROOT
ATOM      1  C   UNL     1       9.920  48.304  97.591  1.00  0.00     0.000 C 
ENDROOT
BRANCH   1   2
ATOM      2  C   UNL     1      11.106  49.238  97.880  1.00  0.00     0.000 C 
BRANCH   2   3
ATOM      3  C   UNL     1      12.282  49.016  96.913  1.00  0.00     0.006 C 
BRANCH   3   4
ATOM      4  C   UNL     1      13.510  49.853  97.295  1.00  0.00     0.053 C 
BRANCH   4   5
ATOM      5  C   UNL     1      14.446  50.022  96.137  1.00  0.00     0.041 C 
ATOM      6  O   UNL     1      15.325  49.151  95.899  1.00  0.00    -0.550 OA
ATOM      7  O   UNL     1      14.326  51.125  95.301  1.00  0.00    -0.550 OA
ENDBRANCH   4   5
ENDBRANCH   3   4
ENDBRANCH   2   3
ENDBRANCH   1   2
BRANCH   1   8
ATOM      8  C   UNL     1       9.433  48.403  96.135  1.00  0.00     0.000 C 
BRANCH   8   9
ATOM      9  C   UNL     1       8.809  47.093  95.627  1.00  0.00    -0.000 C 
BRANCH   9  10
ATOM     10  C   UNL     1       9.480  45.847  96.232  1.00  0.00    -0.000 C 
BRANCH  10  11
ATOM     11  C   UNL     1      10.007  44.873  95.163  1.00  0.00    -0.000 C 
BRANCH  11  12
ATOM     12  C   UNL     1      10.443  43.496  95.694  1.00  0.00    -0.003 C 
ATOM     13  C   UNL     1      11.581  42.875  94.885  1.00  0.00     0.004 C 
ENDBRANCH  11  12
ENDBRANCH  10  11
ENDBRANCH   9  10
ENDBRANCH   8   9
ENDBRANCH   1   8
TORSDOF 9
ENDMDL
MODEL 6
REMARK VINA RESULT:    -4.007      2.408      4.116
REMARK INTER + INTRA:          -6.554
REMARK INTER:                  -6.091
REMARK INTRA:                  -0.463
REMARK UNBOUND:                -0.439
REMARK SMILES CCCCCCCCCCC(=O)[O-]
REMARK SMILES IDX 7 1 8 2 9 3 10 4 11 5 12 6 13 7 6 8 5 9 4 10 3 11 2 12 1 13
REMARK H PARENT
REMARK Flexibility Score: inf
ROOT
ATOM      1  C   UNL     1      15.421  50.471  95.361  1.00  0.00     0.000 C 
ENDROOT
BRANCH   1   2
ATOM      2  C   UNL     1      14.222  50.709  96.292  1.00  0.00     0.000 C 
BRANCH   2   3
ATOM      3  C   UNL     1      13.679  49.404  96.900  1.00  0.00     0.006 C 
BRANCH   3   4
ATOM      4  C   UNL     1      12.406  49.637  97.725  1.00  0.00     0.053 C 
BRANCH   4   5
ATOM      5  C   UNL     1      11.223  48.937  97.128  1.00  0.00     0.041 C 
ATOM      6  O   UNL     1      11.310  48.404  95.990  1.00  0.00    -0.550 OA
ATOM      7  O   UNL     1      10.036  48.845  97.844  1.00  0.00    -0.550 OA
ENDBRANCH   4   5
ENDBRANCH   3   4
ENDBRANCH   2   3
ENDBRANCH   1   2
BRANCH   1   8
ATOM      8  C   UNL     1      15.678  48.976  95.100  1.00  0.00     0.000 C 
BRANCH   8   9
ATOM      9  C   UNL     1      15.912  48.665  93.612  1.00  0.00    -0.000 C 
BRANCH   9  10
ATOM     10  C   UNL     1      16.790  47.419  93.401  1.00  0.00    -0.000 C 
BRANCH  10  11
ATOM     11  C   UNL     1      17.475  46.943  94.695  1.00  0.00    -0.000 C 
BRANCH  11  12
ATOM     12  C   UNL     1      18.880  46.345  94.506  1.00  0.00    -0.003 C 
ATOM     13  C   UNL     1      19.130  45.838  93.087  1.00  0.00     0.004 C 
ENDBRANCH  11  12
ENDBRANCH  10  11
ENDBRANCH   9  10
ENDBRANCH   8   9
ENDBRANCH   1   8
TORSDOF 9
ENDMDL
MODEL 7
REMARK VINA RESULT:    -3.962      1.218      1.983
REMARK INTER + INTRA:          -6.486
REMARK INTER:                  -6.020
REMARK INTRA:                  -0.467
REMARK UNBOUND:                -0.439
REMARK SMILES CCCCCCCCCCC(=O)[O-]
REMARK SMILES IDX 7 1 8 2 9 3 10 4 11 5 12 6 13 7 6 8 5 9 4 10 3 11 2 12 1 13
REMARK H PARENT
REMARK Flexibility Score: inf
ROOT
ATOM      1  C   UNL     1       9.997  48.276  97.555  1.00  0.00     0.000 C 
ENDROOT
BRANCH   1   2
ATOM      2  C   UNL     1       9.449  48.555  96.146  1.00  0.00     0.000 C 
BRANCH   2   3
ATOM      3  C   UNL     1       8.240  49.507  96.162  1.00  0.00     0.006 C 
BRANCH   3   4
ATOM      4  C   UNL     1       7.292  49.217  97.333  1.00  0.00     0.053 C 
BRANCH   4   5
ATOM      5  C   UNL     1       7.140  50.408  98.230  1.00  0.00     0.041 C 
ATOM      6  O   UNL     1       6.287  50.400  99.156  1.00  0.00    -0.550 OA
ATOM      7  O   UNL     1       7.964  51.513  98.061  1.00  0.00    -0.550 OA
ENDBRANCH   4   5
ENDBRANCH   3   4
ENDBRANCH   2   3
ENDBRANCH   1   2
BRANCH   1   8
ATOM      8  C   UNL     1      11.135  49.236  97.947  1.00  0.00     0.000 C 
BRANCH   8   9
ATOM      9  C   UNL     1      12.332  49.161  96.985  1.00  0.00    -0.000 C 
BRANCH   9  10
ATOM     10  C   UNL     1      13.503  50.054  97.431  1.00  0.00    -0.000 C 
BRANCH  10  11
ATOM     11  C   UNL     1      14.399  50.494  96.260  1.00  0.00    -0.000 C 
BRANCH  11  12
ATOM     12  C   UNL     1      15.277  49.384  95.658  1.00  0.00    -0.003 C 
ATOM     13  C   UNL     1      15.445  49.507  94.144  1.00  0.00     0.004 C 
ENDBRANCH  11  12
ENDBRANCH  10  11
ENDBRANCH   9  10
ENDBRANCH   8   9
ENDBRANCH   1   8
TORSDOF 9
ENDMDL
MODEL 8
REMARK VINA RESULT:    -3.941      2.132      3.151
REMARK INTER + INTRA:          -6.453
REMARK INTER:                  -5.863
REMARK INTRA:                  -0.590
REMARK UNBOUND:                -0.439
REMARK SMILES CCCCCCCCCCC(=O)[O-]
REMARK SMILES IDX 7 1 8 2 9 3 10 4 11 5 12 6 13 7 6 8 5 9 4 10 3 11 2 12 1 13
REMARK H PARENT
REMARK Flexibility Score: inf
ROOT
ATOM      1  C   UNL     1      10.346  49.198  98.018  1.00  0.00     0.000 C 
ENDROOT
BRANCH   1   2
ATOM      2  C   UNL     1       9.022  49.944  97.793  1.00  0.00     0.000 C 
BRANCH   2   3
ATOM      3  C   UNL     1       7.796  49.026  97.937  1.00  0.00     0.006 C 
BRANCH   3   4
ATOM      4  C   UNL     1       7.314  48.489  96.583  1.00  0.00     0.053 C 
BRANCH   4   5
ATOM      5  C   UNL     1       7.607  47.027  96.432  1.00  0.00     0.041 C 
ATOM      6  O   UNL     1       7.289  46.422  95.374  1.00  0.00    -0.550 OA
ATOM      7  O   UNL     1       8.261  46.341  97.448  1.00  0.00    -0.550 OA
ENDBRANCH   4   5
ENDBRANCH   3   4
ENDBRANCH   2   3
ENDBRANCH   1   2
BRANCH   1   8
ATOM      8  C   UNL     1      10.924  48.615  96.716  1.00  0.00     0.000 C 
BRANCH   8   9
ATOM      9  C   UNL     1      12.414  48.946  96.527  1.00  0.00    -0.000 C 
BRANCH   9  10
ATOM     10  C   UNL     1      12.932  49.948  97.574  1.00  0.00    -0.000 C 
BRANCH  10  11
ATOM     11  C   UNL     1      14.183  50.712  97.102  1.00  0.00    -0.000 C 
BRANCH  11  12
ATOM     12  C   UNL     1      14.263  50.956  95.585  1.00  0.00    -0.003 C 
ATOM     13  C   UNL     1      15.643  50.653  95.002  1.00  0.00     0.004 C 
ENDBRANCH  11  12
ENDBRANCH  10  11
ENDBRANCH   9  10
ENDBRANCH   8   9
ENDBRANCH   1   8
TORSDOF 9
ENDMDL
MODEL 9
REMARK VINA RESULT:    -3.880      3.343      6.378
REMARK INTER + INTRA:          -6.360
REMARK INTER:                  -5.535
REMARK INTRA:                  -0.825
REMARK UNBOUND:                -0.439
REMARK SMILES CCCCCCCCCCC(=O)[O-]
REMARK SMILES IDX 7 1 8 2 9 3 10 4 11 5 12 6 13 7 6 8 5 9 4 10 3 11 2 12 1 13
REMARK H PARENT
REMARK Flexibility Score: inf
ROOT
ATOM      1  C   UNL     1      10.376  49.197  98.449  1.00  0.00     0.000 C 
ENDROOT
BRANCH   1   2
ATOM      2  C   UNL     1      11.314  48.887  97.272  1.00  0.00     0.000 C 
BRANCH   2   3
ATOM      3  C   UNL     1      12.695  49.547  97.429  1.00  0.00     0.006 C 
BRANCH   3   4
ATOM      4  C   UNL     1      13.548  49.411  96.161  1.00  0.00     0.053 C 
BRANCH   4   5
ATOM      5  C   UNL     1      14.702  50.368  96.165  1.00  0.00     0.041 C 
ATOM      6  O   UNL     1      14.851  51.177  97.118  1.00  0.00    -0.550 OA
ATOM      7  O   UNL     1      15.629  50.342  95.130  1.00  0.00    -0.550 OA
ENDBRANCH   4   5
ENDBRANCH   3   4
ENDBRANCH   2   3
ENDBRANCH   1   2
BRANCH   1   8
ATOM      8  C   UNL     1       9.125  49.983  98.017  1.00  0.00     0.000 C 
BRANCH   8   9
ATOM      9  C   UNL     1       8.566  49.511  96.665  1.00  0.00    -0.000 C 
BRANCH   9  10
ATOM     10  C   UNL     1       7.216  48.786  96.805  1.00  0.00    -0.000 C 
BRANCH  10  11
ATOM     11  C   UNL     1       7.354  47.377  97.411  1.00  0.00    -0.000 C 
BRANCH  11  12
ATOM     12  C   UNL     1       8.392  46.473  96.725  1.00  0.00    -0.003 C 
ATOM     13  C   UNL     1       9.262  45.699  97.715  1.00  0.00     0.004 C 
ENDBRANCH  11  12
ENDBRANCH  10  11
ENDBRANCH   9  10
ENDBRANCH   8   9
ENDBRANCH   1   8
TORSDOF 9
ENDMDL
