MODEL 1
REMARK VINA RESULT:     1.869      0.000      0.000
REMARK INTER + INTRA:           3.919
REMARK INTER:                   2.852
REMARK INTRA:                   1.067
REMARK UNBOUND:                 1.067
REMARK SMILES CC1=CCC[C@@H](C)C(=O)C[C@@H](C(C)C)C(=O)C1
REMARK SMILES IDX 8 1 9 2 6 3 7 4 5 5 4 6 3 7 2 8 1 9 10 11 11 12 15 13 16 14
REMARK SMILES IDX 17 15 12 17 13 18 14 19
REMARK H PARENT
REMARK Flexibility Score: 70.00
ROOT
ATOM      1  C   UNL     1      -2.590  12.948   7.181  1.00  0.00     0.136 C 
ATOM      2  O   UNL     1      -2.306  13.887   7.911  1.00  0.00    -0.299 OA
ENDROOT
BRANCH   1   3
ATOM      3  C   UNL     1      -2.233  11.546   7.655  1.00  0.00     0.053 C 
ATOM      4  C   UNL     1      -2.339  10.476   6.557  1.00  0.00     0.016 C 
BRANCH   3   5
ATOM      5  C   UNL     1      -2.970  11.166   8.959  1.00  0.00     0.015 C 
BRANCH   5   6
ATOM      6  C   UNL     1      -4.504  11.122   8.829  1.00  0.00     0.028 C 
BRANCH   6   7
ATOM      7  C   UNL     1      -5.157  12.451   9.124  1.00  0.00    -0.028 C 
ATOM      8  C   UNL     1      -6.014  13.104   8.301  1.00  0.00    -0.070 CG0
ATOM      9  C   UNL     1      -6.632  14.383   8.809  1.00  0.00     0.039 C 
ATOM     10  G   UNL     1      -6.351  12.637   6.891  1.00  0.00     0.000 G0
ENDBRANCH   6   7
ENDBRANCH   5   6
ENDBRANCH   3   5
ENDBRANCH   1   3
BRANCH   1  11
ATOM     11  C   UNL     1      -3.256  13.250   5.852  1.00  0.00     0.087 C 
BRANCH  11  12
ATOM     12  C   UNL     1      -4.453  14.224   6.000  1.00  0.00     0.066 C 
BRANCH  12  13
ATOM     13  C   UNL     1      -5.776  13.500   5.798  1.00  0.00     0.140 C 
ATOM     14  O   UNL     1      -6.407  13.635   4.760  1.00  0.00    -0.299 OA
BRANCH  13  15
ATOM     15  C   UNL     1      -6.327  12.624   6.895  1.00  0.00     0.106 CG0
ATOM     16  G   UNL     1      -6.002  13.122   8.298  1.00  0.00     0.000 G0
ENDBRANCH  13  15
ENDBRANCH  12  13
BRANCH  12  17
ATOM     17  C   UNL     1      -4.288  15.505   5.122  1.00  0.00    -0.006 C 
ATOM     18  C   UNL     1      -3.654  15.258   3.740  1.00  0.00     0.008 C 
ATOM     19  C   UNL     1      -5.616  16.265   4.973  1.00  0.00     0.008 C 
ENDBRANCH  12  17
ENDBRANCH  11  12
ENDBRANCH   1  11
TORSDOF 1
ENDMDL
MODEL 2
REMARK VINA RESULT:     2.498      1.584      3.552
REMARK INTER + INTRA:           4.879
REMARK INTER:                   4.572
REMARK INTRA:                   0.307
REMARK UNBOUND:                 1.067
REMARK SMILES CC1=CCC[C@@H](C)C(=O)C[C@@H](C(C)C)C(=O)C1
REMARK SMILES IDX 8 1 9 2 6 3 7 4 5 5 4 6 3 7 2 8 1 9 10 11 11 12 15 13 16 14
REMARK SMILES IDX 17 15 12 17 13 18 14 19
REMARK H PARENT
REMARK Flexibility Score: 70.00
ROOT
ATOM      1  C   UNL     1      -6.205  13.597   6.702  1.00  0.00     0.136 C 
ATOM      2  O   UNL     1      -6.631  13.006   5.720  1.00  0.00    -0.299 OA
ENDROOT
BRANCH   1   3
ATOM      3  C   UNL     1      -6.746  13.193   8.066  1.00  0.00     0.053 C 
ATOM      4  C   UNL     1      -6.792  14.347   9.080  1.00  0.00     0.016 C 
BRANCH   3   5
ATOM      5  C   UNL     1      -6.062  11.920   8.612  1.00  0.00     0.015 C 
BRANCH   5   6
ATOM      6  C   UNL     1      -5.030  11.296   7.655  1.00  0.00     0.028 C 
BRANCH   6   7
ATOM      7  C   UNL     1      -3.663  11.150   8.279  1.00  0.00    -0.028 C 
ATOM      8  C   UNL     1      -2.734  12.134   8.372  1.00  0.00    -0.070 CG0
ATOM      9  C   UNL     1      -1.456  11.821   9.109  1.00  0.00     0.039 C 
ATOM     10  G   UNL     1      -2.899  13.512   7.743  1.00  0.00     0.000 G0
ENDBRANCH   6   7
ENDBRANCH   5   6
ENDBRANCH   3   5
ENDBRANCH   1   3
BRANCH   1  11
ATOM     11  C   UNL     1      -5.184  14.699   6.488  1.00  0.00     0.087 C 
BRANCH  11  12
ATOM     12  C   UNL     1      -4.068  14.284   5.495  1.00  0.00     0.066 C 
BRANCH  12  13
ATOM     13  C   UNL     1      -2.943  13.552   6.211  1.00  0.00     0.140 C 
ATOM     14  O   UNL     1      -2.089  12.952   5.577  1.00  0.00    -0.299 OA
BRANCH  13  15
ATOM     15  C   UNL     1      -2.891  13.548   7.718  1.00  0.00     0.106 CG0
ATOM     16  G   UNL     1      -2.748  12.156   8.323  1.00  0.00     0.000 G0
ENDBRANCH  13  15
ENDBRANCH  12  13
BRANCH  12  17
ATOM     17  C   UNL     1      -3.588  15.478   4.609  1.00  0.00    -0.006 C 
ATOM     18  C   UNL     1      -3.363  15.125   3.126  1.00  0.00     0.008 C 
ATOM     19  C   UNL     1      -4.523  16.690   4.735  1.00  0.00     0.008 C 
ENDBRANCH  12  17
ENDBRANCH  11  12
ENDBRANCH   1  11
TORSDOF 1
ENDMDL
MODEL 3
REMARK VINA RESULT:     3.875      2.019      5.080
REMARK INTER + INTRA:           6.981
REMARK INTER:                   5.047
REMARK INTRA:                   1.934
REMARK UNBOUND:                 1.067
REMARK SMILES CC1=CCC[C@@H](C)C(=O)C[C@@H](C(C)C)C(=O)C1
REMARK SMILES IDX 8 1 9 2 6 3 7 4 5 5 4 6 3 7 2 8 1 9 10 11 11 12 15 13 16 14
REMARK SMILES IDX 17 15 12 17 13 18 14 19
REMARK H PARENT
REMARK Flexibility Score: 70.00
ROOT
ATOM      1  C   UNL     1      -4.990  12.925   8.351  1.00  0.00     0.136 C 
ATOM      2  O   UNL     1      -5.563  11.899   8.012  1.00  0.00    -0.299 OA
ENDROOT
BRANCH   1   3
ATOM      3  C   UNL     1      -5.617  14.253   7.954  1.00  0.00     0.053 C 
ATOM      4  C   UNL     1      -6.773  14.689   8.869  1.00  0.00     0.016 C 
BRANCH   3   5
ATOM      5  C   UNL     1      -5.968  14.307   6.450  1.00  0.00     0.015 C 
BRANCH   5   6
ATOM      6  C   UNL     1      -5.437  15.554   5.720  1.00  0.00     0.028 C 
BRANCH   6   7
ATOM      7  C   UNL     1      -4.329  15.237   4.746  1.00  0.00    -0.028 C 
ATOM      8  C   UNL     1      -3.159  14.628   5.059  1.00  0.00    -0.070 CG0
ATOM      9  C   UNL     1      -2.208  14.317   3.930  1.00  0.00     0.039 C 
ATOM     10  G   UNL     1      -2.745  14.278   6.484  1.00  0.00     0.000 G0
ENDBRANCH   6   7
ENDBRANCH   5   6
ENDBRANCH   3   5
ENDBRANCH   1   3
BRANCH   1  11
ATOM     11  C   UNL     1      -3.691  12.797   9.124  1.00  0.00     0.087 C 
BRANCH  11  12
ATOM     12  C   UNL     1      -2.515  12.328   8.229  1.00  0.00     0.066 C 
BRANCH  12  13
ATOM     13  C   UNL     1      -2.696  12.801   6.795  1.00  0.00     0.140 C 
ATOM     14  O   UNL     1      -2.786  11.995   5.881  1.00  0.00    -0.299 OA
BRANCH  13  15
ATOM     15  C   UNL     1      -2.743  14.278   6.492  1.00  0.00     0.106 CG0
ATOM     16  G   UNL     1      -3.146  14.597   5.057  1.00  0.00     0.000 G0
ENDBRANCH  13  15
ENDBRANCH  12  13
BRANCH  12  17
ATOM     17  C   UNL     1      -2.242  10.796   8.364  1.00  0.00    -0.006 C 
ATOM     18  C   UNL     1      -0.883  10.440   8.996  1.00  0.00     0.008 C 
ATOM     19  C   UNL     1      -3.381  10.079   9.106  1.00  0.00     0.008 C 
ENDBRANCH  12  17
ENDBRANCH  11  12
ENDBRANCH   1  11
TORSDOF 1
ENDMDL
MODEL 4
REMARK VINA RESULT:     3.892      1.951      3.711
REMARK INTER + INTRA:           7.007
REMARK INTER:                   6.303
REMARK INTRA:                   0.704
REMARK UNBOUND:                 1.067
REMARK SMILES CC1=CCC[C@@H](C)C(=O)C[C@@H](C(C)C)C(=O)C1
REMARK SMILES IDX 8 1 9 2 6 3 7 4 5 5 4 6 3 7 2 8 1 9 10 11 11 12 15 13 16 14
REMARK SMILES IDX 17 15 12 17 13 18 14 19
REMARK H PARENT
REMARK Flexibility Score: 70.00
ROOT
ATOM      1  C   UNL     1      -3.325  11.018   8.793  1.00  0.00     0.136 C 
ATOM      2  O   UNL     1      -3.022   9.881   9.124  1.00  0.00    -0.299 OA
ENDROOT
BRANCH   1   3
ATOM      3  C   UNL     1      -2.240  11.894   8.184  1.00  0.00     0.053 C 
ATOM      4  C   UNL     1      -1.823  13.074   9.078  1.00  0.00     0.016 C 
BRANCH   3   5
ATOM      5  C   UNL     1      -2.569  12.307   6.732  1.00  0.00     0.015 C 
BRANCH   5   6
ATOM      6  C   UNL     1      -2.502  13.824   6.475  1.00  0.00     0.028 C 
BRANCH   6   7
ATOM      7  C   UNL     1      -3.690  14.341   5.700  1.00  0.00    -0.028 C 
ATOM      8  C   UNL     1      -4.820  14.855   6.246  1.00  0.00    -0.070 CG0
ATOM      9  C   UNL     1      -5.865  15.402   5.306  1.00  0.00     0.039 C 
ATOM     10  G   UNL     1      -5.100  14.874   7.744  1.00  0.00     0.000 G0
ENDBRANCH   6   7
ENDBRANCH   5   6
ENDBRANCH   3   5
ENDBRANCH   1   3
BRANCH   1  11
ATOM     11  C   UNL     1      -4.752  11.478   9.031  1.00  0.00     0.087 C 
BRANCH  11  12
ATOM     12  C   UNL     1      -5.315  12.293   7.839  1.00  0.00     0.066 C 
BRANCH  12  13
ATOM     13  C   UNL     1      -5.791  13.666   8.291  1.00  0.00     0.140 C 
ATOM     14  O   UNL     1      -6.729  13.774   9.066  1.00  0.00    -0.299 OA
BRANCH  13  15
ATOM     15  C   UNL     1      -5.116  14.906   7.761  1.00  0.00     0.106 CG0
ATOM     16  G   UNL     1      -4.836  14.859   6.263  1.00  0.00     0.000 G0
ENDBRANCH  13  15
ENDBRANCH  12  13
BRANCH  12  17
ATOM     17  C   UNL     1      -6.375  11.490   7.018  1.00  0.00    -0.006 C 
ATOM     18  C   UNL     1      -7.093  12.307   5.927  1.00  0.00     0.008 C 
ATOM     19  C   UNL     1      -5.777  10.208   6.420  1.00  0.00     0.008 C 
ENDBRANCH  12  17
ENDBRANCH  11  12
ENDBRANCH   1  11
TORSDOF 1
ENDMDL
MODEL 5
REMARK VINA RESULT:     3.934      1.713      3.685
REMARK INTER + INTRA:           7.071
REMARK INTER:                   5.758
REMARK INTRA:                   1.313
REMARK UNBOUND:                 1.067
REMARK SMILES CC1=CCC[C@@H](C)C(=O)C[C@@H](C(C)C)C(=O)C1
REMARK SMILES IDX 8 1 9 2 6 3 7 4 5 5 4 6 3 7 2 8 1 9 10 11 11 12 15 13 16 14
REMARK SMILES IDX 17 15 12 17 13 18 14 19
REMARK H PARENT
REMARK Flexibility Score: 70.00
ROOT
ATOM      1  C   UNL     1      -4.267  11.414   7.569  1.00  0.00     0.136 C 
ATOM      2  O   UNL     1      -5.168  10.681   7.188  1.00  0.00    -0.299 OA
ENDROOT
BRANCH   1   3
ATOM      3  C   UNL     1      -2.842  11.050   7.179  1.00  0.00     0.053 C 
ATOM      4  C   UNL     1      -1.925  10.768   8.380  1.00  0.00     0.016 C 
BRANCH   3   5
ATOM      5  C   UNL     1      -2.240  12.049   6.166  1.00  0.00     0.015 C 
BRANCH   5   6
ATOM      6  C   UNL     1      -2.499  13.529   6.505  1.00  0.00     0.028 C 
BRANCH   6   7
ATOM      7  C   UNL     1      -3.004  14.323   5.325  1.00  0.00    -0.028 C 
ATOM      8  C   UNL     1      -4.118  15.095   5.317  1.00  0.00    -0.070 CG0
ATOM      9  C   UNL     1      -4.414  15.883   4.066  1.00  0.00     0.039 C 
ATOM     10  G   UNL     1      -5.097  15.176   6.483  1.00  0.00     0.000 G0
ENDBRANCH   6   7
ENDBRANCH   5   6
ENDBRANCH   3   5
ENDBRANCH   1   3
BRANCH   1  11
ATOM     11  C   UNL     1      -4.633  12.619   8.416  1.00  0.00     0.087 C 
BRANCH  11  12
ATOM     12  C   UNL     1      -5.998  13.232   8.011  1.00  0.00     0.066 C 
BRANCH  12  13
ATOM     13  C   UNL     1      -5.919  13.887   6.640  1.00  0.00     0.140 C 
ATOM     14  O   UNL     1      -6.490  13.393   5.680  1.00  0.00    -0.299 OA
BRANCH  13  15
ATOM     15  C   UNL     1      -5.111  15.147   6.457  1.00  0.00     0.106 CG0
ATOM     16  G   UNL     1      -4.113  15.074   5.307  1.00  0.00     0.000 G0
ENDBRANCH  13  15
ENDBRANCH  12  13
BRANCH  12  17
ATOM     17  C   UNL     1      -6.588  14.155   9.124  1.00  0.00    -0.006 C 
ATOM     18  C   UNL     1      -6.045  15.596   9.116  1.00  0.00     0.008 C 
ATOM     19  C   UNL     1      -8.125  14.162   9.100  1.00  0.00     0.008 C 
ENDBRANCH  12  17
ENDBRANCH  11  12
ENDBRANCH   1  11
TORSDOF 1
ENDMDL
MODEL 6
REMARK VINA RESULT:     4.003      1.514      2.406
REMARK INTER + INTRA:           7.176
REMARK INTER:                   4.596
REMARK INTRA:                   2.580
REMARK UNBOUND:                 1.067
REMARK SMILES CC1=CCC[C@@H](C)C(=O)C[C@@H](C(C)C)C(=O)C1
REMARK SMILES IDX 8 1 9 2 6 3 7 4 5 5 4 6 3 7 2 8 1 9 10 11 11 12 15 13 16 14
REMARK SMILES IDX 17 15 12 17 13 18 14 19
REMARK H PARENT
REMARK Flexibility Score: 70.00
ROOT
ATOM      1  C   UNL     1      -2.613  12.593   8.910  1.00  0.00     0.136 C 
ATOM      2  O   UNL     1      -1.515  13.106   9.074  1.00  0.00    -0.299 OA
ENDROOT
BRANCH   1   3
ATOM      3  C   UNL     1      -2.735  11.092   9.125  1.00  0.00     0.053 C 
ATOM      4  C   UNL     1      -1.441  10.317   8.829  1.00  0.00     0.016 C 
BRANCH   3   5
ATOM      5  C   UNL     1      -3.980  10.501   8.425  1.00  0.00     0.015 C 
BRANCH   5   6
ATOM      6  C   UNL     1      -5.228  11.401   8.488  1.00  0.00     0.028 C 
BRANCH   6   7
ATOM      7  C   UNL     1      -6.027  11.388   7.207  1.00  0.00    -0.028 C 
ATOM      8  C   UNL     1      -6.374  12.484   6.488  1.00  0.00    -0.070 CG0
ATOM      9  C   UNL     1      -7.102  12.263   5.185  1.00  0.00     0.039 C 
ATOM     10  G   UNL     1      -6.102  13.913   6.943  1.00  0.00     0.000 G0
ENDBRANCH   6   7
ENDBRANCH   5   6
ENDBRANCH   3   5
ENDBRANCH   1   3
BRANCH   1  11
ATOM     11  C   UNL     1      -3.764  13.486   8.489  1.00  0.00     0.087 C 
BRANCH  11  12
ATOM     12  C   UNL     1      -3.506  14.178   7.125  1.00  0.00     0.066 C 
BRANCH  12  13
ATOM     13  C   UNL     1      -4.814  14.488   6.413  1.00  0.00     0.140 C 
ATOM     14  O   UNL     1      -4.830  15.216   5.431  1.00  0.00    -0.299 OA
BRANCH  13  15
ATOM     15  C   UNL     1      -6.107  13.911   6.933  1.00  0.00     0.106 CG0
ATOM     16  G   UNL     1      -6.364  12.479   6.481  1.00  0.00     0.000 G0
ENDBRANCH  13  15
ENDBRANCH  12  13
BRANCH  12  17
ATOM     17  C   UNL     1      -2.475  13.397   6.250  1.00  0.00    -0.006 C 
ATOM     18  C   UNL     1      -2.931  11.989   5.823  1.00  0.00     0.008 C 
ATOM     19  C   UNL     1      -2.040  14.213   5.023  1.00  0.00     0.008 C 
ENDBRANCH  12  17
ENDBRANCH  11  12
ENDBRANCH   1  11
TORSDOF 1
ENDMDL
MODEL 7
REMARK VINA RESULT:     4.290      1.945      4.865
REMARK INTER + INTRA:           7.614
REMARK INTER:                   4.094
REMARK INTRA:                   3.521
REMARK UNBOUND:                 1.067
REMARK SMILES CC1=CCC[C@@H](C)C(=O)C[C@@H](C(C)C)C(=O)C1
REMARK SMILES IDX 8 1 9 2 6 3 7 4 5 5 4 6 3 7 2 8 1 9 10 11 11 12 15 13 16 14
REMARK SMILES IDX 17 15 12 17 13 18 14 19
REMARK H PARENT
REMARK Flexibility Score: 70.00
ROOT
ATOM      1  C   UNL     1      -5.416  12.122   8.070  1.00  0.00     0.136 C 
ATOM      2  O   UNL     1      -5.508  10.923   7.852  1.00  0.00    -0.299 OA
ENDROOT
BRANCH   1   3
ATOM      3  C   UNL     1      -6.340  13.057   7.303  1.00  0.00     0.053 C 
ATOM      4  C   UNL     1      -6.806  12.494   5.951  1.00  0.00     0.016 C 
BRANCH   3   5
ATOM      5  C   UNL     1      -5.773  14.492   7.210  1.00  0.00     0.015 C 
BRANCH   5   6
ATOM      6  C   UNL     1      -5.942  15.151   5.829  1.00  0.00     0.028 C 
BRANCH   6   7
ATOM      7  C   UNL     1      -4.722  15.002   4.953  1.00  0.00    -0.028 C 
ATOM      8  C   UNL     1      -3.502  14.584   5.372  1.00  0.00    -0.070 CG0
ATOM      9  C   UNL     1      -2.425  14.416   4.330  1.00  0.00     0.039 C 
ATOM     10  G   UNL     1      -3.158  14.315   6.833  1.00  0.00     0.000 G0
ENDBRANCH   6   7
ENDBRANCH   5   6
ENDBRANCH   3   5
ENDBRANCH   1   3
BRANCH   1  11
ATOM     11  C   UNL     1      -4.377  12.590   9.072  1.00  0.00     0.087 C 
BRANCH  11  12
ATOM     12  C   UNL     1      -2.928  12.375   8.563  1.00  0.00     0.066 C 
BRANCH  12  13
ATOM     13  C   UNL     1      -2.758  12.911   7.150  1.00  0.00     0.140 C 
ATOM     14  O   UNL     1      -2.287  12.206   6.270  1.00  0.00    -0.299 OA
BRANCH  13  15
ATOM     15  C   UNL     1      -3.154  14.331   6.834  1.00  0.00     0.106 CG0
ATOM     16  G   UNL     1      -3.479  14.565   5.363  1.00  0.00     0.000 G0
ENDBRANCH  13  15
ENDBRANCH  12  13
BRANCH  12  17
ATOM     17  C   UNL     1      -2.448  10.899   8.746  1.00  0.00    -0.006 C 
ATOM     18  C   UNL     1      -2.739   9.977   7.546  1.00  0.00     0.008 C 
ATOM     19  C   UNL     1      -0.960  10.830   9.125  1.00  0.00     0.008 C 
ENDBRANCH  12  17
ENDBRANCH  11  12
ENDBRANCH   1  11
TORSDOF 1
ENDMDL
MODEL 8
REMARK VINA RESULT:     4.686      1.663      4.488
REMARK INTER + INTRA:           8.218
REMARK INTER:                   3.615
REMARK INTRA:                   4.603
REMARK UNBOUND:                 1.067
REMARK SMILES CC1=CCC[C@@H](C)C(=O)C[C@@H](C(C)C)C(=O)C1
REMARK SMILES IDX 8 1 9 2 6 3 7 4 5 5 4 6 3 7 2 8 1 9 10 11 11 12 15 13 16 14
REMARK SMILES IDX 17 15 12 17 13 18 14 19
REMARK H PARENT
REMARK Flexibility Score: 70.00
ROOT
ATOM      1  C   UNL     1      -4.903  14.194   6.456  1.00  0.00     0.136 C 
ATOM      2  O   UNL     1      -5.717  13.565   5.795  1.00  0.00    -0.299 OA
ENDROOT
BRANCH   1   3
ATOM      3  C   UNL     1      -3.595  14.588   5.784  1.00  0.00     0.053 C 
ATOM      4  C   UNL     1      -3.782  15.276   4.422  1.00  0.00     0.016 C 
BRANCH   3   5
ATOM      5  C   UNL     1      -2.581  13.423   5.752  1.00  0.00     0.015 C 
BRANCH   5   6
ATOM      6  C   UNL     1      -3.177  12.054   6.127  1.00  0.00     0.028 C 
BRANCH   6   7
ATOM      7  C   UNL     1      -2.221  11.194   6.918  1.00  0.00    -0.028 C 
ATOM      8  C   UNL     1      -2.394  10.810   8.207  1.00  0.00    -0.070 CG0
ATOM      9  C   UNL     1      -1.370   9.876   8.802  1.00  0.00     0.039 C 
ATOM     10  G   UNL     1      -3.538  11.299   9.087  1.00  0.00     0.000 G0
ENDBRANCH   6   7
ENDBRANCH   5   6
ENDBRANCH   3   5
ENDBRANCH   1   3
BRANCH   1  11
ATOM     11  C   UNL     1      -5.247  14.517   7.897  1.00  0.00     0.087 C 
BRANCH  11  12
ATOM     12  C   UNL     1      -5.224  13.261   8.806  1.00  0.00     0.066 C 
BRANCH  12  13
ATOM     13  C   UNL     1      -3.801  12.763   9.013  1.00  0.00     0.140 C 
ATOM     14  O   UNL     1      -2.871  13.551   9.088  1.00  0.00    -0.299 OA
BRANCH  13  15
ATOM     15  C   UNL     1      -3.532  11.282   9.107  1.00  0.00     0.106 CG0
ATOM     16  G   UNL     1      -2.394  10.808   8.210  1.00  0.00     0.000 G0
ENDBRANCH  13  15
ENDBRANCH  12  13
BRANCH  12  17
ATOM     17  C   UNL     1      -6.220  12.159   8.321  1.00  0.00    -0.006 C 
ATOM     18  C   UNL     1      -7.695  12.599   8.287  1.00  0.00     0.008 C 
ATOM     19  C   UNL     1      -5.803  11.577   6.962  1.00  0.00     0.008 C 
ENDBRANCH  12  17
ENDBRANCH  11  12
ENDBRANCH   1  11
TORSDOF 1
ENDMDL
