MODEL 1
REMARK VINA RESULT:    -4.940      0.000      0.000
REMARK INTER + INTRA:          -4.940
REMARK INTER:                  -4.940
REMARK INTRA:                   0.000
REMARK UNBOUND:                 0.000
REMARK SMILES O=c1ccc2ccccc2o1
REMARK SMILES IDX 7 1 8 2 9 3 10 4 5 5 6 6 4 7 3 8 2 9 1 10 11 11
REMARK H PARENT
REMARK Flexibility Score: inf
ROOT
ATOM      1  C   UNL     1      18.259   6.349 -10.456  1.00  0.00     0.001 A 
ATOM      2  C   UNL     1      19.285   7.062  -9.825  1.00  0.00     0.004 A 
ATOM      3  C   UNL     1      20.600   6.961 -10.289  1.00  0.00     0.048 A 
ATOM      4  C   UNL     1      20.895   6.145 -11.387  1.00  0.00     0.138 A 
ATOM      5  C   UNL     1      19.860   5.426 -12.024  1.00  0.00     0.018 A 
ATOM      6  C   UNL     1      18.542   5.532 -11.554  1.00  0.00     0.012 A 
ATOM      7  C   UNL     1      20.185   4.620 -13.120  1.00  0.00     0.019 A 
ATOM      8  C   UNL     1      21.510   4.549 -13.548  1.00  0.00     0.094 A 
ATOM      9  C   UNL     1      22.483   5.290 -12.868  1.00  0.00     0.336 A 
ATOM     10  O   UNL     1      23.684   5.238 -13.241  1.00  0.00    -0.246 OA
ATOM     11  O   UNL     1      22.148   6.050 -11.829  1.00  0.00    -0.423 OA
ENDROOT
TORSDOF 0
ENDMDL
MODEL 2
REMARK VINA RESULT:    -4.825      2.052      4.318
REMARK INTER + INTRA:          -4.825
REMARK INTER:                  -4.825
REMARK INTRA:                   0.000
REMARK UNBOUND:                 0.000
REMARK SMILES O=c1ccc2ccccc2o1
REMARK SMILES IDX 7 1 8 2 9 3 10 4 5 5 6 6 4 7 3 8 2 9 1 10 11 11
REMARK H PARENT
REMARK Flexibility Score: inf
ROOT
ATOM      1  C   UNL     1      22.749   6.089 -12.624  1.00  0.00     0.001 A 
ATOM      2  C   UNL     1      22.170   5.009 -13.300  1.00  0.00     0.004 A 
ATOM      3  C   UNL     1      20.849   4.638 -13.031  1.00  0.00     0.048 A 
ATOM      4  C   UNL     1      20.101   5.345 -12.084  1.00  0.00     0.138 A 
ATOM      5  C   UNL     1      20.685   6.436 -11.402  1.00  0.00     0.018 A 
ATOM      6  C   UNL     1      22.011   6.804 -11.677  1.00  0.00     0.012 A 
ATOM      7  C   UNL     1      19.912   7.125 -10.462  1.00  0.00     0.019 A 
ATOM      8  C   UNL     1      18.599   6.719 -10.226  1.00  0.00     0.094 A 
ATOM      9  C   UNL     1      18.088   5.630 -10.940  1.00  0.00     0.336 A 
ATOM     10  O   UNL     1      16.904   5.249 -10.740  1.00  0.00    -0.246 OA
ATOM     11  O   UNL     1      18.843   4.991 -11.829  1.00  0.00    -0.423 OA
ENDROOT
TORSDOF 0
ENDMDL
MODEL 3
REMARK VINA RESULT:    -4.505      2.903      4.294
REMARK INTER + INTRA:          -4.505
REMARK INTER:                  -4.505
REMARK INTRA:                   0.000
REMARK UNBOUND:                 0.000
REMARK SMILES O=c1ccc2ccccc2o1
REMARK SMILES IDX 7 1 8 2 9 3 10 4 5 5 6 6 4 7 3 8 2 9 1 10 11 11
REMARK H PARENT
REMARK Flexibility Score: inf
ROOT
ATOM      1  C   UNL     1      21.058   6.014 -12.557  1.00  0.00     0.001 A 
ATOM      2  C   UNL     1      20.603   7.122 -11.834  1.00  0.00     0.004 A 
ATOM      3  C   UNL     1      19.388   7.061 -11.144  1.00  0.00     0.048 A 
ATOM      4  C   UNL     1      18.623   5.889 -11.174  1.00  0.00     0.138 A 
ATOM      5  C   UNL     1      19.083   4.770 -11.903  1.00  0.00     0.018 A 
ATOM      6  C   UNL     1      20.302   4.838 -12.594  1.00  0.00     0.012 A 
ATOM      7  C   UNL     1      18.297   3.613 -11.914  1.00  0.00     0.019 A 
ATOM      8  C   UNL     1      17.093   3.597 -11.211  1.00  0.00     0.094 A 
ATOM      9  C   UNL     1      16.702   4.744 -10.511  1.00  0.00     0.336 A 
ATOM     10  O   UNL     1      15.617   4.748  -9.871  1.00  0.00    -0.246 OA
ATOM     11  O   UNL     1      17.467   5.832 -10.516  1.00  0.00    -0.423 OA
ENDROOT
TORSDOF 0
ENDMDL
MODEL 4
REMARK VINA RESULT:    -4.443      1.119      2.256
REMARK INTER + INTRA:          -4.443
REMARK INTER:                  -4.443
REMARK INTRA:                   0.000
REMARK UNBOUND:                 0.000
REMARK SMILES O=c1ccc2ccccc2o1
REMARK SMILES IDX 7 1 8 2 9 3 10 4 5 5 6 6 4 7 3 8 2 9 1 10 11 11
REMARK H PARENT
REMARK Flexibility Score: inf
ROOT
ATOM      1  C   UNL     1      17.622   5.483 -10.709  1.00  0.00     0.001 A 
ATOM      2  C   UNL     1      17.796   4.344 -11.503  1.00  0.00     0.004 A 
ATOM      3  C   UNL     1      19.003   4.134 -12.177  1.00  0.00     0.048 A 
ATOM      4  C   UNL     1      20.042   5.064 -12.060  1.00  0.00     0.138 A 
ATOM      5  C   UNL     1      19.867   6.213 -11.258  1.00  0.00     0.018 A 
ATOM      6  C   UNL     1      18.654   6.418 -10.584  1.00  0.00     0.012 A 
ATOM      7  C   UNL     1      20.923   7.125 -11.160  1.00  0.00     0.019 A 
ATOM      8  C   UNL     1      22.109   6.875 -11.850  1.00  0.00     0.094 A 
ATOM      9  C   UNL     1      22.210   5.714 -12.625  1.00  0.00     0.336 A 
ATOM     10  O   UNL     1      23.273   5.472 -13.255  1.00  0.00    -0.246 OA
ATOM     11  O   UNL     1      21.191   4.863 -12.702  1.00  0.00    -0.423 OA
ENDROOT
TORSDOF 0
ENDMDL
MODEL 5
REMARK VINA RESULT:    -3.957     24.473     25.768
REMARK INTER + INTRA:          -3.957
REMARK INTER:                  -3.957
REMARK INTRA:                   0.000
REMARK UNBOUND:                 0.000
REMARK SMILES O=c1ccc2ccccc2o1
REMARK SMILES IDX 7 1 8 2 9 3 10 4 5 5 6 6 4 7 3 8 2 9 1 10 11 11
REMARK H PARENT
REMARK Flexibility Score: inf
ROOT
ATOM      1  C   UNL     1      31.274 -12.924 -26.336  1.00  0.00     0.001 A 
ATOM      2  C   UNL     1      31.408 -13.125 -27.715  1.00  0.00     0.004 A 
ATOM      3  C   UNL     1      30.284 -13.071 -28.546  1.00  0.00     0.048 A 
ATOM      4  C   UNL     1      29.021 -12.815 -28.001  1.00  0.00     0.138 A 
ATOM      5  C   UNL     1      28.886 -12.612 -26.610  1.00  0.00     0.018 A 
ATOM      6  C   UNL     1      30.017 -12.667 -25.781  1.00  0.00     0.012 A 
ATOM      7  C   UNL     1      27.611 -12.357 -26.093  1.00  0.00     0.019 A 
ATOM      8  C   UNL     1      26.519 -12.312 -26.960  1.00  0.00     0.094 A 
ATOM      9  C   UNL     1      26.729 -12.523 -28.327  1.00  0.00     0.336 A 
ATOM     10  O   UNL     1      25.755 -12.486 -29.124  1.00  0.00    -0.246 OA
ATOM     11  O   UNL     1      27.952 -12.763 -28.793  1.00  0.00    -0.423 OA
ENDROOT
TORSDOF 0
ENDMDL
MODEL 6
REMARK VINA RESULT:    -3.617     11.508     13.973
REMARK INTER + INTRA:          -3.617
REMARK INTER:                  -3.617
REMARK INTRA:                   0.000
REMARK UNBOUND:                 0.000
REMARK SMILES O=c1ccc2ccccc2o1
REMARK SMILES IDX 7 1 8 2 9 3 10 4 5 5 6 6 4 7 3 8 2 9 1 10 11 11
REMARK H PARENT
REMARK Flexibility Score: inf
ROOT
ATOM      1  C   UNL     1      26.253  -5.998 -21.574  1.00  0.00     0.001 A 
ATOM      2  C   UNL     1      25.776  -6.700 -20.461  1.00  0.00     0.004 A 
ATOM      3  C   UNL     1      25.278  -6.008 -19.353  1.00  0.00     0.048 A 
ATOM      4  C   UNL     1      25.253  -4.609 -19.354  1.00  0.00     0.138 A 
ATOM      5  C   UNL     1      25.733  -3.900 -20.477  1.00  0.00     0.018 A 
ATOM      6  C   UNL     1      26.233  -4.600 -21.586  1.00  0.00     0.012 A 
ATOM      7  C   UNL     1      25.696  -2.502 -20.449  1.00  0.00     0.019 A 
ATOM      8  C   UNL     1      25.190  -1.854 -19.323  1.00  0.00     0.094 A 
ATOM      9  C   UNL     1      24.731  -2.622 -18.247  1.00  0.00     0.336 A 
ATOM     10  O   UNL     1      24.271  -2.054 -17.222  1.00  0.00    -0.246 OA
ATOM     11  O   UNL     1      24.778  -3.950 -18.299  1.00  0.00    -0.423 OA
ENDROOT
TORSDOF 0
ENDMDL
MODEL 7
REMARK VINA RESULT:    -3.605     10.128     12.087
REMARK INTER + INTRA:          -3.605
REMARK INTER:                  -3.605
REMARK INTRA:                   0.000
REMARK UNBOUND:                 0.000
REMARK SMILES O=c1ccc2ccccc2o1
REMARK SMILES IDX 7 1 8 2 9 3 10 4 5 5 6 6 4 7 3 8 2 9 1 10 11 11
REMARK H PARENT
REMARK Flexibility Score: inf
ROOT
ATOM      1  C   UNL     1      24.024  -0.686 -17.400  1.00  0.00     0.001 A 
ATOM      2  C   UNL     1      24.266  -1.654 -16.418  1.00  0.00     0.004 A 
ATOM      3  C   UNL     1      24.678  -2.939 -16.784  1.00  0.00     0.048 A 
ATOM      4  C   UNL     1      24.849  -3.263 -18.134  1.00  0.00     0.138 A 
ATOM      5  C   UNL     1      24.605  -2.287 -19.125  1.00  0.00     0.018 A 
ATOM      6  C   UNL     1      24.192  -0.998 -18.752  1.00  0.00     0.012 A 
ATOM      7  C   UNL     1      24.785  -2.639 -20.467  1.00  0.00     0.019 A 
ATOM      8  C   UNL     1      25.196  -3.932 -20.785  1.00  0.00     0.094 A 
ATOM      9  C   UNL     1      25.419  -4.847 -19.750  1.00  0.00     0.336 A 
ATOM     10  O   UNL     1      25.791  -6.020 -20.019  1.00  0.00    -0.246 OA
ATOM     11  O   UNL     1      25.241  -4.487 -18.482  1.00  0.00    -0.423 OA
ENDROOT
TORSDOF 0
ENDMDL
MODEL 8
REMARK VINA RESULT:    -3.580     24.361     25.528
REMARK INTER + INTRA:          -3.580
REMARK INTER:                  -3.580
REMARK INTRA:                   0.000
REMARK UNBOUND:                 0.000
REMARK SMILES O=c1ccc2ccccc2o1
REMARK SMILES IDX 7 1 8 2 9 3 10 4 5 5 6 6 4 7 3 8 2 9 1 10 11 11
REMARK H PARENT
REMARK Flexibility Score: inf
ROOT
ATOM      1  C   UNL     1      26.910 -12.688 -28.891  1.00  0.00     0.001 A 
ATOM      2  C   UNL     1      26.400 -12.418 -27.616  1.00  0.00     0.004 A 
ATOM      3  C   UNL     1      27.254 -12.384 -26.509  1.00  0.00     0.048 A 
ATOM      4  C   UNL     1      28.623 -12.621 -26.673  1.00  0.00     0.138 A 
ATOM      5  C   UNL     1      29.139 -12.893 -27.960  1.00  0.00     0.018 A 
ATOM      6  C   UNL     1      28.277 -12.925 -29.066  1.00  0.00     0.012 A 
ATOM      7  C   UNL     1      30.511 -13.125 -28.093  1.00  0.00     0.019 A 
ATOM      8  C   UNL     1      31.325 -13.081 -26.962  1.00  0.00     0.094 A 
ATOM      9  C   UNL     1      30.745 -12.805 -25.719  1.00  0.00     0.336 A 
ATOM     10  O   UNL     1      31.464 -12.762 -24.686  1.00  0.00    -0.246 OA
ATOM     11  O   UNL     1      29.436 -12.588 -25.619  1.00  0.00    -0.423 OA
ENDROOT
TORSDOF 0
ENDMDL
MODEL 9
REMARK VINA RESULT:    -3.496     11.566     14.048
REMARK INTER + INTRA:          -3.496
REMARK INTER:                  -3.496
REMARK INTRA:                   0.000
REMARK UNBOUND:                 0.000
REMARK SMILES O=c1ccc2ccccc2o1
REMARK SMILES IDX 7 1 8 2 9 3 10 4 5 5 6 6 4 7 3 8 2 9 1 10 11 11
REMARK H PARENT
REMARK Flexibility Score: inf
ROOT
ATOM      1  C   UNL     1      26.366  -6.298 -21.241  1.00  0.00     0.001 A 
ATOM      2  C   UNL     1      26.715  -5.194 -22.028  1.00  0.00     0.004 A 
ATOM      3  C   UNL     1      26.332  -3.906 -21.642  1.00  0.00     0.048 A 
ATOM      4  C   UNL     1      25.599  -3.715 -20.465  1.00  0.00     0.138 A 
ATOM      5  C   UNL     1      25.247  -4.829 -19.671  1.00  0.00     0.018 A 
ATOM      6  C   UNL     1      25.634  -6.119 -20.064  1.00  0.00     0.012 A 
ATOM      7  C   UNL     1      24.514  -4.608 -18.500  1.00  0.00     0.019 A 
ATOM      8  C   UNL     1      24.154  -3.306 -18.154  1.00  0.00     0.094 A 
ATOM      9  C   UNL     1      24.538  -2.251 -18.990  1.00  0.00     0.336 A 
ATOM     10  O   UNL     1      24.222  -1.069 -18.694  1.00  0.00    -0.246 OA
ATOM     11  O   UNL     1      25.235  -2.488 -20.098  1.00  0.00    -0.423 OA
ENDROOT
TORSDOF 0
ENDMDL
