MODEL 1
REMARK VINA RESULT:    -5.310      0.000      0.000
REMARK INTER + INTRA:          -6.543
REMARK INTER:                  -6.241
REMARK INTRA:                  -0.302
REMARK UNBOUND:                -0.302
REMARK SMILES O=c1c(O)c(-c2ccc(O)c(O)c2)oc2cc(O)ccc12
REMARK SMILES IDX 5 1 3 2 2 3 1 4 21 5 15 6 14 7 16 8 17 9 19 10 20 11 6 12
REMARK SMILES IDX 7 13 8 14 9 15 13 16 11 17 10 18 12 20 4 22 18 24
REMARK H PARENT 10 19 12 21 4 23 18 25
REMARK Flexibility Score: inf
ROOT
ATOM      1  C   UNL     1       5.835  -4.921  25.917  1.00  0.00     0.180 A 
ATOM      2  C   UNL     1       5.627  -3.617  26.414  1.00  0.00     0.208 A 
ATOM      3  C   UNL     1       4.361  -3.030  26.265  1.00  0.00     0.235 A 
ATOM      4  O   UNL     1       4.153  -1.861  26.692  1.00  0.00    -0.285 OA
ATOM      5  C   UNL     1       3.332  -3.758  25.646  1.00  0.00     0.069 A 
ATOM      6  C   UNL     1       3.613  -5.065  25.197  1.00  0.00     0.142 A 
ATOM      7  O   UNL     1       4.828  -5.581  25.349  1.00  0.00    -0.452 OA
ATOM      8  C   UNL     1       2.611  -5.825  24.584  1.00  0.00     0.094 A 
ATOM      9  C   UNL     1       1.328  -5.295  24.412  1.00  0.00     0.119 A 
ATOM     10  C   UNL     1       1.046  -3.996  24.856  1.00  0.00     0.047 A 
ATOM     11  C   UNL     1       2.040  -3.229  25.470  1.00  0.00     0.020 A 
ENDROOT
BRANCH   1  12
ATOM     12  C   UNL     1       7.145  -5.601  26.019  1.00  0.00     0.025 A 
ATOM     13  C   UNL     1       7.481  -6.280  27.200  1.00  0.00     0.016 A 
ATOM     14  C   UNL     1       8.703  -6.947  27.312  1.00  0.00     0.051 A 
ATOM     15  C   UNL     1       9.604  -6.956  26.238  1.00  0.00     0.157 A 
ATOM     16  C   UNL     1       8.042  -5.629  24.936  1.00  0.00     0.062 A 
ATOM     17  C   UNL     1       9.268  -6.298  25.043  1.00  0.00     0.158 A 
BRANCH  15  18
ATOM     18  O   UNL     1      10.824  -7.620  26.352  1.00  0.00    -0.504 OA
ATOM     19  H   UNL     1      11.010  -8.262  27.113  1.00  0.00     0.293 HD
ENDBRANCH  15  18
BRANCH  17  20
ATOM     20  O   UNL     1      10.135  -6.302  23.950  1.00  0.00    -0.504 OA
ATOM     21  H   UNL     1      10.358  -7.149  23.443  1.00  0.00     0.293 HD
ENDBRANCH  17  20
ENDBRANCH   1  12
BRANCH   2  22
ATOM     22  O   UNL     1       6.656  -2.937  27.069  1.00  0.00    -0.502 OA
ATOM     23  H   UNL     1       7.253  -3.387  27.753  1.00  0.00     0.293 HD
ENDBRANCH   2  22
BRANCH   9  24
ATOM     24  O   UNL     1       0.342  -6.066  23.800  1.00  0.00    -0.508 OA
ATOM     25  H   UNL     1      -0.377  -6.533  24.340  1.00  0.00     0.293 HD
ENDBRANCH   9  24
TORSDOF 5
ENDMDL
MODEL 2
REMARK VINA RESULT:    -5.286      2.466      7.080
REMARK INTER + INTRA:          -6.514
REMARK INTER:                  -6.275
REMARK INTRA:                  -0.240
REMARK UNBOUND:                -0.302
REMARK SMILES O=c1c(O)c(-c2ccc(O)c(O)c2)oc2cc(O)ccc12
REMARK SMILES IDX 5 1 3 2 2 3 1 4 21 5 15 6 14 7 16 8 17 9 19 10 20 11 6 12
REMARK SMILES IDX 7 13 8 14 9 15 13 16 11 17 10 18 12 20 4 22 18 24
REMARK H PARENT 10 19 12 21 4 23 18 25
REMARK Flexibility Score: inf
ROOT
ATOM      1  C   UNL     1       5.055  -3.303  26.823  1.00  0.00     0.180 A 
ATOM      2  C   UNL     1       5.194  -3.475  25.429  1.00  0.00     0.208 A 
ATOM      3  C   UNL     1       6.236  -4.281  24.947  1.00  0.00     0.235 A 
ATOM      4  O   UNL     1       6.387  -4.442  23.705  1.00  0.00    -0.285 OA
ATOM      5  C   UNL     1       7.099  -4.911  25.859  1.00  0.00     0.069 A 
ATOM      6  C   UNL     1       6.879  -4.708  27.237  1.00  0.00     0.142 A 
ATOM      7  O   UNL     1       5.887  -3.929  27.653  1.00  0.00    -0.452 OA
ATOM      8  C   UNL     1       7.713  -5.326  28.177  1.00  0.00     0.094 A 
ATOM      9  C   UNL     1       8.765  -6.145  27.756  1.00  0.00     0.119 A 
ATOM     10  C   UNL     1       8.987  -6.347  26.387  1.00  0.00     0.047 A 
ATOM     11  C   UNL     1       8.160  -5.735  25.441  1.00  0.00     0.020 A 
ENDROOT
BRANCH   1  12
ATOM     12  C   UNL     1       3.994  -2.454  27.408  1.00  0.00     0.025 A 
ATOM     13  C   UNL     1       2.671  -2.923  27.436  1.00  0.00     0.016 A 
ATOM     14  C   UNL     1       1.656  -2.148  28.002  1.00  0.00     0.051 A 
ATOM     15  C   UNL     1       1.951  -0.898  28.562  1.00  0.00     0.157 A 
ATOM     16  C   UNL     1       4.289  -1.208  27.990  1.00  0.00     0.062 A 
ATOM     17  C   UNL     1       3.275  -0.429  28.561  1.00  0.00     0.158 A 
BRANCH  15  18
ATOM     18  O   UNL     1       0.936  -0.125  29.125  1.00  0.00    -0.504 OA
ATOM     19  H   UNL     1       0.346  -0.482  29.867  1.00  0.00     0.293 HD
ENDBRANCH  15  18
BRANCH  17  20
ATOM     20  O   UNL     1       3.604   0.804  29.124  1.00  0.00    -0.504 OA
ATOM     21  H   UNL     1       4.487   0.963  29.592  1.00  0.00     0.293 HD
ENDBRANCH  17  20
ENDBRANCH   1  12
BRANCH   2  22
ATOM     22  O   UNL     1       4.290  -2.875  24.549  1.00  0.00    -0.502 OA
ATOM     23  H   UNL     1       3.566  -2.242  24.866  1.00  0.00     0.293 HD
ENDBRANCH   2  22
BRANCH   9  24
ATOM     24  O   UNL     1       9.585  -6.752  28.705  1.00  0.00    -0.508 OA
ATOM     25  H   UNL     1      10.581  -6.861  28.552  1.00  0.00     0.293 HD
ENDBRANCH   9  24
TORSDOF 5
ENDMDL
MODEL 3
REMARK VINA RESULT:    -5.109      2.651      4.813
REMARK INTER + INTRA:          -6.307
REMARK INTER:                  -6.121
REMARK INTRA:                  -0.185
REMARK UNBOUND:                -0.302
REMARK SMILES O=c1c(O)c(-c2ccc(O)c(O)c2)oc2cc(O)ccc12
REMARK SMILES IDX 5 1 3 2 2 3 1 4 21 5 15 6 14 7 16 8 17 9 19 10 20 11 6 12
REMARK SMILES IDX 7 13 8 14 9 15 13 16 11 17 10 18 12 20 4 22 18 24
REMARK H PARENT 10 19 12 21 4 23 18 25
REMARK Flexibility Score: inf
ROOT
ATOM      1  C   UNL     1       8.948  -6.943  24.836  1.00  0.00     0.180 A 
ATOM      2  C   UNL     1       9.130  -7.022  26.233  1.00  0.00     0.208 A 
ATOM      3  C   UNL     1       8.363  -6.191  27.063  1.00  0.00     0.235 A 
ATOM      4  O   UNL     1       8.515  -6.236  28.314  1.00  0.00    -0.285 OA
ATOM      5  C   UNL     1       7.423  -5.321  26.488  1.00  0.00     0.069 A 
ATOM      6  C   UNL     1       7.283  -5.319  25.085  1.00  0.00     0.142 A 
ATOM      7  O   UNL     1       8.036  -6.114  24.333  1.00  0.00    -0.452 OA
ATOM      8  C   UNL     1       6.350  -4.471  24.476  1.00  0.00     0.094 A 
ATOM      9  C   UNL     1       5.553  -3.625  25.252  1.00  0.00     0.119 A 
ATOM     10  C   UNL     1       5.690  -3.623  26.647  1.00  0.00     0.047 A 
ATOM     11  C   UNL     1       6.619  -4.466  27.265  1.00  0.00     0.020 A 
ENDROOT
BRANCH   1  12
ATOM     12  C   UNL     1       9.732  -7.772  23.893  1.00  0.00     0.025 A 
ATOM     13  C   UNL     1       9.070  -8.693  23.067  1.00  0.00     0.016 A 
ATOM     14  C   UNL     1       9.786  -9.472  22.155  1.00  0.00     0.051 A 
ATOM     15  C   UNL     1      11.176  -9.329  22.044  1.00  0.00     0.157 A 
ATOM     16  C   UNL     1      11.124  -7.617  23.764  1.00  0.00     0.062 A 
ATOM     17  C   UNL     1      11.846  -8.394  22.849  1.00  0.00     0.158 A 
BRANCH  15  18
ATOM     18  O   UNL     1      11.890 -10.108  21.135  1.00  0.00    -0.504 OA
ATOM     19  H   UNL     1      11.749 -10.020  20.135  1.00  0.00     0.293 HD
ENDBRANCH  15  18
BRANCH  17  20
ATOM     20  O   UNL     1      13.227  -8.217  22.752  1.00  0.00    -0.504 OA
ATOM     21  H   UNL     1      13.871  -8.652  23.401  1.00  0.00     0.293 HD
ENDBRANCH  17  20
ENDBRANCH   1  12
BRANCH   2  22
ATOM     22  O   UNL     1      10.039  -7.933  26.777  1.00  0.00    -0.502 OA
ATOM     23  H   UNL     1       9.740  -8.782  27.242  1.00  0.00     0.293 HD
ENDBRANCH   2  22
BRANCH   9  24
ATOM     24  O   UNL     1       4.630  -2.788  24.629  1.00  0.00    -0.508 OA
ATOM     25  H   UNL     1       4.154  -3.065  23.778  1.00  0.00     0.293 HD
ENDBRANCH   9  24
TORSDOF 5
ENDMDL
MODEL 4
REMARK VINA RESULT:    -5.103      2.443      6.786
REMARK INTER + INTRA:          -6.300
REMARK INTER:                  -6.001
REMARK INTRA:                  -0.299
REMARK UNBOUND:                -0.302
REMARK SMILES O=c1c(O)c(-c2ccc(O)c(O)c2)oc2cc(O)ccc12
REMARK SMILES IDX 5 1 3 2 2 3 1 4 21 5 15 6 14 7 16 8 17 9 19 10 20 11 6 12
REMARK SMILES IDX 7 13 8 14 9 15 13 16 11 17 10 18 12 20 4 22 18 24
REMARK H PARENT 10 19 12 21 4 23 18 25
REMARK Flexibility Score: inf
ROOT
ATOM      1  C   UNL     1       6.391  -5.606  25.167  1.00  0.00     0.180 A 
ATOM      2  C   UNL     1       5.586  -6.679  24.729  1.00  0.00     0.208 A 
ATOM      3  C   UNL     1       6.207  -7.811  24.182  1.00  0.00     0.235 A 
ATOM      4  O   UNL     1       5.509  -8.779  23.774  1.00  0.00    -0.285 OA
ATOM      5  C   UNL     1       7.609  -7.858  24.102  1.00  0.00     0.069 A 
ATOM      6  C   UNL     1       8.343  -6.754  24.584  1.00  0.00     0.142 A 
ATOM      7  O   UNL     1       7.716  -5.696  25.086  1.00  0.00    -0.452 OA
ATOM      8  C   UNL     1       9.742  -6.767  24.530  1.00  0.00     0.094 A 
ATOM      9  C   UNL     1      10.418  -7.871  24.000  1.00  0.00     0.119 A 
ATOM     10  C   UNL     1       9.691  -8.968  23.519  1.00  0.00     0.047 A 
ATOM     11  C   UNL     1       8.293  -8.965  23.569  1.00  0.00     0.020 A 
ENDROOT
BRANCH   1  12
ATOM     12  C   UNL     1       5.810  -4.370  25.738  1.00  0.00     0.025 A 
ATOM     13  C   UNL     1       5.318  -3.376  24.877  1.00  0.00     0.016 A 
ATOM     14  C   UNL     1       4.746  -2.211  25.392  1.00  0.00     0.051 A 
ATOM     15  C   UNL     1       4.644  -2.027  26.778  1.00  0.00     0.157 A 
ATOM     16  C   UNL     1       5.687  -4.191  27.127  1.00  0.00     0.062 A 
ATOM     17  C   UNL     1       5.112  -3.025  27.648  1.00  0.00     0.158 A 
BRANCH  15  18
ATOM     18  O   UNL     1       4.075  -0.862  27.290  1.00  0.00    -0.504 OA
ATOM     19  H   UNL     1       3.111  -0.614  27.101  1.00  0.00     0.293 HD
ENDBRANCH  15  18
BRANCH  17  20
ATOM     20  O   UNL     1       5.012  -2.879  29.032  1.00  0.00    -0.504 OA
ATOM     21  H   UNL     1       4.401  -2.192  29.458  1.00  0.00     0.293 HD
ENDBRANCH  17  20
ENDBRANCH   1  12
BRANCH   2  22
ATOM     22  O   UNL     1       4.197  -6.623  24.867  1.00  0.00    -0.502 OA
ATOM     23  H   UNL     1       3.569  -6.807  24.094  1.00  0.00     0.293 HD
ENDBRANCH   2  22
BRANCH   9  24
ATOM     24  O   UNL     1      11.810  -7.867  23.954  1.00  0.00    -0.508 OA
ATOM     25  H   UNL     1      12.346  -8.719  24.077  1.00  0.00     0.293 HD
ENDBRANCH   9  24
TORSDOF 5
ENDMDL
MODEL 5
REMARK VINA RESULT:    -5.036      1.483      3.179
REMARK INTER + INTRA:          -6.221
REMARK INTER:                  -5.965
REMARK INTRA:                  -0.256
REMARK UNBOUND:                -0.302
REMARK SMILES O=c1c(O)c(-c2ccc(O)c(O)c2)oc2cc(O)ccc12
REMARK SMILES IDX 5 1 3 2 2 3 1 4 21 5 15 6 14 7 16 8 17 9 19 10 20 11 6 12
REMARK SMILES IDX 7 13 8 14 9 15 13 16 11 17 10 18 12 20 4 22 18 24
REMARK H PARENT 10 19 12 21 4 23 18 25
REMARK Flexibility Score: inf
ROOT
ATOM      1  C   UNL     1       6.616  -5.691  25.713  1.00  0.00     0.180 A 
ATOM      2  C   UNL     1       5.504  -6.255  25.051  1.00  0.00     0.208 A 
ATOM      3  C   UNL     1       4.284  -5.563  25.068  1.00  0.00     0.235 A 
ATOM      4  O   UNL     1       3.274  -6.051  24.492  1.00  0.00    -0.285 OA
ATOM      5  C   UNL     1       4.204  -4.323  25.722  1.00  0.00     0.069 A 
ATOM      6  C   UNL     1       5.366  -3.815  26.339  1.00  0.00     0.142 A 
ATOM      7  O   UNL     1       6.500  -4.507  26.309  1.00  0.00    -0.452 OA
ATOM      8  C   UNL     1       5.328  -2.579  26.993  1.00  0.00     0.094 A 
ATOM      9  C   UNL     1       4.141  -1.840  27.038  1.00  0.00     0.119 A 
ATOM     10  C   UNL     1       2.984  -2.342  26.427  1.00  0.00     0.047 A 
ATOM     11  C   UNL     1       3.012  -3.577  25.771  1.00  0.00     0.020 A 
ENDROOT
BRANCH   1  12
ATOM     12  C   UNL     1       7.931  -6.369  25.757  1.00  0.00     0.025 A 
ATOM     13  C   UNL     1       8.324  -7.039  26.925  1.00  0.00     0.016 A 
ATOM     14  C   UNL     1       9.551  -7.703  26.983  1.00  0.00     0.051 A 
ATOM     15  C   UNL     1      10.399  -7.720  25.867  1.00  0.00     0.157 A 
ATOM     16  C   UNL     1       8.775  -6.404  24.632  1.00  0.00     0.062 A 
ATOM     17  C   UNL     1      10.006  -7.071  24.685  1.00  0.00     0.158 A 
BRANCH  15  18
ATOM     18  O   UNL     1      11.625  -8.381  25.928  1.00  0.00    -0.504 OA
ATOM     19  H   UNL     1      11.723  -9.345  25.632  1.00  0.00     0.293 HD
ENDBRANCH  15  18
BRANCH  17  20
ATOM     20  O   UNL     1      10.820  -7.081  23.553  1.00  0.00    -0.504 OA
ATOM     21  H   UNL     1      11.154  -6.227  23.123  1.00  0.00     0.293 HD
ENDBRANCH  17  20
ENDBRANCH   1  12
BRANCH   2  22
ATOM     22  O   UNL     1       5.629  -7.467  24.367  1.00  0.00    -0.502 OA
ATOM     23  H   UNL     1       5.687  -7.515  23.357  1.00  0.00     0.293 HD
ENDBRANCH   2  22
BRANCH   9  24
ATOM     24  O   UNL     1       4.121  -0.611  27.693  1.00  0.00    -0.508 OA
ATOM     25  H   UNL     1       4.977  -0.148  27.978  1.00  0.00     0.293 HD
ENDBRANCH   9  24
TORSDOF 5
ENDMDL
MODEL 6
REMARK VINA RESULT:    -5.010      2.033      3.202
REMARK INTER + INTRA:          -6.191
REMARK INTER:                  -5.871
REMARK INTRA:                  -0.320
REMARK UNBOUND:                -0.302
REMARK SMILES O=c1c(O)c(-c2ccc(O)c(O)c2)oc2cc(O)ccc12
REMARK SMILES IDX 5 1 3 2 2 3 1 4 21 5 15 6 14 7 16 8 17 9 19 10 20 11 6 12
REMARK SMILES IDX 7 13 8 14 9 15 13 16 11 17 10 18 12 20 4 22 18 24
REMARK H PARENT 10 19 12 21 4 23 18 25
REMARK Flexibility Score: inf
ROOT
ATOM      1  C   UNL     1       7.676  -6.125  26.129  1.00  0.00     0.180 A 
ATOM      2  C   UNL     1       8.004  -5.631  27.410  1.00  0.00     0.208 A 
ATOM      3  C   UNL     1       7.186  -4.647  27.985  1.00  0.00     0.235 A 
ATOM      4  O   UNL     1       7.464  -4.183  29.125  1.00  0.00    -0.285 OA
ATOM      5  C   UNL     1       6.056  -4.194  27.286  1.00  0.00     0.069 A 
ATOM      6  C   UNL     1       5.784  -4.754  26.020  1.00  0.00     0.142 A 
ATOM      7  O   UNL     1       6.588  -5.678  25.506  1.00  0.00    -0.452 OA
ATOM      8  C   UNL     1       4.662  -4.335  25.296  1.00  0.00     0.094 A 
ATOM      9  C   UNL     1       3.807  -3.361  25.821  1.00  0.00     0.119 A 
ATOM     10  C   UNL     1       4.076  -2.801  27.077  1.00  0.00     0.047 A 
ATOM     11  C   UNL     1       5.194  -3.213  27.808  1.00  0.00     0.020 A 
ENDROOT
BRANCH   1  12
ATOM     12  C   UNL     1       8.500  -7.149  25.448  1.00  0.00     0.025 A 
ATOM     13  C   UNL     1       8.107  -8.496  25.498  1.00  0.00     0.016 A 
ATOM     14  C   UNL     1       8.857  -9.477  24.845  1.00  0.00     0.051 A 
ATOM     15  C   UNL     1      10.002  -9.125  24.119  1.00  0.00     0.157 A 
ATOM     16  C   UNL     1       9.638  -6.796  24.701  1.00  0.00     0.062 A 
ATOM     17  C   UNL     1      10.390  -7.777  24.042  1.00  0.00     0.158 A 
BRANCH  15  18
ATOM     18  O   UNL     1      10.750 -10.106  23.470  1.00  0.00    -0.504 OA
ATOM     19  H   UNL     1      11.032 -10.005  22.502  1.00  0.00     0.293 HD
ENDBRANCH  15  18
BRANCH  17  20
ATOM     20  O   UNL     1      11.517  -7.392  23.315  1.00  0.00    -0.504 OA
ATOM     21  H   UNL     1      11.584  -7.529  22.314  1.00  0.00     0.293 HD
ENDBRANCH  17  20
ENDBRANCH   1  12
BRANCH   2  22
ATOM     22  O   UNL     1       9.107  -6.138  28.102  1.00  0.00    -0.502 OA
ATOM     23  H   UNL     1       9.085  -6.315  29.099  1.00  0.00     0.293 HD
ENDBRANCH   2  22
BRANCH   9  24
ATOM     24  O   UNL     1       2.694  -2.955  25.087  1.00  0.00    -0.508 OA
ATOM     25  H   UNL     1       2.249  -2.060  25.252  1.00  0.00     0.293 HD
ENDBRANCH   9  24
TORSDOF 5
ENDMDL
MODEL 7
REMARK VINA RESULT:    -4.968      2.068      6.882
REMARK INTER + INTRA:          -6.142
REMARK INTER:                  -5.824
REMARK INTRA:                  -0.318
REMARK UNBOUND:                -0.302
REMARK SMILES O=c1c(O)c(-c2ccc(O)c(O)c2)oc2cc(O)ccc12
REMARK SMILES IDX 5 1 3 2 2 3 1 4 21 5 15 6 14 7 16 8 17 9 19 10 20 11 6 12
REMARK SMILES IDX 7 13 8 14 9 15 13 16 11 17 10 18 12 20 4 22 18 24
REMARK H PARENT 10 19 12 21 4 23 18 25
REMARK Flexibility Score: inf
ROOT
ATOM      1  C   UNL     1       7.198  -5.722  26.692  1.00  0.00     0.180 A 
ATOM      2  C   UNL     1       7.830  -6.056  27.909  1.00  0.00     0.208 A 
ATOM      3  C   UNL     1       9.017  -6.802  27.872  1.00  0.00     0.235 A 
ATOM      4  O   UNL     1       9.595  -7.121  28.947  1.00  0.00    -0.285 OA
ATOM      5  C   UNL     1       9.557  -7.179  26.632  1.00  0.00     0.069 A 
ATOM      6  C   UNL     1       8.878  -6.785  25.460  1.00  0.00     0.142 A 
ATOM      7  O   UNL     1       7.751  -6.087  25.537  1.00  0.00    -0.452 OA
ATOM      8  C   UNL     1       9.390  -7.134  24.205  1.00  0.00     0.094 A 
ATOM      9  C   UNL     1      10.574  -7.873  24.105  1.00  0.00     0.119 A 
ATOM     10  C   UNL     1      11.250  -8.266  25.268  1.00  0.00     0.047 A 
ATOM     11  C   UNL     1      10.747  -7.923  26.527  1.00  0.00     0.020 A 
ENDROOT
BRANCH   1  12
ATOM     12  C   UNL     1       5.934  -4.954  26.648  1.00  0.00     0.025 A 
ATOM     13  C   UNL     1       4.709  -5.637  26.712  1.00  0.00     0.016 A 
ATOM     14  C   UNL     1       3.503  -4.933  26.693  1.00  0.00     0.051 A 
ATOM     15  C   UNL     1       3.503  -3.533  26.624  1.00  0.00     0.157 A 
ATOM     16  C   UNL     1       5.930  -3.549  26.600  1.00  0.00     0.062 A 
ATOM     17  C   UNL     1       4.723  -2.838  26.583  1.00  0.00     0.158 A 
BRANCH  15  18
ATOM     18  O   UNL     1       2.298  -2.832  26.603  1.00  0.00    -0.504 OA
ATOM     19  H   UNL     1       1.920  -2.402  27.439  1.00  0.00     0.293 HD
ENDBRANCH  15  18
BRANCH  17  20
ATOM     20  O   UNL     1       4.758  -1.445  26.529  1.00  0.00    -0.504 OA
ATOM     21  H   UNL     1       3.981  -0.901  26.173  1.00  0.00     0.293 HD
ENDBRANCH  17  20
ENDBRANCH   1  12
BRANCH   2  22
ATOM     22  O   UNL     1       7.295  -5.624  29.125  1.00  0.00    -0.502 OA
ATOM     23  H   UNL     1       7.774  -5.761  30.006  1.00  0.00     0.293 HD
ENDBRANCH   2  22
BRANCH   9  24
ATOM     24  O   UNL     1      11.069  -8.211  22.848  1.00  0.00    -0.508 OA
ATOM     25  H   UNL     1      11.233  -9.177  22.586  1.00  0.00     0.293 HD
ENDBRANCH   9  24
TORSDOF 5
ENDMDL
MODEL 8
REMARK VINA RESULT:    -4.860      3.554      7.577
REMARK INTER + INTRA:          -6.014
REMARK INTER:                  -5.786
REMARK INTRA:                  -0.228
REMARK UNBOUND:                -0.302
REMARK SMILES O=c1c(O)c(-c2ccc(O)c(O)c2)oc2cc(O)ccc12
REMARK SMILES IDX 5 1 3 2 2 3 1 4 21 5 15 6 14 7 16 8 17 9 19 10 20 11 6 12
REMARK SMILES IDX 7 13 8 14 9 15 13 16 11 17 10 18 12 20 4 22 18 24
REMARK H PARENT 10 19 12 21 4 23 18 25
REMARK Flexibility Score: inf
ROOT
ATOM      1  C   UNL     1       8.763  -7.453  24.705  1.00  0.00     0.180 A 
ATOM      2  C   UNL     1       7.823  -8.186  23.949  1.00  0.00     0.208 A 
ATOM      3  C   UNL     1       8.278  -8.959  22.870  1.00  0.00     0.235 A 
ATOM      4  O   UNL     1       7.457  -9.615  22.173  1.00  0.00    -0.285 OA
ATOM      5  C   UNL     1       9.652  -9.003  22.584  1.00  0.00     0.069 A 
ATOM      6  C   UNL     1      10.530  -8.261  23.403  1.00  0.00     0.142 A 
ATOM      7  O   UNL     1      10.058  -7.533  24.408  1.00  0.00    -0.452 OA
ATOM      8  C   UNL     1      11.907  -8.286  23.154  1.00  0.00     0.094 A 
ATOM      9  C   UNL     1      12.420  -9.044  22.097  1.00  0.00     0.119 A 
ATOM     10  C   UNL     1      11.551  -9.781  21.281  1.00  0.00     0.047 A 
ATOM     11  C   UNL     1      10.174  -9.762  21.521  1.00  0.00     0.020 A 
ENDROOT
BRANCH   1  12
ATOM     12  C   UNL     1       8.360  -6.599  25.845  1.00  0.00     0.025 A 
ATOM     13  C   UNL     1       8.758  -6.948  27.145  1.00  0.00     0.016 A 
ATOM     14  C   UNL     1       8.407  -6.147  28.233  1.00  0.00     0.051 A 
ATOM     15  C   UNL     1       7.665  -4.974  28.037  1.00  0.00     0.157 A 
ATOM     16  C   UNL     1       7.633  -5.411  25.649  1.00  0.00     0.062 A 
ATOM     17  C   UNL     1       7.281  -4.603  26.738  1.00  0.00     0.158 A 
BRANCH  15  18
ATOM     18  O   UNL     1       7.314  -4.176  29.125  1.00  0.00    -0.504 OA
ATOM     19  H   UNL     1       6.473  -4.351  29.661  1.00  0.00     0.293 HD
ENDBRANCH  15  18
BRANCH  17  20
ATOM     20  O   UNL     1       6.555  -3.435  26.507  1.00  0.00    -0.504 OA
ATOM     21  H   UNL     1       5.620  -3.301  26.873  1.00  0.00     0.293 HD
ENDBRANCH  17  20
ENDBRANCH   1  12
BRANCH   2  22
ATOM     22  O   UNL     1       6.469  -8.161  24.289  1.00  0.00    -0.502 OA
ATOM     23  H   UNL     1       5.957  -7.296  24.413  1.00  0.00     0.293 HD
ENDBRANCH   2  22
BRANCH   9  24
ATOM     24  O   UNL     1      13.794  -9.058  21.864  1.00  0.00    -0.508 OA
ATOM     25  H   UNL     1      14.449  -9.352  22.579  1.00  0.00     0.293 HD
ENDBRANCH   9  24
TORSDOF 5
ENDMDL
MODEL 9
REMARK VINA RESULT:    -4.763      2.164      4.031
REMARK INTER + INTRA:          -5.900
REMARK INTER:                  -5.768
REMARK INTRA:                  -0.132
REMARK UNBOUND:                -0.302
REMARK SMILES O=c1c(O)c(-c2ccc(O)c(O)c2)oc2cc(O)ccc12
REMARK SMILES IDX 5 1 3 2 2 3 1 4 21 5 15 6 14 7 16 8 17 9 19 10 20 11 6 12
REMARK SMILES IDX 7 13 8 14 9 15 13 16 11 17 10 18 12 20 4 22 18 24
REMARK H PARENT 10 19 12 21 4 23 18 25
REMARK Flexibility Score: inf
ROOT
ATOM      1  C   UNL     1       4.790  -3.888  26.232  1.00  0.00     0.180 A 
ATOM      2  C   UNL     1       3.529  -4.498  26.063  1.00  0.00     0.208 A 
ATOM      3  C   UNL     1       2.392  -3.857  26.578  1.00  0.00     0.235 A 
ATOM      4  O   UNL     1       1.255  -4.388  26.447  1.00  0.00    -0.285 OA
ATOM      5  C   UNL     1       2.533  -2.621  27.228  1.00  0.00     0.069 A 
ATOM      6  C   UNL     1       3.825  -2.065  27.336  1.00  0.00     0.142 A 
ATOM      7  O   UNL     1       4.877  -2.708  26.843  1.00  0.00    -0.452 OA
ATOM      8  C   UNL     1       4.004  -0.830  27.970  1.00  0.00     0.094 A 
ATOM      9  C   UNL     1       2.908  -0.141  28.498  1.00  0.00     0.119 A 
ATOM     10  C   UNL     1       1.623  -0.692  28.393  1.00  0.00     0.047 A 
ATOM     11  C   UNL     1       1.433  -1.925  27.762  1.00  0.00     0.020 A 
ENDROOT
BRANCH   1  12
ATOM     12  C   UNL     1       6.037  -4.510  25.735  1.00  0.00     0.025 A 
ATOM     13  C   UNL     1       6.219  -4.684  24.354  1.00  0.00     0.016 A 
ATOM     14  C   UNL     1       7.397  -5.250  23.860  1.00  0.00     0.051 A 
ATOM     15  C   UNL     1       8.418  -5.636  24.738  1.00  0.00     0.157 A 
ATOM     16  C   UNL     1       7.072  -4.880  26.612  1.00  0.00     0.062 A 
ATOM     17  C   UNL     1       8.256  -5.445  26.121  1.00  0.00     0.158 A 
BRANCH  15  18
ATOM     18  O   UNL     1       9.592  -6.202  24.243  1.00  0.00    -0.504 OA
ATOM     19  H   UNL     1       9.766  -7.199  24.303  1.00  0.00     0.293 HD
ENDBRANCH  15  18
BRANCH  17  20
ATOM     20  O   UNL     1       9.259  -5.805  27.020  1.00  0.00    -0.504 OA
ATOM     21  H   UNL     1       9.338  -6.745  27.390  1.00  0.00     0.293 HD
ENDBRANCH  17  20
ENDBRANCH   1  12
BRANCH   2  22
ATOM     22  O   UNL     1       3.415  -5.705  25.368  1.00  0.00    -0.502 OA
ATOM     23  H   UNL     1       3.128  -6.565  25.820  1.00  0.00     0.293 HD
ENDBRANCH   2  22
BRANCH   9  24
ATOM     24  O   UNL     1       3.104   1.087  29.125  1.00  0.00    -0.508 OA
ATOM     25  H   UNL     1       3.903   1.253  29.726  1.00  0.00     0.293 HD
ENDBRANCH   9  24
TORSDOF 5
ENDMDL
