MODEL 1
REMARK VINA RESULT:    -3.395      0.000      0.000
REMARK INTER + INTRA:          -3.819
REMARK INTER:                  -3.792
REMARK INTRA:                  -0.027
REMARK UNBOUND:                -0.027
REMARK SMILES CC(C)CC=O
REMARK SMILES IDX 4 1 2 2 1 3 3 4 5 5 6 6
REMARK H PARENT
REMARK Flexibility Score: inf
ROOT
ATOM      1  C   UNL     1      24.054  56.655  -9.164  1.00  0.00     0.075 C 
ENDROOT
BRANCH   1   2
ATOM      2  C   UNL     1      24.056  55.132  -8.918  1.00  0.00    -0.010 C 
ATOM      3  C   UNL     1      22.918  54.714  -7.974  1.00  0.00     0.008 C 
ATOM      4  C   UNL     1      25.404  54.692  -8.334  1.00  0.00     0.008 C 
ENDBRANCH   1   2
BRANCH   1   5
ATOM      5  C   UNL     1      25.439  57.208  -9.347  1.00  0.00     0.224 C 
ATOM      6  O   UNL     1      25.590  58.382  -9.644  1.00  0.00    -0.303 OA
ENDBRANCH   1   5
TORSDOF 2
ENDMDL
MODEL 2
REMARK VINA RESULT:    -3.134      2.501      3.331
REMARK INTER + INTRA:          -3.527
REMARK INTER:                  -3.490
REMARK INTRA:                  -0.038
REMARK UNBOUND:                -0.027
REMARK SMILES CC(C)CC=O
REMARK SMILES IDX 4 1 2 2 1 3 3 4 5 5 6 6
REMARK H PARENT
REMARK Flexibility Score: inf
ROOT
ATOM      1  C   UNL     1      23.341  55.616  -9.001  1.00  0.00     0.075 C 
ENDROOT
BRANCH   1   2
ATOM      2  C   UNL     1      24.851  55.675  -9.317  1.00  0.00    -0.010 C 
ATOM      3  C   UNL     1      25.666  54.841  -8.318  1.00  0.00     0.008 C 
ATOM      4  C   UNL     1      25.338  57.129  -9.301  1.00  0.00     0.008 C 
ENDBRANCH   1   2
BRANCH   1   5
ATOM      5  C   UNL     1      23.034  54.717  -7.837  1.00  0.00     0.224 C 
ATOM      6  O   UNL     1      22.148  53.884  -7.930  1.00  0.00    -0.303 OA
ENDBRANCH   1   5
TORSDOF 2
ENDMDL
MODEL 3
REMARK VINA RESULT:    -3.127     15.557     16.878
REMARK INTER + INTRA:          -3.520
REMARK INTER:                  -3.483
REMARK INTRA:                  -0.037
REMARK UNBOUND:                -0.027
REMARK SMILES CC(C)CC=O
REMARK SMILES IDX 4 1 2 2 1 3 3 4 5 5 6 6
REMARK H PARENT
REMARK Flexibility Score: inf
ROOT
ATOM      1  C   UNL     1      19.163  42.898   1.078  1.00  0.00     0.075 C 
ENDROOT
BRANCH   1   2
ATOM      2  C   UNL     1      18.492  43.610  -0.116  1.00  0.00    -0.010 C 
ATOM      3  C   UNL     1      19.200  44.931  -0.451  1.00  0.00     0.008 C 
ATOM      4  C   UNL     1      17.013  43.874   0.188  1.00  0.00     0.008 C 
ENDBRANCH   1   2
BRANCH   1   5
ATOM      5  C   UNL     1      20.631  42.668   0.857  1.00  0.00     0.224 C 
ATOM      6  O   UNL     1      21.001  41.904  -0.021  1.00  0.00    -0.303 OA
ENDBRANCH   1   5
TORSDOF 2
ENDMDL
MODEL 4
REMARK VINA RESULT:    -3.083     16.735     17.495
REMARK INTER + INTRA:          -3.470
REMARK INTER:                  -3.400
REMARK INTRA:                  -0.070
REMARK UNBOUND:                -0.027
REMARK SMILES CC(C)CC=O
REMARK SMILES IDX 4 1 2 2 1 3 3 4 5 5 6 6
REMARK H PARENT
REMARK Flexibility Score: inf
ROOT
ATOM      1  C   UNL     1      14.535  41.982 -14.520  1.00  0.00     0.075 C 
ENDROOT
BRANCH   1   2
ATOM      2  C   UNL     1      14.698  43.320 -15.272  1.00  0.00    -0.010 C 
ATOM      3  C   UNL     1      16.130  43.496 -15.800  1.00  0.00     0.008 C 
ATOM      4  C   UNL     1      14.335  44.492 -14.352  1.00  0.00     0.008 C 
ENDBRANCH   1   2
BRANCH   1   5
ATOM      5  C   UNL     1      15.765  41.608 -13.743  1.00  0.00     0.224 C 
ATOM      6  O   UNL     1      15.775  41.726 -12.528  1.00  0.00    -0.303 OA
ENDBRANCH   1   5
TORSDOF 2
ENDMDL
MODEL 5
REMARK VINA RESULT:    -3.076     15.843     17.056
REMARK INTER + INTRA:          -3.463
REMARK INTER:                  -3.432
REMARK INTRA:                  -0.031
REMARK UNBOUND:                -0.027
REMARK SMILES CC(C)CC=O
REMARK SMILES IDX 4 1 2 2 1 3 3 4 5 5 6 6
REMARK H PARENT
REMARK Flexibility Score: inf
ROOT
ATOM      1  C   UNL     1      19.239  42.490   1.054  1.00  0.00     0.075 C 
ENDROOT
BRANCH   1   2
ATOM      2  C   UNL     1      18.534  43.857   0.930  1.00  0.00    -0.010 C 
ATOM      3  C   UNL     1      17.011  43.694   0.809  1.00  0.00     0.008 C 
ATOM      4  C   UNL     1      19.074  44.624  -0.283  1.00  0.00     0.008 C 
ENDBRANCH   1   2
BRANCH   1   5
ATOM      5  C   UNL     1      20.701  42.567   0.717  1.00  0.00     0.224 C 
ATOM      6  O   UNL     1      21.174  41.812  -0.117  1.00  0.00    -0.303 OA
ENDBRANCH   1   5
TORSDOF 2
ENDMDL
MODEL 6
REMARK VINA RESULT:    -2.997     16.174     17.513
REMARK INTER + INTRA:          -3.375
REMARK INTER:                  -3.336
REMARK INTRA:                  -0.038
REMARK UNBOUND:                -0.027
REMARK SMILES CC(C)CC=O
REMARK SMILES IDX 4 1 2 2 1 3 3 4 5 5 6 6
REMARK H PARENT
REMARK Flexibility Score: inf
ROOT
ATOM      1  C   UNL     1      18.117  43.495   1.493  1.00  0.00     0.075 C 
ENDROOT
BRANCH   1   2
ATOM      2  C   UNL     1      19.484  43.950   0.940  1.00  0.00    -0.010 C 
ATOM      3  C   UNL     1      19.326  44.744  -0.365  1.00  0.00     0.008 C 
ATOM      4  C   UNL     1      20.392  42.737   0.706  1.00  0.00     0.008 C 
ENDBRANCH   1   2
BRANCH   1   5
ATOM      5  C   UNL     1      17.450  42.480   0.607  1.00  0.00     0.224 C 
ATOM      6  O   UNL     1      16.831  41.553   1.104  1.00  0.00    -0.303 OA
ENDBRANCH   1   5
TORSDOF 2
ENDMDL
MODEL 7
REMARK VINA RESULT:    -2.961     16.598     17.114
REMARK INTER + INTRA:          -3.334
REMARK INTER:                  -3.301
REMARK INTRA:                  -0.033
REMARK UNBOUND:                -0.027
REMARK SMILES CC(C)CC=O
REMARK SMILES IDX 4 1 2 2 1 3 3 4 5 5 6 6
REMARK H PARENT
REMARK Flexibility Score: inf
ROOT
ATOM      1  C   UNL     1      14.590  42.697 -15.374  1.00  0.00     0.075 C 
ENDROOT
BRANCH   1   2
ATOM      2  C   UNL     1      14.048  43.102 -13.986  1.00  0.00    -0.010 C 
ATOM      3  C   UNL     1      13.876  44.624 -13.874  1.00  0.00     0.008 C 
ATOM      4  C   UNL     1      14.989  42.602 -12.884  1.00  0.00     0.008 C 
ENDBRANCH   1   2
BRANCH   1   5
ATOM      5  C   UNL     1      15.790  43.506 -15.779  1.00  0.00     0.224 C 
ATOM      6  O   UNL     1      16.906  43.021 -15.694  1.00  0.00    -0.303 OA
ENDBRANCH   1   5
TORSDOF 2
ENDMDL
MODEL 8
REMARK VINA RESULT:    -2.850     16.562     17.039
REMARK INTER + INTRA:          -3.211
REMARK INTER:                  -3.173
REMARK INTRA:                  -0.038
REMARK UNBOUND:                -0.027
REMARK SMILES CC(C)CC=O
REMARK SMILES IDX 4 1 2 2 1 3 3 4 5 5 6 6
REMARK H PARENT
REMARK Flexibility Score: inf
ROOT
ATOM      1  C   UNL     1      18.376  42.532   0.308  1.00  0.00     0.075 C 
ENDROOT
BRANCH   1   2
ATOM      2  C   UNL     1      19.693  42.689   1.098  1.00  0.00    -0.010 C 
ATOM      3  C   UNL     1      19.898  44.138   1.565  1.00  0.00     0.008 C 
ATOM      4  C   UNL     1      20.882  42.245   0.237  1.00  0.00     0.008 C 
ENDBRANCH   1   2
BRANCH   1   5
ATOM      5  C   UNL     1      17.928  43.821  -0.320  1.00  0.00     0.224 C 
ATOM      6  O   UNL     1      16.778  44.202  -0.173  1.00  0.00    -0.303 OA
ENDBRANCH   1   5
TORSDOF 2
ENDMDL
MODEL 9
REMARK VINA RESULT:    -2.825     15.643     17.034
REMARK INTER + INTRA:          -3.182
REMARK INTER:                  -3.124
REMARK INTRA:                  -0.059
REMARK UNBOUND:                -0.027
REMARK SMILES CC(C)CC=O
REMARK SMILES IDX 4 1 2 2 1 3 3 4 5 5 6 6
REMARK H PARENT
REMARK Flexibility Score: inf
ROOT
ATOM      1  C   UNL     1      17.423  43.330  -0.184  1.00  0.00     0.075 C 
ENDROOT
BRANCH   1   2
ATOM      2  C   UNL     1      18.901  43.711   0.039  1.00  0.00    -0.010 C 
ATOM      3  C   UNL     1      19.260  43.718   1.533  1.00  0.00     0.008 C 
ATOM      4  C   UNL     1      19.192  45.086  -0.573  1.00  0.00     0.008 C 
ENDBRANCH   1   2
BRANCH   1   5
ATOM      5  C   UNL     1      17.271  42.036  -0.933  1.00  0.00     0.224 C 
ATOM      6  O   UNL     1      18.242  41.317  -1.106  1.00  0.00    -0.303 OA
ENDBRANCH   1   5
TORSDOF 2
ENDMDL
