MODEL 1
REMARK VINA RESULT:    -4.435      0.000      0.000
REMARK INTER + INTRA:          -5.342
REMARK INTER:                  -5.213
REMARK INTRA:                  -0.129
REMARK UNBOUND:                -0.129
REMARK SMILES O=C([O-])C=Cc1ccc(O)c(O)c1
REMARK SMILES IDX 6 1 13 2 7 3 11 4 8 5 9 6 5 7 4 8 2 9 1 10 3 11 12 12 10 14
REMARK H PARENT 12 13 10 15
REMARK Flexibility Score: inf
ROOT
ATOM      1  C   UNL     1      -5.950  -0.677  -9.427  1.00  0.00    -0.022 A 
ATOM      2  C   UNL     1      -4.960  -0.091  -8.622  1.00  0.00     0.058 A 
ATOM      3  C   UNL     1      -5.701  -1.938 -10.003  1.00  0.00     0.012 A 
ATOM      4  C   UNL     1      -3.752  -0.757  -8.371  1.00  0.00     0.157 A 
ATOM      5  C   UNL     1      -4.496  -2.602  -9.753  1.00  0.00     0.051 A 
ATOM      6  C   UNL     1      -3.522  -2.020  -8.938  1.00  0.00     0.157 A 
ENDROOT
BRANCH   1   7
ATOM      7  C   UNL     1      -7.207   0.075  -9.669  1.00  0.00     0.010 C 
ATOM      8  C   UNL     1      -7.853   0.770  -8.722  1.00  0.00     0.025 C 
BRANCH   8   9
ATOM      9  C   UNL     1      -9.093   1.515  -9.002  1.00  0.00     0.064 C 
ATOM     10  O   UNL     1     -10.116   1.374  -8.280  1.00  0.00    -0.545 OA
ATOM     11  O   UNL     1      -9.134   2.390 -10.079  1.00  0.00    -0.545 OA
ENDBRANCH   8   9
ENDBRANCH   1   7
BRANCH   4  12
ATOM     12  O   UNL     1      -2.782  -0.168  -7.562  1.00  0.00    -0.504 OA
ATOM     13  H   UNL     1      -2.012  -0.705  -7.179  1.00  0.00     0.293 HD
ENDBRANCH   4  12
BRANCH   6  14
ATOM     14  O   UNL     1      -2.331  -2.708  -8.708  1.00  0.00    -0.504 OA
ATOM     15  H   UNL     1      -1.433  -2.346  -9.005  1.00  0.00     0.293 HD
ENDBRANCH   6  14
TORSDOF 4
ENDMDL
MODEL 2
REMARK VINA RESULT:    -4.122      3.496      5.183
REMARK INTER + INTRA:          -4.973
REMARK INTER:                  -4.846
REMARK INTRA:                  -0.127
REMARK UNBOUND:                -0.129
REMARK SMILES O=C([O-])C=Cc1ccc(O)c(O)c1
REMARK SMILES IDX 6 1 13 2 7 3 11 4 8 5 9 6 5 7 4 8 2 9 1 10 3 11 12 12 10 14
REMARK H PARENT 12 13 10 15
REMARK Flexibility Score: inf
ROOT
ATOM      1  C   UNL     1      -3.608  -2.315  -8.991  1.00  0.00    -0.022 A 
ATOM      2  C   UNL     1      -4.205  -1.137  -8.512  1.00  0.00     0.058 A 
ATOM      3  C   UNL     1      -2.470  -2.215  -9.814  1.00  0.00     0.012 A 
ATOM      4  C   UNL     1      -3.665   0.119  -8.823  1.00  0.00     0.157 A 
ATOM      5  C   UNL     1      -1.931  -0.963 -10.125  1.00  0.00     0.051 A 
ATOM      6  C   UNL     1      -2.520   0.204  -9.632  1.00  0.00     0.157 A 
ENDROOT
BRANCH   1   7
ATOM      7  C   UNL     1      -4.226  -3.618  -8.640  1.00  0.00     0.010 C 
ATOM      8  C   UNL     1      -5.019  -4.315  -9.467  1.00  0.00     0.025 C 
BRANCH   8   9
ATOM      9  C   UNL     1      -5.606  -5.611  -9.087  1.00  0.00     0.064 C 
ATOM     10  O   UNL     1      -6.004  -6.427  -9.960  1.00  0.00    -0.545 OA
ATOM     11  O   UNL     1      -5.719  -5.940  -7.743  1.00  0.00    -0.545 OA
ENDBRANCH   8   9
ENDBRANCH   1   7
BRANCH   4  12
ATOM     12  O   UNL     1      -4.261   1.279  -8.333  1.00  0.00    -0.504 OA
ATOM     13  H   UNL     1      -3.732   2.133  -8.202  1.00  0.00     0.293 HD
ENDBRANCH   4  12
BRANCH   6  14
ATOM     14  O   UNL     1      -1.959   1.438  -9.959  1.00  0.00    -0.504 OA
ATOM     15  H   UNL     1      -2.403   2.314  -9.714  1.00  0.00     0.293 HD
ENDBRANCH   6  14
TORSDOF 4
ENDMDL
MODEL 3
REMARK VINA RESULT:    -3.703      1.304      5.982
REMARK INTER + INTRA:          -4.482
REMARK INTER:                  -4.348
REMARK INTRA:                  -0.134
REMARK UNBOUND:                -0.129
REMARK SMILES O=C([O-])C=Cc1ccc(O)c(O)c1
REMARK SMILES IDX 6 1 13 2 7 3 11 4 8 5 9 6 5 7 4 8 2 9 1 10 3 11 12 12 10 14
REMARK H PARENT 12 13 10 15
REMARK Flexibility Score: inf
ROOT
ATOM      1  C   UNL     1      -6.431  -0.198  -9.441  1.00  0.00    -0.022 A 
ATOM      2  C   UNL     1      -7.702  -0.726  -9.724  1.00  0.00     0.058 A 
ATOM      3  C   UNL     1      -6.339   1.102  -8.908  1.00  0.00     0.012 A 
ATOM      4  C   UNL     1      -8.862   0.014  -9.458  1.00  0.00     0.157 A 
ATOM      5  C   UNL     1      -7.496   1.841  -8.643  1.00  0.00     0.051 A 
ATOM      6  C   UNL     1      -8.757   1.304  -8.912  1.00  0.00     0.157 A 
ENDROOT
BRANCH   1   7
ATOM      7  C   UNL     1      -5.235  -1.020  -9.750  1.00  0.00     0.010 C 
ATOM      8  C   UNL     1      -4.077  -0.931  -9.082  1.00  0.00     0.025 C 
BRANCH   8   9
ATOM      9  C   UNL     1      -2.913  -1.773  -9.410  1.00  0.00     0.064 C 
ATOM     10  O   UNL     1      -2.860  -2.981  -9.056  1.00  0.00    -0.545 OA
ATOM     11  O   UNL     1      -1.856  -1.225 -10.125  1.00  0.00    -0.545 OA
ENDBRANCH   8   9
ENDBRANCH   1   7
BRANCH   4  12
ATOM     12  O   UNL     1     -10.117  -0.526  -9.735  1.00  0.00    -0.504 OA
ATOM     13  H   UNL     1     -10.969  -0.088  -9.404  1.00  0.00     0.293 HD
ENDBRANCH   4  12
BRANCH   6  14
ATOM     14  O   UNL     1      -9.892   2.065  -8.637  1.00  0.00    -0.504 OA
ATOM     15  H   UNL     1     -10.100   2.404  -7.705  1.00  0.00     0.293 HD
ENDBRANCH   6  14
TORSDOF 4
ENDMDL
MODEL 4
REMARK VINA RESULT:    -3.677      2.688      5.418
REMARK INTER + INTRA:          -4.451
REMARK INTER:                  -4.323
REMARK INTRA:                  -0.128
REMARK UNBOUND:                -0.129
REMARK SMILES O=C([O-])C=Cc1ccc(O)c(O)c1
REMARK SMILES IDX 6 1 13 2 7 3 11 4 8 5 9 6 5 7 4 8 2 9 1 10 3 11 12 12 10 14
REMARK H PARENT 12 13 10 15
REMARK Flexibility Score: inf
ROOT
ATOM      1  C   UNL     1      -4.936  -2.604  -9.469  1.00  0.00    -0.022 A 
ATOM      2  C   UNL     1      -3.984  -2.064  -8.588  1.00  0.00     0.058 A 
ATOM      3  C   UNL     1      -5.832  -1.735 -10.119  1.00  0.00     0.012 A 
ATOM      4  C   UNL     1      -3.908  -0.680  -8.376  1.00  0.00     0.157 A 
ATOM      5  C   UNL     1      -5.757  -0.355  -9.907  1.00  0.00     0.051 A 
ATOM      6  C   UNL     1      -4.798   0.178  -9.042  1.00  0.00     0.157 A 
ENDROOT
BRANCH   1   7
ATOM      7  C   UNL     1      -4.979  -4.077  -9.651  1.00  0.00     0.010 C 
ATOM      8  C   UNL     1      -5.289  -4.939  -8.672  1.00  0.00     0.025 C 
BRANCH   8   9
ATOM      9  C   UNL     1      -5.334  -6.395  -8.892  1.00  0.00     0.064 C 
ATOM     10  O   UNL     1      -5.711  -7.181  -7.982  1.00  0.00    -0.545 OA
ATOM     11  O   UNL     1      -4.956  -6.910 -10.125  1.00  0.00    -0.545 OA
ENDBRANCH   8   9
ENDBRANCH   1   7
BRANCH   4  12
ATOM     12  O   UNL     1      -2.953  -0.156  -7.507  1.00  0.00    -0.504 OA
ATOM     13  H   UNL     1      -3.218   0.349  -6.669  1.00  0.00     0.293 HD
ENDBRANCH   4  12
BRANCH   6  14
ATOM     14  O   UNL     1      -4.748   1.558  -8.852  1.00  0.00    -0.504 OA
ATOM     15  H   UNL     1      -5.084   1.998  -8.004  1.00  0.00     0.293 HD
ENDBRANCH   6  14
TORSDOF 4
ENDMDL
MODEL 5
REMARK VINA RESULT:    -3.342      4.979      6.983
REMARK INTER + INTRA:          -4.057
REMARK INTER:                  -3.925
REMARK INTRA:                  -0.133
REMARK UNBOUND:                -0.129
REMARK SMILES O=C([O-])C=Cc1ccc(O)c(O)c1
REMARK SMILES IDX 6 1 13 2 7 3 11 4 8 5 9 6 5 7 4 8 2 9 1 10 3 11 12 12 10 14
REMARK H PARENT 12 13 10 15
REMARK Flexibility Score: inf
ROOT
ATOM      1  C   UNL     1      -5.685  -6.127  -9.095  1.00  0.00    -0.022 A 
ATOM      2  C   UNL     1      -6.442  -6.130  -7.912  1.00  0.00     0.058 A 
ATOM      3  C   UNL     1      -5.677  -7.283  -9.900  1.00  0.00     0.012 A 
ATOM      4  C   UNL     1      -7.198  -7.253  -7.547  1.00  0.00     0.157 A 
ATOM      5  C   UNL     1      -6.430  -8.402  -9.536  1.00  0.00     0.051 A 
ATOM      6  C   UNL     1      -7.193  -8.393  -8.366  1.00  0.00     0.157 A 
ENDROOT
BRANCH   1   7
ATOM      7  C   UNL     1      -4.895  -4.916  -9.429  1.00  0.00     0.010 C 
ATOM      8  C   UNL     1      -4.492  -4.015  -8.522  1.00  0.00     0.025 C 
BRANCH   8   9
ATOM      9  C   UNL     1      -3.698  -2.830  -8.890  1.00  0.00     0.064 C 
ATOM     10  O   UNL     1      -2.877  -2.865  -9.845  1.00  0.00    -0.545 OA
ATOM     11  O   UNL     1      -3.859  -1.653  -8.172  1.00  0.00    -0.545 OA
ENDBRANCH   8   9
ENDBRANCH   1   7
BRANCH   4  12
ATOM     12  O   UNL     1      -7.953  -7.239  -6.375  1.00  0.00    -0.504 OA
ATOM     13  H   UNL     1      -8.379  -6.388  -6.028  1.00  0.00     0.293 HD
ENDBRANCH   4  12
BRANCH   6  14
ATOM     14  O   UNL     1      -7.935  -9.525  -8.031  1.00  0.00    -0.504 OA
ATOM     15  H   UNL     1      -8.498  -9.571  -7.191  1.00  0.00     0.293 HD
ENDBRANCH   6  14
TORSDOF 4
ENDMDL
MODEL 6
REMARK VINA RESULT:    -3.195      3.444      5.275
REMARK INTER + INTRA:          -3.884
REMARK INTER:                  -3.751
REMARK INTRA:                  -0.133
REMARK UNBOUND:                -0.129
REMARK SMILES O=C([O-])C=Cc1ccc(O)c(O)c1
REMARK SMILES IDX 6 1 13 2 7 3 11 4 8 5 9 6 5 7 4 8 2 9 1 10 3 11 12 12 10 14
REMARK H PARENT 12 13 10 15
REMARK Flexibility Score: inf
ROOT
ATOM      1  C   UNL     1      -4.864  -3.571  -9.151  1.00  0.00    -0.022 A 
ATOM      2  C   UNL     1      -4.674  -4.661  -8.286  1.00  0.00     0.058 A 
ATOM      3  C   UNL     1      -5.920  -3.617 -10.082  1.00  0.00     0.012 A 
ATOM      4  C   UNL     1      -5.535  -5.767  -8.326  1.00  0.00     0.157 A 
ATOM      5  C   UNL     1      -6.778  -4.720 -10.123  1.00  0.00     0.051 A 
ATOM      6  C   UNL     1      -6.594  -5.794  -9.248  1.00  0.00     0.157 A 
ENDROOT
BRANCH   1   7
ATOM      7  C   UNL     1      -3.918  -2.430  -9.074  1.00  0.00     0.010 C 
ATOM      8  C   UNL     1      -4.289  -1.146  -9.178  1.00  0.00     0.025 C 
BRANCH   8   9
ATOM      9  C   UNL     1      -3.323  -0.038  -9.084  1.00  0.00     0.064 C 
ATOM     10  O   UNL     1      -2.201  -0.101  -9.655  1.00  0.00    -0.545 OA
ATOM     11  O   UNL     1      -3.655   1.096  -8.356  1.00  0.00    -0.545 OA
ENDBRANCH   8   9
ENDBRANCH   1   7
BRANCH   4  12
ATOM     12  O   UNL     1      -5.342  -6.838  -7.455  1.00  0.00    -0.504 OA
ATOM     13  H   UNL     1      -4.609  -6.827  -6.755  1.00  0.00     0.293 HD
ENDBRANCH   4  12
BRANCH   6  14
ATOM     14  O   UNL     1      -7.467  -6.879  -9.313  1.00  0.00    -0.504 OA
ATOM     15  H   UNL     1      -7.480  -7.603  -8.605  1.00  0.00     0.293 HD
ENDBRANCH   6  14
TORSDOF 4
ENDMDL
MODEL 7
REMARK VINA RESULT:    -3.046      2.465      5.310
REMARK INTER + INTRA:          -3.709
REMARK INTER:                  -3.580
REMARK INTRA:                  -0.129
REMARK UNBOUND:                -0.129
REMARK SMILES O=C([O-])C=Cc1ccc(O)c(O)c1
REMARK SMILES IDX 6 1 13 2 7 3 11 4 8 5 9 6 5 7 4 8 2 9 1 10 3 11 12 12 10 14
REMARK H PARENT 12 13 10 15
REMARK Flexibility Score: inf
ROOT
ATOM      1  C   UNL     1      -5.494  -1.100  -9.641  1.00  0.00    -0.022 A 
ATOM      2  C   UNL     1      -6.649  -0.349  -9.369  1.00  0.00     0.058 A 
ATOM      3  C   UNL     1      -4.236  -0.474  -9.542  1.00  0.00     0.012 A 
ATOM      4  C   UNL     1      -6.556   0.995  -8.981  1.00  0.00     0.157 A 
ATOM      5  C   UNL     1      -4.143   0.867  -9.156  1.00  0.00     0.051 A 
ATOM      6  C   UNL     1      -5.296   1.604  -8.872  1.00  0.00     0.157 A 
ENDROOT
BRANCH   1   7
ATOM      7  C   UNL     1      -5.649  -2.516 -10.057  1.00  0.00     0.010 C 
ATOM      8  C   UNL     1      -5.070  -3.547  -9.425  1.00  0.00     0.025 C 
BRANCH   8   9
ATOM      9  C   UNL     1      -5.256  -4.941  -9.861  1.00  0.00     0.064 C 
ATOM     10  O   UNL     1      -4.270  -5.680 -10.124  1.00  0.00    -0.545 OA
ATOM     11  O   UNL     1      -6.542  -5.452  -9.980  1.00  0.00    -0.545 OA
ENDBRANCH   8   9
ENDBRANCH   1   7
BRANCH   4  12
ATOM     12  O   UNL     1      -7.710   1.726  -8.705  1.00  0.00    -0.504 OA
ATOM     13  H   UNL     1      -7.668   2.646  -8.281  1.00  0.00     0.293 HD
ENDBRANCH   4  12
BRANCH   6  14
ATOM     14  O   UNL     1      -5.170   2.938  -8.488  1.00  0.00    -0.504 OA
ATOM     15  H   UNL     1      -4.267   3.379  -8.359  1.00  0.00     0.293 HD
ENDBRANCH   6  14
TORSDOF 4
ENDMDL
MODEL 8
REMARK VINA RESULT:    -2.772      5.303      7.450
REMARK INTER + INTRA:          -3.387
REMARK INTER:                  -3.255
REMARK INTRA:                  -0.132
REMARK UNBOUND:                -0.129
REMARK SMILES O=C([O-])C=Cc1ccc(O)c(O)c1
REMARK SMILES IDX 6 1 13 2 7 3 11 4 8 5 9 6 5 7 4 8 2 9 1 10 3 11 12 12 10 14
REMARK H PARENT 12 13 10 15
REMARK Flexibility Score: inf
ROOT
ATOM      1  C   UNL     1      -6.316  -6.247  -8.894  1.00  0.00    -0.022 A 
ATOM      2  C   UNL     1      -5.922  -7.591  -8.776  1.00  0.00     0.058 A 
ATOM      3  C   UNL     1      -7.631  -5.957  -9.306  1.00  0.00     0.012 A 
ATOM      4  C   UNL     1      -6.828  -8.629  -9.038  1.00  0.00     0.157 A 
ATOM      5  C   UNL     1      -8.533  -6.992  -9.568  1.00  0.00     0.051 A 
ATOM      6  C   UNL     1      -8.140  -8.326  -9.433  1.00  0.00     0.157 A 
ENDROOT
BRANCH   1   7
ATOM      7  C   UNL     1      -5.315  -5.187  -8.615  1.00  0.00     0.010 C 
ATOM      8  C   UNL     1      -4.848  -4.340  -9.543  1.00  0.00     0.025 C 
BRANCH   8   9
ATOM      9  C   UNL     1      -3.863  -3.292  -9.226  1.00  0.00     0.064 C 
ATOM     10  O   UNL     1      -4.011  -2.537  -8.227  1.00  0.00    -0.545 OA
ATOM     11  O   UNL     1      -2.749  -3.134 -10.040  1.00  0.00    -0.545 OA
ENDBRANCH   8   9
ENDBRANCH   1   7
BRANCH   4  12
ATOM     12  O   UNL     1      -6.427  -9.957  -8.907  1.00  0.00    -0.504 OA
ATOM     13  H   UNL     1      -5.785 -10.385  -9.563  1.00  0.00     0.293 HD
ENDBRANCH   4  12
BRANCH   6  14
ATOM     14  O   UNL     1      -9.064  -9.335  -9.701  1.00  0.00    -0.504 OA
ATOM     15  H   UNL     1      -8.885 -10.305  -9.470  1.00  0.00     0.293 HD
ENDBRANCH   6  14
TORSDOF 4
ENDMDL
