MODEL 1
REMARK VINA RESULT:    10.582      0.000      0.000
REMARK INTER + INTRA:          16.237
REMARK INTER:                  14.913
REMARK INTRA:                   1.324
REMARK UNBOUND:                 1.324
REMARK SMILES C[C@@H](CO)CCC(=O)[C@H](C)[C@@H]1C(=O)C[C@@H]2[C@H]3CC=C4C[C@H](O)CC[C@@]4(C)[C@H]3CC[C@@]21C
REMARK SMILES IDX 6 1 5 2 2 3 1 4 3 5 4 6 7 8 8 9 9 10 10 11 11 12 12 13 30 14
REMARK SMILES IDX 13 15 14 16 15 17 29 18 31 19 16 20 28 21 27 22 17 23 25 24
REMARK SMILES IDX 18 25 19 26 24 27 26 28 20 29 23 30 21 31 22 32
REMARK H PARENT 4 7 22 33
REMARK Flexibility Score: inf
ROOT
ATOM      1  C   UNL     1      79.786  15.842   2.484  1.00  0.00     0.076 C 
ENDROOT
BRANCH   1   2
ATOM      2  C   UNL     1      79.670  15.134   1.121  1.00  0.00     0.013 C 
BRANCH   2   3
ATOM      3  C   UNL     1      78.466  15.594   0.264  1.00  0.00     0.012 C 
ATOM      4  C   UNL     1      77.269  14.639   0.397  1.00  0.00     0.010 C 
BRANCH   3   5
ATOM      5  C   UNL     1      78.049  17.033   0.627  1.00  0.00     0.159 C 
BRANCH   5   6
ATOM      6  O   UNL     1      79.004  17.969   0.202  1.00  0.00    -0.396 OA
ATOM      7  H   UNL     1      79.741  17.951   0.869  1.00  0.00     0.210 HD
ENDBRANCH   5   6
ENDBRANCH   3   5
ENDBRANCH   2   3
ENDBRANCH   1   2
BRANCH   1   8
ATOM      8  C   UNL     1      80.002  14.884   3.638  1.00  0.00     0.136 C 
ATOM      9  O   UNL     1      81.116  14.415   3.822  1.00  0.00    -0.299 OA
BRANCH   8  10
ATOM     10  C   UNL     1      78.886  14.536   4.611  1.00  0.00     0.064 C 
ATOM     11  C   UNL     1      77.578  14.365   3.818  1.00  0.00     0.017 C 
BRANCH  10  12
ATOM     12  C   UNL     1      78.771  15.603   5.761  1.00  0.00     0.072 C 
ATOM     13  C   UNL     1      79.607  16.831   5.515  1.00  0.00     0.137 C 
ATOM     14  C   UNL     1      79.219  15.182   7.211  1.00  0.00    -0.019 C 
ATOM     15  O   UNL     1      79.668  17.416   4.445  1.00  0.00    -0.299 OA
ATOM     16  C   UNL     1      80.286  17.344   6.725  1.00  0.00     0.080 C 
ATOM     17  C   UNL     1      79.638  16.540   7.855  1.00  0.00     0.007 C 
ATOM     18  C   UNL     1      80.442  14.222   7.184  1.00  0.00     0.008 C 
ATOM     19  C   UNL     1      78.037  14.549   7.987  1.00  0.00     0.012 C 
ATOM     20  C   UNL     1      80.533  16.480   9.132  1.00  0.00     0.001 C 
ATOM     21  C   UNL     1      81.144  14.076   8.536  1.00  0.00     0.005 C 
ATOM     22  C   UNL     1      81.685  15.431   9.053  1.00  0.00     0.003 C 
ATOM     23  C   UNL     1      79.686  16.398  10.443  1.00  0.00     0.031 C 
ATOM     24  C   UNL     1      82.435  15.332  10.438  1.00  0.00    -0.008 C 
ATOM     25  C   UNL     1      80.172  15.408  11.474  1.00  0.00    -0.027 C 
ATOM     26  C   UNL     1      81.434  14.942  11.515  1.00  0.00    -0.065 C 
ATOM     27  C   UNL     1      83.582  14.273  10.396  1.00  0.00     0.014 C 
ATOM     28  C   UNL     1      83.059  16.712  10.790  1.00  0.00     0.016 C 
ATOM     29  C   UNL     1      81.803  13.885  12.535  1.00  0.00     0.063 C 
ATOM     30  C   UNL     1      84.258  14.035  11.764  1.00  0.00     0.033 C 
ATOM     31  C   UNL     1      83.274  14.008  12.964  1.00  0.00     0.118 C 
BRANCH  31  32
ATOM     32  O   UNL     1      83.425  15.165  13.748  1.00  0.00    -0.393 OA
ATOM     33  H   UNL     1      82.809  15.071  14.521  1.00  0.00     0.210 HD
ENDBRANCH  31  32
ENDBRANCH  10  12
ENDBRANCH   8  10
ENDBRANCH   1   8
TORSDOF 8
ENDMDL
MODEL 2
REMARK VINA RESULT:    10.641      1.766      8.825
REMARK INTER + INTRA:          16.320
REMARK INTER:                  13.220
REMARK INTRA:                   3.100
REMARK UNBOUND:                 1.324
REMARK SMILES C[C@@H](CO)CCC(=O)[C@H](C)[C@@H]1C(=O)C[C@@H]2[C@H]3CC=C4C[C@H](O)CC[C@@]4(C)[C@H]3CC[C@@]21C
REMARK SMILES IDX 6 1 5 2 2 3 1 4 3 5 4 6 7 8 8 9 9 10 10 11 11 12 12 13 30 14
REMARK SMILES IDX 13 15 14 16 15 17 29 18 31 19 16 20 28 21 27 22 17 23 25 24
REMARK SMILES IDX 18 25 19 26 24 27 26 28 20 29 23 30 21 31 22 32
REMARK H PARENT 4 7 22 33
REMARK Flexibility Score: inf
ROOT
ATOM      1  C   UNL     1      82.963  15.400  10.751  1.00  0.00     0.076 C 
ENDROOT
BRANCH   1   2
ATOM      2  C   UNL     1      83.701  14.599  11.840  1.00  0.00     0.013 C 
BRANCH   2   3
ATOM      3  C   UNL     1      84.977  13.875  11.346  1.00  0.00     0.012 C 
ATOM      4  C   UNL     1      85.083  13.884   9.813  1.00  0.00     0.010 C 
BRANCH   3   5
ATOM      5  C   UNL     1      86.241  14.494  11.976  1.00  0.00     0.159 C 
BRANCH   5   6
ATOM      6  O   UNL     1      87.408  13.883  11.495  1.00  0.00    -0.396 OA
ATOM      7  H   UNL     1      88.172  14.310  11.966  1.00  0.00     0.210 HD
ENDBRANCH   5   6
ENDBRANCH   3   5
ENDBRANCH   2   3
ENDBRANCH   1   2
BRANCH   1   8
ATOM      8  C   UNL     1      81.520  15.695  11.102  1.00  0.00     0.136 C 
ATOM      9  O   UNL     1      81.165  15.632  12.270  1.00  0.00    -0.299 OA
BRANCH   8  10
ATOM     10  C   UNL     1      80.510  16.128  10.049  1.00  0.00     0.064 C 
ATOM     11  C   UNL     1      79.263  16.678  10.763  1.00  0.00     0.017 C 
BRANCH  10  12
ATOM     12  C   UNL     1      80.180  14.958   9.052  1.00  0.00     0.072 C 
ATOM     13  C   UNL     1      81.406  14.230   8.566  1.00  0.00     0.137 C 
ATOM     14  C   UNL     1      79.452  15.316   7.702  1.00  0.00    -0.019 C 
ATOM     15  O   UNL     1      82.326  13.879   9.289  1.00  0.00    -0.299 OA
ATOM     16  C   UNL     1      81.362  13.876   7.131  1.00  0.00     0.080 C 
ATOM     17  C   UNL     1      79.911  14.175   6.743  1.00  0.00     0.007 C 
ATOM     18  C   UNL     1      79.921  16.688   7.137  1.00  0.00     0.008 C 
ATOM     19  C   UNL     1      77.914  15.292   7.886  1.00  0.00     0.012 C 
ATOM     20  C   UNL     1      79.742  14.416   5.211  1.00  0.00     0.001 C 
ATOM     21  C   UNL     1      79.539  16.917   5.673  1.00  0.00     0.005 C 
ATOM     22  C   UNL     1      80.156  15.846   4.742  1.00  0.00     0.003 C 
ATOM     23  C   UNL     1      78.341  13.958   4.692  1.00  0.00     0.031 C 
ATOM     24  C   UNL     1      79.807  16.048   3.217  1.00  0.00    -0.008 C 
ATOM     25  C   UNL     1      77.656  14.904   3.735  1.00  0.00    -0.027 C 
ATOM     26  C   UNL     1      78.313  15.836   3.020  1.00  0.00    -0.065 C 
ATOM     27  C   UNL     1      80.192  17.479   2.724  1.00  0.00     0.014 C 
ATOM     28  C   UNL     1      80.591  15.011   2.363  1.00  0.00     0.016 C 
ATOM     29  C   UNL     1      77.528  16.796   2.150  1.00  0.00     0.063 C 
ATOM     30  C   UNL     1      79.745  17.778   1.276  1.00  0.00     0.033 C 
ATOM     31  C   UNL     1      78.337  17.229   0.918  1.00  0.00     0.118 C 
BRANCH  31  32
ATOM     32  O   UNL     1      78.446  16.138   0.038  1.00  0.00    -0.393 OA
ATOM     33  H   UNL     1      77.521  15.874  -0.208  1.00  0.00     0.210 HD
ENDBRANCH  31  32
ENDBRANCH  10  12
ENDBRANCH   8  10
ENDBRANCH   1   8
TORSDOF 8
ENDMDL
