MODEL 1
REMARK VINA RESULT:    -4.981      0.000      0.000
REMARK INTER + INTRA:         -11.360
REMARK INTER:                  -9.641
REMARK INTRA:                  -1.719
REMARK UNBOUND:                -1.719
REMARK SMILES CCCCCCCCCCCCCCCCCC(=O)[O-]
REMARK SMILES IDX 10 1 11 2 12 3 13 4 14 5 15 6 16 7 17 8 18 9 19 10 20 11
REMARK SMILES IDX 9 12 8 13 7 14 6 15 5 16 4 17 3 18 2 19 1 20
REMARK H PARENT
REMARK Flexibility Score: inf
ROOT
ATOM      1  C   UNL     1      12.974 -21.689 -14.785  1.00  0.00     0.000 C 
ENDROOT
BRANCH   1   2
ATOM      2  C   UNL     1      12.620 -22.771 -13.753  1.00  0.00     0.000 C 
BRANCH   2   3
ATOM      3  C   UNL     1      11.373 -23.579 -14.152  1.00  0.00     0.000 C 
BRANCH   3   4
ATOM      4  C   UNL     1      11.613 -25.099 -14.127  1.00  0.00     0.000 C 
BRANCH   4   5
ATOM      5  C   UNL     1      13.084 -25.529 -13.941  1.00  0.00     0.000 C 
BRANCH   5   6
ATOM      6  C   UNL     1      13.415 -26.948 -14.435  1.00  0.00     0.000 C 
BRANCH   6   7
ATOM      7  C   UNL     1      14.876 -27.097 -14.887  1.00  0.00     0.006 C 
BRANCH   7   8
ATOM      8  C   UNL     1      15.258 -28.574 -15.028  1.00  0.00     0.053 C 
BRANCH   8   9
ATOM      9  C   UNL     1      15.588 -29.160 -13.692  1.00  0.00     0.041 C 
ATOM     10  O   UNL     1      14.988 -30.190 -13.286  1.00  0.00    -0.550 OA
ATOM     11  O   UNL     1      16.594 -28.600 -12.916  1.00  0.00    -0.550 OA
ENDBRANCH   8   9
ENDBRANCH   7   8
ENDBRANCH   6   7
ENDBRANCH   5   6
ENDBRANCH   4   5
ENDBRANCH   3   4
ENDBRANCH   2   3
ENDBRANCH   1   2
BRANCH   1  12
ATOM     12  C   UNL     1      11.741 -21.179 -15.551  1.00  0.00     0.000 C 
BRANCH  12  13
ATOM     13  C   UNL     1      11.747 -19.652 -15.747  1.00  0.00    -0.000 C 
BRANCH  13  14
ATOM     14  C   UNL     1      13.044 -19.075 -16.344  1.00  0.00    -0.000 C 
BRANCH  14  15
ATOM     15  C   UNL     1      13.627 -17.923 -15.513  1.00  0.00    -0.000 C 
BRANCH  15  16
ATOM     16  C   UNL     1      14.728 -18.431 -14.569  1.00  0.00    -0.000 C 
BRANCH  16  17
ATOM     17  C   UNL     1      14.241 -18.589 -13.119  1.00  0.00    -0.000 C 
BRANCH  17  18
ATOM     18  C   UNL     1      13.153 -17.566 -12.747  1.00  0.00    -0.000 C 
BRANCH  18  19
ATOM     19  C   UNL     1      12.190 -18.097 -11.673  1.00  0.00    -0.003 C 
ATOM     20  C   UNL     1      11.226 -19.153 -12.211  1.00  0.00     0.004 C 
ENDBRANCH  18  19
ENDBRANCH  17  18
ENDBRANCH  16  17
ENDBRANCH  15  16
ENDBRANCH  14  15
ENDBRANCH  13  14
ENDBRANCH  12  13
ENDBRANCH   1  12
TORSDOF 16
ENDMDL
MODEL 2
REMARK VINA RESULT:    -4.934      2.298      4.635
REMARK INTER + INTRA:         -11.267
REMARK INTER:                  -9.505
REMARK INTRA:                  -1.762
REMARK UNBOUND:                -1.719
REMARK SMILES CCCCCCCCCCCCCCCCCC(=O)[O-]
REMARK SMILES IDX 10 1 11 2 12 3 13 4 14 5 15 6 16 7 17 8 18 9 19 10 20 11
REMARK SMILES IDX 9 12 8 13 7 14 6 15 5 16 4 17 3 18 2 19 1 20
REMARK H PARENT
REMARK Flexibility Score: inf
ROOT
ATOM      1  C   UNL     1      14.182 -18.182 -15.152  1.00  0.00     0.000 C 
ENDROOT
BRANCH   1   2
ATOM      2  C   UNL     1      13.711 -18.629 -16.545  1.00  0.00     0.000 C 
BRANCH   2   3
ATOM      3  C   UNL     1      12.452 -19.512 -16.485  1.00  0.00     0.000 C 
BRANCH   3   4
ATOM      4  C   UNL     1      11.552 -19.185 -15.280  1.00  0.00     0.000 C 
BRANCH   4   5
ATOM      5  C   UNL     1      11.311 -20.355 -14.303  1.00  0.00     0.000 C 
BRANCH   5   6
ATOM      6  C   UNL     1      12.556 -21.196 -13.972  1.00  0.00     0.000 C 
BRANCH   6   7
ATOM      7  C   UNL     1      12.291 -22.707 -14.040  1.00  0.00     0.006 C 
BRANCH   7   8
ATOM      8  C   UNL     1      13.574 -23.501 -13.773  1.00  0.00     0.053 C 
BRANCH   8   9
ATOM      9  C   UNL     1      13.289 -24.969 -13.760  1.00  0.00     0.041 C 
ATOM     10  O   UNL     1      12.195 -25.406 -14.205  1.00  0.00    -0.550 OA
ATOM     11  O   UNL     1      14.250 -25.861 -13.303  1.00  0.00    -0.550 OA
ENDBRANCH   8   9
ENDBRANCH   7   8
ENDBRANCH   6   7
ENDBRANCH   5   6
ENDBRANCH   4   5
ENDBRANCH   3   4
ENDBRANCH   2   3
ENDBRANCH   1   2
BRANCH   1  12
ATOM     12  C   UNL     1      14.192 -16.651 -14.997  1.00  0.00     0.000 C 
BRANCH  12  13
ATOM     13  C   UNL     1      13.360 -16.165 -13.797  1.00  0.00    -0.000 C 
BRANCH  13  14
ATOM     14  C   UNL     1      13.140 -17.211 -12.687  1.00  0.00    -0.000 C 
BRANCH  14  15
ATOM     15  C   UNL     1      14.249 -17.200 -11.625  1.00  0.00    -0.000 C 
BRANCH  15  16
ATOM     16  C   UNL     1      13.743 -16.589 -10.310  1.00  0.00    -0.000 C 
BRANCH  16  17
ATOM     17  C   UNL     1      13.154 -17.639  -9.354  1.00  0.00    -0.000 C 
BRANCH  17  18
ATOM     18  C   UNL     1      11.641 -17.457  -9.135  1.00  0.00    -0.000 C 
BRANCH  18  19
ATOM     19  C   UNL     1      10.848 -18.742  -9.417  1.00  0.00    -0.003 C 
ATOM     20  C   UNL     1      10.628 -18.988 -10.910  1.00  0.00     0.004 C 
ENDBRANCH  18  19
ENDBRANCH  17  18
ENDBRANCH  16  17
ENDBRANCH  15  16
ENDBRANCH  14  15
ENDBRANCH  13  14
ENDBRANCH  12  13
ENDBRANCH   1  12
TORSDOF 16
ENDMDL
MODEL 3
REMARK VINA RESULT:    -4.892      1.364      2.405
REMARK INTER + INTRA:         -11.188
REMARK INTER:                 -10.115
REMARK INTRA:                  -1.072
REMARK UNBOUND:                -1.719
REMARK SMILES CCCCCCCCCCCCCCCCCC(=O)[O-]
REMARK SMILES IDX 10 1 11 2 12 3 13 4 14 5 15 6 16 7 17 8 18 9 19 10 20 11
REMARK SMILES IDX 9 12 8 13 7 14 6 15 5 16 4 17 3 18 2 19 1 20
REMARK H PARENT
REMARK Flexibility Score: inf
ROOT
ATOM      1  C   UNL     1      12.309 -23.757 -14.030  1.00  0.00     0.000 C 
ENDROOT
BRANCH   1   2
ATOM      2  C   UNL     1      11.517 -25.065 -14.183  1.00  0.00     0.000 C 
BRANCH   2   3
ATOM      3  C   UNL     1      12.422 -26.309 -14.140  1.00  0.00     0.000 C 
BRANCH   3   4
ATOM      4  C   UNL     1      13.891 -25.967 -13.832  1.00  0.00     0.000 C 
BRANCH   4   5
ATOM      5  C   UNL     1      14.915 -26.465 -14.873  1.00  0.00     0.000 C 
BRANCH   5   6
ATOM      6  C   UNL     1      14.710 -27.914 -15.348  1.00  0.00     0.000 C 
BRANCH   6   7
ATOM      7  C   UNL     1      15.998 -28.749 -15.294  1.00  0.00     0.006 C 
BRANCH   7   8
ATOM      8  C   UNL     1      16.210 -29.338 -13.896  1.00  0.00     0.053 C 
BRANCH   8   9
ATOM      9  C   UNL     1      15.521 -30.660 -13.775  1.00  0.00     0.041 C 
ATOM     10  O   UNL     1      15.910 -31.643 -14.461  1.00  0.00    -0.550 OA
ATOM     11  O   UNL     1      14.481 -30.824 -12.869  1.00  0.00    -0.550 OA
ENDBRANCH   8   9
ENDBRANCH   7   8
ENDBRANCH   6   7
ENDBRANCH   5   6
ENDBRANCH   4   5
ENDBRANCH   3   4
ENDBRANCH   2   3
ENDBRANCH   1   2
BRANCH   1  12
ATOM     12  C   UNL     1      11.464 -22.515 -14.364  1.00  0.00     0.000 C 
BRANCH  12  13
ATOM     13  C   UNL     1      12.182 -21.195 -14.026  1.00  0.00    -0.000 C 
BRANCH  13  14
ATOM     14  C   UNL     1      11.794 -19.996 -14.912  1.00  0.00    -0.000 C 
BRANCH  14  15
ATOM     15  C   UNL     1      12.360 -20.094 -16.336  1.00  0.00    -0.000 C 
BRANCH  15  16
ATOM     16  C   UNL     1      13.227 -18.870 -16.667  1.00  0.00    -0.000 C 
BRANCH  16  17
ATOM     17  C   UNL     1      14.099 -18.422 -15.482  1.00  0.00    -0.000 C 
BRANCH  17  18
ATOM     18  C   UNL     1      14.015 -16.906 -15.227  1.00  0.00    -0.000 C 
BRANCH  18  19
ATOM     19  C   UNL     1      14.066 -16.558 -13.732  1.00  0.00    -0.003 C 
ATOM     20  C   UNL     1      12.865 -17.097 -12.955  1.00  0.00     0.004 C 
ENDBRANCH  18  19
ENDBRANCH  17  18
ENDBRANCH  16  17
ENDBRANCH  15  16
ENDBRANCH  14  15
ENDBRANCH  13  14
ENDBRANCH  12  13
ENDBRANCH   1  12
TORSDOF 16
ENDMDL
MODEL 4
REMARK VINA RESULT:    -4.884      1.712      3.121
REMARK INTER + INTRA:         -11.171
REMARK INTER:                  -8.905
REMARK INTRA:                  -2.266
REMARK UNBOUND:                -1.719
REMARK SMILES CCCCCCCCCCCCCCCCCC(=O)[O-]
REMARK SMILES IDX 10 1 11 2 12 3 13 4 14 5 15 6 16 7 17 8 18 9 19 10 20 11
REMARK SMILES IDX 9 12 8 13 7 14 6 15 5 16 4 17 3 18 2 19 1 20
REMARK H PARENT
REMARK Flexibility Score: inf
ROOT
ATOM      1  C   UNL     1      11.682 -19.909 -13.008  1.00  0.00     0.000 C 
ENDROOT
BRANCH   1   2
ATOM      2  C   UNL     1      11.382 -19.845 -14.515  1.00  0.00     0.000 C 
BRANCH   2   3
ATOM      3  C   UNL     1      11.680 -21.174 -15.230  1.00  0.00     0.000 C 
BRANCH   3   4
ATOM      4  C   UNL     1      12.128 -22.285 -14.262  1.00  0.00     0.000 C 
BRANCH   4   5
ATOM      5  C   UNL     1      11.101 -23.413 -14.034  1.00  0.00     0.000 C 
BRANCH   5   6
ATOM      6  C   UNL     1      11.672 -24.840 -14.107  1.00  0.00     0.000 C 
BRANCH   6   7
ATOM      7  C   UNL     1      13.168 -24.902 -13.766  1.00  0.00     0.006 C 
BRANCH   7   8
ATOM      8  C   UNL     1      13.768 -26.250 -14.177  1.00  0.00     0.053 C 
BRANCH   8   9
ATOM      9  C   UNL     1      15.239 -26.273 -13.909  1.00  0.00     0.041 C 
ATOM     10  O   UNL     1      16.057 -26.272 -14.866  1.00  0.00    -0.550 OA
ATOM     11  O   UNL     1      15.709 -26.244 -12.603  1.00  0.00    -0.550 OA
ENDBRANCH   8   9
ENDBRANCH   7   8
ENDBRANCH   6   7
ENDBRANCH   5   6
ENDBRANCH   4   5
ENDBRANCH   3   4
ENDBRANCH   2   3
ENDBRANCH   1   2
BRANCH   1  12
ATOM     12  C   UNL     1      11.813 -18.513 -12.374  1.00  0.00     0.000 C 
BRANCH  12  13
ATOM     13  C   UNL     1      11.843 -17.381 -13.418  1.00  0.00    -0.000 C 
BRANCH  13  14
ATOM     14  C   UNL     1      13.114 -16.513 -13.405  1.00  0.00    -0.000 C 
BRANCH  14  15
ATOM     15  C   UNL     1      13.858 -16.516 -14.748  1.00  0.00    -0.000 C 
BRANCH  15  16
ATOM     16  C   UNL     1      15.069 -17.460 -14.702  1.00  0.00    -0.000 C 
BRANCH  16  17
ATOM     17  C   UNL     1      14.697 -18.920 -15.009  1.00  0.00    -0.000 C 
BRANCH  17  18
ATOM     18  C   UNL     1      15.269 -19.906 -13.974  1.00  0.00    -0.000 C 
BRANCH  18  19
ATOM     19  C   UNL     1      15.862 -19.192 -12.749  1.00  0.00    -0.003 C 
ATOM     20  C   UNL     1      15.110 -19.509 -11.457  1.00  0.00     0.004 C 
ENDBRANCH  18  19
ENDBRANCH  17  18
ENDBRANCH  16  17
ENDBRANCH  15  16
ENDBRANCH  14  15
ENDBRANCH  13  14
ENDBRANCH  12  13
ENDBRANCH   1  12
TORSDOF 16
ENDMDL
MODEL 5
REMARK VINA RESULT:    -4.858      5.160      8.191
REMARK INTER + INTRA:         -11.121
REMARK INTER:                  -8.313
REMARK INTRA:                  -2.808
REMARK UNBOUND:                -1.719
REMARK SMILES CCCCCCCCCCCCCCCCCC(=O)[O-]
REMARK SMILES IDX 10 1 11 2 12 3 13 4 14 5 15 6 16 7 17 8 18 9 19 10 20 11
REMARK SMILES IDX 9 12 8 13 7 14 6 15 5 16 4 17 3 18 2 19 1 20
REMARK H PARENT
REMARK Flexibility Score: inf
ROOT
ATOM      1  C   UNL     1      15.549 -18.027 -13.516  1.00  0.00     0.000 C 
ENDROOT
BRANCH   1   2
ATOM      2  C   UNL     1      15.391 -16.925 -14.576  1.00  0.00     0.000 C 
BRANCH   2   3
ATOM      3  C   UNL     1      13.924 -16.500 -14.767  1.00  0.00     0.000 C 
BRANCH   3   4
ATOM      4  C   UNL     1      13.122 -16.519 -13.453  1.00  0.00     0.000 C 
BRANCH   4   5
ATOM      5  C   UNL     1      11.932 -17.501 -13.422  1.00  0.00     0.000 C 
BRANCH   5   6
ATOM      6  C   UNL     1      11.632 -18.119 -12.046  1.00  0.00     0.000 C 
BRANCH   6   7
ATOM      7  C   UNL     1      12.636 -17.688 -10.966  1.00  0.00     0.006 C 
BRANCH   7   8
ATOM      8  C   UNL     1      12.442 -18.501  -9.683  1.00  0.00     0.053 C 
BRANCH   8   9
ATOM      9  C   UNL     1      11.573 -17.759  -8.718  1.00  0.00     0.041 C 
ATOM     10  O   UNL     1      11.462 -16.507  -8.799  1.00  0.00    -0.550 OA
ATOM     11  O   UNL     1      10.844 -18.453  -7.761  1.00  0.00    -0.550 OA
ENDBRANCH   8   9
ENDBRANCH   7   8
ENDBRANCH   6   7
ENDBRANCH   5   6
ENDBRANCH   4   5
ENDBRANCH   3   4
ENDBRANCH   2   3
ENDBRANCH   1   2
BRANCH   1  12
ATOM     12  C   UNL     1      15.244 -19.428 -14.073  1.00  0.00     0.000 C 
BRANCH  12  13
ATOM     13  C   UNL     1      14.599 -20.359 -13.030  1.00  0.00    -0.000 C 
BRANCH  13  14
ATOM     14  C   UNL     1      14.608 -21.855 -13.396  1.00  0.00    -0.000 C 
BRANCH  14  15
ATOM     15  C   UNL     1      13.328 -22.306 -14.113  1.00  0.00    -0.000 C 
BRANCH  15  16
ATOM     16  C   UNL     1      12.128 -21.447 -13.684  1.00  0.00    -0.000 C 
BRANCH  16  17
ATOM     17  C   UNL     1      11.416 -20.783 -14.874  1.00  0.00    -0.000 C 
BRANCH  17  18
ATOM     18  C   UNL     1      12.319 -20.674 -16.116  1.00  0.00    -0.000 C 
BRANCH  18  19
ATOM     19  C   UNL     1      12.374 -19.246 -16.679  1.00  0.00    -0.003 C 
ATOM     20  C   UNL     1      13.208 -19.142 -17.956  1.00  0.00     0.004 C 
ENDBRANCH  18  19
ENDBRANCH  17  18
ENDBRANCH  16  17
ENDBRANCH  15  16
ENDBRANCH  14  15
ENDBRANCH  13  14
ENDBRANCH  12  13
ENDBRANCH   1  12
TORSDOF 16
ENDMDL
MODEL 6
REMARK VINA RESULT:    -4.852      6.195      8.253
REMARK INTER + INTRA:         -11.110
REMARK INTER:                  -8.261
REMARK INTRA:                  -2.849
REMARK UNBOUND:                -1.719
REMARK SMILES CCCCCCCCCCCCCCCCCC(=O)[O-]
REMARK SMILES IDX 10 1 11 2 12 3 13 4 14 5 15 6 16 7 17 8 18 9 19 10 20 11
REMARK SMILES IDX 9 12 8 13 7 14 6 15 5 16 4 17 3 18 2 19 1 20
REMARK H PARENT
REMARK Flexibility Score: inf
ROOT
ATOM      1  C   UNL     1      12.981 -19.203 -15.493  1.00  0.00     0.000 C 
ENDROOT
BRANCH   1   2
ATOM      2  C   UNL     1      11.525 -19.494 -15.092  1.00  0.00     0.000 C 
BRANCH   2   3
ATOM      3  C   UNL     1      11.046 -18.602 -13.933  1.00  0.00     0.000 C 
BRANCH   3   4
ATOM      4  C   UNL     1      11.150 -19.297 -12.563  1.00  0.00     0.000 C 
BRANCH   4   5
ATOM      5  C   UNL     1      10.788 -18.417 -11.349  1.00  0.00     0.000 C 
BRANCH   5   6
ATOM      6  C   UNL     1      10.586 -19.178 -10.028  1.00  0.00     0.000 C 
BRANCH   6   7
ATOM      7  C   UNL     1      11.417 -18.600  -8.872  1.00  0.00     0.006 C 
BRANCH   7   8
ATOM      8  C   UNL     1      11.617 -17.091  -9.044  1.00  0.00     0.053 C 
BRANCH   8   9
ATOM      9  C   UNL     1      10.831 -16.338  -8.018  1.00  0.00     0.041 C 
ATOM     10  O   UNL     1      10.777 -15.080  -8.059  1.00  0.00    -0.550 OA
ATOM     11  O   UNL     1      10.115 -17.026  -7.047  1.00  0.00    -0.550 OA
ENDBRANCH   8   9
ENDBRANCH   7   8
ENDBRANCH   6   7
ENDBRANCH   5   6
ENDBRANCH   4   5
ENDBRANCH   3   4
ENDBRANCH   2   3
ENDBRANCH   1   2
BRANCH   1  12
ATOM     12  C   UNL     1      13.374 -17.735 -15.255  1.00  0.00     0.000 C 
BRANCH  12  13
ATOM     13  C   UNL     1      14.875 -17.558 -14.961  1.00  0.00    -0.000 C 
BRANCH  13  14
ATOM     14  C   UNL     1      15.204 -16.642 -13.767  1.00  0.00    -0.000 C 
BRANCH  14  15
ATOM     15  C   UNL     1      14.127 -16.673 -12.673  1.00  0.00    -0.000 C 
BRANCH  15  16
ATOM     16  C   UNL     1      14.703 -17.208 -11.352  1.00  0.00    -0.000 C 
BRANCH  16  17
ATOM     17  C   UNL     1      14.381 -18.693 -11.121  1.00  0.00    -0.000 C 
BRANCH  17  18
ATOM     18  C   UNL     1      15.482 -19.627 -11.656  1.00  0.00    -0.000 C 
BRANCH  18  19
ATOM     19  C   UNL     1      14.943 -20.651 -12.666  1.00  0.00    -0.003 C 
ATOM     20  C   UNL     1      15.922 -20.934 -13.805  1.00  0.00     0.004 C 
ENDBRANCH  18  19
ENDBRANCH  17  18
ENDBRANCH  16  17
ENDBRANCH  15  16
ENDBRANCH  14  15
ENDBRANCH  13  14
ENDBRANCH  12  13
ENDBRANCH   1  12
TORSDOF 16
ENDMDL
MODEL 7
REMARK VINA RESULT:    -4.847      5.083      8.287
REMARK INTER + INTRA:         -11.099
REMARK INTER:                  -9.350
REMARK INTRA:                  -1.749
REMARK UNBOUND:                -1.719
REMARK SMILES CCCCCCCCCCCCCCCCCC(=O)[O-]
REMARK SMILES IDX 10 1 11 2 12 3 13 4 14 5 15 6 16 7 17 8 18 9 19 10 20 11
REMARK SMILES IDX 9 12 8 13 7 14 6 15 5 16 4 17 3 18 2 19 1 20
REMARK H PARENT
REMARK Flexibility Score: inf
ROOT
ATOM      1  C   UNL     1      14.817 -16.574 -13.996  1.00  0.00     0.000 C 
ENDROOT
BRANCH   1   2
ATOM      2  C   UNL     1      13.534 -16.416 -13.163  1.00  0.00     0.000 C 
BRANCH   2   3
ATOM      3  C   UNL     1      13.635 -17.107 -11.792  1.00  0.00     0.000 C 
BRANCH   3   4
ATOM      4  C   UNL     1      12.763 -18.371 -11.695  1.00  0.00     0.000 C 
BRANCH   4   5
ATOM      5  C   UNL     1      11.271 -18.120 -11.390  1.00  0.00     0.000 C 
BRANCH   5   6
ATOM      6  C   UNL     1      10.625 -19.123 -10.420  1.00  0.00     0.000 C 
BRANCH   6   7
ATOM      7  C   UNL     1      11.255 -19.088  -9.019  1.00  0.00     0.006 C 
BRANCH   7   8
ATOM      8  C   UNL     1      10.951 -17.762  -8.315  1.00  0.00     0.053 C 
BRANCH   8   9
ATOM      9  C   UNL     1      10.387 -18.009  -6.952  1.00  0.00     0.041 C 
ATOM     10  O   UNL     1      11.108 -18.514  -6.050  1.00  0.00    -0.550 OA
ATOM     11  O   UNL     1       9.082 -17.636  -6.660  1.00  0.00    -0.550 OA
ENDBRANCH   8   9
ENDBRANCH   7   8
ENDBRANCH   6   7
ENDBRANCH   5   6
ENDBRANCH   4   5
ENDBRANCH   3   4
ENDBRANCH   2   3
ENDBRANCH   1   2
BRANCH   1  12
ATOM     12  C   UNL     1      14.532 -17.044 -15.433  1.00  0.00     0.000 C 
BRANCH  12  13
ATOM     13  C   UNL     1      14.127 -18.527 -15.508  1.00  0.00    -0.000 C 
BRANCH  13  14
ATOM     14  C   UNL     1      13.240 -18.902 -16.710  1.00  0.00    -0.000 C 
BRANCH  14  15
ATOM     15  C   UNL     1      12.127 -19.896 -16.347  1.00  0.00    -0.000 C 
BRANCH  15  16
ATOM     16  C   UNL     1      11.630 -19.662 -14.912  1.00  0.00    -0.000 C 
BRANCH  16  17
ATOM     17  C   UNL     1      11.699 -20.930 -14.044  1.00  0.00    -0.000 C 
BRANCH  17  18
ATOM     18  C   UNL     1      13.005 -21.718 -14.255  1.00  0.00    -0.000 C 
BRANCH  18  19
ATOM     19  C   UNL     1      12.840 -23.216 -13.957  1.00  0.00    -0.003 C 
ATOM     20  C   UNL     1      11.389 -23.687 -14.062  1.00  0.00     0.004 C 
ENDBRANCH  18  19
ENDBRANCH  17  18
ENDBRANCH  16  17
ENDBRANCH  15  16
ENDBRANCH  14  15
ENDBRANCH  13  14
ENDBRANCH  12  13
ENDBRANCH   1  12
TORSDOF 16
ENDMDL
MODEL 8
REMARK VINA RESULT:    -4.843      2.486      4.951
REMARK INTER + INTRA:         -11.093
REMARK INTER:                  -9.108
REMARK INTRA:                  -1.985
REMARK UNBOUND:                -1.719
REMARK SMILES CCCCCCCCCCCCCCCCCC(=O)[O-]
REMARK SMILES IDX 10 1 11 2 12 3 13 4 14 5 15 6 16 7 17 8 18 9 19 10 20 11
REMARK SMILES IDX 9 12 8 13 7 14 6 15 5 16 4 17 3 18 2 19 1 20
REMARK H PARENT
REMARK Flexibility Score: inf
ROOT
ATOM      1  C   UNL     1      13.826 -17.336 -14.322  1.00  0.00     0.000 C 
ENDROOT
BRANCH   1   2
ATOM      2  C   UNL     1      14.046 -18.652 -15.086  1.00  0.00     0.000 C 
BRANCH   2   3
ATOM      3  C   UNL     1      13.242 -18.712 -16.397  1.00  0.00     0.000 C 
BRANCH   3   4
ATOM      4  C   UNL     1      12.495 -20.045 -16.579  1.00  0.00     0.000 C 
BRANCH   4   5
ATOM      5  C   UNL     1      12.654 -21.051 -15.420  1.00  0.00     0.000 C 
BRANCH   5   6
ATOM      6  C   UNL     1      11.383 -21.843 -15.064  1.00  0.00     0.000 C 
BRANCH   6   7
ATOM      7  C   UNL     1      11.632 -22.925 -14.002  1.00  0.00     0.006 C 
BRANCH   7   8
ATOM      8  C   UNL     1      13.131 -23.105 -13.745  1.00  0.00     0.053 C 
BRANCH   8   9
ATOM      9  C   UNL     1      13.522 -24.540 -13.906  1.00  0.00     0.041 C 
ATOM     10  O   UNL     1      12.644 -25.442 -13.882  1.00  0.00    -0.550 OA
ATOM     11  O   UNL     1      14.849 -24.878 -14.136  1.00  0.00    -0.550 OA
ENDBRANCH   8   9
ENDBRANCH   7   8
ENDBRANCH   6   7
ENDBRANCH   5   6
ENDBRANCH   4   5
ENDBRANCH   3   4
ENDBRANCH   2   3
ENDBRANCH   1   2
BRANCH   1  12
ATOM     12  C   UNL     1      13.481 -17.567 -12.840  1.00  0.00     0.000 C 
BRANCH  12  13
ATOM     13  C   UNL     1      12.954 -18.986 -12.562  1.00  0.00    -0.000 C 
BRANCH  13  14
ATOM     14  C   UNL     1      11.421 -19.134 -12.605  1.00  0.00    -0.000 C 
BRANCH  14  15
ATOM     15  C   UNL     1      10.709 -18.310 -11.523  1.00  0.00    -0.000 C 
BRANCH  15  16
ATOM     16  C   UNL     1      10.394 -19.175 -10.293  1.00  0.00    -0.000 C 
BRANCH  16  17
ATOM     17  C   UNL     1      11.361 -18.920  -9.124  1.00  0.00    -0.000 C 
BRANCH  17  18
ATOM     18  C   UNL     1      10.940 -17.717  -8.261  1.00  0.00    -0.000 C 
BRANCH  18  19
ATOM     19  C   UNL     1      11.842 -16.493  -8.481  1.00  0.00    -0.003 C 
ATOM     20  C   UNL     1      13.158 -16.841  -9.176  1.00  0.00     0.004 C 
ENDBRANCH  18  19
ENDBRANCH  17  18
ENDBRANCH  16  17
ENDBRANCH  15  16
ENDBRANCH  14  15
ENDBRANCH  13  14
ENDBRANCH  12  13
ENDBRANCH   1  12
TORSDOF 16
ENDMDL
MODEL 9
REMARK VINA RESULT:    -4.807      5.356      7.548
REMARK INTER + INTRA:         -11.023
REMARK INTER:                  -8.764
REMARK INTRA:                  -2.259
REMARK UNBOUND:                -1.719
REMARK SMILES CCCCCCCCCCCCCCCCCC(=O)[O-]
REMARK SMILES IDX 10 1 11 2 12 3 13 4 14 5 15 6 16 7 17 8 18 9 19 10 20 11
REMARK SMILES IDX 9 12 8 13 7 14 6 15 5 16 4 17 3 18 2 19 1 20
REMARK H PARENT
REMARK Flexibility Score: inf
ROOT
ATOM      1  C   UNL     1      11.299 -18.747 -13.901  1.00  0.00     0.000 C 
ENDROOT
BRANCH   1   2
ATOM      2  C   UNL     1      12.122 -20.043 -13.975  1.00  0.00     0.000 C 
BRANCH   2   3
ATOM      3  C   UNL     1      13.106 -20.047 -15.158  1.00  0.00     0.000 C 
BRANCH   3   4
ATOM      4  C   UNL     1      13.069 -18.739 -15.969  1.00  0.00     0.000 C 
BRANCH   4   5
ATOM      5  C   UNL     1      14.363 -17.901 -15.926  1.00  0.00     0.000 C 
BRANCH   5   6
ATOM      6  C   UNL     1      14.311 -16.666 -15.011  1.00  0.00     0.000 C 
BRANCH   6   7
ATOM      7  C   UNL     1      15.406 -16.674 -13.934  1.00  0.00     0.006 C 
BRANCH   7   8
ATOM      8  C   UNL     1      14.876 -17.252 -12.618  1.00  0.00     0.053 C 
BRANCH   8   9
ATOM      9  C   UNL     1      15.315 -18.673 -12.456  1.00  0.00     0.041 C 
ATOM     10  O   UNL     1      14.758 -19.415 -11.603  1.00  0.00    -0.550 OA
ATOM     11  O   UNL     1      16.304 -19.195 -13.279  1.00  0.00    -0.550 OA
ENDBRANCH   8   9
ENDBRANCH   7   8
ENDBRANCH   6   7
ENDBRANCH   5   6
ENDBRANCH   4   5
ENDBRANCH   3   4
ENDBRANCH   2   3
ENDBRANCH   1   2
BRANCH   1  12
ATOM     12  C   UNL     1      11.337 -18.105 -12.503  1.00  0.00     0.000 C 
BRANCH  12  13
ATOM     13  C   UNL     1      11.038 -19.108 -11.374  1.00  0.00    -0.000 C 
BRANCH  13  14
ATOM     14  C   UNL     1      10.959 -18.499  -9.962  1.00  0.00    -0.000 C 
BRANCH  14  15
ATOM     15  C   UNL     1      12.338 -18.168  -9.373  1.00  0.00    -0.000 C 
BRANCH  15  16
ATOM     16  C   UNL     1      12.315 -16.812  -8.651  1.00  0.00    -0.000 C 
BRANCH  16  17
ATOM     17  C   UNL     1      10.888 -16.291  -8.411  1.00  0.00    -0.000 C 
BRANCH  17  18
ATOM     18  C   UNL     1      10.478 -16.354  -6.929  1.00  0.00    -0.000 C 
BRANCH  18  19
ATOM     19  C   UNL     1       9.545 -17.538  -6.628  1.00  0.00    -0.003 C 
ATOM     20  C   UNL     1      10.222 -18.634  -5.807  1.00  0.00     0.004 C 
ENDBRANCH  18  19
ENDBRANCH  17  18
ENDBRANCH  16  17
ENDBRANCH  15  16
ENDBRANCH  14  15
ENDBRANCH  13  14
ENDBRANCH  12  13
ENDBRANCH   1  12
TORSDOF 16
ENDMDL
