MODEL 1
REMARK VINA RESULT:    -6.605      0.000      0.000
REMARK INTER + INTRA:          -8.978
REMARK INTER:                  -8.343
REMARK INTRA:                  -0.635
REMARK UNBOUND:                -0.635
REMARK SMILES O=C(C=Cc1ccc(O)cc1)c1ccc(O)cc1O
REMARK SMILES IDX 4 1 3 2 5 3 6 4 7 5 8 6 11 7 10 8 9 9 2 11 1 12 12 13 18 14
REMARK SMILES IDX 13 15 17 16 14 17 15 18 19 19 16 21
REMARK H PARENT 9 10 19 20 16 22
REMARK Flexibility Score: inf
ROOT
ATOM      1  C   UNL     1      17.555  20.844 -13.029  1.00  0.00     0.012 C 
ATOM      2  C   UNL     1      17.758  19.547 -12.759  1.00  0.00     0.053 C 
ENDROOT
BRANCH   1   3
ATOM      3  C   UNL     1      16.269  21.543 -12.784  1.00  0.00    -0.025 A 
ATOM      4  C   UNL     1      15.977  22.808 -13.337  1.00  0.00     0.012 A 
ATOM      5  C   UNL     1      14.745  23.421 -13.087  1.00  0.00     0.047 A 
ATOM      6  C   UNL     1      13.788  22.783 -12.295  1.00  0.00     0.115 A 
ATOM      7  C   UNL     1      15.292  20.904 -12.002  1.00  0.00     0.012 A 
ATOM      8  C   UNL     1      14.063  21.522 -11.754  1.00  0.00     0.047 A 
BRANCH   6   9
ATOM      9  O   UNL     1      12.566  23.409 -12.053  1.00  0.00    -0.508 OA
ATOM     10  H   UNL     1      12.350  23.818 -11.152  1.00  0.00     0.293 HD
ENDBRANCH   6   9
ENDBRANCH   1   3
BRANCH   2  11
ATOM     11  C   UNL     1      19.051  18.879 -13.032  1.00  0.00     0.189 C 
ATOM     12  O   UNL     1      19.647  19.087 -14.125  1.00  0.00    -0.289 OA
BRANCH  11  13
ATOM     13  C   UNL     1      19.638  17.927 -12.062  1.00  0.00     0.064 A 
ATOM     14  C   UNL     1      19.770  16.551 -12.354  1.00  0.00     0.130 A 
ATOM     15  C   UNL     1      20.052  18.401 -10.804  1.00  0.00     0.020 A 
ATOM     16  C   UNL     1      20.348  15.689 -11.409  1.00  0.00     0.093 A 
ATOM     17  C   UNL     1      20.619  17.532  -9.868  1.00  0.00     0.047 A 
ATOM     18  C   UNL     1      20.773  16.178 -10.168  1.00  0.00     0.119 A 
BRANCH  14  19
ATOM     19  O   UNL     1      19.309  16.035 -13.565  1.00  0.00    -0.507 OA
ATOM     20  H   UNL     1      18.322  15.878 -13.736  1.00  0.00     0.293 HD
ENDBRANCH  14  19
BRANCH  18  21
ATOM     21  O   UNL     1      21.343  15.325  -9.226  1.00  0.00    -0.508 OA
ATOM     22  H   UNL     1      21.286  14.317  -9.320  1.00  0.00     0.293 HD
ENDBRANCH  18  21
ENDBRANCH  11  13
ENDBRANCH   2  11
TORSDOF 6
ENDMDL
MODEL 2
REMARK VINA RESULT:    -6.384      0.173      1.117
REMARK INTER + INTRA:          -8.698
REMARK INTER:                  -8.079
REMARK INTRA:                  -0.619
REMARK UNBOUND:                -0.635
REMARK SMILES O=C(C=Cc1ccc(O)cc1)c1ccc(O)cc1O
REMARK SMILES IDX 4 1 3 2 5 3 6 4 7 5 8 6 11 7 10 8 9 9 2 11 1 12 12 13 18 14
REMARK SMILES IDX 13 15 17 16 14 17 15 18 19 19 16 21
REMARK H PARENT 9 10 19 20 16 22
REMARK Flexibility Score: inf
ROOT
ATOM      1  C   UNL     1      17.438  20.746 -13.170  1.00  0.00     0.012 C 
ATOM      2  C   UNL     1      17.768  19.569 -12.621  1.00  0.00     0.053 C 
ENDROOT
BRANCH   1   3
ATOM      3  C   UNL     1      16.191  21.482 -12.850  1.00  0.00    -0.025 A 
ATOM      4  C   UNL     1      15.117  20.887 -12.156  1.00  0.00     0.012 A 
ATOM      5  C   UNL     1      13.966  21.628 -11.865  1.00  0.00     0.047 A 
ATOM      6  C   UNL     1      13.873  22.966 -12.253  1.00  0.00     0.115 A 
ATOM      7  C   UNL     1      16.093  22.834 -13.219  1.00  0.00     0.012 A 
ATOM      8  C   UNL     1      14.939  23.569 -12.929  1.00  0.00     0.047 A 
BRANCH   6   9
ATOM      9  O   UNL     1      12.718  23.689 -11.958  1.00  0.00    -0.508 OA
ATOM     10  H   UNL     1      12.038  23.351 -11.288  1.00  0.00     0.293 HD
ENDBRANCH   6   9
ENDBRANCH   1   3
BRANCH   2  11
ATOM     11  C   UNL     1      19.015  18.855 -12.978  1.00  0.00     0.189 C 
ATOM     12  O   UNL     1      19.519  19.005 -14.125  1.00  0.00    -0.289 OA
BRANCH  11  13
ATOM     13  C   UNL     1      19.660  17.922 -12.025  1.00  0.00     0.064 A 
ATOM     14  C   UNL     1      19.788  16.543 -12.303  1.00  0.00     0.130 A 
ATOM     15  C   UNL     1      20.136  18.419 -10.799  1.00  0.00     0.020 A 
ATOM     16  C   UNL     1      20.421  15.699 -11.377  1.00  0.00     0.093 A 
ATOM     17  C   UNL     1      20.759  17.569  -9.881  1.00  0.00     0.047 A 
ATOM     18  C   UNL     1      20.907  16.211 -10.167  1.00  0.00     0.119 A 
BRANCH  14  19
ATOM     19  O   UNL     1      19.266  16.004 -13.480  1.00  0.00    -0.507 OA
ATOM     20  H   UNL     1      18.718  15.152 -13.478  1.00  0.00     0.293 HD
ENDBRANCH  14  19
BRANCH  18  21
ATOM     21  O   UNL     1      21.533  15.378  -9.244  1.00  0.00    -0.508 OA
ATOM     22  H   UNL     1      22.197  14.669  -9.535  1.00  0.00     0.293 HD
ENDBRANCH  18  21
ENDBRANCH  11  13
ENDBRANCH   2  11
TORSDOF 6
ENDMDL
MODEL 3
REMARK VINA RESULT:    -6.341      2.129      8.580
REMARK INTER + INTRA:          -8.644
REMARK INTER:                  -8.224
REMARK INTRA:                  -0.420
REMARK UNBOUND:                -0.635
REMARK SMILES O=C(C=Cc1ccc(O)cc1)c1ccc(O)cc1O
REMARK SMILES IDX 4 1 3 2 5 3 6 4 7 5 8 6 11 7 10 8 9 9 2 11 1 12 12 13 18 14
REMARK SMILES IDX 13 15 17 16 14 17 15 18 19 19 16 21
REMARK H PARENT 9 10 19 20 16 22
REMARK Flexibility Score: inf
ROOT
ATOM      1  C   UNL     1      16.302  20.590 -12.203  1.00  0.00     0.012 C 
ATOM      2  C   UNL     1      15.839  21.786 -12.590  1.00  0.00     0.053 C 
ENDROOT
BRANCH   1   3
ATOM      3  C   UNL     1      17.620  20.046 -12.611  1.00  0.00    -0.025 A 
ATOM      4  C   UNL     1      18.360  20.580 -13.687  1.00  0.00     0.012 A 
ATOM      5  C   UNL     1      19.605  20.041 -14.025  1.00  0.00     0.047 A 
ATOM      6  C   UNL     1      20.134  18.974 -13.294  1.00  0.00     0.115 A 
ATOM      7  C   UNL     1      18.170  18.984 -11.872  1.00  0.00     0.012 A 
ATOM      8  C   UNL     1      19.414  18.448 -12.216  1.00  0.00     0.047 A 
BRANCH   6   9
ATOM      9  O   UNL     1      21.375  18.447 -13.646  1.00  0.00    -0.508 OA
ATOM     10  H   UNL     1      21.913  18.827 -14.415  1.00  0.00     0.293 HD
ENDBRANCH   6   9
ENDBRANCH   1   3
BRANCH   2  11
ATOM     11  C   UNL     1      14.510  22.289 -12.176  1.00  0.00     0.189 C 
ATOM     12  O   UNL     1      13.761  21.568 -11.459  1.00  0.00    -0.289 OA
BRANCH  11  13
ATOM     13  C   UNL     1      14.017  23.610 -12.630  1.00  0.00     0.064 A 
ATOM     14  C   UNL     1      12.765  24.120 -12.219  1.00  0.00     0.130 A 
ATOM     15  C   UNL     1      14.806  24.366 -13.514  1.00  0.00     0.020 A 
ATOM     16  C   UNL     1      12.346  25.384 -12.663  1.00  0.00     0.093 A 
ATOM     17  C   UNL     1      14.376  25.621 -13.955  1.00  0.00     0.047 A 
ATOM     18  C   UNL     1      13.151  26.134 -13.529  1.00  0.00     0.119 A 
BRANCH  14  19
ATOM     19  O   UNL     1      11.927  23.367 -11.396  1.00  0.00    -0.507 OA
ATOM     20  H   UNL     1      10.986  23.119 -11.678  1.00  0.00     0.293 HD
ENDBRANCH  14  19
BRANCH  18  21
ATOM     21  O   UNL     1      12.738  27.388 -13.974  1.00  0.00    -0.508 OA
ATOM     22  H   UNL     1      11.976  27.491 -14.635  1.00  0.00     0.293 HD
ENDBRANCH  18  21
ENDBRANCH  11  13
ENDBRANCH   2  11
TORSDOF 6
ENDMDL
MODEL 4
REMARK VINA RESULT:    -6.124      2.146      8.618
REMARK INTER + INTRA:          -8.369
REMARK INTER:                  -7.727
REMARK INTRA:                  -0.642
REMARK UNBOUND:                -0.635
REMARK SMILES O=C(C=Cc1ccc(O)cc1)c1ccc(O)cc1O
REMARK SMILES IDX 4 1 3 2 5 3 6 4 7 5 8 6 11 7 10 8 9 9 2 11 1 12 12 13 18 14
REMARK SMILES IDX 13 15 17 16 14 17 15 18 19 19 16 21
REMARK H PARENT 9 10 19 20 16 22
REMARK Flexibility Score: inf
ROOT
ATOM      1  C   UNL     1      16.580  22.059 -13.147  1.00  0.00     0.012 C 
ATOM      2  C   UNL     1      15.410  22.279 -12.533  1.00  0.00     0.053 C 
ENDROOT
BRANCH   1   3
ATOM      3  C   UNL     1      17.377  20.819 -12.979  1.00  0.00    -0.025 A 
ATOM      4  C   UNL     1      18.493  20.521 -13.788  1.00  0.00     0.012 A 
ATOM      5  C   UNL     1      19.221  19.344 -13.582  1.00  0.00     0.047 A 
ATOM      6  C   UNL     1      18.855  18.457 -12.567  1.00  0.00     0.115 A 
ATOM      7  C   UNL     1      17.029  19.928 -11.950  1.00  0.00     0.012 A 
ATOM      8  C   UNL     1      17.758  18.752 -11.749  1.00  0.00     0.047 A 
BRANCH   6   9
ATOM      9  O   UNL     1      19.589  17.288 -12.376  1.00  0.00    -0.508 OA
ATOM     10  H   UNL     1      19.882  16.714 -13.158  1.00  0.00     0.293 HD
ENDBRANCH   6   9
ENDBRANCH   1   3
BRANCH   2  11
ATOM     11  C   UNL     1      14.649  23.536 -12.713  1.00  0.00     0.189 C 
ATOM     12  O   UNL     1      15.264  24.636 -12.797  1.00  0.00    -0.289 OA
BRANCH  11  13
ATOM     13  C   UNL     1      13.168  23.535 -12.748  1.00  0.00     0.064 A 
ATOM     14  C   UNL     1      12.400  24.237 -11.793  1.00  0.00     0.130 A 
ATOM     15  C   UNL     1      12.509  22.794 -13.744  1.00  0.00     0.020 A 
ATOM     16  C   UNL     1      10.999  24.220 -11.875  1.00  0.00     0.093 A 
ATOM     17  C   UNL     1      11.114  22.778 -13.813  1.00  0.00     0.047 A 
ATOM     18  C   UNL     1      10.356  23.493 -12.884  1.00  0.00     0.119 A 
BRANCH  14  19
ATOM     19  O   UNL     1      13.020  24.927 -10.751  1.00  0.00    -0.507 OA
ATOM     20  H   UNL     1      13.818  24.543 -10.258  1.00  0.00     0.293 HD
ENDBRANCH  14  19
BRANCH  18  21
ATOM     21  O   UNL     1       8.965  23.470 -12.967  1.00  0.00    -0.508 OA
ATOM     22  H   UNL     1       8.398  24.193 -12.539  1.00  0.00     0.293 HD
ENDBRANCH  18  21
ENDBRANCH  11  13
ENDBRANCH   2  11
TORSDOF 6
ENDMDL
MODEL 5
REMARK VINA RESULT:    -5.902     10.328     13.599
REMARK INTER + INTRA:          -8.089
REMARK INTER:                  -7.404
REMARK INTRA:                  -0.686
REMARK UNBOUND:                -0.635
REMARK SMILES O=C(C=Cc1ccc(O)cc1)c1ccc(O)cc1O
REMARK SMILES IDX 4 1 3 2 5 3 6 4 7 5 8 6 11 7 10 8 9 9 2 11 1 12 12 13 18 14
REMARK SMILES IDX 13 15 17 16 14 17 15 18 19 19 16 21
REMARK H PARENT 9 10 19 20 16 22
REMARK Flexibility Score: inf
ROOT
ATOM      1  C   UNL     1       8.404  13.468  -9.028  1.00  0.00     0.012 C 
ATOM      2  C   UNL     1       7.862  14.469  -9.735  1.00  0.00     0.053 C 
ENDROOT
BRANCH   1   3
ATOM      3  C   UNL     1       9.798  12.994  -9.210  1.00  0.00    -0.025 A 
ATOM      4  C   UNL     1      10.438  12.149  -8.279  1.00  0.00     0.012 A 
ATOM      5  C   UNL     1      11.750  11.718  -8.502  1.00  0.00     0.047 A 
ATOM      6  C   UNL     1      12.436  12.112  -9.653  1.00  0.00     0.115 A 
ATOM      7  C   UNL     1      10.492  13.370 -10.373  1.00  0.00     0.012 A 
ATOM      8  C   UNL     1      11.804  12.937 -10.590  1.00  0.00     0.047 A 
BRANCH   6   9
ATOM      9  O   UNL     1      13.743  11.676  -9.859  1.00  0.00    -0.508 OA
ATOM     10  H   UNL     1      14.494  12.327 -10.057  1.00  0.00     0.293 HD
ENDBRANCH   6   9
ENDBRANCH   1   3
BRANCH   2  11
ATOM     11  C   UNL     1       6.462  14.905  -9.536  1.00  0.00     0.189 C 
ATOM     12  O   UNL     1       5.576  14.578 -10.375  1.00  0.00    -0.289 OA
BRANCH  11  13
ATOM     13  C   UNL     1       6.084  15.766  -8.391  1.00  0.00     0.064 A 
ATOM     14  C   UNL     1       4.829  15.652  -7.755  1.00  0.00     0.130 A 
ATOM     15  C   UNL     1       6.992  16.741  -7.942  1.00  0.00     0.020 A 
ATOM     16  C   UNL     1       4.521  16.479  -6.663  1.00  0.00     0.093 A 
ATOM     17  C   UNL     1       6.673  17.564  -6.858  1.00  0.00     0.047 A 
ATOM     18  C   UNL     1       5.442  17.433  -6.214  1.00  0.00     0.119 A 
BRANCH  14  19
ATOM     19  O   UNL     1       3.878  14.741  -8.217  1.00  0.00    -0.507 OA
ATOM     20  H   UNL     1       3.743  14.569  -9.207  1.00  0.00     0.293 HD
ENDBRANCH  14  19
BRANCH  18  21
ATOM     21  O   UNL     1       5.140  18.258  -5.133  1.00  0.00    -0.508 OA
ATOM     22  H   UNL     1       5.609  18.155  -4.241  1.00  0.00     0.293 HD
ENDBRANCH  18  21
ENDBRANCH  11  13
ENDBRANCH   2  11
TORSDOF 6
ENDMDL
MODEL 6
REMARK VINA RESULT:    -5.758     13.788     15.869
REMARK INTER + INTRA:          -7.908
REMARK INTER:                  -7.259
REMARK INTRA:                  -0.649
REMARK UNBOUND:                -0.635
REMARK SMILES O=C(C=Cc1ccc(O)cc1)c1ccc(O)cc1O
REMARK SMILES IDX 4 1 3 2 5 3 6 4 7 5 8 6 11 7 10 8 9 9 2 11 1 12 12 13 18 14
REMARK SMILES IDX 13 15 17 16 14 17 15 18 19 19 16 21
REMARK H PARENT 9 10 19 20 16 22
REMARK Flexibility Score: inf
ROOT
ATOM      1  C   UNL     1      12.865  12.498  -1.454  1.00  0.00     0.012 C 
ATOM      2  C   UNL     1      12.969  11.751  -0.346  1.00  0.00     0.053 C 
ENDROOT
BRANCH   1   3
ATOM      3  C   UNL     1      14.024  12.892  -2.292  1.00  0.00    -0.025 A 
ATOM      4  C   UNL     1      15.291  13.184  -1.744  1.00  0.00     0.012 A 
ATOM      5  C   UNL     1      16.357  13.539  -2.577  1.00  0.00     0.047 A 
ATOM      6  C   UNL     1      16.180  13.599  -3.961  1.00  0.00     0.115 A 
ATOM      7  C   UNL     1      13.863  12.939  -3.687  1.00  0.00     0.012 A 
ATOM      8  C   UNL     1      14.931  13.296  -4.515  1.00  0.00     0.047 A 
BRANCH   6   9
ATOM      9  O   UNL     1      17.251  13.956  -4.778  1.00  0.00    -0.508 OA
ATOM     10  H   UNL     1      17.710  14.855  -4.686  1.00  0.00     0.293 HD
ENDBRANCH   6   9
ENDBRANCH   1   3
BRANCH   2  11
ATOM     11  C   UNL     1      11.791  11.391   0.474  1.00  0.00     0.189 C 
ATOM     12  O   UNL     1      10.906  10.624   0.001  1.00  0.00    -0.289 OA
BRANCH  11  13
ATOM     13  C   UNL     1      11.602  11.955   1.831  1.00  0.00     0.064 A 
ATOM     14  C   UNL     1      10.467  12.725   2.167  1.00  0.00     0.130 A 
ATOM     15  C   UNL     1      12.594  11.740   2.803  1.00  0.00     0.020 A 
ATOM     16  C   UNL     1      10.324  13.227   3.470  1.00  0.00     0.093 A 
ATOM     17  C   UNL     1      12.445  12.250   4.096  1.00  0.00     0.047 A 
ATOM     18  C   UNL     1      11.311  12.989   4.434  1.00  0.00     0.119 A 
BRANCH  14  19
ATOM     19  O   UNL     1       9.496  13.015   1.207  1.00  0.00    -0.507 OA
ATOM     20  H   UNL     1       9.031  13.914   1.175  1.00  0.00     0.293 HD
ENDBRANCH  14  19
BRANCH  18  21
ATOM     21  O   UNL     1      11.174  13.487   5.728  1.00  0.00    -0.508 OA
ATOM     22  H   UNL     1      11.971  13.575   6.348  1.00  0.00     0.293 HD
ENDBRANCH  18  21
ENDBRANCH  11  13
ENDBRANCH   2  11
TORSDOF 6
ENDMDL
MODEL 7
REMARK VINA RESULT:    -5.585      2.457      4.207
REMARK INTER + INTRA:          -7.689
REMARK INTER:                  -7.189
REMARK INTRA:                  -0.500
REMARK UNBOUND:                -0.635
REMARK SMILES O=C(C=Cc1ccc(O)cc1)c1ccc(O)cc1O
REMARK SMILES IDX 4 1 3 2 5 3 6 4 7 5 8 6 11 7 10 8 9 9 2 11 1 12 12 13 18 14
REMARK SMILES IDX 13 15 17 16 14 17 15 18 19 19 16 21
REMARK H PARENT 9 10 19 20 16 22
REMARK Flexibility Score: inf
ROOT
ATOM      1  C   UNL     1      20.121  17.605 -11.951  1.00  0.00     0.012 C 
ATOM      2  C   UNL     1      19.854  16.295 -12.034  1.00  0.00     0.053 C 
ENDROOT
BRANCH   1   3
ATOM      3  C   UNL     1      19.144  18.667 -12.296  1.00  0.00    -0.025 A 
ATOM      4  C   UNL     1      17.982  18.904 -11.533  1.00  0.00     0.012 A 
ATOM      5  C   UNL     1      17.097  19.926 -11.892  1.00  0.00     0.047 A 
ATOM      6  C   UNL     1      17.360  20.729 -13.005  1.00  0.00     0.115 A 
ATOM      7  C   UNL     1      19.407  19.491 -13.404  1.00  0.00     0.012 A 
ATOM      8  C   UNL     1      18.518  20.510 -13.760  1.00  0.00     0.047 A 
BRANCH   6   9
ATOM      9  O   UNL     1      16.467  21.741 -13.351  1.00  0.00    -0.508 OA
ATOM     10  H   UNL     1      15.940  21.709 -14.215  1.00  0.00     0.293 HD
ENDBRANCH   6   9
ENDBRANCH   1   3
BRANCH   2  11
ATOM     11  C   UNL     1      20.860  15.263 -11.696  1.00  0.00     0.189 C 
ATOM     12  O   UNL     1      20.995  14.250 -12.437  1.00  0.00    -0.289 OA
BRANCH  11  13
ATOM     13  C   UNL     1      21.683  15.371 -10.469  1.00  0.00     0.064 A 
ATOM     14  C   UNL     1      21.252  14.842  -9.232  1.00  0.00     0.130 A 
ATOM     15  C   UNL     1      22.917  16.042 -10.532  1.00  0.00     0.020 A 
ATOM     16  C   UNL     1      22.073  14.954  -8.100  1.00  0.00     0.093 A 
ATOM     17  C   UNL     1      23.724  16.154  -9.396  1.00  0.00     0.047 A 
ATOM     18  C   UNL     1      23.308  15.608  -8.181  1.00  0.00     0.119 A 
BRANCH  14  19
ATOM     19  O   UNL     1      20.003  14.229  -9.119  1.00  0.00    -0.507 OA
ATOM     20  H   UNL     1      19.274  14.376  -9.807  1.00  0.00     0.293 HD
ENDBRANCH  14  19
BRANCH  18  21
ATOM     21  O   UNL     1      24.125  15.725  -7.058  1.00  0.00    -0.508 OA
ATOM     22  H   UNL     1      23.735  15.811  -6.127  1.00  0.00     0.293 HD
ENDBRANCH  18  21
ENDBRANCH  11  13
ENDBRANCH   2  11
TORSDOF 6
ENDMDL
MODEL 8
REMARK VINA RESULT:    -5.579     11.255     14.452
REMARK INTER + INTRA:          -7.682
REMARK INTER:                  -7.029
REMARK INTRA:                  -0.653
REMARK UNBOUND:                -0.635
REMARK SMILES O=C(C=Cc1ccc(O)cc1)c1ccc(O)cc1O
REMARK SMILES IDX 4 1 3 2 5 3 6 4 7 5 8 6 11 7 10 8 9 9 2 11 1 12 12 13 18 14
REMARK SMILES IDX 13 15 17 16 14 17 15 18 19 19 16 21
REMARK H PARENT 9 10 19 20 16 22
REMARK Flexibility Score: inf
ROOT
ATOM      1  C   UNL     1       8.762  12.748  -8.256  1.00  0.00     0.012 C 
ATOM      2  C   UNL     1       7.529  12.878  -7.749  1.00  0.00     0.053 C 
ENDROOT
BRANCH   1   3
ATOM      3  C   UNL     1       9.815  11.897  -7.650  1.00  0.00    -0.025 A 
ATOM      4  C   UNL     1       9.690  11.341  -6.360  1.00  0.00     0.012 A 
ATOM      5  C   UNL     1      10.706  10.533  -5.836  1.00  0.00     0.047 A 
ATOM      6  C   UNL     1      11.850  10.263  -6.590  1.00  0.00     0.115 A 
ATOM      7  C   UNL     1      10.963  11.604  -8.405  1.00  0.00     0.012 A 
ATOM      8  C   UNL     1      11.977  10.799  -7.876  1.00  0.00     0.047 A 
BRANCH   6   9
ATOM      9  O   UNL     1      12.854   9.460  -6.053  1.00  0.00    -0.508 OA
ATOM     10  H   UNL     1      13.075   8.553  -6.448  1.00  0.00     0.293 HD
ENDBRANCH   6   9
ENDBRANCH   1   3
BRANCH   2  11
ATOM     11  C   UNL     1       6.508  13.750  -8.373  1.00  0.00     0.189 C 
ATOM     12  O   UNL     1       5.915  13.371  -9.421  1.00  0.00    -0.289 OA
BRANCH  11  13
ATOM     13  C   UNL     1       6.202  15.088  -7.817  1.00  0.00     0.064 A 
ATOM     14  C   UNL     1       4.918  15.417  -7.330  1.00  0.00     0.130 A 
ATOM     15  C   UNL     1       7.212  16.066  -7.798  1.00  0.00     0.020 A 
ATOM     16  C   UNL     1       4.679  16.694  -6.798  1.00  0.00     0.093 A 
ATOM     17  C   UNL     1       6.961  17.337  -7.272  1.00  0.00     0.047 A 
ATOM     18  C   UNL     1       5.699  17.653  -6.768  1.00  0.00     0.119 A 
BRANCH  14  19
ATOM     19  O   UNL     1       3.875  14.493  -7.396  1.00  0.00    -0.507 OA
ATOM     20  H   UNL     1       3.226  14.367  -6.628  1.00  0.00     0.293 HD
ENDBRANCH  14  19
BRANCH  18  21
ATOM     21  O   UNL     1       5.465  18.922  -6.244  1.00  0.00    -0.508 OA
ATOM     22  H   UNL     1       5.148  19.051  -5.290  1.00  0.00     0.293 HD
ENDBRANCH  18  21
ENDBRANCH  11  13
ENDBRANCH   2  11
TORSDOF 6
ENDMDL
MODEL 9
REMARK VINA RESULT:    -5.526      9.868     10.932
REMARK INTER + INTRA:          -7.615
REMARK INTER:                  -6.954
REMARK INTRA:                  -0.661
REMARK UNBOUND:                -0.635
REMARK SMILES O=C(C=Cc1ccc(O)cc1)c1ccc(O)cc1O
REMARK SMILES IDX 4 1 3 2 5 3 6 4 7 5 8 6 11 7 10 8 9 9 2 11 1 12 12 13 18 14
REMARK SMILES IDX 13 15 17 16 14 17 15 18 19 19 16 21
REMARK H PARENT 9 10 19 20 16 22
REMARK Flexibility Score: inf
ROOT
ATOM      1  C   UNL     1       7.719  14.108  -8.879  1.00  0.00     0.012 C 
ATOM      2  C   UNL     1       8.820  14.340  -9.606  1.00  0.00     0.053 C 
ENDROOT
BRANCH   1   3
ATOM      3  C   UNL     1       6.967  15.168  -8.164  1.00  0.00    -0.025 A 
ATOM      4  C   UNL     1       5.690  14.947  -7.606  1.00  0.00     0.012 A 
ATOM      5  C   UNL     1       5.026  15.975  -6.930  1.00  0.00     0.047 A 
ATOM      6  C   UNL     1       5.625  17.230  -6.791  1.00  0.00     0.115 A 
ATOM      7  C   UNL     1       7.567  16.429  -8.003  1.00  0.00     0.012 A 
ATOM      8  C   UNL     1       6.898  17.454  -7.328  1.00  0.00     0.047 A 
BRANCH   6   9
ATOM      9  O   UNL     1       4.950  18.245  -6.117  1.00  0.00    -0.508 OA
ATOM     10  H   UNL     1       4.174  18.043  -5.497  1.00  0.00     0.293 HD
ENDBRANCH   6   9
ENDBRANCH   1   3
BRANCH   2  11
ATOM     11  C   UNL     1       9.554  13.253 -10.293  1.00  0.00     0.189 C 
ATOM     12  O   UNL     1       9.133  12.812 -11.399  1.00  0.00    -0.289 OA
BRANCH  11  13
ATOM     13  C   UNL     1      10.753  12.634  -9.682  1.00  0.00     0.064 A 
ATOM     14  C   UNL     1      11.989  12.574 -10.362  1.00  0.00     0.130 A 
ATOM     15  C   UNL     1      10.649  12.068  -8.399  1.00  0.00     0.020 A 
ATOM     16  C   UNL     1      13.102  11.991  -9.736  1.00  0.00     0.093 A 
ATOM     17  C   UNL     1      11.762  11.484  -7.788  1.00  0.00     0.047 A 
ATOM     18  C   UNL     1      12.990  11.448  -8.450  1.00  0.00     0.119 A 
BRANCH  14  19
ATOM     19  O   UNL     1      12.109  13.065 -11.662  1.00  0.00    -0.507 OA
ATOM     20  H   UNL     1      12.014  14.052 -11.869  1.00  0.00     0.293 HD
ENDBRANCH  14  19
BRANCH  18  21
ATOM     21  O   UNL     1      14.091  10.865  -7.827  1.00  0.00    -0.508 OA
ATOM     22  H   UNL     1      14.107  10.698  -6.828  1.00  0.00     0.293 HD
ENDBRANCH  18  21
ENDBRANCH  11  13
ENDBRANCH   2  11
TORSDOF 6
ENDMDL
