MODEL 1
REMARK VINA RESULT:    -4.125      0.000      0.000
REMARK INTER + INTRA:          -5.611
REMARK INTER:                  -5.331
REMARK INTRA:                  -0.280
REMARK UNBOUND:                -0.280
REMARK SMILES CCCCCCC(=O)[O-]
REMARK SMILES IDX 5 1 6 2 7 3 8 4 9 5 4 6 3 7 2 8 1 9
REMARK H PARENT
REMARK Flexibility Score: inf
ROOT
ATOM      1  C   UNL     1     -24.216 -29.233  40.968  1.00  0.00     0.006 C 
ENDROOT
BRANCH   1   2
ATOM      2  C   UNL     1     -25.314 -28.949  39.935  1.00  0.00     0.053 C 
BRANCH   2   3
ATOM      3  C   UNL     1     -25.337 -30.021  38.891  1.00  0.00     0.041 C 
ATOM      4  O   UNL     1     -25.612 -31.208  39.208  1.00  0.00    -0.550 OA
ATOM      5  O   UNL     1     -25.005 -29.718  37.577  1.00  0.00    -0.550 OA
ENDBRANCH   2   3
ENDBRANCH   1   2
BRANCH   1   6
ATOM      6  C   UNL     1     -22.812 -29.280  40.344  1.00  0.00     0.000 C 
BRANCH   6   7
ATOM      7  C   UNL     1     -22.393 -27.937  39.729  1.00  0.00    -0.000 C 
BRANCH   7   8
ATOM      8  C   UNL     1     -22.040 -28.101  38.245  1.00  0.00    -0.003 C 
ATOM      9  C   UNL     1     -20.967 -27.101  37.820  1.00  0.00     0.004 C 
ENDBRANCH   7   8
ENDBRANCH   6   7
ENDBRANCH   1   6
TORSDOF 5
ENDMDL
MODEL 2
REMARK VINA RESULT:    -4.067      2.177      2.616
REMARK INTER + INTRA:          -5.536
REMARK INTER:                  -5.327
REMARK INTRA:                  -0.209
REMARK UNBOUND:                -0.280
REMARK SMILES CCCCCCC(=O)[O-]
REMARK SMILES IDX 5 1 6 2 7 3 8 4 9 5 4 6 3 7 2 8 1 9
REMARK H PARENT
REMARK Flexibility Score: inf
ROOT
ATOM      1  C   UNL     1     -23.200 -29.288  40.277  1.00  0.00     0.006 C 
ENDROOT
BRANCH   1   2
ATOM      2  C   UNL     1     -24.046 -28.857  41.482  1.00  0.00     0.053 C 
BRANCH   2   3
ATOM      3  C   UNL     1     -24.998 -27.773  41.089  1.00  0.00     0.041 C 
ATOM      4  O   UNL     1     -25.904 -28.000  40.243  1.00  0.00    -0.550 OA
ATOM      5  O   UNL     1     -24.856 -26.497  41.619  1.00  0.00    -0.550 OA
ENDBRANCH   2   3
ENDBRANCH   1   2
BRANCH   1   6
ATOM      6  C   UNL     1     -22.381 -28.131  39.684  1.00  0.00     0.000 C 
BRANCH   6   7
ATOM      7  C   UNL     1     -22.246 -28.224  38.157  1.00  0.00    -0.000 C 
BRANCH   7   8
ATOM      8  C   UNL     1     -21.147 -27.282  37.646  1.00  0.00    -0.003 C 
ATOM      9  C   UNL     1     -20.528 -26.485  38.791  1.00  0.00     0.004 C 
ENDBRANCH   7   8
ENDBRANCH   6   7
ENDBRANCH   1   6
TORSDOF 5
ENDMDL
MODEL 3
REMARK VINA RESULT:    -4.025      1.396      2.137
REMARK INTER + INTRA:          -5.482
REMARK INTER:                  -5.252
REMARK INTRA:                  -0.229
REMARK UNBOUND:                -0.280
REMARK SMILES CCCCCCC(=O)[O-]
REMARK SMILES IDX 5 1 6 2 7 3 8 4 9 5 4 6 3 7 2 8 1 9
REMARK H PARENT
REMARK Flexibility Score: inf
ROOT
ATOM      1  C   UNL     1     -22.594 -28.150  39.802  1.00  0.00     0.006 C 
ENDROOT
BRANCH   1   2
ATOM      2  C   UNL     1     -23.330 -29.416  40.258  1.00  0.00     0.053 C 
BRANCH   2   3
ATOM      3  C   UNL     1     -24.678 -29.496  39.614  1.00  0.00     0.041 C 
ATOM      4  O   UNL     1     -24.996 -30.505  38.929  1.00  0.00    -0.550 OA
ATOM      5  O   UNL     1     -25.566 -28.434  39.727  1.00  0.00    -0.550 OA
ENDBRANCH   2   3
ENDBRANCH   1   2
BRANCH   1   6
ATOM      6  C   UNL     1     -22.175 -28.207  38.325  1.00  0.00     0.000 C 
BRANCH   6   7
ATOM      7  C   UNL     1     -21.096 -27.171  37.975  1.00  0.00    -0.000 C 
BRANCH   7   8
ATOM      8  C   UNL     1     -20.737 -26.321  39.201  1.00  0.00    -0.003 C 
ATOM      9  C   UNL     1     -19.261 -25.931  39.187  1.00  0.00     0.004 C 
ENDBRANCH   7   8
ENDBRANCH   6   7
ENDBRANCH   1   6
TORSDOF 5
ENDMDL
MODEL 4
REMARK VINA RESULT:    -3.948      1.902      2.847
REMARK INTER + INTRA:          -5.382
REMARK INTER:                  -5.211
REMARK INTRA:                  -0.172
REMARK UNBOUND:                -0.280
REMARK SMILES CCCCCCC(=O)[O-]
REMARK SMILES IDX 5 1 6 2 7 3 8 4 9 5 4 6 3 7 2 8 1 9
REMARK H PARENT
REMARK Flexibility Score: inf
ROOT
ATOM      1  C   UNL     1     -22.055 -28.179  38.294  1.00  0.00     0.006 C 
ENDROOT
BRANCH   1   2
ATOM      2  C   UNL     1     -22.597 -28.548  39.682  1.00  0.00     0.053 C 
BRANCH   2   3
ATOM      3  C   UNL     1     -23.976 -29.116  39.569  1.00  0.00     0.041 C 
ATOM      4  O   UNL     1     -24.594 -29.493  40.600  1.00  0.00    -0.550 OA
ATOM      5  O   UNL     1     -24.561 -29.277  38.319  1.00  0.00    -0.550 OA
ENDBRANCH   2   3
ENDBRANCH   1   2
BRANCH   1   6
ATOM      6  C   UNL     1     -21.193 -26.907  38.315  1.00  0.00     0.000 C 
BRANCH   6   7
ATOM      7  C   UNL     1     -20.895 -26.417  39.740  1.00  0.00    -0.000 C 
BRANCH   7   8
ATOM      8  C   UNL     1     -19.991 -25.178  39.715  1.00  0.00    -0.003 C 
ATOM      9  C   UNL     1     -18.555 -25.551  39.356  1.00  0.00     0.004 C 
ENDBRANCH   7   8
ENDBRANCH   6   7
ENDBRANCH   1   6
TORSDOF 5
ENDMDL
MODEL 5
REMARK VINA RESULT:    -3.845      3.460      4.193
REMARK INTER + INTRA:          -5.249
REMARK INTER:                  -4.904
REMARK INTRA:                  -0.346
REMARK UNBOUND:                -0.280
REMARK SMILES CCCCCCC(=O)[O-]
REMARK SMILES IDX 5 1 6 2 7 3 8 4 9 5 4 6 3 7 2 8 1 9
REMARK H PARENT
REMARK Flexibility Score: inf
ROOT
ATOM      1  C   UNL     1     -26.004 -27.530  40.775  1.00  0.00     0.006 C 
ENDROOT
BRANCH   1   2
ATOM      2  C   UNL     1     -25.250 -26.869  41.936  1.00  0.00     0.053 C 
BRANCH   2   3
ATOM      3  C   UNL     1     -24.908 -25.453  41.597  1.00  0.00     0.041 C 
ATOM      4  O   UNL     1     -23.704 -25.095  41.504  1.00  0.00    -0.550 OA
ATOM      5  O   UNL     1     -25.919 -24.514  41.434  1.00  0.00    -0.550 OA
ENDBRANCH   2   3
ENDBRANCH   1   2
BRANCH   1   6
ATOM      6  C   UNL     1     -25.492 -28.946  40.466  1.00  0.00     0.000 C 
BRANCH   6   7
ATOM      7  C   UNL     1     -24.123 -29.231  41.101  1.00  0.00    -0.000 C 
BRANCH   7   8
ATOM      8  C   UNL     1     -23.023 -29.278  40.032  1.00  0.00    -0.003 C 
ATOM      9  C   UNL     1     -22.290 -27.943  39.937  1.00  0.00     0.004 C 
ENDBRANCH   7   8
ENDBRANCH   6   7
ENDBRANCH   1   6
TORSDOF 5
ENDMDL
MODEL 6
REMARK VINA RESULT:    -3.844      3.972      5.430
REMARK INTER + INTRA:          -5.248
REMARK INTER:                  -5.052
REMARK INTRA:                  -0.197
REMARK UNBOUND:                -0.280
REMARK SMILES CCCCCCC(=O)[O-]
REMARK SMILES IDX 5 1 6 2 7 3 8 4 9 5 4 6 3 7 2 8 1 9
REMARK H PARENT
REMARK Flexibility Score: inf
ROOT
ATOM      1  C   UNL     1     -21.095 -26.962  38.354  1.00  0.00     0.006 C 
ENDROOT
BRANCH   1   2
ATOM      2  C   UNL     1     -21.015 -26.402  39.781  1.00  0.00     0.053 C 
BRANCH   2   3
ATOM      3  C   UNL     1     -20.203 -25.147  39.804  1.00  0.00     0.041 C 
ATOM      4  O   UNL     1     -18.945 -25.204  39.752  1.00  0.00    -0.550 OA
ATOM      5  O   UNL     1     -20.830 -23.914  39.933  1.00  0.00    -0.550 OA
ENDBRANCH   2   3
ENDBRANCH   1   2
BRANCH   1   6
ATOM      6  C   UNL     1     -22.084 -28.132  38.232  1.00  0.00     0.000 C 
BRANCH   6   7
ATOM      7  C   UNL     1     -22.642 -28.580  39.591  1.00  0.00    -0.000 C 
BRANCH   7   8
ATOM      8  C   UNL     1     -23.983 -29.304  39.421  1.00  0.00    -0.003 C 
ATOM      9  C   UNL     1     -24.490 -29.196  37.986  1.00  0.00     0.004 C 
ENDBRANCH   7   8
ENDBRANCH   6   7
ENDBRANCH   1   6
TORSDOF 5
ENDMDL
MODEL 7
REMARK VINA RESULT:    -3.812      2.630      3.781
REMARK INTER + INTRA:          -5.207
REMARK INTER:                  -4.857
REMARK INTRA:                  -0.350
REMARK UNBOUND:                -0.280
REMARK SMILES CCCCCCC(=O)[O-]
REMARK SMILES IDX 5 1 6 2 7 3 8 4 9 5 4 6 3 7 2 8 1 9
REMARK H PARENT
REMARK Flexibility Score: inf
ROOT
ATOM      1  C   UNL     1     -24.594 -28.901  40.908  1.00  0.00     0.006 C 
ENDROOT
BRANCH   1   2
ATOM      2  C   UNL     1     -23.783 -29.433  39.720  1.00  0.00     0.053 C 
BRANCH   2   3
ATOM      3  C   UNL     1     -22.668 -28.493  39.387  1.00  0.00     0.041 C 
ATOM      4  O   UNL     1     -22.120 -27.812  40.293  1.00  0.00    -0.550 OA
ATOM      5  O   UNL     1     -22.267 -28.332  38.067  1.00  0.00    -0.550 OA
ENDBRANCH   2   3
ENDBRANCH   1   2
BRANCH   1   6
ATOM      6  C   UNL     1     -25.839 -28.113  40.470  1.00  0.00     0.000 C 
BRANCH   6   7
ATOM      7  C   UNL     1     -26.081 -26.864  41.330  1.00  0.00    -0.000 C 
BRANCH   7   8
ATOM      8  C   UNL     1     -24.839 -26.522  42.162  1.00  0.00    -0.003 C 
ATOM      9  C   UNL     1     -24.148 -25.269  41.632  1.00  0.00     0.004 C 
ENDBRANCH   7   8
ENDBRANCH   6   7
ENDBRANCH   1   6
TORSDOF 5
ENDMDL
MODEL 8
REMARK VINA RESULT:    -3.755      2.831      4.630
REMARK INTER + INTRA:          -5.133
REMARK INTER:                  -4.917
REMARK INTRA:                  -0.216
REMARK UNBOUND:                -0.280
REMARK SMILES CCCCCCC(=O)[O-]
REMARK SMILES IDX 5 1 6 2 7 3 8 4 9 5 4 6 3 7 2 8 1 9
REMARK H PARENT
REMARK Flexibility Score: inf
ROOT
ATOM      1  C   UNL     1     -22.618 -28.472  39.410  1.00  0.00     0.006 C 
ENDROOT
BRANCH   1   2
ATOM      2  C   UNL     1     -21.893 -27.193  39.848  1.00  0.00     0.053 C 
BRANCH   2   3
ATOM      3  C   UNL     1     -20.897 -26.778  38.812  1.00  0.00     0.041 C 
ATOM      4  O   UNL     1     -19.937 -26.023  39.122  1.00  0.00    -0.550 OA
ATOM      5  O   UNL     1     -21.056 -27.183  37.493  1.00  0.00    -0.550 OA
ENDBRANCH   2   3
ENDBRANCH   1   2
BRANCH   1   6
ATOM      6  C   UNL     1     -23.070 -29.334  40.600  1.00  0.00     0.000 C 
BRANCH   6   7
ATOM      7  C   UNL     1     -24.191 -28.674  41.416  1.00  0.00    -0.000 C 
BRANCH   7   8
ATOM      8  C   UNL     1     -25.461 -28.513  40.570  1.00  0.00    -0.003 C 
ATOM      9  C   UNL     1     -26.205 -27.230  40.932  1.00  0.00     0.004 C 
ENDBRANCH   7   8
ENDBRANCH   6   7
ENDBRANCH   1   6
TORSDOF 5
ENDMDL
MODEL 9
REMARK VINA RESULT:    -3.728      2.761      4.596
REMARK INTER + INTRA:          -5.098
REMARK INTER:                  -4.908
REMARK INTRA:                  -0.190
REMARK UNBOUND:                -0.280
REMARK SMILES CCCCCCC(=O)[O-]
REMARK SMILES IDX 5 1 6 2 7 3 8 4 9 5 4 6 3 7 2 8 1 9
REMARK H PARENT
REMARK Flexibility Score: inf
ROOT
ATOM      1  C   UNL     1     -22.574 -28.478  39.540  1.00  0.00     0.006 C 
ENDROOT
BRANCH   1   2
ATOM      2  C   UNL     1     -21.870 -27.163  39.901  1.00  0.00     0.053 C 
BRANCH   2   3
ATOM      3  C   UNL     1     -20.911 -26.772  38.822  1.00  0.00     0.041 C 
ATOM      4  O   UNL     1     -21.139 -27.088  37.624  1.00  0.00    -0.550 OA
ATOM      5  O   UNL     1     -19.737 -26.103  39.145  1.00  0.00    -0.550 OA
ENDBRANCH   2   3
ENDBRANCH   1   2
BRANCH   1   6
ATOM      6  C   UNL     1     -23.112 -29.220  40.775  1.00  0.00     0.000 C 
BRANCH   6   7
ATOM      7  C   UNL     1     -24.644 -29.183  40.865  1.00  0.00    -0.000 C 
BRANCH   7   8
ATOM      8  C   UNL     1     -25.273 -29.081  39.469  1.00  0.00    -0.003 C 
ATOM      9  C   UNL     1     -25.790 -30.436  38.996  1.00  0.00     0.004 C 
ENDBRANCH   7   8
ENDBRANCH   6   7
ENDBRANCH   1   6
TORSDOF 5
ENDMDL
