MODEL 1
REMARK VINA RESULT:    -6.087      0.000      0.000
REMARK INTER + INTRA:          -6.443
REMARK INTER:                  -6.443
REMARK INTRA:                   0.000
REMARK UNBOUND:                 0.000
REMARK SMILES O=c1ccc2cc(O)c(O)cc2o1
REMARK SMILES IDX 4 1 3 2 2 3 1 4 13 5 12 6 11 7 9 8 7 9 6 10 5 11 8 12 10 14
REMARK H PARENT 8 13 10 15
REMARK Flexibility Score: inf
ROOT
ATOM      1  C   UNL     1      11.279  10.862  15.485  1.00  0.00     0.019 A 
ATOM      2  C   UNL     1      12.614  10.953  15.091  1.00  0.00     0.094 A 
ATOM      3  C   UNL     1      12.993  10.429  13.850  1.00  0.00     0.336 A 
ATOM      4  O   UNL     1      14.193  10.502  13.478  1.00  0.00    -0.246 OA
ATOM      5  O   UNL     1      12.091   9.854  13.059  1.00  0.00    -0.423 OA
ATOM      6  C   UNL     1      10.807   9.747  13.395  1.00  0.00     0.142 A 
ATOM      7  C   UNL     1       9.905   9.132  12.523  1.00  0.00     0.098 A 
ATOM      8  C   UNL     1       8.554   9.014  12.868  1.00  0.00     0.161 A 
ATOM      9  C   UNL     1       8.098   9.518  14.101  1.00  0.00     0.158 A 
ATOM     10  C   UNL     1       9.001  10.136  14.980  1.00  0.00     0.062 A 
ATOM     11  C   UNL     1      10.353  10.252  14.632  1.00  0.00     0.022 A 
ENDROOT
BRANCH   9  12
ATOM     12  O   UNL     1       6.753   9.402  14.447  1.00  0.00    -0.504 OA
ATOM     13  H   UNL     1       6.187  10.216  14.659  1.00  0.00     0.293 HD
ENDBRANCH   9  12
BRANCH   8  14
ATOM     14  O   UNL     1       7.679   8.396  11.976  1.00  0.00    -0.504 OA
ATOM     15  H   UNL     1       6.755   8.765  11.784  1.00  0.00     0.293 HD
ENDBRANCH   8  14
TORSDOF 2
ENDMDL
MODEL 2
REMARK VINA RESULT:    -5.936      1.260      5.046
REMARK INTER + INTRA:          -6.283
REMARK INTER:                  -6.283
REMARK INTRA:                   0.000
REMARK UNBOUND:                 0.000
REMARK SMILES O=c1ccc2cc(O)c(O)cc2o1
REMARK SMILES IDX 4 1 3 2 2 3 1 4 13 5 12 6 11 7 9 8 7 9 6 10 5 11 8 12 10 14
REMARK H PARENT 8 13 10 15
REMARK Flexibility Score: inf
ROOT
ATOM      1  C   UNL     1       9.531   8.821  12.859  1.00  0.00     0.019 A 
ATOM      2  C   UNL     1       8.166   8.737  13.133  1.00  0.00     0.094 A 
ATOM      3  C   UNL     1       7.633   9.513  14.168  1.00  0.00     0.336 A 
ATOM      4  O   UNL     1       6.404   9.451  14.430  1.00  0.00    -0.246 OA
ATOM      5  O   UNL     1       8.419  10.319  14.878  1.00  0.00    -0.423 OA
ATOM      6  C   UNL     1       9.726  10.429  14.650  1.00  0.00     0.142 A 
ATOM      7  C   UNL     1      10.501  11.292  15.429  1.00  0.00     0.098 A 
ATOM      8  C   UNL     1      11.877  11.413  15.196  1.00  0.00     0.161 A 
ATOM      9  C   UNL     1      12.484  10.663  14.171  1.00  0.00     0.158 A 
ATOM     10  C   UNL     1      11.709   9.796  13.386  1.00  0.00     0.062 A 
ATOM     11  C   UNL     1      10.333   9.676  13.622  1.00  0.00     0.022 A 
ENDROOT
BRANCH   9  12
ATOM     12  O   UNL     1      13.852  10.784  13.937  1.00  0.00    -0.504 OA
ATOM     13  H   UNL     1      14.316  11.685  13.949  1.00  0.00     0.293 HD
ENDBRANCH   9  12
BRANCH   8  14
ATOM     14  O   UNL     1      12.623  12.283  15.990  1.00  0.00    -0.504 OA
ATOM     15  H   UNL     1      13.538  12.617  15.711  1.00  0.00     0.293 HD
ENDBRANCH   8  14
TORSDOF 2
ENDMDL
MODEL 3
REMARK VINA RESULT:    -5.840      1.722      2.824
REMARK INTER + INTRA:          -6.181
REMARK INTER:                  -6.181
REMARK INTRA:                   0.000
REMARK UNBOUND:                 0.000
REMARK SMILES O=c1ccc2cc(O)c(O)cc2o1
REMARK SMILES IDX 4 1 3 2 2 3 1 4 13 5 12 6 11 7 9 8 7 9 6 10 5 11 8 12 10 14
REMARK H PARENT 8 13 10 15
REMARK Flexibility Score: inf
ROOT
ATOM      1  C   UNL     1      11.278   9.744  11.706  1.00  0.00     0.019 A 
ATOM      2  C   UNL     1      12.537  10.247  11.376  1.00  0.00     0.094 A 
ATOM      3  C   UNL     1      13.327  10.814  12.382  1.00  0.00     0.336 A 
ATOM      4  O   UNL     1      14.465  11.273  12.103  1.00  0.00    -0.246 OA
ATOM      5  O   UNL     1      12.882  10.870  13.635  1.00  0.00    -0.423 OA
ATOM      6  C   UNL     1      11.688  10.402  13.993  1.00  0.00     0.142 A 
ATOM      7  C   UNL     1      11.275  10.489  15.325  1.00  0.00     0.098 A 
ATOM      8  C   UNL     1      10.021   9.999  15.711  1.00  0.00     0.161 A 
ATOM      9  C   UNL     1       9.171   9.415  14.753  1.00  0.00     0.158 A 
ATOM     10  C   UNL     1       9.582   9.326  13.415  1.00  0.00     0.062 A 
ATOM     11  C   UNL     1      10.837   9.817  13.032  1.00  0.00     0.022 A 
ENDROOT
BRANCH   9  12
ATOM     12  O   UNL     1       7.923   8.926  15.135  1.00  0.00    -0.504 OA
ATOM     13  H   UNL     1       7.777   8.491  16.039  1.00  0.00     0.293 HD
ENDBRANCH   9  12
BRANCH   8  14
ATOM     14  O   UNL     1       9.638  10.100  17.048  1.00  0.00    -0.504 OA
ATOM     15  H   UNL     1       9.549  10.994  17.517  1.00  0.00     0.293 HD
ENDBRANCH   8  14
TORSDOF 2
ENDMDL
MODEL 4
REMARK VINA RESULT:    -5.755      1.424      4.435
REMARK INTER + INTRA:          -6.091
REMARK INTER:                  -6.091
REMARK INTRA:                   0.000
REMARK UNBOUND:                 0.000
REMARK SMILES O=c1ccc2cc(O)c(O)cc2o1
REMARK SMILES IDX 4 1 3 2 2 3 1 4 13 5 12 6 11 7 9 8 7 9 6 10 5 11 8 12 10 14
REMARK H PARENT 8 13 10 15
REMARK Flexibility Score: inf
ROOT
ATOM      1  C   UNL     1       8.659   9.798  14.280  1.00  0.00     0.019 A 
ATOM      2  C   UNL     1       8.108   9.044  13.244  1.00  0.00     0.094 A 
ATOM      3  C   UNL     1       8.943   8.592  12.216  1.00  0.00     0.336 A 
ATOM      4  O   UNL     1       8.464   7.911  11.272  1.00  0.00    -0.246 OA
ATOM      5  O   UNL     1      10.243   8.877  12.231  1.00  0.00    -0.423 OA
ATOM      6  C   UNL     1      10.809   9.592  13.201  1.00  0.00     0.142 A 
ATOM      7  C   UNL     1      12.180   9.860  13.162  1.00  0.00     0.098 A 
ATOM      8  C   UNL     1      12.783  10.612  14.178  1.00  0.00     0.161 A 
ATOM      9  C   UNL     1      12.006  11.101  15.245  1.00  0.00     0.158 A 
ATOM     10  C   UNL     1      10.629  10.834  15.287  1.00  0.00     0.062 A 
ATOM     11  C   UNL     1      10.028  10.082  14.269  1.00  0.00     0.022 A 
ENDROOT
BRANCH   9  12
ATOM     12  O   UNL     1      12.605  11.848  16.257  1.00  0.00    -0.504 OA
ATOM     13  H   UNL     1      13.606  11.825  16.414  1.00  0.00     0.293 HD
ENDBRANCH   9  12
BRANCH   8  14
ATOM     14  O   UNL     1      14.153  10.861  14.111  1.00  0.00    -0.504 OA
ATOM     15  H   UNL     1      14.654  11.321  14.862  1.00  0.00     0.293 HD
ENDBRANCH   8  14
TORSDOF 2
ENDMDL
MODEL 5
REMARK VINA RESULT:    -5.731      1.831      2.538
REMARK INTER + INTRA:          -6.066
REMARK INTER:                  -6.066
REMARK INTRA:                   0.000
REMARK UNBOUND:                 0.000
REMARK SMILES O=c1ccc2cc(O)c(O)cc2o1
REMARK SMILES IDX 4 1 3 2 2 3 1 4 13 5 12 6 11 7 9 8 7 9 6 10 5 11 8 12 10 14
REMARK H PARENT 8 13 10 15
REMARK Flexibility Score: inf
ROOT
ATOM      1  C   UNL     1      12.928  10.774  13.531  1.00  0.00     0.019 A 
ATOM      2  C   UNL     1      13.284  10.627  12.190  1.00  0.00     0.094 A 
ATOM      3  C   UNL     1      12.375  10.032  11.308  1.00  0.00     0.336 A 
ATOM      4  O   UNL     1      12.678   9.891  10.095  1.00  0.00    -0.246 OA
ATOM      5  O   UNL     1      11.189   9.614  11.745  1.00  0.00    -0.423 OA
ATOM      6  C   UNL     1      10.810   9.734  13.015  1.00  0.00     0.142 A 
ATOM      7  C   UNL     1       9.552   9.276  13.415  1.00  0.00     0.098 A 
ATOM      8  C   UNL     1       9.145   9.398  14.750  1.00  0.00     0.161 A 
ATOM      9  C   UNL     1      10.007   9.988  15.694  1.00  0.00     0.158 A 
ATOM     10  C   UNL     1      11.270  10.449  15.296  1.00  0.00     0.062 A 
ATOM     11  C   UNL     1      11.675  10.325  13.961  1.00  0.00     0.022 A 
ENDROOT
BRANCH   9  12
ATOM     12  O   UNL     1       9.603  10.111  17.022  1.00  0.00    -0.504 OA
ATOM     13  H   UNL     1       9.810  10.942  17.566  1.00  0.00     0.293 HD
ENDBRANCH   9  12
BRANCH   8  14
ATOM     14  O   UNL     1       7.884   8.932  15.117  1.00  0.00    -0.504 OA
ATOM     15  H   UNL     1       7.714   8.487  16.011  1.00  0.00     0.293 HD
ENDBRANCH   8  14
TORSDOF 2
ENDMDL
MODEL 6
REMARK VINA RESULT:    -5.610      1.884      4.324
REMARK INTER + INTRA:          -5.938
REMARK INTER:                  -5.938
REMARK INTRA:                   0.000
REMARK UNBOUND:                 0.000
REMARK SMILES O=c1ccc2cc(O)c(O)cc2o1
REMARK SMILES IDX 4 1 3 2 2 3 1 4 13 5 12 6 11 7 9 8 7 9 6 10 5 11 8 12 10 14
REMARK H PARENT 8 13 10 15
REMARK Flexibility Score: inf
ROOT
ATOM      1  C   UNL     1      11.227   9.540  11.740  1.00  0.00     0.019 A 
ATOM      2  C   UNL     1      10.370   8.825  10.903  1.00  0.00     0.094 A 
ATOM      3  C   UNL     1       9.189   8.296  11.435  1.00  0.00     0.336 A 
ATOM      4  O   UNL     1       8.403   7.648  10.696  1.00  0.00    -0.246 OA
ATOM      5  O   UNL     1       8.889   8.475  12.719  1.00  0.00    -0.423 OA
ATOM      6  C   UNL     1       9.679   9.150  13.552  1.00  0.00     0.142 A 
ATOM      7  C   UNL     1       9.313   9.305  14.891  1.00  0.00     0.098 A 
ATOM      8  C   UNL     1      10.137  10.014  15.774  1.00  0.00     0.161 A 
ATOM      9  C   UNL     1      11.342  10.575  15.310  1.00  0.00     0.158 A 
ATOM     10  C   UNL     1      11.713  10.422  13.966  1.00  0.00     0.062 A 
ATOM     11  C   UNL     1      10.887   9.712  13.085  1.00  0.00     0.022 A 
ENDROOT
BRANCH   9  12
ATOM     12  O   UNL     1      12.163  11.282  16.187  1.00  0.00    -0.504 OA
ATOM     13  H   UNL     1      13.163  11.356  16.035  1.00  0.00     0.293 HD
ENDBRANCH   9  12
BRANCH   8  14
ATOM     14  O   UNL     1       9.743  10.151  17.104  1.00  0.00    -0.504 OA
ATOM     15  H   UNL     1       9.203  10.946  17.427  1.00  0.00     0.293 HD
ENDBRANCH   8  14
TORSDOF 2
ENDMDL
MODEL 7
REMARK VINA RESULT:    -5.417      2.028      3.806
REMARK INTER + INTRA:          -5.734
REMARK INTER:                  -5.734
REMARK INTRA:                   0.000
REMARK UNBOUND:                 0.000
REMARK SMILES O=c1ccc2cc(O)c(O)cc2o1
REMARK SMILES IDX 4 1 3 2 2 3 1 4 13 5 12 6 11 7 9 8 7 9 6 10 5 11 8 12 10 14
REMARK H PARENT 8 13 10 15
REMARK Flexibility Score: inf
ROOT
ATOM      1  C   UNL     1       9.055   8.546  12.607  1.00  0.00     0.019 A 
ATOM      2  C   UNL     1       9.575   8.418  11.319  1.00  0.00     0.094 A 
ATOM      3  C   UNL     1      10.832   8.966  11.038  1.00  0.00     0.336 A 
ATOM      4  O   UNL     1      11.318   8.861   9.882  1.00  0.00    -0.246 OA
ATOM      5  O   UNL     1      11.518   9.598  11.987  1.00  0.00    -0.423 OA
ATOM      6  C   UNL     1      11.058   9.742  13.228  1.00  0.00     0.142 A 
ATOM      7  C   UNL     1      11.824  10.417  14.182  1.00  0.00     0.098 A 
ATOM      8  C   UNL     1      11.348  10.573  15.490  1.00  0.00     0.161 A 
ATOM      9  C   UNL     1      10.092  10.048  15.847  1.00  0.00     0.158 A 
ATOM     10  C   UNL     1       9.320   9.370  14.891  1.00  0.00     0.062 A 
ATOM     11  C   UNL     1       9.799   9.216  13.584  1.00  0.00     0.022 A 
ENDROOT
BRANCH   9  12
ATOM     12  O   UNL     1       9.617  10.202  17.148  1.00  0.00    -0.504 OA
ATOM     13  H   UNL     1       8.786  10.745  17.350  1.00  0.00     0.293 HD
ENDBRANCH   9  12
BRANCH   8  14
ATOM     14  O   UNL     1      12.137  11.250  16.420  1.00  0.00    -0.504 OA
ATOM     15  H   UNL     1      13.065  11.588  16.194  1.00  0.00     0.293 HD
ENDBRANCH   8  14
TORSDOF 2
ENDMDL
MODEL 8
REMARK VINA RESULT:    -5.022      2.192      4.587
REMARK INTER + INTRA:          -5.315
REMARK INTER:                  -5.315
REMARK INTRA:                   0.000
REMARK UNBOUND:                 0.000
REMARK SMILES O=c1ccc2cc(O)c(O)cc2o1
REMARK SMILES IDX 4 1 3 2 2 3 1 4 13 5 12 6 11 7 9 8 7 9 6 10 5 11 8 12 10 14
REMARK H PARENT 8 13 10 15
REMARK Flexibility Score: inf
ROOT
ATOM      1  C   UNL     1       9.453   9.350  13.480  1.00  0.00     0.019 A 
ATOM      2  C   UNL     1       9.089   9.330  14.826  1.00  0.00     0.094 A 
ATOM      3  C   UNL     1      10.046   9.659  15.792  1.00  0.00     0.336 A 
ATOM      4  O   UNL     1       9.736   9.647  17.012  1.00  0.00    -0.246 OA
ATOM      5  O   UNL     1      11.284   9.986  15.430  1.00  0.00    -0.423 OA
ATOM      6  C   UNL     1      11.672  10.017  14.157  1.00  0.00     0.142 A 
ATOM      7  C   UNL     1      12.987  10.367  13.836  1.00  0.00     0.098 A 
ATOM      8  C   UNL     1      13.405  10.403  12.500  1.00  0.00     0.161 A 
ATOM      9  C   UNL     1      12.497  10.085  11.472  1.00  0.00     0.158 A 
ATOM     10  C   UNL     1      11.176   9.732  11.790  1.00  0.00     0.062 A 
ATOM     11  C   UNL     1      10.761   9.697  13.128  1.00  0.00     0.022 A 
ENDROOT
BRANCH   9  12
ATOM     12  O   UNL     1      12.910  10.120  10.142  1.00  0.00    -0.504 OA
ATOM     13  H   UNL     1      13.893  10.129   9.891  1.00  0.00     0.293 HD
ENDBRANCH   9  12
BRANCH   8  14
ATOM     14  O   UNL     1      14.722  10.757  12.213  1.00  0.00    -0.504 OA
ATOM     15  H   UNL     1      15.427  10.067  11.981  1.00  0.00     0.293 HD
ENDBRANCH   8  14
TORSDOF 2
ENDMDL
MODEL 9
REMARK VINA RESULT:    -5.003      1.356      4.467
REMARK INTER + INTRA:          -5.295
REMARK INTER:                  -5.295
REMARK INTRA:                   0.000
REMARK UNBOUND:                 0.000
REMARK SMILES O=c1ccc2cc(O)c(O)cc2o1
REMARK SMILES IDX 4 1 3 2 2 3 1 4 13 5 12 6 11 7 9 8 7 9 6 10 5 11 8 12 10 14
REMARK H PARENT 8 13 10 15
REMARK Flexibility Score: inf
ROOT
ATOM      1  C   UNL     1      10.624  10.118  15.593  1.00  0.00     0.019 A 
ATOM      2  C   UNL     1       9.250   9.880  15.589  1.00  0.00     0.094 A 
ATOM      3  C   UNL     1       8.617   9.577  14.378  1.00  0.00     0.336 A 
ATOM      4  O   UNL     1       7.378   9.359  14.355  1.00  0.00    -0.246 OA
ATOM      5  O   UNL     1       9.319   9.515  13.249  1.00  0.00    -0.423 OA
ATOM      6  C   UNL     1      10.631   9.735  13.209  1.00  0.00     0.142 A 
ATOM      7  C   UNL     1      11.315   9.656  11.992  1.00  0.00     0.098 A 
ATOM      8  C   UNL     1      12.696   9.886  11.940  1.00  0.00     0.161 A 
ATOM      9  C   UNL     1      13.400  10.196  13.119  1.00  0.00     0.158 A 
ATOM     10  C   UNL     1      12.717  10.276  14.342  1.00  0.00     0.062 A 
ATOM     11  C   UNL     1      11.336  10.046  14.391  1.00  0.00     0.022 A 
ENDROOT
BRANCH   9  12
ATOM     12  O   UNL     1      14.774  10.424  13.069  1.00  0.00    -0.504 OA
ATOM     13  H   UNL     1      15.325  10.174  12.256  1.00  0.00     0.293 HD
ENDBRANCH   9  12
BRANCH   8  14
ATOM     14  O   UNL     1      13.350   9.800  10.712  1.00  0.00    -0.504 OA
ATOM     15  H   UNL     1      14.020  10.496  10.409  1.00  0.00     0.293 HD
ENDBRANCH   8  14
TORSDOF 2
ENDMDL
