MODEL 1
REMARK VINA RESULT:    -4.016      0.000      0.000
REMARK INTER + INTRA:          -4.368
REMARK INTER:                  -4.368
REMARK INTRA:                   0.000
REMARK UNBOUND:                 0.000
REMARK SMILES [NH3+]CC(=O)[O-]
REMARK SMILES IDX 2 1 1 2 3 6 4 7 5 8
REMARK H PARENT 1 3 1 4 1 5
REMARK Flexibility Score: inf
ROOT
ATOM      1  C   UNL     1     -15.820   0.717 -23.780  1.00  0.00     0.312 C 
ENDROOT
BRANCH   1   2
ATOM      2  N   UNL     1     -16.289  -0.059 -22.632  1.00  0.00    -0.353 N 
ATOM      3  H   UNL     1     -15.725   0.181 -21.784  1.00  0.00     0.344 HD
ATOM      4  H   UNL     1     -16.207  -1.081 -22.833  1.00  0.00     0.344 HD
ATOM      5  H   UNL     1     -17.291   0.173 -22.449  1.00  0.00     0.344 HD
ENDBRANCH   1   2
BRANCH   1   6
ATOM      6  C   UNL     1     -14.414   0.342 -24.133  1.00  0.00     0.096 C 
ATOM      7  O   UNL     1     -14.194  -0.565 -24.977  1.00  0.00    -0.544 OA
ATOM      8  O   UNL     1     -13.347   0.959 -23.491  1.00  0.00    -0.544 OA
ENDBRANCH   1   6
TORSDOF 2
ENDMDL
MODEL 2
REMARK VINA RESULT:    -4.005      0.139      1.456
REMARK INTER + INTRA:          -4.357
REMARK INTER:                  -4.357
REMARK INTRA:                   0.000
REMARK UNBOUND:                 0.000
REMARK SMILES [NH3+]CC(=O)[O-]
REMARK SMILES IDX 2 1 1 2 3 6 4 7 5 8
REMARK H PARENT 1 3 1 4 1 5
REMARK Flexibility Score: inf
ROOT
ATOM      1  C   UNL     1     -15.771   0.838 -23.574  1.00  0.00     0.312 C 
ENDROOT
BRANCH   1   2
ATOM      2  N   UNL     1     -16.287  -0.062 -22.542  1.00  0.00    -0.353 N 
ATOM      3  H   UNL     1     -16.016   0.289 -21.594  1.00  0.00     0.344 HD
ATOM      4  H   UNL     1     -15.908  -1.026 -22.685  1.00  0.00     0.344 HD
ATOM      5  H   UNL     1     -17.329  -0.093 -22.606  1.00  0.00     0.344 HD
ENDBRANCH   1   2
BRANCH   1   6
ATOM      6  C   UNL     1     -14.396   0.422 -23.998  1.00  0.00     0.096 C 
ATOM      7  O   UNL     1     -13.384   0.975 -23.494  1.00  0.00    -0.544 OA
ATOM      8  O   UNL     1     -14.235  -0.541 -24.986  1.00  0.00    -0.544 OA
ENDBRANCH   1   6
TORSDOF 2
ENDMDL
MODEL 3
REMARK VINA RESULT:    -3.527      1.830      1.910
REMARK INTER + INTRA:          -3.836
REMARK INTER:                  -3.836
REMARK INTRA:                   0.000
REMARK UNBOUND:                 0.000
REMARK SMILES [NH3+]CC(=O)[O-]
REMARK SMILES IDX 2 1 1 2 3 6 4 7 5 8
REMARK H PARENT 1 3 1 4 1 5
REMARK Flexibility Score: inf
ROOT
ATOM      1  C   UNL     1     -15.615   1.994 -23.272  1.00  0.00     0.312 C 
ENDROOT
BRANCH   1   2
ATOM      2  N   UNL     1     -16.690   2.262 -22.318  1.00  0.00    -0.353 N 
ATOM      3  H   UNL     1     -16.643   3.257 -21.997  1.00  0.00     0.344 HD
ATOM      4  H   UNL     1     -16.608   1.621 -21.497  1.00  0.00     0.344 HD
ATOM      5  H   UNL     1     -17.610   2.100 -22.786  1.00  0.00     0.344 HD
ENDBRANCH   1   2
BRANCH   1   6
ATOM      6  C   UNL     1     -15.560   0.536 -23.611  1.00  0.00     0.096 C 
ATOM      7  O   UNL     1     -16.141   0.103 -24.639  1.00  0.00    -0.544 OA
ATOM      8  O   UNL     1     -14.908  -0.350 -22.762  1.00  0.00    -0.544 OA
ENDBRANCH   1   6
TORSDOF 2
ENDMDL
MODEL 4
REMARK VINA RESULT:    -3.358      3.342      3.779
REMARK INTER + INTRA:          -3.652
REMARK INTER:                  -3.652
REMARK INTRA:                   0.000
REMARK UNBOUND:                 0.000
REMARK SMILES [NH3+]CC(=O)[O-]
REMARK SMILES IDX 2 1 1 2 3 6 4 7 5 8
REMARK H PARENT 1 3 1 4 1 5
REMARK Flexibility Score: inf
ROOT
ATOM      1  C   UNL     1     -12.252   0.864 -25.441  1.00  0.00     0.312 C 
ENDROOT
BRANCH   1   2
ATOM      2  N   UNL     1     -11.557   1.895 -26.210  1.00  0.00    -0.353 N 
ATOM      3  H   UNL     1     -12.252   2.530 -26.667  1.00  0.00     0.344 HD
ATOM      4  H   UNL     1     -10.950   1.453 -26.937  1.00  0.00     0.344 HD
ATOM      5  H   UNL     1     -10.958   2.458 -25.564  1.00  0.00     0.344 HD
ENDBRANCH   1   2
BRANCH   1   6
ATOM      6  C   UNL     1     -12.961   1.467 -24.268  1.00  0.00     0.096 C 
ATOM      7  O   UNL     1     -12.879   2.703 -24.046  1.00  0.00    -0.544 OA
ATOM      8  O   UNL     1     -13.671   0.655 -23.392  1.00  0.00    -0.544 OA
ENDBRANCH   1   6
TORSDOF 2
ENDMDL
MODEL 5
REMARK VINA RESULT:    -3.325      1.760      2.252
REMARK INTER + INTRA:          -3.617
REMARK INTER:                  -3.617
REMARK INTRA:                   0.000
REMARK UNBOUND:                 0.000
REMARK SMILES [NH3+]CC(=O)[O-]
REMARK SMILES IDX 2 1 1 2 3 6 4 7 5 8
REMARK H PARENT 1 3 1 4 1 5
REMARK Flexibility Score: inf
ROOT
ATOM      1  C   UNL     1     -15.837   0.554 -23.716  1.00  0.00     0.312 C 
ENDROOT
BRANCH   1   2
ATOM      2  N   UNL     1     -16.384  -0.108 -22.533  1.00  0.00    -0.353 N 
ATOM      3  H   UNL     1     -17.288   0.341 -22.258  1.00  0.00     0.344 HD
ATOM      4  H   UNL     1     -15.704  -0.048 -21.741  1.00  0.00     0.344 HD
ATOM      5  H   UNL     1     -16.560  -1.114 -22.755  1.00  0.00     0.344 HD
ENDBRANCH   1   2
BRANCH   1   6
ATOM      6  C   UNL     1     -15.341   1.924 -23.373  1.00  0.00     0.096 C 
ATOM      7  O   UNL     1     -16.137   2.793 -22.930  1.00  0.00    -0.544 OA
ATOM      8  O   UNL     1     -14.009   2.256 -23.589  1.00  0.00    -0.544 OA
ENDBRANCH   1   6
TORSDOF 2
ENDMDL
MODEL 6
REMARK VINA RESULT:    -3.253      2.352      2.538
REMARK INTER + INTRA:          -3.539
REMARK INTER:                  -3.539
REMARK INTRA:                   0.000
REMARK UNBOUND:                 0.000
REMARK SMILES [NH3+]CC(=O)[O-]
REMARK SMILES IDX 2 1 1 2 3 6 4 7 5 8
REMARK H PARENT 1 3 1 4 1 5
REMARK Flexibility Score: inf
ROOT
ATOM      1  C   UNL     1     -13.851   1.348 -23.828  1.00  0.00     0.312 C 
ENDROOT
BRANCH   1   2
ATOM      2  N   UNL     1     -12.602   1.459 -24.581  1.00  0.00    -0.353 N 
ATOM      3  H   UNL     1     -12.007   0.615 -24.412  1.00  0.00     0.344 HD
ATOM      4  H   UNL     1     -12.084   2.320 -24.292  1.00  0.00     0.344 HD
ATOM      5  H   UNL     1     -12.822   1.520 -25.601  1.00  0.00     0.344 HD
ENDBRANCH   1   2
BRANCH   1   6
ATOM      6  C   UNL     1     -14.678   0.211 -24.342  1.00  0.00     0.096 C 
ATOM      7  O   UNL     1     -14.181  -0.622 -25.144  1.00  0.00    -0.544 OA
ATOM      8  O   UNL     1     -16.014   0.101 -23.974  1.00  0.00    -0.544 OA
ENDBRANCH   1   6
TORSDOF 2
ENDMDL
MODEL 7
REMARK VINA RESULT:    -2.955      3.602      3.938
REMARK INTER + INTRA:          -3.214
REMARK INTER:                  -3.214
REMARK INTRA:                   0.000
REMARK UNBOUND:                 0.000
REMARK SMILES [NH3+]CC(=O)[O-]
REMARK SMILES IDX 2 1 1 2 3 6 4 7 5 8
REMARK H PARENT 1 3 1 4 1 5
REMARK Flexibility Score: inf
ROOT
ATOM      1  C   UNL     1     -15.889   2.124 -23.209  1.00  0.00     0.312 C 
ENDROOT
BRANCH   1   2
ATOM      2  N   UNL     1     -16.362   0.913 -22.539  1.00  0.00    -0.353 N 
ATOM      3  H   UNL     1     -16.095   0.068 -23.096  1.00  0.00     0.344 HD
ATOM      4  H   UNL     1     -17.401   0.948 -22.426  1.00  0.00     0.344 HD
ATOM      5  H   UNL     1     -15.920   0.849 -21.595  1.00  0.00     0.344 HD
ENDBRANCH   1   2
BRANCH   1   6
ATOM      6  C   UNL     1     -16.687   3.314 -22.775  1.00  0.00     0.096 C 
ATOM      7  O   UNL     1     -16.641   4.383 -23.437  1.00  0.00    -0.544 OA
ATOM      8  O   UNL     1     -17.443   3.257 -21.610  1.00  0.00    -0.544 OA
ENDBRANCH   1   6
TORSDOF 2
ENDMDL
MODEL 8
REMARK VINA RESULT:    -2.880     12.262     12.424
REMARK INTER + INTRA:          -3.133
REMARK INTER:                  -3.133
REMARK INTRA:                   0.000
REMARK UNBOUND:                 0.000
REMARK SMILES [NH3+]CC(=O)[O-]
REMARK SMILES IDX 2 1 1 2 3 6 4 7 5 8
REMARK H PARENT 1 3 1 4 1 5
REMARK Flexibility Score: inf
ROOT
ATOM      1  C   UNL     1      -6.149   0.457 -33.034  1.00  0.00     0.312 C 
ENDROOT
BRANCH   1   2
ATOM      2  N   UNL     1      -7.309   0.927 -32.279  1.00  0.00    -0.353 N 
ATOM      3  H   UNL     1      -7.978   0.138 -32.122  1.00  0.00     0.344 HD
ATOM      4  H   UNL     1      -7.787   1.698 -32.799  1.00  0.00     0.344 HD
ATOM      5  H   UNL     1      -6.990   1.289 -31.352  1.00  0.00     0.344 HD
ENDBRANCH   1   2
BRANCH   1   6
ATOM      6  C   UNL     1      -5.536  -0.738 -32.371  1.00  0.00     0.096 C 
ATOM      7  O   UNL     1      -5.513  -1.849 -32.963  1.00  0.00    -0.544 OA
ATOM      8  O   UNL     1      -5.035  -0.635 -31.079  1.00  0.00    -0.544 OA
ENDBRANCH   1   6
TORSDOF 2
ENDMDL
MODEL 9
REMARK VINA RESULT:    -2.738     13.013     13.344
REMARK INTER + INTRA:          -2.978
REMARK INTER:                  -2.978
REMARK INTRA:                   0.000
REMARK UNBOUND:                 0.000
REMARK SMILES [NH3+]CC(=O)[O-]
REMARK SMILES IDX 2 1 1 2 3 6 4 7 5 8
REMARK H PARENT 1 3 1 4 1 5
REMARK Flexibility Score: inf
ROOT
ATOM      1  C   UNL     1      -5.136  -1.728 -33.176  1.00  0.00     0.312 C 
ENDROOT
BRANCH   1   2
ATOM      2  N   UNL     1      -6.150  -1.033 -33.969  1.00  0.00    -0.353 N 
ATOM      3  H   UNL     1      -5.739  -0.174 -34.402  1.00  0.00     0.344 HD
ATOM      4  H   UNL     1      -6.961  -0.771 -33.363  1.00  0.00     0.344 HD
ATOM      5  H   UNL     1      -6.484  -1.668 -34.729  1.00  0.00     0.344 HD
ENDBRANCH   1   2
BRANCH   1   6
ATOM      6  C   UNL     1      -4.649  -0.856 -32.061  1.00  0.00     0.096 C 
ATOM      7  O   UNL     1      -5.397  -0.606 -31.079  1.00  0.00    -0.544 OA
ATOM      8  O   UNL     1      -3.387  -0.279 -32.129  1.00  0.00    -0.544 OA
ENDBRANCH   1   6
TORSDOF 2
ENDMDL
