MODEL 1
REMARK VINA RESULT:    -4.364      0.000      0.000
REMARK INTER + INTRA:          -4.814
REMARK INTER:                  -4.619
REMARK INTRA:                  -0.195
REMARK UNBOUND:                -0.195
REMARK SMILES C=C1CC[C@@]2(C(C)C)C[C@@H]12
REMARK SMILES IDX 5 1 4 2 3 3 2 4 1 5 10 6 9 7 6 8 7 9 8 10
REMARK H PARENT
REMARK Flexibility Score: inf
ROOT
ATOM      1  C   UNL     1      32.100   9.732  32.226  1.00  0.00    -0.020 C 
ATOM      2  C   UNL     1      33.089  10.871  32.528  1.00  0.00     0.012 C 
ATOM      3  C   UNL     1      32.877  11.288  33.986  1.00  0.00     0.031 C 
ATOM      4  C   UNL     1      31.836  10.356  34.507  1.00  0.00    -0.074 C 
ATOM      5  C   UNL     1      31.408  10.369  35.772  1.00  0.00     0.008 C 
ATOM      6  C   UNL     1      31.329   9.395  33.493  1.00  0.00     0.021 C 
ATOM      7  C   UNL     1      32.362   8.412  32.950  1.00  0.00     0.016 C 
ENDROOT
BRANCH   1   8
ATOM      8  C   UNL     1      31.438   9.667  30.817  1.00  0.00    -0.011 C 
ATOM      9  C   UNL     1      29.914   9.768  30.953  1.00  0.00     0.008 C 
ATOM     10  C   UNL     1      31.951  10.690  29.787  1.00  0.00     0.008 C 
ENDBRANCH   1   8
TORSDOF 1
ENDMDL
MODEL 2
REMARK VINA RESULT:    -4.083      1.042      3.943
REMARK INTER + INTRA:          -4.517
REMARK INTER:                  -4.216
REMARK INTRA:                  -0.302
REMARK UNBOUND:                -0.195
REMARK SMILES C=C1CC[C@@]2(C(C)C)C[C@@H]12
REMARK SMILES IDX 5 1 4 2 3 3 2 4 1 5 10 6 9 7 6 8 7 9 8 10
REMARK H PARENT
REMARK Flexibility Score: inf
ROOT
ATOM      1  C   UNL     1      31.888   9.901  33.591  1.00  0.00    -0.020 C 
ATOM      2  C   UNL     1      31.663   8.379  33.567  1.00  0.00     0.012 C 
ATOM      3  C   UNL     1      31.318   7.989  32.127  1.00  0.00     0.031 C 
ATOM      4  C   UNL     1      31.413   9.258  31.350  1.00  0.00    -0.074 C 
ATOM      5  C   UNL     1      31.227   9.323  30.029  1.00  0.00     0.008 C 
ATOM      6  C   UNL     1      31.754  10.444  32.177  1.00  0.00     0.021 C 
ATOM      7  C   UNL     1      33.125  10.403  32.846  1.00  0.00     0.016 C 
ENDROOT
BRANCH   1   8
ATOM      8  C   UNL     1      31.412  10.711  34.834  1.00  0.00    -0.011 C 
ATOM      9  C   UNL     1      29.947  11.127  34.653  1.00  0.00     0.008 C 
ATOM     10  C   UNL     1      31.606  10.022  36.197  1.00  0.00     0.008 C 
ENDBRANCH   1   8
TORSDOF 1
ENDMDL
MODEL 3
REMARK VINA RESULT:    -4.080      1.506      2.478
REMARK INTER + INTRA:          -4.513
REMARK INTER:                  -4.365
REMARK INTRA:                  -0.148
REMARK UNBOUND:                -0.195
REMARK SMILES C=C1CC[C@@]2(C(C)C)C[C@@H]12
REMARK SMILES IDX 5 1 4 2 3 3 2 4 1 5 10 6 9 7 6 8 7 9 8 10
REMARK H PARENT
REMARK Flexibility Score: inf
ROOT
ATOM      1  C   UNL     1      32.207  10.637  32.095  1.00  0.00    -0.020 C 
ATOM      2  C   UNL     1      30.700  10.718  32.390  1.00  0.00     0.012 C 
ATOM      3  C   UNL     1      30.289   9.398  33.048  1.00  0.00     0.031 C 
ATOM      4  C   UNL     1      31.555   8.621  33.179  1.00  0.00    -0.074 C 
ATOM      5  C   UNL     1      31.621   7.419  33.758  1.00  0.00     0.008 C 
ATOM      6  C   UNL     1      32.746   9.316  32.624  1.00  0.00     0.021 C 
ATOM      7  C   UNL     1      33.125  10.621  33.318  1.00  0.00     0.016 C 
ENDROOT
BRANCH   1   8
ATOM      8  C   UNL     1      32.754  11.285  30.788  1.00  0.00    -0.011 C 
ATOM      9  C   UNL     1      31.999  10.726  29.576  1.00  0.00     0.008 C 
ATOM     10  C   UNL     1      32.754  12.824  30.753  1.00  0.00     0.008 C 
ENDBRANCH   1   8
TORSDOF 1
ENDMDL
MODEL 4
REMARK VINA RESULT:    -4.079      1.161      3.650
REMARK INTER + INTRA:          -4.512
REMARK INTER:                  -4.230
REMARK INTRA:                  -0.283
REMARK UNBOUND:                -0.195
REMARK SMILES C=C1CC[C@@]2(C(C)C)C[C@@H]12
REMARK SMILES IDX 5 1 4 2 3 3 2 4 1 5 10 6 9 7 6 8 7 9 8 10
REMARK H PARENT
REMARK Flexibility Score: inf
ROOT
ATOM      1  C   UNL     1      31.453   9.712  32.677  1.00  0.00    -0.020 C 
ATOM      2  C   UNL     1      32.532  10.702  33.150  1.00  0.00     0.012 C 
ATOM      3  C   UNL     1      33.125  11.364  31.903  1.00  0.00     0.031 C 
ATOM      4  C   UNL     1      32.348  10.805  30.761  1.00  0.00    -0.074 C 
ATOM      5  C   UNL     1      32.537  11.178  29.492  1.00  0.00     0.008 C 
ATOM      6  C   UNL     1      31.324   9.805  31.164  1.00  0.00     0.021 C 
ATOM      7  C   UNL     1      30.204  10.336  32.054  1.00  0.00     0.016 C 
ENDROOT
BRANCH   1   8
ATOM      8  C   UNL     1      31.287   8.363  33.437  1.00  0.00    -0.011 C 
ATOM      9  C   UNL     1      32.374   7.378  32.993  1.00  0.00     0.008 C 
ATOM     10  C   UNL     1      31.250   8.459  34.973  1.00  0.00     0.008 C 
ENDBRANCH   1   8
TORSDOF 1
ENDMDL
MODEL 5
REMARK VINA RESULT:    -4.077      1.086      3.981
REMARK INTER + INTRA:          -4.511
REMARK INTER:                  -4.216
REMARK INTRA:                  -0.295
REMARK UNBOUND:                -0.195
REMARK SMILES C=C1CC[C@@]2(C(C)C)C[C@@H]12
REMARK SMILES IDX 5 1 4 2 3 3 2 4 1 5 10 6 9 7 6 8 7 9 8 10
REMARK H PARENT
REMARK Flexibility Score: inf
ROOT
ATOM      1  C   UNL     1      31.320  10.458  34.419  1.00  0.00    -0.020 C 
ATOM      2  C   UNL     1      32.694  11.080  34.117  1.00  0.00     0.012 C 
ATOM      3  C   UNL     1      33.024  10.776  32.653  1.00  0.00     0.031 C 
ATOM      4  C   UNL     1      31.828  10.055  32.129  1.00  0.00    -0.074 C 
ATOM      5  C   UNL     1      31.710   9.659  30.859  1.00  0.00     0.008 C 
ATOM      6  C   UNL     1      30.767   9.835  33.146  1.00  0.00     0.021 C 
ATOM      7  C   UNL     1      30.128  11.101  33.710  1.00  0.00     0.016 C 
ENDROOT
BRANCH   1   8
ATOM      8  C   UNL     1      31.073   9.825  35.821  1.00  0.00    -0.011 C 
ATOM      9  C   UNL     1      31.259   8.305  35.744  1.00  0.00     0.008 C 
ATOM     10  C   UNL     1      31.910  10.406  36.975  1.00  0.00     0.008 C 
ENDBRANCH   1   8
TORSDOF 1
ENDMDL
MODEL 6
REMARK VINA RESULT:    -4.067      1.613      2.935
REMARK INTER + INTRA:          -4.500
REMARK INTER:                  -4.208
REMARK INTRA:                  -0.292
REMARK UNBOUND:                -0.195
REMARK SMILES C=C1CC[C@@]2(C(C)C)C[C@@H]12
REMARK SMILES IDX 5 1 4 2 3 3 2 4 1 5 10 6 9 7 6 8 7 9 8 10
REMARK H PARENT
REMARK Flexibility Score: inf
ROOT
ATOM      1  C   UNL     1      31.348   9.412  33.250  1.00  0.00    -0.020 C 
ATOM      2  C   UNL     1      31.897   8.134  32.592  1.00  0.00     0.012 C 
ATOM      3  C   UNL     1      31.931   7.044  33.666  1.00  0.00     0.031 C 
ATOM      4  C   UNL     1      31.352   7.681  34.883  1.00  0.00    -0.074 C 
ATOM      5  C   UNL     1      31.165   7.029  36.033  1.00  0.00     0.008 C 
ATOM      6  C   UNL     1      30.979   9.108  34.694  1.00  0.00     0.021 C 
ATOM      7  C   UNL     1      29.878   9.367  33.670  1.00  0.00     0.016 C 
ENDROOT
BRANCH   1   8
ATOM      8  C   UNL     1      31.937  10.790  32.823  1.00  0.00    -0.011 C 
ATOM      9  C   UNL     1      32.977  11.251  33.850  1.00  0.00     0.008 C 
ATOM     10  C   UNL     1      32.525  10.855  31.402  1.00  0.00     0.008 C 
ENDBRANCH   1   8
TORSDOF 1
ENDMDL
MODEL 7
REMARK VINA RESULT:    -4.027      1.359      4.295
REMARK INTER + INTRA:          -4.458
REMARK INTER:                  -4.212
REMARK INTRA:                  -0.245
REMARK UNBOUND:                -0.195
REMARK SMILES C=C1CC[C@@]2(C(C)C)C[C@@H]12
REMARK SMILES IDX 5 1 4 2 3 3 2 4 1 5 10 6 9 7 6 8 7 9 8 10
REMARK H PARENT
REMARK Flexibility Score: inf
ROOT
ATOM      1  C   UNL     1      31.590  10.529  31.163  1.00  0.00    -0.020 C 
ATOM      2  C   UNL     1      32.432  11.574  30.410  1.00  0.00     0.012 C 
ATOM      3  C   UNL     1      32.477  11.152  28.939  1.00  0.00     0.031 C 
ATOM      4  C   UNL     1      31.624   9.932  28.860  1.00  0.00    -0.074 C 
ATOM      5  C   UNL     1      31.372   9.288  27.717  1.00  0.00     0.008 C 
ATOM      6  C   UNL     1      31.060   9.508  30.167  1.00  0.00     0.021 C 
ATOM      7  C   UNL     1      30.100  10.500  30.819  1.00  0.00     0.016 C 
ENDROOT
BRANCH   1   8
ATOM      8  C   UNL     1      32.007  10.129  32.610  1.00  0.00    -0.011 C 
ATOM      9  C   UNL     1      32.515   8.682  32.623  1.00  0.00     0.008 C 
ATOM     10  C   UNL     1      33.026  11.058  33.295  1.00  0.00     0.008 C 
ENDBRANCH   1   8
TORSDOF 1
ENDMDL
MODEL 8
REMARK VINA RESULT:    -4.020      1.575      3.023
REMARK INTER + INTRA:          -4.450
REMARK INTER:                  -4.281
REMARK INTRA:                  -0.169
REMARK UNBOUND:                -0.195
REMARK SMILES C=C1CC[C@@]2(C(C)C)C[C@@H]12
REMARK SMILES IDX 5 1 4 2 3 3 2 4 1 5 10 6 9 7 6 8 7 9 8 10
REMARK H PARENT
REMARK Flexibility Score: inf
ROOT
ATOM      1  C   UNL     1      30.861   8.888  30.758  1.00  0.00    -0.020 C 
ATOM      2  C   UNL     1      31.220   7.804  31.789  1.00  0.00     0.012 C 
ATOM      3  C   UNL     1      32.219   8.420  32.772  1.00  0.00     0.031 C 
ATOM      4  C   UNL     1      32.365   9.838  32.338  1.00  0.00    -0.074 C 
ATOM      5  C   UNL     1      33.125  10.728  32.983  1.00  0.00     0.008 C 
ATOM      6  C   UNL     1      31.570  10.181  31.130  1.00  0.00     0.021 C 
ATOM      7  C   UNL     1      30.056  10.074  31.291  1.00  0.00     0.016 C 
ENDROOT
BRANCH   1   8
ATOM      8  C   UNL     1      30.637   8.469  29.274  1.00  0.00    -0.011 C 
ATOM      9  C   UNL     1      31.584   9.258  28.362  1.00  0.00     0.008 C 
ATOM     10  C   UNL     1      30.746   6.962  28.980  1.00  0.00     0.008 C 
ENDBRANCH   1   8
TORSDOF 1
ENDMDL
MODEL 9
REMARK VINA RESULT:    -3.820      1.919      3.248
REMARK INTER + INTRA:          -4.239
REMARK INTER:                  -3.945
REMARK INTRA:                  -0.294
REMARK UNBOUND:                -0.195
REMARK SMILES C=C1CC[C@@]2(C(C)C)C[C@@H]12
REMARK SMILES IDX 5 1 4 2 3 3 2 4 1 5 10 6 9 7 6 8 7 9 8 10
REMARK H PARENT
REMARK Flexibility Score: inf
ROOT
ATOM      1  C   UNL     1      31.247  11.293  29.587  1.00  0.00    -0.020 C 
ATOM      2  C   UNL     1      32.427  12.255  29.815  1.00  0.00     0.012 C 
ATOM      3  C   UNL     1      33.125  11.826  31.108  1.00  0.00     0.031 C 
ATOM      4  C   UNL     1      32.391  10.610  31.559  1.00  0.00    -0.074 C 
ATOM      5  C   UNL     1      32.735   9.904  32.640  1.00  0.00     0.008 C 
ATOM      6  C   UNL     1      31.249  10.238  30.682  1.00  0.00     0.021 C 
ATOM      7  C   UNL     1      31.620   9.848  29.254  1.00  0.00     0.016 C 
ENDROOT
BRANCH   1   8
ATOM      8  C   UNL     1      29.924  11.856  28.988  1.00  0.00    -0.011 C 
ATOM      9  C   UNL     1      29.078  12.488  30.099  1.00  0.00     0.008 C 
ATOM     10  C   UNL     1      30.085  12.840  27.814  1.00  0.00     0.008 C 
ENDBRANCH   1   8
TORSDOF 1
ENDMDL
