MODEL 1
REMARK VINA RESULT:    -6.283      0.000      0.000
REMARK INTER + INTRA:          -7.251
REMARK INTER:                  -7.201
REMARK INTRA:                  -0.050
REMARK UNBOUND:                -0.050
REMARK SMILES O=C([O-])c1cc(O)c(O)c(O)c1
REMARK SMILES IDX 4 1 5 2 12 3 6 4 10 5 8 6 2 7 1 8 3 9 7 10 11 12 9 14
REMARK H PARENT 7 11 11 13 9 15
REMARK Flexibility Score: inf
ROOT
ATOM      1  C   UNL     1      -2.549 -15.471  11.021  1.00  0.00     0.005 A 
ATOM      2  C   UNL     1      -2.807 -16.512  10.112  1.00  0.00     0.060 A 
ATOM      3  C   UNL     1      -2.477 -14.152  10.544  1.00  0.00     0.060 A 
ATOM      4  C   UNL     1      -2.990 -16.239   8.750  1.00  0.00     0.162 A 
ATOM      5  C   UNL     1      -2.660 -13.873   9.183  1.00  0.00     0.162 A 
ATOM      6  C   UNL     1      -2.917 -14.921   8.283  1.00  0.00     0.200 A 
ENDROOT
BRANCH   1   7
ATOM      7  C   UNL     1      -2.355 -15.757  12.460  1.00  0.00     0.072 C 
ATOM      8  O   UNL     1      -2.779 -14.958  13.336  1.00  0.00    -0.545 OA
ATOM      9  O   UNL     1      -1.700 -16.915  12.865  1.00  0.00    -0.545 OA
ENDBRANCH   1   7
BRANCH   4  10
ATOM     10  O   UNL     1      -3.246 -17.275   7.853  1.00  0.00    -0.504 OA
ATOM     11  H   UNL     1      -2.592 -18.039   7.724  1.00  0.00     0.293 HD
ENDBRANCH   4  10
BRANCH   5  12
ATOM     12  O   UNL     1      -2.586 -12.560   8.721  1.00  0.00    -0.504 OA
ATOM     13  H   UNL     1      -3.400 -12.077   8.359  1.00  0.00     0.293 HD
ENDBRANCH   5  12
BRANCH   6  14
ATOM     14  O   UNL     1      -3.103 -14.669   6.923  1.00  0.00    -0.502 OA
ATOM     15  H   UNL     1      -3.398 -13.763   6.577  1.00  0.00     0.293 HD
ENDBRANCH   6  14
TORSDOF 4
ENDMDL
MODEL 2
REMARK VINA RESULT:    -6.278      0.052      2.422
REMARK INTER + INTRA:          -7.246
REMARK INTER:                  -7.196
REMARK INTRA:                  -0.050
REMARK UNBOUND:                -0.050
REMARK SMILES O=C([O-])c1cc(O)c(O)c(O)c1
REMARK SMILES IDX 4 1 5 2 12 3 6 4 10 5 8 6 2 7 1 8 3 9 7 10 11 12 9 14
REMARK H PARENT 7 11 11 13 9 15
REMARK Flexibility Score: inf
ROOT
ATOM      1  C   UNL     1      -2.550 -15.452  11.038  1.00  0.00     0.005 A 
ATOM      2  C   UNL     1      -2.499 -14.131  10.560  1.00  0.00     0.060 A 
ATOM      3  C   UNL     1      -2.769 -16.499  10.128  1.00  0.00     0.060 A 
ATOM      4  C   UNL     1      -2.663 -13.861   9.194  1.00  0.00     0.162 A 
ATOM      5  C   UNL     1      -2.933 -16.234   8.761  1.00  0.00     0.162 A 
ATOM      6  C   UNL     1      -2.881 -14.911   8.293  1.00  0.00     0.200 A 
ENDROOT
BRANCH   1   7
ATOM      7  C   UNL     1      -2.377 -15.739  12.480  1.00  0.00     0.072 C 
ATOM      8  O   UNL     1      -2.836 -14.952  13.350  1.00  0.00    -0.545 OA
ATOM      9  O   UNL     1      -1.704 -16.882  12.894  1.00  0.00    -0.545 OA
ENDBRANCH   1   7
BRANCH   4  10
ATOM     10  O   UNL     1      -2.611 -12.550   8.725  1.00  0.00    -0.504 OA
ATOM     11  H   UNL     1      -1.856 -12.228   8.130  1.00  0.00     0.293 HD
ENDBRANCH   4  10
BRANCH   5  12
ATOM     12  O   UNL     1      -3.150 -17.282   7.866  1.00  0.00    -0.504 OA
ATOM     13  H   UNL     1      -3.093 -18.250   8.158  1.00  0.00     0.293 HD
ENDBRANCH   5  12
BRANCH   6  14
ATOM     14  O   UNL     1      -3.041 -14.623   6.937  1.00  0.00    -0.502 OA
ATOM     15  H   UNL     1      -3.738 -13.967   6.604  1.00  0.00     0.293 HD
ENDBRANCH   6  14
TORSDOF 4
ENDMDL
MODEL 3
REMARK VINA RESULT:    -6.201      1.825      3.449
REMARK INTER + INTRA:          -7.157
REMARK INTER:                  -7.110
REMARK INTRA:                  -0.048
REMARK UNBOUND:                -0.050
REMARK SMILES O=C([O-])c1cc(O)c(O)c(O)c1
REMARK SMILES IDX 4 1 5 2 12 3 6 4 10 5 8 6 2 7 1 8 3 9 7 10 11 12 9 14
REMARK H PARENT 7 11 11 13 9 15
REMARK Flexibility Score: inf
ROOT
ATOM      1  C   UNL     1      -3.434 -16.539   8.992  1.00  0.00     0.005 A 
ATOM      2  C   UNL     1      -2.631 -15.852   9.919  1.00  0.00     0.060 A 
ATOM      3  C   UNL     1      -4.037 -15.820   7.948  1.00  0.00     0.060 A 
ATOM      4  C   UNL     1      -2.434 -14.470   9.804  1.00  0.00     0.162 A 
ATOM      5  C   UNL     1      -3.843 -14.437   7.828  1.00  0.00     0.162 A 
ATOM      6  C   UNL     1      -3.039 -13.760   8.760  1.00  0.00     0.200 A 
ENDROOT
BRANCH   1   7
ATOM      7  C   UNL     1      -3.644 -17.999   9.113  1.00  0.00     0.072 C 
ATOM      8  O   UNL     1      -3.446 -18.759   8.128  1.00  0.00    -0.545 OA
ATOM      9  O   UNL     1      -4.063 -18.553  10.317  1.00  0.00    -0.545 OA
ENDBRANCH   1   7
BRANCH   4  10
ATOM     10  O   UNL     1      -1.636 -13.793  10.725  1.00  0.00    -0.504 OA
ATOM     11  H   UNL     1      -0.827 -13.257  10.434  1.00  0.00     0.293 HD
ENDBRANCH   4  10
BRANCH   5  12
ATOM     12  O   UNL     1      -4.448 -13.733   6.787  1.00  0.00    -0.504 OA
ATOM     13  H   UNL     1      -4.028 -12.898   6.395  1.00  0.00     0.293 HD
ENDBRANCH   5  12
BRANCH   6  14
ATOM     14  O   UNL     1      -2.831 -12.383   8.661  1.00  0.00    -0.502 OA
ATOM     15  H   UNL     1      -2.851 -11.775   9.470  1.00  0.00     0.293 HD
ENDBRANCH   6  14
TORSDOF 4
ENDMDL
MODEL 4
REMARK VINA RESULT:    -6.185      1.155      3.865
REMARK INTER + INTRA:          -7.139
REMARK INTER:                  -7.086
REMARK INTRA:                  -0.053
REMARK UNBOUND:                -0.050
REMARK SMILES O=C([O-])c1cc(O)c(O)c(O)c1
REMARK SMILES IDX 4 1 5 2 12 3 6 4 10 5 8 6 2 7 1 8 3 9 7 10 11 12 9 14
REMARK H PARENT 7 11 11 13 9 15
REMARK Flexibility Score: inf
ROOT
ATOM      1  C   UNL     1      -3.223 -16.014   8.597  1.00  0.00     0.005 A 
ATOM      2  C   UNL     1      -2.898 -16.433   9.899  1.00  0.00     0.060 A 
ATOM      3  C   UNL     1      -3.114 -14.653   8.272  1.00  0.00     0.060 A 
ATOM      4  C   UNL     1      -2.472 -15.505  10.860  1.00  0.00     0.162 A 
ATOM      5  C   UNL     1      -2.688 -13.721   9.229  1.00  0.00     0.162 A 
ATOM      6  C   UNL     1      -2.367 -14.150  10.527  1.00  0.00     0.200 A 
ENDROOT
BRANCH   1   7
ATOM      7  C   UNL     1      -3.673 -16.992   7.581  1.00  0.00     0.072 C 
ATOM      8  O   UNL     1      -4.113 -16.603   6.467  1.00  0.00    -0.545 OA
ATOM      9  O   UNL     1      -3.617 -18.356   7.844  1.00  0.00    -0.545 OA
ENDBRANCH   1   7
BRANCH   4  10
ATOM     10  O   UNL     1      -2.152 -15.926  12.150  1.00  0.00    -0.504 OA
ATOM     11  H   UNL     1      -1.584 -16.749  12.315  1.00  0.00     0.293 HD
ENDBRANCH   4  10
BRANCH   5  12
ATOM     12  O   UNL     1      -2.585 -12.371   8.894  1.00  0.00    -0.504 OA
ATOM     13  H   UNL     1      -2.160 -12.070   8.025  1.00  0.00     0.293 HD
ENDBRANCH   5  12
BRANCH   6  14
ATOM     14  O   UNL     1      -1.941 -13.241  11.497  1.00  0.00    -0.502 OA
ATOM     15  H   UNL     1      -2.269 -13.280  12.455  1.00  0.00     0.293 HD
ENDBRANCH   6  14
TORSDOF 4
ENDMDL
MODEL 5
REMARK VINA RESULT:    -6.180      1.795      3.234
REMARK INTER + INTRA:          -7.132
REMARK INTER:                  -7.085
REMARK INTRA:                  -0.048
REMARK UNBOUND:                -0.050
REMARK SMILES O=C([O-])c1cc(O)c(O)c(O)c1
REMARK SMILES IDX 4 1 5 2 12 3 6 4 10 5 8 6 2 7 1 8 3 9 7 10 11 12 9 14
REMARK H PARENT 7 11 11 13 9 15
REMARK Flexibility Score: inf
ROOT
ATOM      1  C   UNL     1      -3.425 -16.587   9.032  1.00  0.00     0.005 A 
ATOM      2  C   UNL     1      -4.009 -15.888   7.961  1.00  0.00     0.060 A 
ATOM      3  C   UNL     1      -2.658 -15.880   9.971  1.00  0.00     0.060 A 
ATOM      4  C   UNL     1      -3.828 -14.504   7.832  1.00  0.00     0.162 A 
ATOM      5  C   UNL     1      -2.474 -14.496   9.847  1.00  0.00     0.162 A 
ATOM      6  C   UNL     1      -3.061 -13.806   8.773  1.00  0.00     0.200 A 
ENDROOT
BRANCH   1   7
ATOM      7  C   UNL     1      -3.615 -18.049   9.169  1.00  0.00     0.072 C 
ATOM      8  O   UNL     1      -3.423 -18.816   8.189  1.00  0.00    -0.545 OA
ATOM      9  O   UNL     1      -4.010 -18.596  10.385  1.00  0.00    -0.545 OA
ENDBRANCH   1   7
BRANCH   4  10
ATOM     10  O   UNL     1      -4.409 -13.814   6.769  1.00  0.00    -0.504 OA
ATOM     11  H   UNL     1      -4.410 -14.192   5.828  1.00  0.00     0.293 HD
ENDBRANCH   4  10
BRANCH   5  12
ATOM     12  O   UNL     1      -1.709 -13.804  10.785  1.00  0.00    -0.504 OA
ATOM     13  H   UNL     1      -1.670 -12.792  10.797  1.00  0.00     0.293 HD
ENDBRANCH   5  12
BRANCH   6  14
ATOM     14  O   UNL     1      -2.893 -12.428   8.628  1.00  0.00    -0.502 OA
ATOM     15  H   UNL     1      -2.655 -11.828   9.409  1.00  0.00     0.293 HD
ENDBRANCH   6  14
TORSDOF 4
ENDMDL
MODEL 6
REMARK VINA RESULT:    -6.128      1.210      4.334
REMARK INTER + INTRA:          -7.073
REMARK INTER:                  -7.020
REMARK INTRA:                  -0.053
REMARK UNBOUND:                -0.050
REMARK SMILES O=C([O-])c1cc(O)c(O)c(O)c1
REMARK SMILES IDX 4 1 5 2 12 3 6 4 10 5 8 6 2 7 1 8 3 9 7 10 11 12 9 14
REMARK H PARENT 7 11 11 13 9 15
REMARK Flexibility Score: inf
ROOT
ATOM      1  C   UNL     1      -3.305 -16.048   8.597  1.00  0.00     0.005 A 
ATOM      2  C   UNL     1      -3.213 -14.691   8.244  1.00  0.00     0.060 A 
ATOM      3  C   UNL     1      -2.921 -16.444   9.888  1.00  0.00     0.060 A 
ATOM      4  C   UNL     1      -2.743 -13.745   9.166  1.00  0.00     0.162 A 
ATOM      5  C   UNL     1      -2.451 -15.503  10.814  1.00  0.00     0.162 A 
ATOM      6  C   UNL     1      -2.361 -14.148  10.451  1.00  0.00     0.200 A 
ENDROOT
BRANCH   1   7
ATOM      7  C   UNL     1      -3.800 -17.047   7.624  1.00  0.00     0.072 C 
ATOM      8  O   UNL     1      -3.867 -18.266   7.935  1.00  0.00    -0.545 OA
ATOM      9  O   UNL     1      -4.199 -16.654   6.352  1.00  0.00    -0.545 OA
ENDBRANCH   1   7
BRANCH   4  10
ATOM     10  O   UNL     1      -2.653 -12.400   8.811  1.00  0.00    -0.504 OA
ATOM     11  H   UNL     1      -1.776 -11.894   8.863  1.00  0.00     0.293 HD
ENDBRANCH   4  10
BRANCH   5  12
ATOM     12  O   UNL     1      -2.071 -15.908  12.093  1.00  0.00    -0.504 OA
ATOM     13  H   UNL     1      -1.145 -16.272  12.283  1.00  0.00     0.293 HD
ENDBRANCH   5  12
BRANCH   6  14
ATOM     14  O   UNL     1      -1.897 -13.193  11.356  1.00  0.00    -0.502 OA
ATOM     15  H   UNL     1      -1.109 -13.367  11.968  1.00  0.00     0.293 HD
ENDBRANCH   6  14
TORSDOF 4
ENDMDL
MODEL 7
REMARK VINA RESULT:    -6.001      2.250      3.409
REMARK INTER + INTRA:          -6.928
REMARK INTER:                  -6.882
REMARK INTRA:                  -0.046
REMARK UNBOUND:                -0.050
REMARK SMILES O=C([O-])c1cc(O)c(O)c(O)c1
REMARK SMILES IDX 4 1 5 2 12 3 6 4 10 5 8 6 2 7 1 8 3 9 7 10 11 12 9 14
REMARK H PARENT 7 11 11 13 9 15
REMARK Flexibility Score: inf
ROOT
ATOM      1  C   UNL     1      -2.322 -15.037   9.126  1.00  0.00     0.005 A 
ATOM      2  C   UNL     1      -2.665 -15.126   7.766  1.00  0.00     0.060 A 
ATOM      3  C   UNL     1      -3.137 -15.669  10.078  1.00  0.00     0.060 A 
ATOM      4  C   UNL     1      -3.805 -15.836   7.364  1.00  0.00     0.162 A 
ATOM      5  C   UNL     1      -4.278 -16.381   9.682  1.00  0.00     0.162 A 
ATOM      6  C   UNL     1      -4.613 -16.464   8.320  1.00  0.00     0.200 A 
ENDROOT
BRANCH   1   7
ATOM      7  C   UNL     1      -1.119 -14.287   9.551  1.00  0.00     0.072 C 
ATOM      8  O   UNL     1       0.034 -14.722   9.289  1.00  0.00    -0.545 OA
ATOM      9  O   UNL     1      -1.245 -13.091  10.248  1.00  0.00    -0.545 OA
ENDBRANCH   1   7
BRANCH   4  10
ATOM     10  O   UNL     1      -4.142 -15.922   6.014  1.00  0.00    -0.504 OA
ATOM     11  H   UNL     1      -3.599 -16.481   5.366  1.00  0.00     0.293 HD
ENDBRANCH   4  10
BRANCH   5  12
ATOM     12  O   UNL     1      -5.081 -17.005  10.637  1.00  0.00    -0.504 OA
ATOM     13  H   UNL     1      -6.076 -16.825  10.694  1.00  0.00     0.293 HD
ENDBRANCH   5  12
BRANCH   6  14
ATOM     14  O   UNL     1      -5.744 -17.167   7.901  1.00  0.00    -0.502 OA
ATOM     15  H   UNL     1      -5.770 -17.675   7.025  1.00  0.00     0.293 HD
ENDBRANCH   6  14
TORSDOF 4
ENDMDL
MODEL 8
REMARK VINA RESULT:    -5.989      2.241      3.338
REMARK INTER + INTRA:          -6.914
REMARK INTER:                  -6.869
REMARK INTRA:                  -0.045
REMARK UNBOUND:                -0.050
REMARK SMILES O=C([O-])c1cc(O)c(O)c(O)c1
REMARK SMILES IDX 4 1 5 2 12 3 6 4 10 5 8 6 2 7 1 8 3 9 7 10 11 12 9 14
REMARK H PARENT 7 11 11 13 9 15
REMARK Flexibility Score: inf
ROOT
ATOM      1  C   UNL     1      -2.290 -15.018   9.112  1.00  0.00     0.005 A 
ATOM      2  C   UNL     1      -3.074 -15.702  10.057  1.00  0.00     0.060 A 
ATOM      3  C   UNL     1      -2.649 -15.078   7.756  1.00  0.00     0.060 A 
ATOM      4  C   UNL     1      -4.198 -16.435   9.653  1.00  0.00     0.162 A 
ATOM      5  C   UNL     1      -3.773 -15.810   7.346  1.00  0.00     0.162 A 
ATOM      6  C   UNL     1      -4.549 -16.491   8.299  1.00  0.00     0.200 A 
ENDROOT
BRANCH   1   7
ATOM      7  C   UNL     1      -1.102 -14.244   9.537  1.00  0.00     0.072 C 
ATOM      8  O   UNL     1       0.059 -14.682   9.323  1.00  0.00    -0.545 OA
ATOM      9  O   UNL     1      -1.252 -13.020  10.180  1.00  0.00    -0.545 OA
ENDBRANCH   1   7
BRANCH   4  10
ATOM     10  O   UNL     1      -4.972 -17.113  10.594  1.00  0.00    -0.504 OA
ATOM     11  H   UNL     1      -5.191 -18.097  10.492  1.00  0.00     0.293 HD
ENDBRANCH   4  10
BRANCH   5  12
ATOM     12  O   UNL     1      -4.120 -15.863   5.996  1.00  0.00    -0.504 OA
ATOM     13  H   UNL     1      -4.042 -15.052   5.395  1.00  0.00     0.293 HD
ENDBRANCH   5  12
BRANCH   6  14
ATOM     14  O   UNL     1      -5.673 -17.225   7.915  1.00  0.00    -0.502 OA
ATOM     15  H   UNL     1      -6.611 -16.957   8.186  1.00  0.00     0.293 HD
ENDBRANCH   6  14
TORSDOF 4
ENDMDL
MODEL 9
REMARK VINA RESULT:    -5.878      2.096      4.433
REMARK INTER + INTRA:          -6.787
REMARK INTER:                  -6.741
REMARK INTRA:                  -0.046
REMARK UNBOUND:                -0.050
REMARK SMILES O=C([O-])c1cc(O)c(O)c(O)c1
REMARK SMILES IDX 4 1 5 2 12 3 6 4 10 5 8 6 2 7 1 8 3 9 7 10 11 12 9 14
REMARK H PARENT 7 11 11 13 9 15
REMARK Flexibility Score: inf
ROOT
ATOM      1  C   UNL     1      -4.102 -15.411   8.085  1.00  0.00     0.005 A 
ATOM      2  C   UNL     1      -4.752 -16.254   9.001  1.00  0.00     0.060 A 
ATOM      3  C   UNL     1      -2.739 -15.128   8.267  1.00  0.00     0.060 A 
ATOM      4  C   UNL     1      -4.052 -16.806  10.083  1.00  0.00     0.162 A 
ATOM      5  C   UNL     1      -2.033 -15.677   9.347  1.00  0.00     0.162 A 
ATOM      6  C   UNL     1      -2.693 -16.518  10.258  1.00  0.00     0.200 A 
ENDROOT
BRANCH   1   7
ATOM      7  C   UNL     1      -4.840 -14.827   6.942  1.00  0.00     0.072 C 
ATOM      8  O   UNL     1      -5.005 -13.582   6.854  1.00  0.00    -0.545 OA
ATOM      9  O   UNL     1      -5.363 -15.648   5.949  1.00  0.00    -0.545 OA
ENDBRANCH   1   7
BRANCH   4  10
ATOM     10  O   UNL     1      -4.702 -17.642  10.989  1.00  0.00    -0.504 OA
ATOM     11  H   UNL     1      -5.559 -18.125  10.746  1.00  0.00     0.293 HD
ENDBRANCH   4  10
BRANCH   5  12
ATOM     12  O   UNL     1      -0.680 -15.388   9.519  1.00  0.00    -0.504 OA
ATOM     13  H   UNL     1       0.036 -16.091   9.379  1.00  0.00     0.293 HD
ENDBRANCH   5  12
BRANCH   6  14
ATOM     14  O   UNL     1      -2.012 -17.077  11.341  1.00  0.00    -0.502 OA
ATOM     15  H   UNL     1      -1.214 -16.623  11.769  1.00  0.00     0.293 HD
ENDBRANCH   6  14
TORSDOF 4
ENDMDL
