MODEL 1
REMARK VINA RESULT:    -3.284      0.000      0.000
REMARK INTER + INTRA:         -10.551
REMARK INTER:                  -7.508
REMARK INTRA:                  -3.043
REMARK UNBOUND:                -3.043
REMARK SMILES CCCCCCCCCCCCCCCCCCCCCCCC(=O)[O-]
REMARK SMILES IDX 13 1 14 2 15 3 16 4 17 5 18 6 19 7 20 8 21 9 22 10 23 11
REMARK SMILES IDX 24 12 25 13 26 14 12 15 11 16 10 17 9 18 8 19 7 20 6 21 5 22
REMARK SMILES IDX 4 23 3 24 2 25 1 26
REMARK H PARENT
REMARK Flexibility Score: inf
ROOT
ATOM      1  C   UNL     1      -1.837 -33.004  47.744  1.00  0.00     0.000 C 
ENDROOT
BRANCH   1   2
ATOM      2  C   UNL     1      -0.955 -33.336  48.969  1.00  0.00     0.000 C 
BRANCH   2   3
ATOM      3  C   UNL     1       0.299 -34.179  48.655  1.00  0.00     0.000 C 
BRANCH   3   4
ATOM      4  C   UNL     1       0.100 -35.709  48.708  1.00  0.00     0.000 C 
BRANCH   4   5
ATOM      5  C   UNL     1      -0.566 -36.333  47.467  1.00  0.00     0.000 C 
BRANCH   5   6
ATOM      6  C   UNL     1       0.386 -37.123  46.551  1.00  0.00     0.000 C 
BRANCH   6   7
ATOM      7  C   UNL     1       0.040 -36.969  45.059  1.00  0.00     0.000 C 
BRANCH   7   8
ATOM      8  C   UNL     1      -0.060 -35.493  44.630  1.00  0.00     0.000 C 
BRANCH   8   9
ATOM      9  C   UNL     1       1.303 -34.836  44.342  1.00  0.00     0.000 C 
BRANCH   9  10
ATOM     10  C   UNL     1       1.930 -34.214  45.599  1.00  0.00     0.006 C 
BRANCH  10  11
ATOM     11  C   UNL     1       3.279 -34.869  45.921  1.00  0.00     0.053 C 
BRANCH  11  12
ATOM     12  C   UNL     1       3.689 -34.612  47.339  1.00  0.00     0.041 C 
ATOM     13  O   UNL     1       3.957 -35.572  48.110  1.00  0.00    -0.550 OA
ATOM     14  O   UNL     1       3.830 -33.306  47.795  1.00  0.00    -0.550 OA
ENDBRANCH  11  12
ENDBRANCH  10  11
ENDBRANCH   9  10
ENDBRANCH   8   9
ENDBRANCH   7   8
ENDBRANCH   6   7
ENDBRANCH   5   6
ENDBRANCH   4   5
ENDBRANCH   3   4
ENDBRANCH   2   3
ENDBRANCH   1   2
BRANCH   1  15
ATOM     15  C   UNL     1      -3.270 -33.566  47.832  1.00  0.00     0.000 C 
BRANCH  15  16
ATOM     16  C   UNL     1      -3.570 -34.405  49.089  1.00  0.00     0.000 C 
BRANCH  16  17
ATOM     17  C   UNL     1      -3.772 -35.912  48.838  1.00  0.00     0.000 C 
BRANCH  17  18
ATOM     18  C   UNL     1      -5.188 -36.257  48.354  1.00  0.00    -0.000 C 
BRANCH  18  19
ATOM     19  C   UNL     1      -5.134 -37.122  47.089  1.00  0.00    -0.000 C 
BRANCH  19  20
ATOM     20  C   UNL     1      -3.875 -36.825  46.265  1.00  0.00    -0.000 C 
BRANCH  20  21
ATOM     21  C   UNL     1      -4.212 -35.954  45.046  1.00  0.00    -0.000 C 
BRANCH  21  22
ATOM     22  C   UNL     1      -4.902 -34.638  45.432  1.00  0.00    -0.000 C 
BRANCH  22  23
ATOM     23  C   UNL     1      -6.219 -34.413  44.667  1.00  0.00    -0.000 C 
BRANCH  23  24
ATOM     24  C   UNL     1      -7.439 -34.365  45.611  1.00  0.00    -0.000 C 
BRANCH  24  25
ATOM     25  C   UNL     1      -7.071 -34.129  47.086  1.00  0.00    -0.003 C 
ATOM     26  C   UNL     1      -6.758 -32.669  47.403  1.00  0.00     0.004 C 
ENDBRANCH  24  25
ENDBRANCH  23  24
ENDBRANCH  22  23
ENDBRANCH  21  22
ENDBRANCH  20  21
ENDBRANCH  19  20
ENDBRANCH  18  19
ENDBRANCH  17  18
ENDBRANCH  16  17
ENDBRANCH  15  16
ENDBRANCH   1  15
TORSDOF 22
ENDMDL
MODEL 2
REMARK VINA RESULT:    -2.780      3.018      7.238
REMARK INTER + INTRA:          -9.398
REMARK INTER:                  -6.267
REMARK INTRA:                  -3.131
REMARK UNBOUND:                -3.043
REMARK SMILES CCCCCCCCCCCCCCCCCCCCCCCC(=O)[O-]
REMARK SMILES IDX 13 1 14 2 15 3 16 4 17 5 18 6 19 7 20 8 21 9 22 10 23 11
REMARK SMILES IDX 24 12 25 13 26 14 12 15 11 16 10 17 9 18 8 19 7 20 6 21 5 22
REMARK SMILES IDX 4 23 3 24 2 25 1 26
REMARK H PARENT
REMARK Flexibility Score: inf
ROOT
ATOM      1  C   UNL     1      -0.309 -34.881  47.771  1.00  0.00     0.000 C 
ENDROOT
BRANCH   1   2
ATOM      2  C   UNL     1      -1.194 -36.148  47.796  1.00  0.00     0.000 C 
BRANCH   2   3
ATOM      3  C   UNL     1      -0.964 -37.123  46.622  1.00  0.00     0.000 C 
BRANCH   3   4
ATOM      4  C   UNL     1      -1.524 -36.664  45.258  1.00  0.00     0.000 C 
BRANCH   4   5
ATOM      5  C   UNL     1      -2.997 -37.028  44.991  1.00  0.00     0.000 C 
BRANCH   5   6
ATOM      6  C   UNL     1      -4.018 -35.967  45.440  1.00  0.00     0.000 C 
BRANCH   6   7
ATOM      7  C   UNL     1      -5.416 -36.557  45.693  1.00  0.00     0.000 C 
BRANCH   7   8
ATOM      8  C   UNL     1      -5.835 -36.462  47.172  1.00  0.00     0.000 C 
BRANCH   8   9
ATOM      9  C   UNL     1      -4.648 -36.420  48.152  1.00  0.00     0.000 C 
BRANCH   9  10
ATOM     10  C   UNL     1      -4.514 -35.058  48.850  1.00  0.00     0.006 C 
BRANCH  10  11
ATOM     11  C   UNL     1      -4.277 -33.938  47.829  1.00  0.00     0.053 C 
BRANCH  11  12
ATOM     12  C   UNL     1      -5.360 -32.905  47.887  1.00  0.00     0.041 C 
ATOM     13  O   UNL     1      -5.284 -31.945  48.700  1.00  0.00    -0.550 OA
ATOM     14  O   UNL     1      -6.432 -32.971  47.003  1.00  0.00    -0.550 OA
ENDBRANCH  11  12
ENDBRANCH  10  11
ENDBRANCH   9  10
ENDBRANCH   8   9
ENDBRANCH   7   8
ENDBRANCH   6   7
ENDBRANCH   5   6
ENDBRANCH   4   5
ENDBRANCH   3   4
ENDBRANCH   2   3
ENDBRANCH   1   2
BRANCH   1  15
ATOM     15  C   UNL     1      -0.700 -33.822  48.820  1.00  0.00     0.000 C 
BRANCH  15  16
ATOM     16  C   UNL     1       0.257 -32.620  48.929  1.00  0.00     0.000 C 
BRANCH  16  17
ATOM     17  C   UNL     1       1.742 -32.980  49.124  1.00  0.00     0.000 C 
BRANCH  17  18
ATOM     18  C   UNL     1       2.612 -32.624  47.910  1.00  0.00    -0.000 C 
BRANCH  18  19
ATOM     19  C   UNL     1       3.672 -33.706  47.666  1.00  0.00    -0.000 C 
BRANCH  19  20
ATOM     20  C   UNL     1       3.488 -34.891  48.621  1.00  0.00    -0.000 C 
BRANCH  20  21
ATOM     21  C   UNL     1       3.080 -36.156  47.850  1.00  0.00    -0.000 C 
BRANCH  21  22
ATOM     22  C   UNL     1       3.416 -36.071  46.354  1.00  0.00    -0.000 C 
BRANCH  22  23
ATOM     23  C   UNL     1       2.482 -36.934  45.486  1.00  0.00    -0.000 C 
BRANCH  23  24
ATOM     24  C   UNL     1       1.902 -36.144  44.294  1.00  0.00    -0.000 C 
BRANCH  24  25
ATOM     25  C   UNL     1       2.032 -34.618  44.441  1.00  0.00    -0.003 C 
ATOM     26  C   UNL     1       0.856 -33.981  45.178  1.00  0.00     0.004 C 
ENDBRANCH  24  25
ENDBRANCH  23  24
ENDBRANCH  22  23
ENDBRANCH  21  22
ENDBRANCH  20  21
ENDBRANCH  19  20
ENDBRANCH  18  19
ENDBRANCH  17  18
ENDBRANCH  16  17
ENDBRANCH  15  16
ENDBRANCH   1  15
TORSDOF 22
ENDMDL
MODEL 3
REMARK VINA RESULT:    -2.762      3.019      7.238
REMARK INTER + INTRA:          -9.357
REMARK INTER:                  -6.830
REMARK INTRA:                  -2.527
REMARK UNBOUND:                -3.043
REMARK SMILES CCCCCCCCCCCCCCCCCCCCCCCC(=O)[O-]
REMARK SMILES IDX 13 1 14 2 15 3 16 4 17 5 18 6 19 7 20 8 21 9 22 10 23 11
REMARK SMILES IDX 24 12 25 13 26 14 12 15 11 16 10 17 9 18 8 19 7 20 6 21 5 22
REMARK SMILES IDX 4 23 3 24 2 25 1 26
REMARK H PARENT
REMARK Flexibility Score: inf
ROOT
ATOM      1  C   UNL     1      -1.438 -34.421  46.453  1.00  0.00     0.000 C 
ENDROOT
BRANCH   1   2
ATOM      2  C   UNL     1      -2.199 -35.748  46.236  1.00  0.00     0.000 C 
BRANCH   2   3
ATOM      3  C   UNL     1      -1.490 -37.001  46.793  1.00  0.00     0.000 C 
BRANCH   3   4
ATOM      4  C   UNL     1      -1.473 -37.125  48.332  1.00  0.00     0.000 C 
BRANCH   4   5
ATOM      5  C   UNL     1      -2.854 -37.077  49.015  1.00  0.00     0.000 C 
BRANCH   5   6
ATOM      6  C   UNL     1      -4.048 -36.957  48.051  1.00  0.00     0.000 C 
BRANCH   6   7
ATOM      7  C   UNL     1      -5.354 -36.572  48.767  1.00  0.00     0.000 C 
BRANCH   7   8
ATOM      8  C   UNL     1      -6.423 -36.040  47.795  1.00  0.00     0.000 C 
BRANCH   8   9
ATOM      9  C   UNL     1      -5.867 -35.660  46.409  1.00  0.00     0.000 C 
BRANCH   9  10
ATOM     10  C   UNL     1      -5.711 -34.141  46.237  1.00  0.00     0.006 C 
BRANCH  10  11
ATOM     11  C   UNL     1      -6.679 -33.383  47.154  1.00  0.00     0.053 C 
BRANCH  11  12
ATOM     12  C   UNL     1      -5.958 -32.375  47.996  1.00  0.00     0.041 C 
ATOM     13  O   UNL     1      -4.870 -32.672  48.556  1.00  0.00    -0.550 OA
ATOM     14  O   UNL     1      -6.462 -31.084  48.118  1.00  0.00    -0.550 OA
ENDBRANCH  11  12
ENDBRANCH  10  11
ENDBRANCH   9  10
ENDBRANCH   8   9
ENDBRANCH   7   8
ENDBRANCH   6   7
ENDBRANCH   5   6
ENDBRANCH   4   5
ENDBRANCH   3   4
ENDBRANCH   2   3
ENDBRANCH   1   2
BRANCH   1  15
ATOM     15  C   UNL     1      -2.054 -33.514  47.536  1.00  0.00     0.000 C 
BRANCH  15  16
ATOM     16  C   UNL     1      -1.329 -33.528  48.895  1.00  0.00     0.000 C 
BRANCH  16  17
ATOM     17  C   UNL     1      -0.005 -34.315  48.924  1.00  0.00     0.000 C 
BRANCH  17  18
ATOM     18  C   UNL     1       1.175 -33.530  48.333  1.00  0.00    -0.000 C 
BRANCH  18  19
ATOM     19  C   UNL     1       2.510 -34.093  48.835  1.00  0.00    -0.000 C 
BRANCH  19  20
ATOM     20  C   UNL     1       2.407 -35.597  49.119  1.00  0.00    -0.000 C 
BRANCH  20  21
ATOM     21  C   UNL     1       3.202 -36.405  48.082  1.00  0.00    -0.000 C 
BRANCH  21  22
ATOM     22  C   UNL     1       2.298 -37.103  47.057  1.00  0.00    -0.000 C 
BRANCH  22  23
ATOM     23  C   UNL     1       2.673 -36.762  45.604  1.00  0.00    -0.000 C 
BRANCH  23  24
ATOM     24  C   UNL     1       3.210 -35.321  45.465  1.00  0.00    -0.000 C 
BRANCH  24  25
ATOM     25  C   UNL     1       2.355 -34.429  44.547  1.00  0.00    -0.003 C 
ATOM     26  C   UNL     1       0.948 -34.975  44.317  1.00  0.00     0.004 C 
ENDBRANCH  24  25
ENDBRANCH  23  24
ENDBRANCH  22  23
ENDBRANCH  21  22
ENDBRANCH  20  21
ENDBRANCH  19  20
ENDBRANCH  18  19
ENDBRANCH  17  18
ENDBRANCH  16  17
ENDBRANCH  15  16
ENDBRANCH   1  15
TORSDOF 22
ENDMDL
MODEL 4
REMARK VINA RESULT:    -2.502      1.820      3.470
REMARK INTER + INTRA:          -8.762
REMARK INTER:                  -6.553
REMARK INTRA:                  -2.209
REMARK UNBOUND:                -3.043
REMARK SMILES CCCCCCCCCCCCCCCCCCCCCCCC(=O)[O-]
REMARK SMILES IDX 13 1 14 2 15 3 16 4 17 5 18 6 19 7 20 8 21 9 22 10 23 11
REMARK SMILES IDX 24 12 25 13 26 14 12 15 11 16 10 17 9 18 8 19 7 20 6 21 5 22
REMARK SMILES IDX 4 23 3 24 2 25 1 26
REMARK H PARENT
REMARK Flexibility Score: inf
ROOT
ATOM      1  C   UNL     1      -1.491 -33.806  46.643  1.00  0.00     0.000 C 
ENDROOT
BRANCH   1   2
ATOM      2  C   UNL     1      -0.802 -34.352  47.914  1.00  0.00     0.000 C 
BRANCH   2   3
ATOM      3  C   UNL     1      -0.631 -33.324  49.053  1.00  0.00     0.000 C 
BRANCH   3   4
ATOM      4  C   UNL     1       0.746 -32.629  49.118  1.00  0.00     0.000 C 
BRANCH   4   5
ATOM      5  C   UNL     1       1.964 -33.573  49.125  1.00  0.00     0.000 C 
BRANCH   5   6
ATOM      6  C   UNL     1       3.224 -33.009  48.444  1.00  0.00     0.000 C 
BRANCH   6   7
ATOM      7  C   UNL     1       4.088 -34.102  47.792  1.00  0.00     0.000 C 
BRANCH   7   8
ATOM      8  C   UNL     1       3.416 -35.488  47.840  1.00  0.00     0.000 C 
BRANCH   8   9
ATOM      9  C   UNL     1       4.033 -36.510  46.867  1.00  0.00     0.000 C 
BRANCH   9  10
ATOM     10  C   UNL     1       3.095 -36.846  45.697  1.00  0.00     0.006 C 
BRANCH  10  11
ATOM     11  C   UNL     1       1.803 -36.024  45.778  1.00  0.00     0.053 C 
BRANCH  11  12
ATOM     12  C   UNL     1       1.789 -34.921  44.765  1.00  0.00     0.041 C 
ATOM     13  O   UNL     1       2.851 -34.306  44.478  1.00  0.00    -0.550 OA
ATOM     14  O   UNL     1       0.612 -34.609  44.093  1.00  0.00    -0.550 OA
ENDBRANCH  11  12
ENDBRANCH  10  11
ENDBRANCH   9  10
ENDBRANCH   8   9
ENDBRANCH   7   8
ENDBRANCH   6   7
ENDBRANCH   5   6
ENDBRANCH   4   5
ENDBRANCH   3   4
ENDBRANCH   2   3
ENDBRANCH   1   2
BRANCH   1  15
ATOM     15  C   UNL     1      -2.322 -34.856  45.880  1.00  0.00     0.000 C 
BRANCH  15  16
ATOM     16  C   UNL     1      -2.269 -36.283  46.459  1.00  0.00     0.000 C 
BRANCH  16  17
ATOM     17  C   UNL     1      -3.558 -36.755  47.159  1.00  0.00     0.000 C 
BRANCH  17  18
ATOM     18  C   UNL     1      -3.666 -36.271  48.612  1.00  0.00    -0.000 C 
BRANCH  18  19
ATOM     19  C   UNL     1      -4.779 -35.226  48.755  1.00  0.00    -0.000 C 
BRANCH  19  20
ATOM     20  C   UNL     1      -4.318 -33.850  48.259  1.00  0.00    -0.000 C 
BRANCH  20  21
ATOM     21  C   UNL     1      -5.459 -32.825  48.352  1.00  0.00    -0.000 C 
BRANCH  21  22
ATOM     22  C   UNL     1      -6.509 -33.008  47.247  1.00  0.00    -0.000 C 
BRANCH  22  23
ATOM     23  C   UNL     1      -6.143 -34.131  46.261  1.00  0.00    -0.000 C 
BRANCH  23  24
ATOM     24  C   UNL     1      -6.172 -33.651  44.794  1.00  0.00    -0.000 C 
BRANCH  24  25
ATOM     25  C   UNL     1      -6.168 -34.797  43.768  1.00  0.00    -0.003 C 
ATOM     26  C   UNL     1      -5.082 -35.838  44.032  1.00  0.00     0.004 C 
ENDBRANCH  24  25
ENDBRANCH  23  24
ENDBRANCH  22  23
ENDBRANCH  21  22
ENDBRANCH  20  21
ENDBRANCH  19  20
ENDBRANCH  18  19
ENDBRANCH  17  18
ENDBRANCH  16  17
ENDBRANCH  15  16
ENDBRANCH   1  15
TORSDOF 22
ENDMDL
MODEL 5
REMARK VINA RESULT:    -2.450      1.555      3.797
REMARK INTER + INTRA:          -8.644
REMARK INTER:                  -6.605
REMARK INTRA:                  -2.039
REMARK UNBOUND:                -3.043
REMARK SMILES CCCCCCCCCCCCCCCCCCCCCCCC(=O)[O-]
REMARK SMILES IDX 13 1 14 2 15 3 16 4 17 5 18 6 19 7 20 8 21 9 22 10 23 11
REMARK SMILES IDX 24 12 25 13 26 14 12 15 11 16 10 17 9 18 8 19 7 20 6 21 5 22
REMARK SMILES IDX 4 23 3 24 2 25 1 26
REMARK H PARENT
REMARK Flexibility Score: inf
ROOT
ATOM      1  C   UNL     1       0.743 -34.032  44.848  1.00  0.00     0.000 C 
ENDROOT
BRANCH   1   2
ATOM      2  C   UNL     1       1.975 -34.840  44.381  1.00  0.00     0.000 C 
BRANCH   2   3
ATOM      3  C   UNL     1       2.960 -35.230  45.504  1.00  0.00     0.000 C 
BRANCH   3   4
ATOM      4  C   UNL     1       3.089 -36.744  45.776  1.00  0.00     0.000 C 
BRANCH   4   5
ATOM      5  C   UNL     1       3.903 -37.124  47.027  1.00  0.00     0.000 C 
BRANCH   5   6
ATOM      6  C   UNL     1       4.394 -35.931  47.867  1.00  0.00     0.000 C 
BRANCH   6   7
ATOM      7  C   UNL     1       3.525 -35.684  49.113  1.00  0.00     0.000 C 
BRANCH   7   8
ATOM      8  C   UNL     1       2.097 -36.238  48.952  1.00  0.00     0.000 C 
BRANCH   8   9
ATOM      9  C   UNL     1       1.067 -35.181  48.513  1.00  0.00     0.000 C 
BRANCH   9  10
ATOM     10  C   UNL     1       1.348 -33.800  49.125  1.00  0.00     0.006 C 
BRANCH  10  11
ATOM     11  C   UNL     1       1.663 -32.770  48.032  1.00  0.00     0.053 C 
BRANCH  11  12
ATOM     12  C   UNL     1       3.050 -32.224  48.179  1.00  0.00     0.041 C 
ATOM     13  O   UNL     1       4.046 -32.900  47.807  1.00  0.00    -0.550 OA
ATOM     14  O   UNL     1       3.241 -30.939  48.676  1.00  0.00    -0.550 OA
ENDBRANCH  11  12
ENDBRANCH  10  11
ENDBRANCH   9  10
ENDBRANCH   8   9
ENDBRANCH   7   8
ENDBRANCH   6   7
ENDBRANCH   5   6
ENDBRANCH   4   5
ENDBRANCH   3   4
ENDBRANCH   2   3
ENDBRANCH   1   2
BRANCH   1  15
ATOM     15  C   UNL     1      -0.565 -34.848  44.886  1.00  0.00     0.000 C 
BRANCH  15  16
ATOM     16  C   UNL     1      -0.456 -36.233  45.551  1.00  0.00     0.000 C 
BRANCH  16  17
ATOM     17  C   UNL     1      -1.702 -36.682  46.338  1.00  0.00     0.000 C 
BRANCH  17  18
ATOM     18  C   UNL     1      -1.501 -36.636  47.859  1.00  0.00    -0.000 C 
BRANCH  18  19
ATOM     19  C   UNL     1      -2.812 -36.277  48.570  1.00  0.00    -0.000 C 
BRANCH  19  20
ATOM     20  C   UNL     1      -3.371 -34.942  48.065  1.00  0.00    -0.000 C 
BRANCH  20  21
ATOM     21  C   UNL     1      -4.907 -34.940  48.109  1.00  0.00    -0.000 C 
BRANCH  21  22
ATOM     22  C   UNL     1      -5.508 -33.576  47.742  1.00  0.00    -0.000 C 
BRANCH  22  23
ATOM     23  C   UNL     1      -6.393 -33.636  46.484  1.00  0.00    -0.000 C 
BRANCH  23  24
ATOM     24  C   UNL     1      -6.418 -35.046  45.858  1.00  0.00    -0.000 C 
BRANCH  24  25
ATOM     25  C   UNL     1      -6.288 -35.044  44.324  1.00  0.00    -0.003 C 
ATOM     26  C   UNL     1      -5.234 -34.066  43.811  1.00  0.00     0.004 C 
ENDBRANCH  24  25
ENDBRANCH  23  24
ENDBRANCH  22  23
ENDBRANCH  21  22
ENDBRANCH  20  21
ENDBRANCH  19  20
ENDBRANCH  18  19
ENDBRANCH  17  18
ENDBRANCH  16  17
ENDBRANCH  15  16
ENDBRANCH   1  15
TORSDOF 22
ENDMDL
MODEL 6
REMARK VINA RESULT:    -2.427      3.385      6.233
REMARK INTER + INTRA:          -8.590
REMARK INTER:                  -6.653
REMARK INTRA:                  -1.938
REMARK UNBOUND:                -3.043
REMARK SMILES CCCCCCCCCCCCCCCCCCCCCCCC(=O)[O-]
REMARK SMILES IDX 13 1 14 2 15 3 16 4 17 5 18 6 19 7 20 8 21 9 22 10 23 11
REMARK SMILES IDX 24 12 25 13 26 14 12 15 11 16 10 17 9 18 8 19 7 20 6 21 5 22
REMARK SMILES IDX 4 23 3 24 2 25 1 26
REMARK H PARENT
REMARK Flexibility Score: inf
ROOT
ATOM      1  C   UNL     1       3.626 -35.469  48.700  1.00  0.00     0.000 C 
ENDROOT
BRANCH   1   2
ATOM      2  C   UNL     1       4.045 -34.161  47.991  1.00  0.00     0.000 C 
BRANCH   2   3
ATOM      3  C   UNL     1       3.825 -32.876  48.817  1.00  0.00     0.000 C 
BRANCH   3   4
ATOM      4  C   UNL     1       2.356 -32.420  48.953  1.00  0.00     0.000 C 
BRANCH   4   5
ATOM      5  C   UNL     1       1.321 -33.287  48.211  1.00  0.00     0.000 C 
BRANCH   5   6
ATOM      6  C   UNL     1       0.369 -34.081  49.123  1.00  0.00     0.000 C 
BRANCH   6   7
ATOM      7  C   UNL     1      -0.722 -34.828  48.337  1.00  0.00     0.000 C 
BRANCH   7   8
ATOM      8  C   UNL     1      -2.114 -34.683  48.981  1.00  0.00     0.000 C 
BRANCH   8   9
ATOM      9  C   UNL     1      -2.916 -33.477  48.458  1.00  0.00     0.000 C 
BRANCH   9  10
ATOM     10  C   UNL     1      -4.434 -33.684  48.585  1.00  0.00     0.006 C 
BRANCH  10  11
ATOM     11  C   UNL     1      -5.150 -33.297  47.285  1.00  0.00     0.053 C 
BRANCH  11  12
ATOM     12  C   UNL     1      -6.510 -32.730  47.556  1.00  0.00     0.041 C 
ATOM     13  O   UNL     1      -7.544 -33.409  47.318  1.00  0.00    -0.550 OA
ATOM     14  O   UNL     1      -6.634 -31.468  48.127  1.00  0.00    -0.550 OA
ENDBRANCH  11  12
ENDBRANCH  10  11
ENDBRANCH   9  10
ENDBRANCH   8   9
ENDBRANCH   7   8
ENDBRANCH   6   7
ENDBRANCH   5   6
ENDBRANCH   4   5
ENDBRANCH   3   4
ENDBRANCH   2   3
ENDBRANCH   1   2
BRANCH   1  15
ATOM     15  C   UNL     1       3.834 -36.738  47.849  1.00  0.00     0.000 C 
BRANCH  15  16
ATOM     16  C   UNL     1       2.666 -37.099  46.911  1.00  0.00     0.000 C 
BRANCH  16  17
ATOM     17  C   UNL     1       2.760 -36.509  45.491  1.00  0.00     0.000 C 
BRANCH  17  18
ATOM     18  C   UNL     1       1.601 -35.559  45.156  1.00  0.00    -0.000 C 
BRANCH  18  19
ATOM     19  C   UNL     1       0.481 -36.307  44.421  1.00  0.00    -0.000 C 
BRANCH  19  20
ATOM     20  C   UNL     1      -0.460 -37.008  45.407  1.00  0.00    -0.000 C 
BRANCH  20  21
ATOM     21  C   UNL     1      -1.927 -36.820  44.990  1.00  0.00    -0.000 C 
BRANCH  21  22
ATOM     22  C   UNL     1      -2.646 -35.749  45.822  1.00  0.00    -0.000 C 
BRANCH  22  23
ATOM     23  C   UNL     1      -3.609 -34.892  44.980  1.00  0.00    -0.000 C 
BRANCH  23  24
ATOM     24  C   UNL     1      -4.673 -35.749  44.260  1.00  0.00    -0.000 C 
BRANCH  24  25
ATOM     25  C   UNL     1      -6.119 -35.317  44.558  1.00  0.00    -0.003 C 
ATOM     26  C   UNL     1      -6.481 -33.964  43.950  1.00  0.00     0.004 C 
ENDBRANCH  24  25
ENDBRANCH  23  24
ENDBRANCH  22  23
ENDBRANCH  21  22
ENDBRANCH  20  21
ENDBRANCH  19  20
ENDBRANCH  18  19
ENDBRANCH  17  18
ENDBRANCH  16  17
ENDBRANCH  15  16
ENDBRANCH   1  15
TORSDOF 22
ENDMDL
MODEL 7
REMARK VINA RESULT:    -1.051      2.956      7.664
REMARK INTER + INTRA:          -5.446
REMARK INTER:                  -3.525
REMARK INTRA:                  -1.921
REMARK UNBOUND:                -3.043
REMARK SMILES CCCCCCCCCCCCCCCCCCCCCCCC(=O)[O-]
REMARK SMILES IDX 13 1 14 2 15 3 16 4 17 5 18 6 19 7 20 8 21 9 22 10 23 11
REMARK SMILES IDX 24 12 25 13 26 14 12 15 11 16 10 17 9 18 8 19 7 20 6 21 5 22
REMARK SMILES IDX 4 23 3 24 2 25 1 26
REMARK H PARENT
REMARK Flexibility Score: inf
ROOT
ATOM      1  C   UNL     1      -0.496 -34.977  46.205  1.00  0.00     0.000 C 
ENDROOT
BRANCH   1   2
ATOM      2  C   UNL     1      -1.383 -35.919  45.359  1.00  0.00     0.000 C 
BRANCH   2   3
ATOM      3  C   UNL     1      -2.063 -37.055  46.152  1.00  0.00     0.000 C 
BRANCH   3   4
ATOM      4  C   UNL     1      -3.601 -37.124  46.024  1.00  0.00     0.000 C 
BRANCH   4   5
ATOM      5  C   UNL     1      -4.384 -36.903  47.333  1.00  0.00     0.000 C 
BRANCH   5   6
ATOM      6  C   UNL     1      -3.879 -35.734  48.199  1.00  0.00     0.000 C 
BRANCH   6   7
ATOM      7  C   UNL     1      -5.023 -34.861  48.744  1.00  0.00     0.000 C 
BRANCH   7   8
ATOM      8  C   UNL     1      -5.471 -33.785  47.737  1.00  0.00     0.000 C 
BRANCH   8   9
ATOM      9  C   UNL     1      -6.942 -33.918  47.300  1.00  0.00     0.000 C 
BRANCH   9  10
ATOM     10  C   UNL     1      -7.110 -34.834  46.078  1.00  0.00     0.006 C 
BRANCH  10  11
ATOM     11  C   UNL     1      -6.705 -34.107  44.789  1.00  0.00     0.053 C 
BRANCH  11  12
ATOM     12  C   UNL     1      -5.362 -34.560  44.304  1.00  0.00     0.041 C 
ATOM     13  O   UNL     1      -5.262 -35.253  43.256  1.00  0.00    -0.550 OA
ATOM     14  O   UNL     1      -4.211 -34.167  44.978  1.00  0.00    -0.550 OA
ENDBRANCH  11  12
ENDBRANCH  10  11
ENDBRANCH   9  10
ENDBRANCH   8   9
ENDBRANCH   7   8
ENDBRANCH   6   7
ENDBRANCH   5   6
ENDBRANCH   4   5
ENDBRANCH   3   4
ENDBRANCH   2   3
ENDBRANCH   1   2
BRANCH   1  15
ATOM     15  C   UNL     1      -1.258 -33.791  46.830  1.00  0.00     0.000 C 
BRANCH  15  16
ATOM     16  C   UNL     1      -1.371 -33.819  48.366  1.00  0.00     0.000 C 
BRANCH  16  17
ATOM     17  C   UNL     1      -0.073 -33.486  49.125  1.00  0.00     0.000 C 
BRANCH  17  18
ATOM     18  C   UNL     1       1.130 -34.313  48.651  1.00  0.00    -0.000 C 
BRANCH  18  19
ATOM     19  C   UNL     1       2.424 -33.497  48.749  1.00  0.00    -0.000 C 
BRANCH  19  20
ATOM     20  C   UNL     1       3.640 -34.327  48.319  1.00  0.00    -0.000 C 
BRANCH  20  21
ATOM     21  C   UNL     1       3.558 -35.751  48.889  1.00  0.00    -0.000 C 
BRANCH  21  22
ATOM     22  C   UNL     1       4.031 -36.816  47.890  1.00  0.00    -0.000 C 
BRANCH  22  23
ATOM     23  C   UNL     1       3.986 -36.324  46.432  1.00  0.00    -0.000 C 
BRANCH  23  24
ATOM     24  C   UNL     1       2.731 -36.825  45.687  1.00  0.00    -0.000 C 
BRANCH  24  25
ATOM     25  C   UNL     1       2.183 -35.822  44.656  1.00  0.00    -0.003 C 
ATOM     26  C   UNL     1       2.884 -34.467  44.702  1.00  0.00     0.004 C 
ENDBRANCH  24  25
ENDBRANCH  23  24
ENDBRANCH  22  23
ENDBRANCH  21  22
ENDBRANCH  20  21
ENDBRANCH  19  20
ENDBRANCH  18  19
ENDBRANCH  17  18
ENDBRANCH  16  17
ENDBRANCH  15  16
ENDBRANCH   1  15
TORSDOF 22
ENDMDL
