MODEL 1
REMARK VINA RESULT:    -4.335      0.000      0.000
REMARK INTER + INTRA:          -4.335
REMARK INTER:                  -4.335
REMARK INTRA:                   0.000
REMARK UNBOUND:                 0.000
REMARK SMILES c1ccc2ccccc2c1
REMARK SMILES IDX 2 1 1 2 10 3 9 4 8 5 7 6 6 7 5 8 4 9 3 10
REMARK H PARENT
REMARK Flexibility Score: inf
ROOT
ATOM      1  C   UNL     1      27.457   7.495   3.492  1.00  0.00     0.001 A 
ATOM      2  C   UNL     1      28.464   7.593   2.527  1.00  0.00     0.001 A 
ATOM      3  C   UNL     1      28.161   7.414   1.174  1.00  0.00     0.009 A 
ATOM      4  C   UNL     1      26.844   7.134   0.778  1.00  0.00    -0.018 A 
ATOM      5  C   UNL     1      26.526   6.952  -0.577  1.00  0.00     0.009 A 
ATOM      6  C   UNL     1      25.210   6.675  -0.958  1.00  0.00     0.001 A 
ATOM      7  C   UNL     1      24.204   6.578   0.007  1.00  0.00     0.001 A 
ATOM      8  C   UNL     1      24.507   6.757   1.360  1.00  0.00     0.009 A 
ATOM      9  C   UNL     1      25.823   7.036   1.756  1.00  0.00    -0.018 A 
ATOM     10  C   UNL     1      26.141   7.219   3.111  1.00  0.00     0.009 A 
ENDROOT
TORSDOF 0
ENDMDL
MODEL 2
REMARK VINA RESULT:    -4.321      0.049      2.081
REMARK INTER + INTRA:          -4.321
REMARK INTER:                  -4.321
REMARK INTRA:                   0.000
REMARK UNBOUND:                 0.000
REMARK SMILES c1ccc2ccccc2c1
REMARK SMILES IDX 2 1 1 2 10 3 9 4 8 5 7 6 6 7 5 8 4 9 3 10
REMARK H PARENT
REMARK Flexibility Score: inf
ROOT
ATOM      1  C   UNL     1      28.445   7.598   2.492  1.00  0.00     0.001 A 
ATOM      2  C   UNL     1      27.437   7.528   3.457  1.00  0.00     0.001 A 
ATOM      3  C   UNL     1      26.117   7.266   3.078  1.00  0.00     0.009 A 
ATOM      4  C   UNL     1      25.799   7.071   1.725  1.00  0.00    -0.018 A 
ATOM      5  C   UNL     1      24.478   6.806   1.330  1.00  0.00     0.009 A 
ATOM      6  C   UNL     1      24.174   6.614  -0.021  1.00  0.00     0.001 A 
ATOM      7  C   UNL     1      25.183   6.684  -0.986  1.00  0.00     0.001 A 
ATOM      8  C   UNL     1      26.503   6.946  -0.606  1.00  0.00     0.009 A 
ATOM      9  C   UNL     1      26.821   7.141   0.747  1.00  0.00    -0.018 A 
ATOM     10  C   UNL     1      28.142   7.406   1.141  1.00  0.00     0.009 A 
ENDROOT
TORSDOF 0
ENDMDL
MODEL 3
REMARK VINA RESULT:    -4.316      0.076      3.437
REMARK INTER + INTRA:          -4.316
REMARK INTER:                  -4.316
REMARK INTRA:                   0.000
REMARK UNBOUND:                 0.000
REMARK SMILES c1ccc2ccccc2c1
REMARK SMILES IDX 2 1 1 2 10 3 9 4 8 5 7 6 6 7 5 8 4 9 3 10
REMARK H PARENT
REMARK Flexibility Score: inf
ROOT
ATOM      1  C   UNL     1      24.171   6.675  -0.029  1.00  0.00     0.001 A 
ATOM      2  C   UNL     1      25.191   6.776  -0.979  1.00  0.00     0.001 A 
ATOM      3  C   UNL     1      26.506   7.022  -0.575  1.00  0.00     0.009 A 
ATOM      4  C   UNL     1      26.809   7.169   0.787  1.00  0.00    -0.018 A 
ATOM      5  C   UNL     1      28.126   7.417   1.206  1.00  0.00     0.009 A 
ATOM      6  C   UNL     1      28.414   7.561   2.566  1.00  0.00     0.001 A 
ATOM      7  C   UNL     1      27.394   7.461   3.516  1.00  0.00     0.001 A 
ATOM      8  C   UNL     1      26.078   7.215   3.112  1.00  0.00     0.009 A 
ATOM      9  C   UNL     1      25.775   7.067   1.750  1.00  0.00    -0.018 A 
ATOM     10  C   UNL     1      24.458   6.819   1.331  1.00  0.00     0.009 A 
ENDROOT
TORSDOF 0
ENDMDL
MODEL 4
REMARK VINA RESULT:    -4.302      0.087      4.017
REMARK INTER + INTRA:          -4.302
REMARK INTER:                  -4.302
REMARK INTRA:                   0.000
REMARK UNBOUND:                 0.000
REMARK SMILES c1ccc2ccccc2c1
REMARK SMILES IDX 2 1 1 2 10 3 9 4 8 5 7 6 6 7 5 8 4 9 3 10
REMARK H PARENT
REMARK Flexibility Score: inf
ROOT
ATOM      1  C   UNL     1      25.187   6.782  -0.990  1.00  0.00     0.001 A 
ATOM      2  C   UNL     1      24.168   6.722  -0.036  1.00  0.00     0.001 A 
ATOM      3  C   UNL     1      24.465   6.879   1.321  1.00  0.00     0.009 A 
ATOM      4  C   UNL     1      25.789   7.097   1.732  1.00  0.00    -0.018 A 
ATOM      5  C   UNL     1      26.101   7.256   3.091  1.00  0.00     0.009 A 
ATOM      6  C   UNL     1      27.424   7.474   3.486  1.00  0.00     0.001 A 
ATOM      7  C   UNL     1      28.443   7.534   2.532  1.00  0.00     0.001 A 
ATOM      8  C   UNL     1      28.146   7.377   1.175  1.00  0.00     0.009 A 
ATOM      9  C   UNL     1      26.822   7.159   0.764  1.00  0.00    -0.018 A 
ATOM     10  C   UNL     1      26.510   6.999  -0.595  1.00  0.00     0.009 A 
ENDROOT
TORSDOF 0
ENDMDL
MODEL 5
REMARK VINA RESULT:    -3.920      4.182      6.137
REMARK INTER + INTRA:          -3.920
REMARK INTER:                  -3.920
REMARK INTRA:                   0.000
REMARK UNBOUND:                 0.000
REMARK SMILES c1ccc2ccccc2c1
REMARK SMILES IDX 2 1 1 2 10 3 9 4 8 5 7 6 6 7 5 8 4 9 3 10
REMARK H PARENT
REMARK Flexibility Score: inf
ROOT
ATOM      1  C   UNL     1      33.744   4.661   1.371  1.00  0.00     0.001 A 
ATOM      2  C   UNL     1      33.364   5.324   0.201  1.00  0.00     0.001 A 
ATOM      3  C   UNL     1      32.273   6.198   0.210  1.00  0.00     0.009 A 
ATOM      4  C   UNL     1      31.554   6.414   1.396  1.00  0.00    -0.018 A 
ATOM      5  C   UNL     1      30.456   7.288   1.419  1.00  0.00     0.009 A 
ATOM      6  C   UNL     1      29.749   7.495   2.607  1.00  0.00     0.001 A 
ATOM      7  C   UNL     1      30.129   6.832   3.777  1.00  0.00     0.001 A 
ATOM      8  C   UNL     1      31.220   5.958   3.767  1.00  0.00     0.009 A 
ATOM      9  C   UNL     1      31.940   5.742   2.582  1.00  0.00    -0.018 A 
ATOM     10  C   UNL     1      33.037   4.868   2.559  1.00  0.00     0.009 A 
ENDROOT
TORSDOF 0
ENDMDL
MODEL 6
REMARK VINA RESULT:    -3.910      1.283      3.056
REMARK INTER + INTRA:          -3.910
REMARK INTER:                  -3.910
REMARK INTRA:                   0.000
REMARK UNBOUND:                 0.000
REMARK SMILES c1ccc2ccccc2c1
REMARK SMILES IDX 2 1 1 2 10 3 9 4 8 5 7 6 6 7 5 8 4 9 3 10
REMARK H PARENT
REMARK Flexibility Score: inf
ROOT
ATOM      1  C   UNL     1      27.045   7.268   0.370  1.00  0.00     0.001 A 
ATOM      2  C   UNL     1      26.345   6.970  -0.802  1.00  0.00     0.001 A 
ATOM      3  C   UNL     1      25.016   6.543  -0.738  1.00  0.00     0.009 A 
ATOM      4  C   UNL     1      24.377   6.412   0.504  1.00  0.00    -0.018 A 
ATOM      5  C   UNL     1      23.042   5.985   0.583  1.00  0.00     0.009 A 
ATOM      6  C   UNL     1      22.418   5.860   1.827  1.00  0.00     0.001 A 
ATOM      7  C   UNL     1      23.117   6.158   2.999  1.00  0.00     0.001 A 
ATOM      8  C   UNL     1      24.447   6.585   2.935  1.00  0.00     0.009 A 
ATOM      9  C   UNL     1      25.086   6.716   1.693  1.00  0.00    -0.018 A 
ATOM     10  C   UNL     1      26.421   7.143   1.614  1.00  0.00     0.009 A 
ENDROOT
TORSDOF 0
ENDMDL
MODEL 7
REMARK VINA RESULT:    -3.908      4.127      6.139
REMARK INTER + INTRA:          -3.908
REMARK INTER:                  -3.908
REMARK INTRA:                   0.000
REMARK UNBOUND:                 0.000
REMARK SMILES c1ccc2ccccc2c1
REMARK SMILES IDX 2 1 1 2 10 3 9 4 8 5 7 6 6 7 5 8 4 9 3 10
REMARK H PARENT
REMARK Flexibility Score: inf
ROOT
ATOM      1  C   UNL     1      30.080   6.868   3.753  1.00  0.00     0.001 A 
ATOM      2  C   UNL     1      29.685   7.536   2.591  1.00  0.00     0.001 A 
ATOM      3  C   UNL     1      30.390   7.351   1.398  1.00  0.00     0.009 A 
ATOM      4  C   UNL     1      31.500   6.493   1.362  1.00  0.00    -0.018 A 
ATOM      5  C   UNL     1      32.218   6.299   0.171  1.00  0.00     0.009 A 
ATOM      6  C   UNL     1      33.321   5.441   0.149  1.00  0.00     0.001 A 
ATOM      7  C   UNL     1      33.716   4.773   1.311  1.00  0.00     0.001 A 
ATOM      8  C   UNL     1      33.011   4.957   2.504  1.00  0.00     0.009 A 
ATOM      9  C   UNL     1      31.901   5.815   2.540  1.00  0.00    -0.018 A 
ATOM     10  C   UNL     1      31.183   6.010   3.731  1.00  0.00     0.009 A 
ENDROOT
TORSDOF 0
ENDMDL
MODEL 8
REMARK VINA RESULT:    -3.904      6.337      7.901
REMARK INTER + INTRA:          -3.904
REMARK INTER:                  -3.904
REMARK INTRA:                   0.000
REMARK UNBOUND:                 0.000
REMARK SMILES c1ccc2ccccc2c1
REMARK SMILES IDX 2 1 1 2 10 3 9 4 8 5 7 6 6 7 5 8 4 9 3 10
REMARK H PARENT
REMARK Flexibility Score: inf
ROOT
ATOM      1  C   UNL     1      34.712   2.585   2.804  1.00  0.00     0.001 A 
ATOM      2  C   UNL     1      35.469   2.829   1.655  1.00  0.00     0.001 A 
ATOM      3  C   UNL     1      35.093   3.841   0.767  1.00  0.00     0.009 A 
ATOM      4  C   UNL     1      33.954   4.618   1.026  1.00  0.00    -0.018 A 
ATOM      5  C   UNL     1      33.565   5.638   0.143  1.00  0.00     0.009 A 
ATOM      6  C   UNL     1      32.428   6.405   0.414  1.00  0.00     0.001 A 
ATOM      7  C   UNL     1      31.672   6.161   1.564  1.00  0.00     0.001 A 
ATOM      8  C   UNL     1      32.048   5.149   2.452  1.00  0.00     0.009 A 
ATOM      9  C   UNL     1      33.187   4.372   2.192  1.00  0.00    -0.018 A 
ATOM     10  C   UNL     1      33.576   3.352   3.075  1.00  0.00     0.009 A 
ENDROOT
TORSDOF 0
ENDMDL
MODEL 9
REMARK VINA RESULT:    -3.891      1.268      3.166
REMARK INTER + INTRA:          -3.891
REMARK INTER:                  -3.891
REMARK INTRA:                   0.000
REMARK UNBOUND:                 0.000
REMARK SMILES c1ccc2ccccc2c1
REMARK SMILES IDX 2 1 1 2 10 3 9 4 8 5 7 6 6 7 5 8 4 9 3 10
REMARK H PARENT
REMARK Flexibility Score: inf
ROOT
ATOM      1  C   UNL     1      26.416   6.972  -0.757  1.00  0.00     0.001 A 
ATOM      2  C   UNL     1      27.086   7.315   0.421  1.00  0.00     0.001 A 
ATOM      3  C   UNL     1      26.431   7.226   1.653  1.00  0.00     0.009 A 
ATOM      4  C   UNL     1      25.099   6.790   1.713  1.00  0.00    -0.018 A 
ATOM      5  C   UNL     1      24.430   6.696   2.944  1.00  0.00     0.009 A 
ATOM      6  C   UNL     1      23.103   6.260   2.990  1.00  0.00     0.001 A 
ATOM      7  C   UNL     1      22.434   5.917   1.812  1.00  0.00     0.001 A 
ATOM      8  C   UNL     1      23.088   6.007   0.580  1.00  0.00     0.009 A 
ATOM      9  C   UNL     1      24.420   6.442   0.519  1.00  0.00    -0.018 A 
ATOM     10  C   UNL     1      25.089   6.537  -0.712  1.00  0.00     0.009 A 
ENDROOT
TORSDOF 0
ENDMDL
