MODEL 1
REMARK VINA RESULT:    -2.740      0.000      0.000
REMARK INTER + INTRA:          -3.640
REMARK INTER:                  -3.861
REMARK INTRA:                   0.221
REMARK UNBOUND:                 0.221
REMARK SMILES CC1=CCC(=C(C)C)C(=O)CC(C)=CCC1
REMARK SMILES IDX 12 1 14 2 13 3 15 4 16 5 2 6 1 7 3 8 11 10 9 11 10 12 5 13
REMARK SMILES IDX 6 14 7 15 8 16 4 17
REMARK H PARENT
REMARK Flexibility Score: 60.00
ROOT
ATOM      1  C   UNL     1     185.338 201.439 212.155  1.00  0.00    -0.070 C 
ATOM      2  C   UNL     1     185.910 202.249 213.082  1.00  0.00    -0.027 C 
ATOM      3  C   UNL     1     184.241 202.030 211.304  1.00  0.00     0.039 C 
ENDROOT
BRANCH   2   4
ATOM      4  C   UNL     1     187.085 201.902 213.965  1.00  0.00     0.032 C 
BRANCH   4   5
ATOM      5  C   UNL     1     188.384 202.610 213.552  1.00  0.00     0.034 C 
BRANCH   5   6
ATOM      6  C   UNL     1     189.368 201.607 212.984  1.00  0.00    -0.077 C 
ATOM      7  C   UNL     1     190.401 201.016 213.909  1.00  0.00     0.039 C 
ATOM      8  C   UNL     1     189.418 201.271 211.673  1.00  0.00    -0.023 CG0
ATOM      9  G   UNL     1     188.462 201.745 210.605  1.00  0.00     0.000 G0
ENDBRANCH   5   6
ENDBRANCH   4   5
ENDBRANCH   2   4
BRANCH   1  10
ATOM     10  C   UNL     1     185.674 199.962 211.975  1.00  0.00     0.111 C 
BRANCH  10  11
ATOM     11  C   UNL     1     186.940 199.712 211.194  1.00  0.00     0.163 C 
ATOM     12  O   UNL     1     187.605 198.677 211.473  1.00  0.00    -0.294 OA
BRANCH  11  13
ATOM     13  C   UNL     1     187.454 200.667 210.157  1.00  0.00    -0.002 C 
ATOM     14  C   UNL     1     187.014 200.598 208.862  1.00  0.00    -0.069 C 
ATOM     15  C   UNL     1     187.443 201.609 207.821  1.00  0.00     0.039 C 
ATOM     16  C   UNL     1     186.115 199.478 208.385  1.00  0.00     0.039 C 
BRANCH  13  17
ATOM     17  C   UNL     1     188.436 201.757 210.585  1.00  0.00     0.066 CG0
ATOM     18  G   UNL     1     189.397 201.275 211.645  1.00  0.00     0.000 G0
ENDBRANCH  13  17
ENDBRANCH  11  13
ENDBRANCH  10  11
ENDBRANCH   1  10
TORSDOF 0
ENDMDL
MODEL 2
REMARK VINA RESULT:    -2.698      1.594      4.051
REMARK INTER + INTRA:          -3.581
REMARK INTER:                  -3.905
REMARK INTRA:                   0.324
REMARK UNBOUND:                 0.221
REMARK SMILES CC1=CCC(=C(C)C)C(=O)CC(C)=CCC1
REMARK SMILES IDX 12 1 14 2 13 3 15 4 16 5 2 6 1 7 3 8 11 10 9 11 10 12 5 13
REMARK SMILES IDX 6 14 7 15 8 16 4 17
REMARK H PARENT
REMARK Flexibility Score: 60.00
ROOT
ATOM      1  C   UNL     1     185.066 201.007 211.786  1.00  0.00    -0.070 C 
ATOM      2  C   UNL     1     184.225 200.743 210.753  1.00  0.00    -0.027 C 
ATOM      3  C   UNL     1     185.016 202.394 212.379  1.00  0.00     0.039 C 
ENDROOT
BRANCH   2   4
ATOM      4  C   UNL     1     184.033 199.405 210.080  1.00  0.00     0.032 C 
BRANCH   4   5
ATOM      5  C   UNL     1     184.534 199.379 208.629  1.00  0.00     0.034 C 
BRANCH   5   6
ATOM      6  C   UNL     1     185.840 198.615 208.541  1.00  0.00    -0.077 C 
ATOM      7  C   UNL     1     185.787 197.130 208.290  1.00  0.00     0.039 C 
ATOM      8  C   UNL     1     187.052 199.184 208.752  1.00  0.00    -0.023 CG0
ATOM      9  G   UNL     1     187.306 200.651 209.001  1.00  0.00     0.000 G0
ENDBRANCH   5   6
ENDBRANCH   4   5
ENDBRANCH   2   4
BRANCH   1  10
ATOM     10  C   UNL     1     186.105 200.029 212.325  1.00  0.00     0.111 C 
BRANCH  10  11
ATOM     11  C   UNL     1     187.364 199.955 211.498  1.00  0.00     0.163 C 
ATOM     12  O   UNL     1     188.184 199.034 211.762  1.00  0.00    -0.294 OA
BRANCH  11  13
ATOM     13  C   UNL     1     187.694 200.959 210.433  1.00  0.00    -0.002 C 
ATOM     14  C   UNL     1     188.370 202.110 210.740  1.00  0.00    -0.069 C 
ATOM     15  C   UNL     1     188.800 203.091 209.672  1.00  0.00     0.039 C 
ATOM     16  C   UNL     1     188.680 202.492 212.172  1.00  0.00     0.039 C 
BRANCH  13  17
ATOM     17  C   UNL     1     187.314 200.647 208.986  1.00  0.00     0.066 CG0
ATOM     18  G   UNL     1     187.064 199.174 208.767  1.00  0.00     0.000 G0
ENDBRANCH  13  17
ENDBRANCH  11  13
ENDBRANCH  10  11
ENDBRANCH   1  10
TORSDOF 0
ENDMDL
MODEL 3
REMARK VINA RESULT:    -2.557      1.911      4.430
REMARK INTER + INTRA:          -3.382
REMARK INTER:                  -3.605
REMARK INTRA:                   0.223
REMARK UNBOUND:                 0.221
REMARK SMILES CC1=CCC(=C(C)C)C(=O)CC(C)=CCC1
REMARK SMILES IDX 12 1 14 2 13 3 15 4 16 5 2 6 1 7 3 8 11 10 9 11 10 12 5 13
REMARK SMILES IDX 6 14 7 15 8 16 4 17
REMARK H PARENT
REMARK Flexibility Score: 60.00
ROOT
ATOM      1  C   UNL     1     185.596 201.506 211.880  1.00  0.00    -0.070 C 
ATOM      2  C   UNL     1     184.618 200.746 211.324  1.00  0.00    -0.027 C 
ATOM      3  C   UNL     1     185.530 201.733 213.371  1.00  0.00     0.039 C 
ENDROOT
BRANCH   2   4
ATOM      4  C   UNL     1     184.543 200.308 209.880  1.00  0.00     0.032 C 
BRANCH   4   5
ATOM      5  C   UNL     1     184.978 198.852 209.665  1.00  0.00     0.034 C 
BRANCH   5   6
ATOM      6  C   UNL     1     186.310 198.804 208.945  1.00  0.00    -0.077 C 
ATOM      7  C   UNL     1     186.310 198.771 207.438  1.00  0.00     0.039 C 
ATOM      8  C   UNL     1     187.501 198.712 209.586  1.00  0.00    -0.023 CG0
ATOM      9  G   UNL     1     187.702 198.746 211.081  1.00  0.00     0.000 G0
ENDBRANCH   5   6
ENDBRANCH   4   5
ENDBRANCH   2   4
BRANCH   1  10
ATOM     10  C   UNL     1     186.699 202.206 211.093  1.00  0.00     0.111 C 
BRANCH  10  11
ATOM     11  C   UNL     1     187.891 201.330 210.798  1.00  0.00     0.163 C 
ATOM     12  O   UNL     1     188.611 201.636 209.808  1.00  0.00    -0.294 OA
BRANCH  11  13
ATOM     13  C   UNL     1     188.207 200.096 211.591  1.00  0.00    -0.002 C 
ATOM     14  C   UNL     1     188.888 200.182 212.777  1.00  0.00    -0.069 C 
ATOM     15  C   UNL     1     189.134 198.966 213.643  1.00  0.00     0.039 C 
ATOM     16  C   UNL     1     189.478 201.489 213.263  1.00  0.00     0.039 C 
BRANCH  13  17
ATOM     17  C   UNL     1     187.704 198.746 211.082  1.00  0.00     0.066 CG0
ATOM     18  G   UNL     1     187.517 198.735 209.584  1.00  0.00     0.000 G0
ENDBRANCH  13  17
ENDBRANCH  11  13
ENDBRANCH  10  11
ENDBRANCH   1  10
TORSDOF 0
ENDMDL
MODEL 4
REMARK VINA RESULT:    -2.516      2.105      4.126
REMARK INTER + INTRA:          -3.324
REMARK INTER:                  -3.416
REMARK INTRA:                   0.092
REMARK UNBOUND:                 0.221
REMARK SMILES CC1=CCC(=C(C)C)C(=O)CC(C)=CCC1
REMARK SMILES IDX 12 1 14 2 13 3 15 4 16 5 2 6 1 7 3 8 11 10 9 11 10 12 5 13
REMARK SMILES IDX 6 14 7 15 8 16 4 17
REMARK H PARENT
REMARK Flexibility Score: 60.00
ROOT
ATOM      1  C   UNL     1     187.633 199.771 208.233  1.00  0.00    -0.070 C 
ATOM      2  C   UNL     1     188.691 198.939 208.409  1.00  0.00    -0.027 C 
ATOM      3  C   UNL     1     187.481 200.418 206.878  1.00  0.00     0.039 C 
ENDROOT
BRANCH   2   4
ATOM      4  C   UNL     1     188.979 198.111 209.639  1.00  0.00     0.032 C 
BRANCH   4   5
ATOM      5  C   UNL     1     189.673 198.904 210.755  1.00  0.00     0.034 C 
BRANCH   5   6
ATOM      6  C   UNL     1     188.980 198.660 212.080  1.00  0.00    -0.077 C 
ATOM      7  C   UNL     1     188.935 197.252 212.616  1.00  0.00     0.039 C 
ATOM      8  C   UNL     1     188.330 199.628 212.771  1.00  0.00    -0.023 CG0
ATOM      9  G   UNL     1     188.278 201.090 212.401  1.00  0.00     0.000 G0
ENDBRANCH   5   6
ENDBRANCH   4   5
ENDBRANCH   2   4
BRANCH   1  10
ATOM     10  C   UNL     1     186.644 200.153 209.329  1.00  0.00     0.111 C 
BRANCH  10  11
ATOM     11  C   UNL     1     187.036 201.386 210.105  1.00  0.00     0.163 C 
ATOM     12  O   UNL     1     187.468 202.375 209.453  1.00  0.00    -0.294 OA
BRANCH  11  13
ATOM     13  C   UNL     1     186.988 201.450 211.604  1.00  0.00    -0.002 C 
ATOM     14  C   UNL     1     185.823 201.760 212.254  1.00  0.00    -0.069 C 
ATOM     15  C   UNL     1     185.722 201.737 213.763  1.00  0.00     0.039 C 
ATOM     16  C   UNL     1     184.583 202.195 211.501  1.00  0.00     0.039 C 
BRANCH  13  17
ATOM     17  C   UNL     1     188.248 201.105 212.395  1.00  0.00     0.066 CG0
ATOM     18  G   UNL     1     188.313 199.641 212.756  1.00  0.00     0.000 G0
ENDBRANCH  13  17
ENDBRANCH  11  13
ENDBRANCH  10  11
ENDBRANCH   1  10
TORSDOF 0
ENDMDL
MODEL 5
REMARK VINA RESULT:    -2.494      1.661      3.885
REMARK INTER + INTRA:          -3.293
REMARK INTER:                  -3.519
REMARK INTRA:                   0.226
REMARK UNBOUND:                 0.221
REMARK SMILES CC1=CCC(=C(C)C)C(=O)CC(C)=CCC1
REMARK SMILES IDX 12 1 14 2 13 3 15 4 16 5 2 6 1 7 3 8 11 10 9 11 10 12 5 13
REMARK SMILES IDX 6 14 7 15 8 16 4 17
REMARK H PARENT
REMARK Flexibility Score: 60.00
ROOT
ATOM      1  C   UNL     1     188.540 201.555 208.187  1.00  0.00    -0.070 C 
ATOM      2  C   UNL     1     189.843 201.901 208.345  1.00  0.00    -0.027 C 
ATOM      3  C   UNL     1     188.214 200.576 207.085  1.00  0.00     0.039 C 
ENDROOT
BRANCH   2   4
ATOM      4  C   UNL     1     190.405 202.777 209.440  1.00  0.00     0.032 C 
BRANCH   4   5
ATOM      5  C   UNL     1     190.744 202.003 210.722  1.00  0.00     0.034 C 
BRANCH   5   6
ATOM      6  C   UNL     1     190.103 202.672 211.921  1.00  0.00    -0.077 C 
ATOM      7  C   UNL     1     190.757 203.907 212.487  1.00  0.00     0.039 C 
ATOM      8  C   UNL     1     189.016 202.176 212.560  1.00  0.00    -0.023 CG0
ATOM      9  G   UNL     1     188.221 200.965 212.135  1.00  0.00     0.000 G0
ENDBRANCH   5   6
ENDBRANCH   4   5
ENDBRANCH   2   4
BRANCH   1  10
ATOM     10  C   UNL     1     187.385 202.147 208.990  1.00  0.00     0.111 C 
BRANCH  10  11
ATOM     11  C   UNL     1     186.762 201.182 209.968  1.00  0.00     0.163 C 
ATOM     12  O   UNL     1     186.076 200.233 209.497  1.00  0.00    -0.294 OA
BRANCH  11  13
ATOM     13  C   UNL     1     186.878 201.345 211.455  1.00  0.00    -0.002 C 
ATOM     14  C   UNL     1     185.815 201.786 212.196  1.00  0.00    -0.069 C 
ATOM     15  C   UNL     1     185.875 201.867 213.706  1.00  0.00     0.039 C 
ATOM     16  C   UNL     1     184.535 202.266 211.545  1.00  0.00     0.039 C 
BRANCH  13  17
ATOM     17  C   UNL     1     188.189 200.955 212.136  1.00  0.00     0.066 CG0
ATOM     18  G   UNL     1     188.999 202.161 212.548  1.00  0.00     0.000 G0
ENDBRANCH  13  17
ENDBRANCH  11  13
ENDBRANCH  10  11
ENDBRANCH   1  10
TORSDOF 0
ENDMDL
MODEL 6
REMARK VINA RESULT:    -2.412      1.983      4.156
REMARK INTER + INTRA:          -3.177
REMARK INTER:                  -3.324
REMARK INTRA:                   0.147
REMARK UNBOUND:                 0.221
REMARK SMILES CC1=CCC(=C(C)C)C(=O)CC(C)=CCC1
REMARK SMILES IDX 12 1 14 2 13 3 15 4 16 5 2 6 1 7 3 8 11 10 9 11 10 12 5 13
REMARK SMILES IDX 6 14 7 15 8 16 4 17
REMARK H PARENT
REMARK Flexibility Score: 60.00
ROOT
ATOM      1  C   UNL     1     186.004 199.666 208.228  1.00  0.00    -0.070 C 
ATOM      2  C   UNL     1     187.218 199.202 207.834  1.00  0.00    -0.027 C 
ATOM      3  C   UNL     1     184.806 199.242 207.413  1.00  0.00     0.039 C 
ENDROOT
BRANCH   2   4
ATOM      4  C   UNL     1     188.529 199.412 208.554  1.00  0.00     0.032 C 
BRANCH   4   5
ATOM      5  C   UNL     1     188.723 198.466 209.748  1.00  0.00     0.034 C 
BRANCH   5   6
ATOM      6  C   UNL     1     189.309 199.221 210.923  1.00  0.00    -0.077 C 
ATOM      7  C   UNL     1     190.747 199.665 210.844  1.00  0.00     0.039 C 
ATOM      8  C   UNL     1     188.633 199.450 212.075  1.00  0.00    -0.023 CG0
ATOM      9  G   UNL     1     187.189 199.095 212.334  1.00  0.00     0.000 G0
ENDBRANCH   5   6
ENDBRANCH   4   5
ENDBRANCH   2   4
BRANCH   1  10
ATOM     10  C   UNL     1     185.785 200.643 209.379  1.00  0.00     0.111 C 
BRANCH  10  11
ATOM     11  C   UNL     1     185.403 199.981 210.679  1.00  0.00     0.163 C 
ATOM     12  O   UNL     1     184.346 199.292 210.696  1.00  0.00    -0.294 OA
BRANCH  11  13
ATOM     13  C   UNL     1     186.191 200.161 211.944  1.00  0.00    -0.002 C 
ATOM     14  C   UNL     1     185.985 201.250 212.747  1.00  0.00    -0.069 C 
ATOM     15  C   UNL     1     186.696 201.407 214.074  1.00  0.00     0.039 C 
ATOM     16  C   UNL     1     185.074 202.386 212.332  1.00  0.00     0.039 C 
BRANCH  13  17
ATOM     17  C   UNL     1     187.188 199.076 212.349  1.00  0.00     0.066 CG0
ATOM     18  G   UNL     1     188.615 199.479 212.067  1.00  0.00     0.000 G0
ENDBRANCH  13  17
ENDBRANCH  11  13
ENDBRANCH  10  11
ENDBRANCH   1  10
TORSDOF 0
ENDMDL
MODEL 7
REMARK VINA RESULT:    -2.402      2.088      3.770
REMARK INTER + INTRA:          -3.164
REMARK INTER:                  -3.439
REMARK INTRA:                   0.275
REMARK UNBOUND:                 0.221
REMARK SMILES CC1=CCC(=C(C)C)C(=O)CC(C)=CCC1
REMARK SMILES IDX 12 1 14 2 13 3 15 4 16 5 2 6 1 7 3 8 11 10 9 11 10 12 5 13
REMARK SMILES IDX 6 14 7 15 8 16 4 17
REMARK H PARENT
REMARK Flexibility Score: 60.00
ROOT
ATOM      1  C   UNL     1     187.772 200.615 208.606  1.00  0.00    -0.070 C 
ATOM      2  C   UNL     1     187.914 201.809 209.238  1.00  0.00    -0.027 C 
ATOM      3  C   UNL     1     188.938 200.127 207.781  1.00  0.00     0.039 C 
ENDROOT
BRANCH   2   4
ATOM      4  C   UNL     1     186.924 202.435 210.190  1.00  0.00     0.032 C 
BRANCH   4   5
ATOM      5  C   UNL     1     187.391 202.412 211.653  1.00  0.00     0.034 C 
BRANCH   5   6
ATOM      6  C   UNL     1     186.539 201.453 212.459  1.00  0.00    -0.077 C 
ATOM      7  C   UNL     1     185.370 202.009 213.231  1.00  0.00     0.039 C 
ATOM      8  C   UNL     1     186.817 200.133 212.584  1.00  0.00    -0.023 CG0
ATOM      9  G   UNL     1     187.930 199.396 211.879  1.00  0.00     0.000 G0
ENDBRANCH   5   6
ENDBRANCH   4   5
ENDBRANCH   2   4
BRANCH   1  10
ATOM     10  C   UNL     1     186.493 199.783 208.611  1.00  0.00     0.111 C 
BRANCH  10  11
ATOM     11  C   UNL     1     186.269 199.011 209.888  1.00  0.00     0.163 C 
ATOM     12  O   UNL     1     185.078 198.838 210.265  1.00  0.00    -0.294 OA
BRANCH  11  13
ATOM     13  C   UNL     1     187.398 198.505 210.738  1.00  0.00    -0.002 C 
ATOM     14  C   UNL     1     187.983 197.295 210.476  1.00  0.00    -0.069 C 
ATOM     15  C   UNL     1     189.184 196.807 211.256  1.00  0.00     0.039 C 
ATOM     16  C   UNL     1     187.432 196.354 209.426  1.00  0.00     0.039 C 
BRANCH  13  17
ATOM     17  C   UNL     1     187.921 199.392 211.867  1.00  0.00     0.066 CG0
ATOM     18  G   UNL     1     186.809 200.110 212.591  1.00  0.00     0.000 G0
ENDBRANCH  13  17
ENDBRANCH  11  13
ENDBRANCH  10  11
ENDBRANCH   1  10
TORSDOF 0
ENDMDL
MODEL 8
REMARK VINA RESULT:    -2.393      1.957      2.924
REMARK INTER + INTRA:          -3.151
REMARK INTER:                  -3.546
REMARK INTRA:                   0.395
REMARK UNBOUND:                 0.221
REMARK SMILES CC1=CCC(=C(C)C)C(=O)CC(C)=CCC1
REMARK SMILES IDX 12 1 14 2 13 3 15 4 16 5 2 6 1 7 3 8 11 10 9 11 10 12 5 13
REMARK SMILES IDX 6 14 7 15 8 16 4 17
REMARK H PARENT
REMARK Flexibility Score: 60.00
ROOT
ATOM      1  C   UNL     1     185.306 200.162 210.145  1.00  0.00    -0.070 C 
ATOM      2  C   UNL     1     185.030 200.694 211.364  1.00  0.00    -0.027 C 
ATOM      3  C   UNL     1     184.339 199.137 209.605  1.00  0.00     0.039 C 
ENDROOT
BRANCH   2   4
ATOM      4  C   UNL     1     185.798 201.801 212.047  1.00  0.00     0.032 C 
BRANCH   4   5
ATOM      5  C   UNL     1     186.505 201.345 213.332  1.00  0.00     0.034 C 
BRANCH   5   6
ATOM      6  C   UNL     1     188.002 201.271 213.107  1.00  0.00    -0.077 C 
ATOM      7  C   UNL     1     188.830 202.499 213.385  1.00  0.00     0.039 C 
ATOM      8  C   UNL     1     188.626 200.183 212.594  1.00  0.00    -0.023 CG0
ATOM      9  G   UNL     1     187.971 198.863 212.269  1.00  0.00     0.000 G0
ENDBRANCH   5   6
ENDBRANCH   4   5
ENDBRANCH   2   4
BRANCH   1  10
ATOM     10  C   UNL     1     186.559 200.470 209.332  1.00  0.00     0.111 C 
BRANCH  10  11
ATOM     11  C   UNL     1     187.808 199.807 209.858  1.00  0.00     0.163 C 
ATOM     12  O   UNL     1     188.919 200.247 209.453  1.00  0.00    -0.294 OA
BRANCH  11  13
ATOM     13  C   UNL     1     187.771 198.625 210.782  1.00  0.00    -0.002 C 
ATOM     14  C   UNL     1     187.630 197.355 210.290  1.00  0.00    -0.069 C 
ATOM     15  C   UNL     1     187.687 196.141 211.190  1.00  0.00     0.039 C 
ATOM     16  C   UNL     1     187.357 197.096 208.823  1.00  0.00     0.039 C 
BRANCH  13  17
ATOM     17  C   UNL     1     187.953 198.859 212.281  1.00  0.00     0.066 CG0
ATOM     18  G   UNL     1     188.612 200.185 212.576  1.00  0.00     0.000 G0
ENDBRANCH  13  17
ENDBRANCH  11  13
ENDBRANCH  10  11
ENDBRANCH   1  10
TORSDOF 0
ENDMDL
MODEL 9
REMARK VINA RESULT:    -2.362      2.059      3.841
REMARK INTER + INTRA:          -3.107
REMARK INTER:                  -3.497
REMARK INTRA:                   0.390
REMARK UNBOUND:                 0.221
REMARK SMILES CC1=CCC(=C(C)C)C(=O)CC(C)=CCC1
REMARK SMILES IDX 12 1 14 2 13 3 15 4 16 5 2 6 1 7 3 8 11 10 9 11 10 12 5 13
REMARK SMILES IDX 6 14 7 15 8 16 4 17
REMARK H PARENT
REMARK Flexibility Score: 60.00
ROOT
ATOM      1  C   UNL     1     186.249 201.527 210.911  1.00  0.00    -0.070 C 
ATOM      2  C   UNL     1     186.212 200.176 211.047  1.00  0.00    -0.027 C 
ATOM      3  C   UNL     1     185.282 202.332 211.745  1.00  0.00     0.039 C 
ENDROOT
BRANCH   2   4
ATOM      4  C   UNL     1     187.150 199.189 210.394  1.00  0.00     0.032 C 
BRANCH   4   5
ATOM      5  C   UNL     1     187.981 198.383 211.403  1.00  0.00     0.034 C 
BRANCH   5   6
ATOM      6  C   UNL     1     189.452 198.708 211.246  1.00  0.00    -0.077 C 
ATOM      7  C   UNL     1     190.343 197.694 210.576  1.00  0.00     0.039 C 
ATOM      8  C   UNL     1     190.026 199.830 211.747  1.00  0.00    -0.023 CG0
ATOM      9  G   UNL     1     189.298 200.960 212.433  1.00  0.00     0.000 G0
ENDBRANCH   5   6
ENDBRANCH   4   5
ENDBRANCH   2   4
BRANCH   1  10
ATOM     10  C   UNL     1     187.140 202.270 209.920  1.00  0.00     0.111 C 
BRANCH  10  11
ATOM     11  C   UNL     1     188.616 202.125 210.195  1.00  0.00     0.163 C 
ATOM     12  O   UNL     1     189.368 201.850 209.220  1.00  0.00    -0.294 OA
BRANCH  11  13
ATOM     13  C   UNL     1     189.199 202.235 211.573  1.00  0.00    -0.002 C 
ATOM     14  C   UNL     1     189.590 203.448 212.073  1.00  0.00    -0.069 C 
ATOM     15  C   UNL     1     190.090 203.601 213.492  1.00  0.00     0.039 C 
ATOM     16  C   UNL     1     189.594 204.698 211.217  1.00  0.00     0.039 C 
BRANCH  13  17
ATOM     17  C   UNL     1     189.296 200.975 212.433  1.00  0.00     0.066 CG0
ATOM     18  G   UNL     1     190.014 199.853 211.723  1.00  0.00     0.000 G0
ENDBRANCH  13  17
ENDBRANCH  11  13
ENDBRANCH  10  11
ENDBRANCH   1  10
TORSDOF 0
ENDMDL
