MODEL 1
REMARK VINA RESULT:    -2.423      0.000      0.000
REMARK INTER + INTRA:          -2.717
REMARK INTER:                  -2.707
REMARK INTRA:                  -0.010
REMARK UNBOUND:                -0.010
REMARK SMILES CCCC(=O)[O-]
REMARK SMILES IDX 3 1 4 2 5 3 6 4 2 5 1 6
REMARK H PARENT
REMARK Flexibility Score: inf
ROOT
ATOM      1  C   UNL     1      53.476  27.625  49.629  1.00  0.00     0.052 C 
ENDROOT
BRANCH   1   2
ATOM      2  C   UNL     1      54.176  26.305  49.522  1.00  0.00     0.041 C 
ATOM      3  O   UNL     1      55.431  26.244  49.613  1.00  0.00    -0.550 OA
ATOM      4  O   UNL     1      53.446  25.147  49.290  1.00  0.00    -0.550 OA
ENDBRANCH   1   2
BRANCH   1   5
ATOM      5  C   UNL     1      54.388  28.706  50.226  1.00  0.00     0.003 C 
ATOM      6  C   UNL     1      53.641  30.013  50.491  1.00  0.00     0.004 C 
ENDBRANCH   1   5
TORSDOF 2
ENDMDL
MODEL 2
REMARK VINA RESULT:    -2.414     15.895     16.909
REMARK INTER + INTRA:          -2.707
REMARK INTER:                  -2.698
REMARK INTRA:                  -0.008
REMARK UNBOUND:                -0.010
REMARK SMILES CCCC(=O)[O-]
REMARK SMILES IDX 3 1 4 2 5 3 6 4 2 5 1 6
REMARK H PARENT
REMARK Flexibility Score: inf
ROOT
ATOM      1  C   UNL     1      62.899  36.351  61.430  1.00  0.00     0.052 C 
ENDROOT
BRANCH   1   2
ATOM      2  C   UNL     1      64.150  35.536  61.541  1.00  0.00     0.041 C 
ATOM      3  O   UNL     1      65.249  36.094  61.806  1.00  0.00    -0.550 OA
ATOM      4  O   UNL     1      64.111  34.165  61.320  1.00  0.00    -0.550 OA
ENDBRANCH   1   2
BRANCH   1   5
ATOM      5  C   UNL     1      61.791  35.595  60.686  1.00  0.00     0.003 C 
ATOM      6  C   UNL     1      60.551  36.459  60.457  1.00  0.00     0.004 C 
ENDBRANCH   1   5
TORSDOF 2
ENDMDL
MODEL 3
REMARK VINA RESULT:    -2.413      4.524      5.206
REMARK INTER + INTRA:          -2.706
REMARK INTER:                  -2.671
REMARK INTRA:                  -0.035
REMARK UNBOUND:                -0.010
REMARK SMILES CCCC(=O)[O-]
REMARK SMILES IDX 3 1 4 2 5 3 6 4 2 5 1 6
REMARK H PARENT
REMARK Flexibility Score: inf
ROOT
ATOM      1  C   UNL     1      58.877  29.128  49.024  1.00  0.00     0.052 C 
ENDROOT
BRANCH   1   2
ATOM      2  C   UNL     1      59.783  27.942  49.157  1.00  0.00     0.041 C 
ATOM      3  O   UNL     1      61.033  28.097  49.156  1.00  0.00    -0.550 OA
ATOM      4  O   UNL     1      59.248  26.664  49.249  1.00  0.00    -0.550 OA
ENDBRANCH   1   2
BRANCH   1   5
ATOM      5  C   UNL     1      58.153  29.441  50.340  1.00  0.00     0.003 C 
ATOM      6  C   UNL     1      56.733  28.876  50.370  1.00  0.00     0.004 C 
ENDBRANCH   1   5
TORSDOF 2
ENDMDL
MODEL 4
REMARK VINA RESULT:    -2.314      2.435      3.538
REMARK INTER + INTRA:          -2.595
REMARK INTER:                  -2.584
REMARK INTRA:                  -0.011
REMARK UNBOUND:                -0.010
REMARK SMILES CCCC(=O)[O-]
REMARK SMILES IDX 3 1 4 2 5 3 6 4 2 5 1 6
REMARK H PARENT
REMARK Flexibility Score: inf
ROOT
ATOM      1  C   UNL     1      53.551  28.228  49.757  1.00  0.00     0.052 C 
ENDROOT
BRANCH   1   2
ATOM      2  C   UNL     1      54.282  29.368  50.399  1.00  0.00     0.041 C 
ATOM      3  O   UNL     1      55.514  29.272  50.645  1.00  0.00    -0.550 OA
ATOM      4  O   UNL     1      53.597  30.522  50.755  1.00  0.00    -0.550 OA
ENDBRANCH   1   2
BRANCH   1   5
ATOM      5  C   UNL     1      54.381  26.938  49.775  1.00  0.00     0.003 C 
ATOM      6  C   UNL     1      53.670  25.781  49.073  1.00  0.00     0.004 C 
ENDBRANCH   1   5
TORSDOF 2
ENDMDL
MODEL 5
REMARK VINA RESULT:    -2.313     13.761     14.477
REMARK INTER + INTRA:          -2.593
REMARK INTER:                  -2.555
REMARK INTRA:                  -0.038
REMARK UNBOUND:                -0.010
REMARK SMILES CCCC(=O)[O-]
REMARK SMILES IDX 3 1 4 2 5 3 6 4 2 5 1 6
REMARK H PARENT
REMARK Flexibility Score: inf
ROOT
ATOM      1  C   UNL     1      60.949  31.197  61.815  1.00  0.00     0.052 C 
ENDROOT
BRANCH   1   2
ATOM      2  C   UNL     1      62.112  30.254  61.784  1.00  0.00     0.041 C 
ATOM      3  O   UNL     1      61.919  29.009  61.793  1.00  0.00    -0.550 OA
ATOM      4  O   UNL     1      63.410  30.749  61.778  1.00  0.00    -0.550 OA
ENDBRANCH   1   2
BRANCH   1   5
ATOM      5  C   UNL     1      60.772  31.928  60.478  1.00  0.00     0.003 C 
ATOM      6  C   UNL     1      61.314  33.357  60.522  1.00  0.00     0.004 C 
ENDBRANCH   1   5
TORSDOF 2
ENDMDL
MODEL 6
REMARK VINA RESULT:    -2.306      3.566      4.389
REMARK INTER + INTRA:          -2.586
REMARK INTER:                  -2.580
REMARK INTRA:                  -0.005
REMARK UNBOUND:                -0.010
REMARK SMILES CCCC(=O)[O-]
REMARK SMILES IDX 3 1 4 2 5 3 6 4 2 5 1 6
REMARK H PARENT
REMARK Flexibility Score: inf
ROOT
ATOM      1  C   UNL     1      56.957  28.229  50.129  1.00  0.00     0.052 C 
ENDROOT
BRANCH   1   2
ATOM      2  C   UNL     1      58.038  29.261  50.033  1.00  0.00     0.041 C 
ATOM      3  O   UNL     1      58.596  29.493  48.928  1.00  0.00    -0.550 OA
ATOM      4  O   UNL     1      58.452  29.943  51.170  1.00  0.00    -0.550 OA
ENDBRANCH   1   2
BRANCH   1   5
ATOM      5  C   UNL     1      55.622  28.841  50.571  1.00  0.00     0.003 C 
ATOM      6  C   UNL     1      54.420  28.058  50.043  1.00  0.00     0.004 C 
ENDBRANCH   1   5
TORSDOF 2
ENDMDL
MODEL 7
REMARK VINA RESULT:    -2.286     15.457     16.420
REMARK INTER + INTRA:          -2.563
REMARK INTER:                  -2.549
REMARK INTRA:                  -0.014
REMARK UNBOUND:                -0.010
REMARK SMILES CCCC(=O)[O-]
REMARK SMILES IDX 3 1 4 2 5 3 6 4 2 5 1 6
REMARK H PARENT
REMARK Flexibility Score: inf
ROOT
ATOM      1  C   UNL     1      63.162  34.266  60.680  1.00  0.00     0.052 C 
ENDROOT
BRANCH   1   2
ATOM      2  C   UNL     1      63.510  35.514  61.433  1.00  0.00     0.041 C 
ATOM      3  O   UNL     1      64.638  35.628  61.982  1.00  0.00    -0.550 OA
ATOM      4  O   UNL     1      62.578  36.535  61.557  1.00  0.00    -0.550 OA
ENDBRANCH   1   2
BRANCH   1   5
ATOM      5  C   UNL     1      61.652  34.149  60.439  1.00  0.00     0.003 C 
ATOM      6  C   UNL     1      61.130  32.737  60.704  1.00  0.00     0.004 C 
ENDBRANCH   1   5
TORSDOF 2
ENDMDL
MODEL 8
REMARK VINA RESULT:    -2.244     20.703     21.444
REMARK INTER + INTRA:          -2.517
REMARK INTER:                  -2.490
REMARK INTRA:                  -0.027
REMARK UNBOUND:                -0.010
REMARK SMILES CCCC(=O)[O-]
REMARK SMILES IDX 3 1 4 2 5 3 6 4 2 5 1 6
REMARK H PARENT
REMARK Flexibility Score: inf
ROOT
ATOM      1  C   UNL     1      72.396  31.839  60.539  1.00  0.00     0.052 C 
ENDROOT
BRANCH   1   2
ATOM      2  C   UNL     1      71.947  30.942  61.651  1.00  0.00     0.041 C 
ATOM      3  O   UNL     1      72.780  30.509  62.492  1.00  0.00    -0.550 OA
ATOM      4  O   UNL     1      70.616  30.556  61.741  1.00  0.00    -0.550 OA
ENDBRANCH   1   2
BRANCH   1   5
ATOM      5  C   UNL     1      71.662  33.186  60.563  1.00  0.00     0.003 C 
ATOM      6  C   UNL     1      71.023  33.524  59.217  1.00  0.00     0.004 C 
ENDBRANCH   1   5
TORSDOF 2
ENDMDL
MODEL 9
REMARK VINA RESULT:    -2.241      8.962      9.961
REMARK INTER + INTRA:          -2.513
REMARK INTER:                  -2.457
REMARK INTRA:                  -0.056
REMARK UNBOUND:                -0.010
REMARK SMILES CCCC(=O)[O-]
REMARK SMILES IDX 3 1 4 2 5 3 6 4 2 5 1 6
REMARK H PARENT
REMARK Flexibility Score: inf
ROOT
ATOM      1  C   UNL     1      57.608  17.529  50.541  1.00  0.00     0.052 C 
ENDROOT
BRANCH   1   2
ATOM      2  C   UNL     1      58.354  18.007  49.333  1.00  0.00     0.041 C 
ATOM      3  O   UNL     1      58.474  17.261  48.326  1.00  0.00    -0.550 OA
ATOM      4  O   UNL     1      58.945  19.264  49.333  1.00  0.00    -0.550 OA
ENDBRANCH   1   2
BRANCH   1   5
ATOM      5  C   UNL     1      56.790  18.654  51.188  1.00  0.00     0.003 C 
ATOM      6  C   UNL     1      55.535  18.995  50.384  1.00  0.00     0.004 C 
ENDBRANCH   1   5
TORSDOF 2
ENDMDL
