MODEL 1
REMARK VINA RESULT:    -2.330      0.000      0.000
REMARK INTER + INTRA:          -2.330
REMARK INTER:                  -2.330
REMARK INTRA:                   0.000
REMARK UNBOUND:                 0.000
REMARK SMILES CC(=O)[O-]
REMARK SMILES IDX 1 1 2 2 3 3 4 4
REMARK H PARENT
REMARK Flexibility Score: inf
ROOT
ATOM      1  C   UNL     1      -0.356  -0.240  18.666  1.00  0.00     0.063 C 
ATOM      2  C   UNL     1      -0.061   0.293  20.026  1.00  0.00     0.038 C 
ATOM      3  O   UNL     1      -1.001   0.662  20.779  1.00  0.00    -0.550 OA
ATOM      4  O   UNL     1       1.248   0.333  20.491  1.00  0.00    -0.550 OA
ENDROOT
TORSDOF 0
ENDMDL
MODEL 2
REMARK VINA RESULT:    -2.226      1.398      1.769
REMARK INTER + INTRA:          -2.226
REMARK INTER:                  -2.226
REMARK INTRA:                   0.000
REMARK UNBOUND:                 0.000
REMARK SMILES CC(=O)[O-]
REMARK SMILES IDX 1 1 2 2 3 3 4 4
REMARK H PARENT
REMARK Flexibility Score: inf
ROOT
ATOM      1  C   UNL     1       1.187   0.358  20.270  1.00  0.00     0.063 C 
ATOM      2  C   UNL     1      -0.268   0.218  19.977  1.00  0.00     0.038 C 
ATOM      3  O   UNL     1      -1.123   0.639  20.801  1.00  0.00    -0.550 OA
ATOM      4  O   UNL     1      -0.686  -0.326  18.769  1.00  0.00    -0.550 OA
ENDROOT
TORSDOF 0
ENDMDL
MODEL 3
REMARK VINA RESULT:    -2.220     11.831     12.351
REMARK INTER + INTRA:          -2.220
REMARK INTER:                  -2.220
REMARK INTRA:                   0.000
REMARK UNBOUND:                 0.000
REMARK SMILES CC(=O)[O-]
REMARK SMILES IDX 1 1 2 2 3 3 4 4
REMARK H PARENT
REMARK Flexibility Score: inf
ROOT
ATOM      1  C   UNL     1      -4.420  -4.620  11.409  1.00  0.00     0.063 C 
ATOM      2  C   UNL     1      -4.811  -4.713   9.973  1.00  0.00     0.038 C 
ATOM      3  O   UNL     1      -4.099  -4.167   9.088  1.00  0.00    -0.550 OA
ATOM      4  O   UNL     1      -5.930  -5.446   9.600  1.00  0.00    -0.550 OA
ENDROOT
TORSDOF 0
ENDMDL
MODEL 4
REMARK VINA RESULT:    -2.199     11.163     11.573
REMARK INTER + INTRA:          -2.199
REMARK INTER:                  -2.199
REMARK INTRA:                   0.000
REMARK UNBOUND:                 0.000
REMARK SMILES CC(=O)[O-]
REMARK SMILES IDX 1 1 2 2 3 3 4 4
REMARK H PARENT
REMARK Flexibility Score: inf
ROOT
ATOM      1  C   UNL     1      -5.655  -5.246   9.921  1.00  0.00     0.063 C 
ATOM      2  C   UNL     1      -4.473  -4.650  10.605  1.00  0.00     0.038 C 
ATOM      3  O   UNL     1      -4.507  -4.420  11.843  1.00  0.00    -0.550 OA
ATOM      4  O   UNL     1      -3.309  -4.395   9.890  1.00  0.00    -0.550 OA
ENDROOT
TORSDOF 0
ENDMDL
MODEL 5
REMARK VINA RESULT:    -2.169      1.444      1.815
REMARK INTER + INTRA:          -2.169
REMARK INTER:                  -2.169
REMARK INTRA:                   0.000
REMARK UNBOUND:                 0.000
REMARK SMILES CC(=O)[O-]
REMARK SMILES IDX 1 1 2 2 3 3 4 4
REMARK H PARENT
REMARK Flexibility Score: inf
ROOT
ATOM      1  C   UNL     1      -0.625  -0.053  19.734  1.00  0.00     0.063 C 
ATOM      2  C   UNL     1       0.817   0.305  19.622  1.00  0.00     0.038 C 
ATOM      3  O   UNL     1       1.525   0.411  20.659  1.00  0.00    -0.550 OA
ATOM      4  O   UNL     1       1.400   0.471  18.372  1.00  0.00    -0.550 OA
ENDROOT
TORSDOF 0
ENDMDL
MODEL 6
REMARK VINA RESULT:    -2.109      9.091      9.708
REMARK INTER + INTRA:          -2.109
REMARK INTER:                  -2.109
REMARK INTRA:                   0.000
REMARK UNBOUND:                 0.000
REMARK SMILES CC(=O)[O-]
REMARK SMILES IDX 1 1 2 2 3 3 4 4
REMARK H PARENT
REMARK Flexibility Score: inf
ROOT
ATOM      1  C   UNL     1      -7.003   2.966  16.453  1.00  0.00     0.063 C 
ATOM      2  C   UNL     1      -7.902   4.110  16.127  1.00  0.00     0.038 C 
ATOM      3  O   UNL     1      -7.892   5.147  16.842  1.00  0.00    -0.550 OA
ATOM      4  O   UNL     1      -8.714   4.059  15.001  1.00  0.00    -0.550 OA
ENDROOT
TORSDOF 0
ENDMDL
MODEL 7
REMARK VINA RESULT:    -2.102      9.299      9.832
REMARK INTER + INTRA:          -2.102
REMARK INTER:                  -2.102
REMARK INTRA:                   0.000
REMARK UNBOUND:                 0.000
REMARK SMILES CC(=O)[O-]
REMARK SMILES IDX 1 1 2 2 3 3 4 4
REMARK H PARENT
REMARK Flexibility Score: inf
ROOT
ATOM      1  C   UNL     1      -8.750   4.126  14.675  1.00  0.00     0.063 C 
ATOM      2  C   UNL     1      -8.032   4.006  15.976  1.00  0.00     0.038 C 
ATOM      3  O   UNL     1      -7.497   2.914  16.304  1.00  0.00    -0.550 OA
ATOM      4  O   UNL     1      -7.904   5.112  16.806  1.00  0.00    -0.550 OA
ENDROOT
TORSDOF 0
ENDMDL
MODEL 8
REMARK VINA RESULT:    -2.050     15.563     15.898
REMARK INTER + INTRA:          -2.050
REMARK INTER:                  -2.050
REMARK INTRA:                   0.000
REMARK UNBOUND:                 0.000
REMARK SMILES CC(=O)[O-]
REMARK SMILES IDX 1 1 2 2 3 3 4 4
REMARK H PARENT
REMARK Flexibility Score: inf
ROOT
ATOM      1  C   UNL     1      -4.409   6.562   6.912  1.00  0.00     0.063 C 
ATOM      2  C   UNL     1      -3.291   7.292   6.251  1.00  0.00     0.038 C 
ATOM      3  O   UNL     1      -2.123   7.218   6.719  1.00  0.00    -0.550 OA
ATOM      4  O   UNL     1      -3.520   8.013   5.086  1.00  0.00    -0.550 OA
ENDROOT
TORSDOF 0
ENDMDL
MODEL 9
REMARK VINA RESULT:    -2.019      8.837      9.388
REMARK INTER + INTRA:          -2.019
REMARK INTER:                  -2.019
REMARK INTRA:                   0.000
REMARK UNBOUND:                 0.000
REMARK SMILES CC(=O)[O-]
REMARK SMILES IDX 1 1 2 2 3 3 4 4
REMARK H PARENT
REMARK Flexibility Score: inf
ROOT
ATOM      1  C   UNL     1      -7.200   5.196  16.747  1.00  0.00     0.063 C 
ATOM      2  C   UNL     1      -7.711   3.880  16.268  1.00  0.00     0.038 C 
ATOM      3  O   UNL     1      -8.698   3.832  15.486  1.00  0.00    -0.550 OA
ATOM      4  O   UNL     1      -7.069   2.705  16.638  1.00  0.00    -0.550 OA
ENDROOT
TORSDOF 0
ENDMDL
