MODEL 1
REMARK VINA RESULT:    -3.261      0.000      0.000
REMARK INTER + INTRA:          -4.059
REMARK INTER:                  -3.833
REMARK INTRA:                  -0.225
REMARK UNBOUND:                -0.225
REMARK SMILES [NH3+][C@H](CO)C(=O)[O-]
REMARK SMILES IDX 3 1 2 2 1 3 5 7 6 8 7 9 4 10
REMARK H PARENT 1 4 1 5 1 6 4 11
REMARK Flexibility Score: inf
ROOT
ATOM      1  C   UNL     1     136.108 122.779 119.565  1.00  0.00     0.227 C 
ENDROOT
BRANCH   1   2
ATOM      2  C   UNL     1     135.897 124.020 120.451  1.00  0.00     0.253 C 
BRANCH   2   3
ATOM      3  N   UNL     1     134.476 124.378 120.530  1.00  0.00    -0.348 N 
ATOM      4  H   UNL     1     134.221 124.600 121.521  1.00  0.00     0.345 HD
ATOM      5  H   UNL     1     133.875 123.592 120.189  1.00  0.00     0.345 HD
ATOM      6  H   UNL     1     134.289 125.228 119.949  1.00  0.00     0.345 HD
ENDBRANCH   2   3
BRANCH   2   7
ATOM      7  C   UNL     1     136.449 123.765 121.828  1.00  0.00     0.102 C 
ATOM      8  O   UNL     1     136.844 124.727 122.538  1.00  0.00    -0.544 OA
ATOM      9  O   UNL     1     136.538 122.468 122.319  1.00  0.00    -0.544 OA
ENDBRANCH   2   7
ENDBRANCH   1   2
BRANCH   1  10
ATOM     10  O   UNL     1     135.104 121.826 119.796  1.00  0.00    -0.390 OA
ATOM     11  H   UNL     1     135.152 121.176 119.046  1.00  0.00     0.210 HD
ENDBRANCH   1  10
TORSDOF 4
ENDMDL
MODEL 2
REMARK VINA RESULT:    -3.253     15.449     15.946
REMARK INTER + INTRA:          -4.048
REMARK INTER:                  -3.823
REMARK INTRA:                  -0.226
REMARK UNBOUND:                -0.225
REMARK SMILES [NH3+][C@H](CO)C(=O)[O-]
REMARK SMILES IDX 3 1 2 2 1 3 5 7 6 8 7 9 4 10
REMARK H PARENT 1 4 1 5 1 6 4 11
REMARK Flexibility Score: inf
ROOT
ATOM      1  C   UNL     1     119.422 123.007 119.572  1.00  0.00     0.227 C 
ENDROOT
BRANCH   1   2
ATOM      2  C   UNL     1     120.604 122.640 120.488  1.00  0.00     0.253 C 
BRANCH   2   3
ATOM      3  N   UNL     1     121.622 123.697 120.486  1.00  0.00    -0.348 N 
ATOM      4  H   UNL     1     122.453 123.388 119.929  1.00  0.00     0.345 HD
ATOM      5  H   UNL     1     121.927 123.921 121.462  1.00  0.00     0.345 HD
ATOM      6  H   UNL     1     121.238 124.562 120.041  1.00  0.00     0.345 HD
ENDBRANCH   2   3
BRANCH   2   7
ATOM      7  C   UNL     1     120.109 122.395 121.888  1.00  0.00     0.102 C 
ATOM      8  O   UNL     1     119.207 123.125 122.377  1.00  0.00    -0.544 OA
ATOM      9  O   UNL     1     120.653 121.372 122.655  1.00  0.00    -0.544 OA
ENDBRANCH   2   7
ENDBRANCH   1   2
BRANCH   1  10
ATOM     10  O   UNL     1     119.060 124.352 119.740  1.00  0.00    -0.390 OA
ATOM     11  H   UNL     1     118.302 124.363 120.382  1.00  0.00     0.210 HD
ENDBRANCH   1  10
TORSDOF 4
ENDMDL
MODEL 3
REMARK VINA RESULT:    -3.226     15.681     16.275
REMARK INTER + INTRA:          -4.017
REMARK INTER:                  -3.638
REMARK INTRA:                  -0.379
REMARK UNBOUND:                -0.225
REMARK SMILES [NH3+][C@H](CO)C(=O)[O-]
REMARK SMILES IDX 3 1 2 2 1 3 5 7 6 8 7 9 4 10
REMARK H PARENT 1 4 1 5 1 6 4 11
REMARK Flexibility Score: inf
ROOT
ATOM      1  C   UNL     1     118.715 122.975 122.385  1.00  0.00     0.227 C 
ENDROOT
BRANCH   1   2
ATOM      2  C   UNL     1     120.086 122.349 122.071  1.00  0.00     0.253 C 
BRANCH   2   3
ATOM      3  N   UNL     1     120.033 120.885 122.162  1.00  0.00    -0.348 N 
ATOM      4  H   UNL     1     120.983 120.484 121.983  1.00  0.00     0.345 HD
ATOM      5  H   UNL     1     119.357 120.494 121.465  1.00  0.00     0.345 HD
ATOM      6  H   UNL     1     119.736 120.598 123.123  1.00  0.00     0.345 HD
ENDBRANCH   2   3
BRANCH   2   7
ATOM      7  C   UNL     1     120.539 122.770 120.698  1.00  0.00     0.102 C 
ATOM      8  O   UNL     1     121.407 123.673 120.569  1.00  0.00    -0.544 OA
ATOM      9  O   UNL     1     119.993 122.177 119.567  1.00  0.00    -0.544 OA
ENDBRANCH   2   7
ENDBRANCH   1   2
BRANCH   1  10
ATOM     10  O   UNL     1     118.473 124.083 121.558  1.00  0.00    -0.390 OA
ATOM     11  H   UNL     1     117.890 124.699 122.074  1.00  0.00     0.210 HD
ENDBRANCH   1  10
TORSDOF 4
ENDMDL
MODEL 4
REMARK VINA RESULT:    -3.212     15.866     16.458
REMARK INTER + INTRA:          -4.001
REMARK INTER:                  -3.601
REMARK INTRA:                  -0.400
REMARK UNBOUND:                -0.225
REMARK SMILES [NH3+][C@H](CO)C(=O)[O-]
REMARK SMILES IDX 3 1 2 2 1 3 5 7 6 8 7 9 4 10
REMARK H PARENT 1 4 1 5 1 6 4 11
REMARK Flexibility Score: inf
ROOT
ATOM      1  C   UNL     1     120.756 123.275 120.848  1.00  0.00     0.227 C 
ENDROOT
BRANCH   1   2
ATOM      2  C   UNL     1     119.718 123.142 121.977  1.00  0.00     0.253 C 
BRANCH   2   3
ATOM      3  N   UNL     1     118.585 124.050 121.763  1.00  0.00    -0.348 N 
ATOM      4  H   UNL     1     118.767 124.652 120.927  1.00  0.00     0.345 HD
ATOM      5  H   UNL     1     118.436 124.661 122.600  1.00  0.00     0.345 HD
ATOM      6  H   UNL     1     117.715 123.499 121.583  1.00  0.00     0.345 HD
ENDBRANCH   2   3
BRANCH   2   7
ATOM      7  C   UNL     1     119.236 121.718 122.064  1.00  0.00     0.102 C 
ATOM      8  O   UNL     1     119.685 120.952 122.956  1.00  0.00    -0.544 OA
ATOM      9  O   UNL     1     118.303 121.237 121.153  1.00  0.00    -0.544 OA
ENDBRANCH   2   7
ENDBRANCH   1   2
BRANCH   1  10
ATOM     10  O   UNL     1     121.167 122.011 120.398  1.00  0.00    -0.390 OA
ATOM     11  H   UNL     1     121.593 122.150 119.512  1.00  0.00     0.210 HD
ENDBRANCH   1  10
TORSDOF 4
ENDMDL
MODEL 5
REMARK VINA RESULT:    -3.188      1.267      2.640
REMARK INTER + INTRA:          -3.973
REMARK INTER:                  -3.571
REMARK INTRA:                  -0.402
REMARK UNBOUND:                -0.225
REMARK SMILES [NH3+][C@H](CO)C(=O)[O-]
REMARK SMILES IDX 3 1 2 2 1 3 5 7 6 8 7 9 4 10
REMARK H PARENT 1 4 1 5 1 6 4 11
REMARK Flexibility Score: inf
ROOT
ATOM      1  C   UNL     1     136.613 124.716 122.108  1.00  0.00     0.227 C 
ENDROOT
BRANCH   1   2
ATOM      2  C   UNL     1     135.547 123.697 121.664  1.00  0.00     0.253 C 
BRANCH   2   3
ATOM      3  N   UNL     1     134.753 124.217 120.545  1.00  0.00    -0.348 N 
ATOM      4  H   UNL     1     135.245 125.032 120.110  1.00  0.00     0.345 HD
ATOM      5  H   UNL     1     133.806 124.521 120.871  1.00  0.00     0.345 HD
ATOM      6  H   UNL     1     134.642 123.478 119.813  1.00  0.00     0.345 HD
ENDBRANCH   2   3
BRANCH   2   7
ATOM      7  C   UNL     1     136.207 122.400 121.278  1.00  0.00     0.102 C 
ATOM      8  O   UNL     1     136.354 121.487 122.132  1.00  0.00    -0.544 OA
ATOM      9  O   UNL     1     136.672 122.209 119.983  1.00  0.00    -0.544 OA
ENDBRANCH   2   7
ENDBRANCH   1   2
BRANCH   1  10
ATOM     10  O   UNL     1     137.904 124.223 121.863  1.00  0.00    -0.390 OA
ATOM     11  H   UNL     1     138.391 124.936 121.373  1.00  0.00     0.210 HD
ENDBRANCH   1  10
TORSDOF 4
ENDMDL
MODEL 6
REMARK VINA RESULT:    -3.128     15.825     16.560
REMARK INTER + INTRA:          -3.902
REMARK INTER:                  -3.495
REMARK INTRA:                  -0.406
REMARK UNBOUND:                -0.225
REMARK SMILES [NH3+][C@H](CO)C(=O)[O-]
REMARK SMILES IDX 3 1 2 2 1 3 5 7 6 8 7 9 4 10
REMARK H PARENT 1 4 1 5 1 6 4 11
REMARK Flexibility Score: inf
ROOT
ATOM      1  C   UNL     1     120.721 123.146 121.029  1.00  0.00     0.227 C 
ENDROOT
BRANCH   1   2
ATOM      2  C   UNL     1     119.404 123.333 120.254  1.00  0.00     0.253 C 
BRANCH   2   3
ATOM      3  N   UNL     1     119.543 124.357 119.212  1.00  0.00    -0.348 N 
ATOM      4  H   UNL     1     120.467 124.250 118.731  1.00  0.00     0.345 HD
ATOM      5  H   UNL     1     119.480 125.317 119.624  1.00  0.00     0.345 HD
ATOM      6  H   UNL     1     118.790 124.242 118.496  1.00  0.00     0.345 HD
ENDBRANCH   2   3
BRANCH   2   7
ATOM      7  C   UNL     1     118.978 122.023 119.645  1.00  0.00     0.102 C 
ATOM      8  O   UNL     1     119.302 121.742 118.462  1.00  0.00    -0.544 OA
ATOM      9  O   UNL     1     118.213 121.125 120.379  1.00  0.00    -0.544 OA
ENDBRANCH   2   7
ENDBRANCH   1   2
BRANCH   1  10
ATOM     10  O   UNL     1     121.162 121.817 120.947  1.00  0.00    -0.390 OA
ATOM     11  H   UNL     1     120.382 121.245 121.168  1.00  0.00     0.210 HD
ENDBRANCH   1  10
TORSDOF 4
ENDMDL
MODEL 7
REMARK VINA RESULT:    -3.125     15.950     16.506
REMARK INTER + INTRA:          -3.899
REMARK INTER:                  -3.676
REMARK INTRA:                  -0.223
REMARK UNBOUND:                -0.225
REMARK SMILES [NH3+][C@H](CO)C(=O)[O-]
REMARK SMILES IDX 3 1 2 2 1 3 5 7 6 8 7 9 4 10
REMARK H PARENT 1 4 1 5 1 6 4 11
REMARK Flexibility Score: inf
ROOT
ATOM      1  C   UNL     1     120.494 121.512 122.587  1.00  0.00     0.227 C 
ENDROOT
BRANCH   1   2
ATOM      2  C   UNL     1     120.449 122.700 121.608  1.00  0.00     0.253 C 
BRANCH   2   3
ATOM      3  N   UNL     1     120.920 122.304 120.275  1.00  0.00    -0.348 N 
ATOM      4  H   UNL     1     120.681 121.301 120.098  1.00  0.00     0.345 HD
ATOM      5  H   UNL     1     121.956 122.431 120.194  1.00  0.00     0.345 HD
ATOM      6  H   UNL     1     120.447 122.883 119.543  1.00  0.00     0.345 HD
ENDBRANCH   2   3
BRANCH   2   7
ATOM      7  C   UNL     1     119.048 123.244 121.527  1.00  0.00     0.102 C 
ATOM      8  O   UNL     1     118.261 123.110 122.500  1.00  0.00    -0.544 OA
ATOM      9  O   UNL     1     118.610 123.883 120.373  1.00  0.00    -0.544 OA
ENDBRANCH   2   7
ENDBRANCH   1   2
BRANCH   1  10
ATOM     10  O   UNL     1     119.702 120.452 122.120  1.00  0.00    -0.390 OA
ATOM     11  H   UNL     1     119.322 120.007 122.923  1.00  0.00     0.210 HD
ENDBRANCH   1  10
TORSDOF 4
ENDMDL
MODEL 8
REMARK VINA RESULT:    -3.068      1.988      3.187
REMARK INTER + INTRA:          -3.832
REMARK INTER:                  -3.459
REMARK INTRA:                  -0.373
REMARK UNBOUND:                -0.225
REMARK SMILES [NH3+][C@H](CO)C(=O)[O-]
REMARK SMILES IDX 3 1 2 2 1 3 5 7 6 8 7 9 4 10
REMARK H PARENT 1 4 1 5 1 6 4 11
REMARK Flexibility Score: inf
ROOT
ATOM      1  C   UNL     1     136.335 124.158 121.573  1.00  0.00     0.227 C 
ENDROOT
BRANCH   1   2
ATOM      2  C   UNL     1     136.610 122.726 121.078  1.00  0.00     0.253 C 
BRANCH   2   3
ATOM      3  N   UNL     1     135.849 121.742 121.857  1.00  0.00    -0.348 N 
ATOM      4  H   UNL     1     135.584 120.935 121.245  1.00  0.00     0.345 HD
ATOM      5  H   UNL     1     134.982 122.173 122.253  1.00  0.00     0.345 HD
ATOM      6  H   UNL     1     136.438 121.375 122.640  1.00  0.00     0.345 HD
ENDBRANCH   2   3
BRANCH   2   7
ATOM      7  C   UNL     1     136.265 122.615 119.617  1.00  0.00     0.102 C 
ATOM      8  O   UNL     1     135.197 122.051 119.261  1.00  0.00    -0.544 OA
ATOM      9  O   UNL     1     137.129 123.120 118.652  1.00  0.00    -0.544 OA
ENDBRANCH   2   7
ENDBRANCH   1   2
BRANCH   1  10
ATOM     10  O   UNL     1     135.830 124.955 120.535  1.00  0.00    -0.390 OA
ATOM     11  H   UNL     1     136.608 125.421 120.130  1.00  0.00     0.210 HD
ENDBRANCH   1  10
TORSDOF 4
ENDMDL
MODEL 9
REMARK VINA RESULT:    -3.056     15.941     16.602
REMARK INTER + INTRA:          -3.817
REMARK INTER:                  -3.429
REMARK INTRA:                  -0.388
REMARK UNBOUND:                -0.225
REMARK SMILES [NH3+][C@H](CO)C(=O)[O-]
REMARK SMILES IDX 3 1 2 2 1 3 5 7 6 8 7 9 4 10
REMARK H PARENT 1 4 1 5 1 6 4 11
REMARK Flexibility Score: inf
ROOT
ATOM      1  C   UNL     1     120.289 122.098 121.737  1.00  0.00     0.227 C 
ENDROOT
BRANCH   1   2
ATOM      2  C   UNL     1     118.983 122.701 121.188  1.00  0.00     0.253 C 
BRANCH   2   3
ATOM      3  N   UNL     1     118.594 123.897 121.944  1.00  0.00    -0.348 N 
ATOM      4  H   UNL     1     119.365 124.604 121.910  1.00  0.00     0.345 HD
ATOM      5  H   UNL     1     118.393 123.656 122.942  1.00  0.00     0.345 HD
ATOM      6  H   UNL     1     117.741 124.327 121.517  1.00  0.00     0.345 HD
ENDBRANCH   2   3
BRANCH   2   7
ATOM      7  C   UNL     1     119.148 123.036 119.729  1.00  0.00     0.102 C 
ATOM      8  O   UNL     1     119.368 124.223 119.375  1.00  0.00    -0.544 OA
ATOM      9  O   UNL     1     119.043 122.040 118.765  1.00  0.00    -0.544 OA
ENDBRANCH   2   7
ENDBRANCH   1   2
BRANCH   1  10
ATOM     10  O   UNL     1     121.269 122.037 120.735  1.00  0.00    -0.390 OA
ATOM     11  H   UNL     1     121.412 121.075 120.536  1.00  0.00     0.210 HD
ENDBRANCH   1  10
TORSDOF 4
ENDMDL
