MODEL 1
REMARK VINA RESULT:    -1.095      0.000      0.000
REMARK INTER + INTRA:          -1.686
REMARK INTER:                  -1.735
REMARK INTRA:                   0.049
REMARK UNBOUND:                 0.049
REMARK SMILES C[C@@H]1O[C@@H](O[C@H]2[C@H](Oc3cc(O)c4c(c3)O[C@H](c3ccc(O)cc3)CC4=O)O[C@@H](CO)[C@@H](O)[C@H]2O)[C@@H](O)[C@@H](O)[C@@H]1O
REMARK SMILES IDX 6 1 34 2 32 3 29 4 28 5 7 6 5 7 4 8 1 9 2 10 40 11 3 12
REMARK SMILES IDX 38 13 36 14 41 15 39 17 37 19 35 21 8 23 9 24 10 25 15 26
REMARK SMILES IDX 11 27 14 28 13 29 16 30 26 31 17 32 27 33 25 34 12 35 18 37
REMARK SMILES IDX 19 38 24 39 20 40 23 41 21 42 22 43 33 45 30 47 31 48
REMARK H PARENT 41 16 39 18 37 20 35 22 12 36 22 44 33 46 31 49
REMARK Flexibility Score: inf
ROOT
ATOM      1  C   UNL     1     141.231 155.747 120.249  1.00  0.00     0.221 C 
ATOM      2  C   UNL     1     141.225 157.232 120.260  1.00  0.00     0.181 C 
ATOM      3  C   UNL     1     140.579 157.705 118.922  1.00  0.00     0.177 C 
ATOM      4  C   UNL     1     139.098 157.127 118.921  1.00  0.00     0.179 C 
ATOM      5  O   UNL     1     138.912 155.700 119.192  1.00  0.00    -0.332 OA
ATOM      6  C   UNL     1     139.805 155.113 120.123  1.00  0.00     0.339 C 
ENDROOT
BRANCH   1   7
ATOM      7  O   UNL     1     141.804 155.237 121.444  1.00  0.00    -0.337 OA
BRANCH   7   8
ATOM      8  C   UNL     1     143.135 154.759 121.273  1.00  0.00     0.282 C 
ATOM      9  C   UNL     1     145.418 153.216 119.591  1.00  0.00     0.041 C 
ATOM     10  C   UNL     1     143.958 153.451 119.351  1.00  0.00     0.150 C 
ATOM     11  C   UNL     1     143.073 152.261 119.813  1.00  0.00     0.174 C 
ATOM     12  O   UNL     1     143.401 154.582 119.857  1.00  0.00    -0.344 OA
ATOM     13  C   UNL     1     142.637 152.370 121.388  1.00  0.00     0.179 C 
ATOM     14  C   UNL     1     143.314 153.545 122.144  1.00  0.00     0.202 C 
BRANCH  11  15
ATOM     15  O   UNL     1     143.613 151.011 119.566  1.00  0.00    -0.388 OA
ATOM     16  H   UNL     1     143.565 150.444 120.404  1.00  0.00     0.211 HD
ENDBRANCH  11  15
BRANCH  13  17
ATOM     17  O   UNL     1     141.243 152.456 121.557  1.00  0.00    -0.387 OA
ATOM     18  H   UNL     1     141.174 152.892 122.448  1.00  0.00     0.211 HD
ENDBRANCH  13  17
BRANCH  14  19
ATOM     19  O   UNL     1     142.868 153.768 123.405  1.00  0.00    -0.385 OA
ATOM     20  H   UNL     1     143.475 154.498 123.680  1.00  0.00     0.211 HD
ENDBRANCH  14  19
ENDBRANCH   7   8
ENDBRANCH   1   7
BRANCH   2  21
ATOM     21  O   UNL     1     140.655 157.799 121.408  1.00  0.00    -0.387 OA
ATOM     22  H   UNL     1     139.825 157.158 121.456  1.00  0.00     0.211 HD
ENDBRANCH   2  21
BRANCH   6  23
ATOM     23  O   UNL     1     139.976 153.735 119.837  1.00  0.00    -0.462 OA
BRANCH  23  24
ATOM     24  C   UNL     1     139.363 152.836 118.959  1.00  0.00     0.130 A 
ATOM     25  C   UNL     1     139.811 151.457 118.997  1.00  0.00     0.093 A 
ATOM     26  C   UNL     1     137.990 152.989 118.899  1.00  0.00     0.094 A 
ATOM     27  C   UNL     1     138.895 150.525 119.561  1.00  0.00     0.133 A 
ATOM     28  C   UNL     1     137.420 152.432 120.019  1.00  0.00     0.138 A 
ATOM     29  C   UNL     1     137.846 151.091 120.382  1.00  0.00     0.102 A 
ATOM     30  O   UNL     1     136.875 153.313 120.966  1.00  0.00    -0.484 OA
ATOM     31  C   UNL     1     138.081 150.871 121.800  1.00  0.00     0.174 C 
ATOM     32  C   UNL     1     137.152 153.218 122.388  1.00  0.00     0.211 C 
ATOM     33  O   UNL     1     138.679 149.816 122.196  1.00  0.00    -0.294 OA
ATOM     34  C   UNL     1     138.184 152.032 122.677  1.00  0.00     0.131 C 
BRANCH  27  35
ATOM     35  O   UNL     1     138.700 149.304 118.881  1.00  0.00    -0.507 OA
ATOM     36  H   UNL     1     137.786 148.821 118.917  1.00  0.00     0.293 HD
ENDBRANCH  27  35
BRANCH  32  37
ATOM     37  C   UNL     1     137.562 154.502 123.064  1.00  0.00    -0.007 A 
ATOM     38  C   UNL     1     136.911 155.026 124.158  1.00  0.00     0.011 A 
ATOM     39  C   UNL     1     138.594 155.329 122.490  1.00  0.00     0.011 A 
ATOM     40  C   UNL     1     137.175 156.334 124.682  1.00  0.00     0.046 A 
ATOM     41  C   UNL     1     138.519 156.778 122.683  1.00  0.00     0.046 A 
ATOM     42  C   UNL     1     137.623 157.204 123.746  1.00  0.00     0.115 A 
BRANCH  42  43
ATOM     43  O   UNL     1     136.963 158.469 123.630  1.00  0.00    -0.508 OA
ATOM     44  H   UNL     1     136.145 158.475 123.034  1.00  0.00     0.293 HD
ENDBRANCH  42  43
ENDBRANCH  32  37
ENDBRANCH  23  24
ENDBRANCH   6  23
BRANCH   3  45
ATOM     45  O   UNL     1     140.394 159.097 118.884  1.00  0.00    -0.387 OA
ATOM     46  H   UNL     1     141.306 159.501 119.301  1.00  0.00     0.211 HD
ENDBRANCH   3  45
BRANCH   4  47
ATOM     47  C   UNL     1     137.962 157.815 119.783  1.00  0.00     0.191 C 
BRANCH  47  48
ATOM     48  O   UNL     1     137.531 159.035 119.258  1.00  0.00    -0.394 OA
ATOM     49  H   UNL     1     138.205 159.764 119.609  1.00  0.00     0.210 HD
ENDBRANCH  47  48
ENDBRANCH   4  47
TORSDOF 14
ENDMDL
