MODEL 1
REMARK VINA RESULT:    -1.313      0.000      0.000
REMARK INTER + INTRA:          -2.614
REMARK INTER:                  -1.812
REMARK INTRA:                  -0.802
REMARK UNBOUND:                -0.802
REMARK SMILES CC[C@H](CC[C@@H](C)[C@H]1CC[C@@H]2[C@H]3CC=C4C[C@@H](O)CC[C@]4(C)[C@@H]3CC[C@@]21C)C(C)C
REMARK SMILES IDX 5 1 4 2 3 3 2 4 1 5 28 6 29 7 30 8 6 9 7 10 8 11 9 12 26 13
REMARK SMILES IDX 10 14 11 15 25 16 27 17 12 18 24 19 23 20 13 21 21 22 14 23
REMARK SMILES IDX 15 24 20 25 22 26 16 27 19 28 17 29 18 30
REMARK H PARENT 18 31
REMARK Flexibility Score: inf
ROOT
ATOM      1  C   UNL     1      28.280  30.648  23.315  1.00  0.00     0.004 C 
ENDROOT
BRANCH   1   2
ATOM      2  C   UNL     1      28.848  29.677  24.378  1.00  0.00     0.004 C 
BRANCH   2   3
ATOM      3  C   UNL     1      28.002  28.372  24.575  1.00  0.00    -0.009 C 
BRANCH   3   4
ATOM      4  C   UNL     1      28.968  27.159  24.766  1.00  0.00     0.000 C 
ATOM      5  C   UNL     1      28.584  26.224  25.924  1.00  0.00     0.004 C 
ENDBRANCH   3   4
BRANCH   3   6
ATOM      6  C   UNL     1      26.976  28.560  25.750  1.00  0.00    -0.014 C 
ATOM      7  C   UNL     1      25.743  29.393  25.370  1.00  0.00     0.007 C 
ATOM      8  C   UNL     1      27.653  29.229  26.965  1.00  0.00     0.007 C 
ENDBRANCH   3   6
ENDBRANCH   2   3
ENDBRANCH   1   2
BRANCH   1   9
ATOM      9  C   UNL     1      28.085  32.105  23.833  1.00  0.00    -0.011 C 
ATOM     10  C   UNL     1      28.526  32.226  25.306  1.00  0.00     0.008 C 
BRANCH   9  11
ATOM     11  C   UNL     1      28.801  33.203  22.960  1.00  0.00    -0.002 C 
ATOM     12  C   UNL     1      29.125  32.716  21.542  1.00  0.00     0.005 C 
ATOM     13  C   UNL     1      28.072  34.588  22.769  1.00  0.00    -0.026 C 
ATOM     14  C   UNL     1      28.095  33.334  20.611  1.00  0.00     0.005 C 
ATOM     15  C   UNL     1      27.469  34.544  21.331  1.00  0.00    -0.001 C 
ATOM     16  C   UNL     1      29.125  35.721  22.852  1.00  0.00     0.007 C 
ATOM     17  C   UNL     1      26.980  34.858  23.846  1.00  0.00     0.012 C 
ATOM     18  C   UNL     1      27.637  35.849  20.473  1.00  0.00     0.000 C 
ATOM     19  C   UNL     1      28.561  37.112  22.518  1.00  0.00     0.005 C 
ATOM     20  C   UNL     1      27.541  37.134  21.329  1.00  0.00     0.003 C 
ATOM     21  C   UNL     1      26.536  35.859  19.400  1.00  0.00     0.031 C 
ATOM     22  C   UNL     1      27.541  38.484  20.473  1.00  0.00    -0.008 C 
ATOM     23  C   UNL     1      26.561  37.103  18.579  1.00  0.00    -0.027 C 
ATOM     24  C   UNL     1      26.904  38.304  19.077  1.00  0.00    -0.065 C 
ATOM     25  C   UNL     1      28.982  39.055  20.228  1.00  0.00     0.014 C 
ATOM     26  C   UNL     1      26.707  39.526  21.274  1.00  0.00     0.016 C 
ATOM     27  C   UNL     1      26.910  39.488  18.139  1.00  0.00     0.063 C 
ATOM     28  C   UNL     1      29.058  40.225  19.218  1.00  0.00     0.033 C 
ATOM     29  C   UNL     1      28.362  39.912  17.886  1.00  0.00     0.118 C 
BRANCH  29  30
ATOM     30  O   UNL     1      28.384  41.061  17.080  1.00  0.00    -0.393 OA
ATOM     31  H   UNL     1      27.448  41.388  17.016  1.00  0.00     0.210 HD
ENDBRANCH  29  30
ENDBRANCH   9  11
ENDBRANCH   1   9
TORSDOF 7
ENDMDL
MODEL 2
REMARK VINA RESULT:    -1.189      3.220      9.896
REMARK INTER + INTRA:          -2.442
REMARK INTER:                  -2.791
REMARK INTRA:                   0.349
REMARK UNBOUND:                -0.802
REMARK SMILES CC[C@H](CC[C@@H](C)[C@H]1CC[C@@H]2[C@H]3CC=C4C[C@@H](O)CC[C@]4(C)[C@@H]3CC[C@@]21C)C(C)C
REMARK SMILES IDX 5 1 4 2 3 3 2 4 1 5 28 6 29 7 30 8 6 9 7 10 8 11 9 12 26 13
REMARK SMILES IDX 10 14 11 15 25 16 27 17 12 18 24 19 23 20 13 21 21 22 14 23
REMARK SMILES IDX 15 24 20 25 22 26 16 27 19 28 17 29 18 30
REMARK H PARENT 18 31
REMARK Flexibility Score: inf
ROOT
ATOM      1  C   UNL     1      26.997  39.548  20.015  1.00  0.00     0.004 C 
ENDROOT
BRANCH   1   2
ATOM      2  C   UNL     1      27.222  40.708  19.015  1.00  0.00     0.004 C 
BRANCH   2   3
ATOM      3  C   UNL     1      28.229  41.801  19.511  1.00  0.00    -0.009 C 
BRANCH   3   4
ATOM      4  C   UNL     1      28.913  42.468  18.274  1.00  0.00     0.000 C 
ATOM      5  C   UNL     1      29.079  41.533  17.067  1.00  0.00     0.004 C 
ENDBRANCH   3   4
BRANCH   3   6
ATOM      6  C   UNL     1      27.504  42.818  20.464  1.00  0.00    -0.014 C 
ATOM      7  C   UNL     1      26.455  43.689  19.758  1.00  0.00     0.007 C 
ATOM      8  C   UNL     1      28.525  43.752  21.146  1.00  0.00     0.007 C 
ENDBRANCH   3   6
ENDBRANCH   2   3
ENDBRANCH   1   2
BRANCH   1   9
ATOM      9  C   UNL     1      27.528  38.171  19.513  1.00  0.00    -0.011 C 
ATOM     10  C   UNL     1      29.058  38.081  19.677  1.00  0.00     0.008 C 
BRANCH   9  11
ATOM     11  C   UNL     1      26.835  36.927  20.184  1.00  0.00    -0.002 C 
ATOM     12  C   UNL     1      26.465  35.835  19.172  1.00  0.00     0.005 C 
ATOM     13  C   UNL     1      27.609  36.181  21.338  1.00  0.00    -0.026 C 
ATOM     14  C   UNL     1      27.498  34.728  19.311  1.00  0.00     0.005 C 
ATOM     15  C   UNL     1      28.181  34.887  20.684  1.00  0.00    -0.001 C 
ATOM     16  C   UNL     1      26.599  35.795  22.447  1.00  0.00     0.007 C 
ATOM     17  C   UNL     1      28.731  37.049  21.981  1.00  0.00     0.012 C 
ATOM     18  C   UNL     1      28.042  33.569  21.527  1.00  0.00     0.000 C 
ATOM     19  C   UNL     1      27.205  34.918  23.555  1.00  0.00     0.005 C 
ATOM     20  C   UNL     1      28.201  33.821  23.045  1.00  0.00     0.003 C 
ATOM     21  C   UNL     1      29.121  32.582  21.052  1.00  0.00     0.031 C 
ATOM     22  C   UNL     1      28.233  32.486  23.924  1.00  0.00    -0.008 C 
ATOM     23  C   UNL     1      29.125  31.323  21.850  1.00  0.00    -0.027 C 
ATOM     24  C   UNL     1      28.835  31.286  23.162  1.00  0.00    -0.065 C 
ATOM     25  C   UNL     1      26.808  32.034  24.403  1.00  0.00     0.014 C 
ATOM     26  C   UNL     1      29.119  32.785  25.168  1.00  0.00     0.016 C 
ATOM     27  C   UNL     1      28.852  29.944  23.857  1.00  0.00     0.063 C 
ATOM     28  C   UNL     1      26.754  30.633  25.058  1.00  0.00     0.033 C 
ATOM     29  C   UNL     1      27.412  29.544  24.198  1.00  0.00     0.118 C 
BRANCH  29  30
ATOM     30  O   UNL     1      27.414  28.337  24.915  1.00  0.00    -0.393 OA
ATOM     31  H   UNL     1      28.162  27.789  24.555  1.00  0.00     0.210 HD
ENDBRANCH  29  30
ENDBRANCH   9  11
ENDBRANCH   1   9
TORSDOF 7
ENDMDL
MODEL 3
REMARK VINA RESULT:    -0.995      3.179      9.780
REMARK INTER + INTRA:          -2.174
REMARK INTER:                  -2.284
REMARK INTRA:                   0.110
REMARK UNBOUND:                -0.802
REMARK SMILES CC[C@H](CC[C@@H](C)[C@H]1CC[C@@H]2[C@H]3CC=C4C[C@@H](O)CC[C@]4(C)[C@@H]3CC[C@@]21C)C(C)C
REMARK SMILES IDX 5 1 4 2 3 3 2 4 1 5 28 6 29 7 30 8 6 9 7 10 8 11 9 12 26 13
REMARK SMILES IDX 10 14 11 15 25 16 27 17 12 18 24 19 23 20 13 21 21 22 14 23
REMARK SMILES IDX 15 24 20 25 22 26 16 27 19 28 17 29 18 30
REMARK H PARENT 18 31
REMARK Flexibility Score: inf
ROOT
ATOM      1  C   UNL     1      27.358  38.281  18.854  1.00  0.00     0.004 C 
ENDROOT
BRANCH   1   2
ATOM      2  C   UNL     1      27.916  39.713  18.671  1.00  0.00     0.004 C 
BRANCH   2   3
ATOM      3  C   UNL     1      26.889  40.851  18.997  1.00  0.00    -0.009 C 
BRANCH   3   4
ATOM      4  C   UNL     1      25.965  40.389  20.169  1.00  0.00     0.000 C 
ATOM      5  C   UNL     1      26.434  40.848  21.559  1.00  0.00     0.004 C 
ENDBRANCH   3   4
BRANCH   3   6
ATOM      6  C   UNL     1      27.642  42.203  19.273  1.00  0.00    -0.014 C 
ATOM      7  C   UNL     1      26.903  43.443  18.750  1.00  0.00     0.007 C 
ATOM      8  C   UNL     1      29.051  42.181  18.645  1.00  0.00     0.007 C 
ENDBRANCH   3   6
ENDBRANCH   2   3
ENDBRANCH   1   2
BRANCH   1   9
ATOM      9  C   UNL     1      28.136  37.431  19.903  1.00  0.00    -0.011 C 
ATOM     10  C   UNL     1      28.707  38.327  21.020  1.00  0.00     0.008 C 
BRANCH   9  11
ATOM     11  C   UNL     1      27.300  36.250  20.526  1.00  0.00    -0.002 C 
ATOM     12  C   UNL     1      26.870  35.211  19.483  1.00  0.00     0.005 C 
ATOM     13  C   UNL     1      27.952  35.420  21.697  1.00  0.00    -0.026 C 
ATOM     14  C   UNL     1      27.786  34.009  19.644  1.00  0.00     0.005 C 
ATOM     15  C   UNL     1      28.424  34.084  21.045  1.00  0.00    -0.001 C 
ATOM     16  C   UNL     1      26.866  35.119  22.759  1.00  0.00     0.007 C 
ATOM     17  C   UNL     1      29.125  36.168  22.398  1.00  0.00     0.012 C 
ATOM     18  C   UNL     1      28.126  32.775  21.861  1.00  0.00     0.000 C 
ATOM     19  C   UNL     1      27.340  34.173  23.876  1.00  0.00     0.005 C 
ATOM     20  C   UNL     1      28.247  32.992  23.388  1.00  0.00     0.003 C 
ATOM     21  C   UNL     1      29.125  31.696  21.413  1.00  0.00     0.031 C 
ATOM     22  C   UNL     1      28.115  31.650  24.246  1.00  0.00    -0.008 C 
ATOM     23  C   UNL     1      28.975  30.432  22.189  1.00  0.00    -0.027 C 
ATOM     24  C   UNL     1      28.630  30.407  23.488  1.00  0.00    -0.065 C 
ATOM     25  C   UNL     1      26.635  31.331  24.661  1.00  0.00     0.014 C 
ATOM     26  C   UNL     1      28.974  31.848  25.529  1.00  0.00     0.016 C 
ATOM     27  C   UNL     1      28.491  29.061  24.162  1.00  0.00     0.063 C 
ATOM     28  C   UNL     1      26.421  29.933  25.291  1.00  0.00     0.033 C 
ATOM     29  C   UNL     1      27.006  28.798  24.440  1.00  0.00     0.118 C 
BRANCH  29  30
ATOM     30  O   UNL     1      26.864  27.587  25.137  1.00  0.00    -0.393 OA
ATOM     31  H   UNL     1      26.024  27.164  24.813  1.00  0.00     0.210 HD
ENDBRANCH  29  30
ENDBRANCH   9  11
ENDBRANCH   1   9
TORSDOF 7
ENDMDL
