MODEL 1
REMARK VINA RESULT:    -4.919      0.000      0.000
REMARK INTER + INTRA:         -11.319
REMARK INTER:                  -8.945
REMARK INTRA:                  -2.374
REMARK UNBOUND:                -2.374
REMARK SMILES CCCCCCCCCCCCCC[C@@H](C)C(=O)[O-]
REMARK SMILES IDX 9 1 10 2 11 3 12 4 13 5 14 6 15 7 16 8 17 9 18 10 19 11 8 12
REMARK SMILES IDX 7 13 6 14 5 15 4 16 3 17 2 18 1 19
REMARK H PARENT
REMARK Flexibility Score: inf
ROOT
ATOM      1  C   UNL     1      15.776  11.077  34.392  1.00  0.00     0.000 C 
ENDROOT
BRANCH   1   2
ATOM      2  C   UNL     1      16.188  11.264  35.865  1.00  0.00     0.000 C 
BRANCH   2   3
ATOM      3  C   UNL     1      16.784  12.644  36.208  1.00  0.00     0.000 C 
BRANCH   3   4
ATOM      4  C   UNL     1      16.891  13.624  35.023  1.00  0.00     0.000 C 
BRANCH   4   5
ATOM      5  C   UNL     1      18.320  13.844  34.494  1.00  0.00     0.001 C 
BRANCH   5   6
ATOM      6  C   UNL     1      19.285  12.714  34.897  1.00  0.00     0.009 C 
BRANCH   6   7
ATOM      7  C   UNL     1      19.967  12.054  33.681  1.00  0.00     0.032 C 
ATOM      8  C   UNL     1      18.951  11.575  32.636  1.00  0.00     0.014 C 
BRANCH   7   9
ATOM      9  C   UNL     1      20.922  13.027  33.045  1.00  0.00     0.044 C 
ATOM     10  O   UNL     1      20.764  13.376  31.845  1.00  0.00    -0.550 OA
ATOM     11  O   UNL     1      21.986  13.544  33.774  1.00  0.00    -0.550 OA
ENDBRANCH   7   9
ENDBRANCH   6   7
ENDBRANCH   5   6
ENDBRANCH   4   5
ENDBRANCH   3   4
ENDBRANCH   2   3
ENDBRANCH   1   2
BRANCH   1  12
ATOM     12  C   UNL     1      14.460  10.307  34.176  1.00  0.00     0.000 C 
BRANCH  12  13
ATOM     13  C   UNL     1      13.480  11.041  33.244  1.00  0.00    -0.000 C 
BRANCH  13  14
ATOM     14  C   UNL     1      13.664  12.573  33.287  1.00  0.00    -0.000 C 
BRANCH  14  15
ATOM     15  C   UNL     1      12.610  13.308  34.139  1.00  0.00    -0.000 C 
BRANCH  15  16
ATOM     16  C   UNL     1      13.177  14.108  35.323  1.00  0.00    -0.000 C 
BRANCH  16  17
ATOM     17  C   UNL     1      13.207  13.298  36.631  1.00  0.00    -0.000 C 
BRANCH  17  18
ATOM     18  C   UNL     1      12.127  12.206  36.668  1.00  0.00    -0.003 C 
ATOM     19  C   UNL     1      11.705  11.842  38.093  1.00  0.00     0.004 C 
ENDBRANCH  17  18
ENDBRANCH  16  17
ENDBRANCH  15  16
ENDBRANCH  14  15
ENDBRANCH  13  14
ENDBRANCH  12  13
ENDBRANCH   1  12
TORSDOF 14
ENDMDL
MODEL 2
REMARK VINA RESULT:    -4.784      3.953      7.044
REMARK INTER + INTRA:         -11.072
REMARK INTER:                  -8.506
REMARK INTRA:                  -2.566
REMARK UNBOUND:                -2.374
REMARK SMILES CCCCCCCCCCCCCC[C@@H](C)C(=O)[O-]
REMARK SMILES IDX 9 1 10 2 11 3 12 4 13 5 14 6 15 7 16 8 17 9 18 10 19 11 8 12
REMARK SMILES IDX 7 13 6 14 5 15 4 16 3 17 2 18 1 19
REMARK H PARENT
REMARK Flexibility Score: inf
ROOT
ATOM      1  C   UNL     1      15.886  11.324  34.237  1.00  0.00     0.000 C 
ENDROOT
BRANCH   1   2
ATOM      2  C   UNL     1      14.498  10.989  33.654  1.00  0.00     0.000 C 
BRANCH   2   3
ATOM      3  C   UNL     1      13.655  12.208  33.231  1.00  0.00     0.000 C 
BRANCH   3   4
ATOM      4  C   UNL     1      12.644  12.703  34.284  1.00  0.00     0.000 C 
BRANCH   4   5
ATOM      5  C   UNL     1      13.155  13.841  35.184  1.00  0.00     0.001 C 
BRANCH   5   6
ATOM      6  C   UNL     1      13.238  13.437  36.667  1.00  0.00     0.009 C 
BRANCH   6   7
ATOM      7  C   UNL     1      12.776  11.986  36.914  1.00  0.00     0.032 C 
ATOM      8  C   UNL     1      13.934  11.071  37.335  1.00  0.00     0.014 C 
BRANCH   7   9
ATOM      9  C   UNL     1      11.709  11.967  37.974  1.00  0.00     0.044 C 
ATOM     10  O   UNL     1      11.843  11.239  38.994  1.00  0.00    -0.550 OA
ATOM     11  O   UNL     1      10.569  12.749  37.837  1.00  0.00    -0.550 OA
ENDBRANCH   7   9
ENDBRANCH   6   7
ENDBRANCH   5   6
ENDBRANCH   4   5
ENDBRANCH   3   4
ENDBRANCH   2   3
ENDBRANCH   1   2
BRANCH   1  12
ATOM     12  C   UNL     1      16.509  12.634  33.723  1.00  0.00     0.000 C 
BRANCH  12  13
ATOM     13  C   UNL     1      16.734  13.670  34.838  1.00  0.00    -0.000 C 
BRANCH  13  14
ATOM     14  C   UNL     1      16.852  13.017  36.232  1.00  0.00    -0.000 C 
BRANCH  14  15
ATOM     15  C   UNL     1      18.143  13.384  36.990  1.00  0.00    -0.000 C 
BRANCH  15  16
ATOM     16  C   UNL     1      19.406  13.467  36.118  1.00  0.00    -0.000 C 
BRANCH  16  17
ATOM     17  C   UNL     1      20.214  12.158  36.110  1.00  0.00    -0.000 C 
BRANCH  17  18
ATOM     18  C   UNL     1      19.587  11.089  35.202  1.00  0.00    -0.003 C 
ATOM     19  C   UNL     1      20.077  11.181  33.756  1.00  0.00     0.004 C 
ENDBRANCH  17  18
ENDBRANCH  16  17
ENDBRANCH  15  16
ENDBRANCH  14  15
ENDBRANCH  13  14
ENDBRANCH  12  13
ENDBRANCH   1  12
TORSDOF 14
ENDMDL
MODEL 3
REMARK VINA RESULT:    -4.689      3.029      7.139
REMARK INTER + INTRA:         -10.900
REMARK INTER:                  -8.373
REMARK INTRA:                  -2.527
REMARK UNBOUND:                -2.374
REMARK SMILES CCCCCCCCCCCCCC[C@@H](C)C(=O)[O-]
REMARK SMILES IDX 9 1 10 2 11 3 12 4 13 5 14 6 15 7 16 8 17 9 18 10 19 11 8 12
REMARK SMILES IDX 7 13 6 14 5 15 4 16 3 17 2 18 1 19
REMARK H PARENT
REMARK Flexibility Score: inf
ROOT
ATOM      1  C   UNL     1      21.320  12.262  35.461  1.00  0.00     0.000 C 
ENDROOT
BRANCH   1   2
ATOM      2  C   UNL     1      20.075  11.498  34.969  1.00  0.00     0.000 C 
BRANCH   2   3
ATOM      3  C   UNL     1      20.103  11.089  33.482  1.00  0.00     0.000 C 
BRANCH   3   4
ATOM      4  C   UNL     1      18.852  11.480  32.672  1.00  0.00     0.000 C 
BRANCH   4   5
ATOM      5  C   UNL     1      17.670  11.990  33.515  1.00  0.00     0.001 C 
BRANCH   5   6
ATOM      6  C   UNL     1      16.315  11.430  33.044  1.00  0.00     0.009 C 
BRANCH   6   7
ATOM      7  C   UNL     1      15.260  11.403  34.169  1.00  0.00     0.032 C 
ATOM      8  C   UNL     1      15.888  11.154  35.547  1.00  0.00     0.014 C 
BRANCH   7   9
ATOM      9  C   UNL     1      14.506  12.704  34.188  1.00  0.00     0.044 C 
ATOM     10  O   UNL     1      13.474  12.848  33.480  1.00  0.00    -0.550 OA
ATOM     11  O   UNL     1      14.942  13.757  34.985  1.00  0.00    -0.550 OA
ENDBRANCH   7   9
ENDBRANCH   6   7
ENDBRANCH   5   6
ENDBRANCH   4   5
ENDBRANCH   3   4
ENDBRANCH   2   3
ENDBRANCH   1   2
BRANCH   1  12
ATOM     12  C   UNL     1      21.026  13.581  36.198  1.00  0.00     0.000 C 
BRANCH  12  13
ATOM     13  C   UNL     1      19.686  14.215  35.784  1.00  0.00    -0.000 C 
BRANCH  13  14
ATOM     14  C   UNL     1      19.877  15.458  34.889  1.00  0.00    -0.000 C 
BRANCH  14  15
ATOM     15  C   UNL     1      19.561  15.214  33.400  1.00  0.00    -0.000 C 
BRANCH  15  16
ATOM     16  C   UNL     1      20.749  15.411  32.444  1.00  0.00    -0.000 C 
BRANCH  16  17
ATOM     17  C   UNL     1      21.359  14.081  31.968  1.00  0.00    -0.000 C 
BRANCH  17  18
ATOM     18  C   UNL     1      22.872  14.007  32.226  1.00  0.00    -0.003 C 
ATOM     19  C   UNL     1      23.306  14.841  33.433  1.00  0.00     0.004 C 
ENDBRANCH  17  18
ENDBRANCH  16  17
ENDBRANCH  15  16
ENDBRANCH  14  15
ENDBRANCH  13  14
ENDBRANCH  12  13
ENDBRANCH   1  12
TORSDOF 14
ENDMDL
MODEL 4
REMARK VINA RESULT:    -4.683      1.338      2.451
REMARK INTER + INTRA:         -10.889
REMARK INTER:                  -8.265
REMARK INTRA:                  -2.624
REMARK UNBOUND:                -2.374
REMARK SMILES CCCCCCCCCCCCCC[C@@H](C)C(=O)[O-]
REMARK SMILES IDX 9 1 10 2 11 3 12 4 13 5 14 6 15 7 16 8 17 9 18 10 19 11 8 12
REMARK SMILES IDX 7 13 6 14 5 15 4 16 3 17 2 18 1 19
REMARK H PARENT
REMARK Flexibility Score: inf
ROOT
ATOM      1  C   UNL     1      13.958  10.016  33.562  1.00  0.00     0.000 C 
ENDROOT
BRANCH   1   2
ATOM      2  C   UNL     1      13.621  10.086  35.065  1.00  0.00     0.000 C 
BRANCH   2   3
ATOM      3  C   UNL     1      14.798   9.790  36.015  1.00  0.00     0.000 C 
BRANCH   3   4
ATOM      4  C   UNL     1      15.295  10.995  36.838  1.00  0.00     0.000 C 
BRANCH   4   5
ATOM      5  C   UNL     1      16.079  12.047  36.034  1.00  0.00     0.001 C 
BRANCH   5   6
ATOM      6  C   UNL     1      16.996  11.421  34.967  1.00  0.00     0.009 C 
BRANCH   6   7
ATOM      7  C   UNL     1      17.270  12.375  33.786  1.00  0.00     0.032 C 
ATOM      8  C   UNL     1      16.996  13.841  34.148  1.00  0.00     0.014 C 
BRANCH   7   9
ATOM      9  C   UNL     1      18.698  12.227  33.336  1.00  0.00     0.044 C 
ATOM     10  O   UNL     1      19.024  11.288  32.563  1.00  0.00    -0.550 OA
ATOM     11  O   UNL     1      19.667  13.123  33.771  1.00  0.00    -0.550 OA
ENDBRANCH   7   9
ENDBRANCH   6   7
ENDBRANCH   5   6
ENDBRANCH   4   5
ENDBRANCH   3   4
ENDBRANCH   2   3
ENDBRANCH   1   2
BRANCH   1  12
ATOM     12  C   UNL     1      13.878  11.358  32.813  1.00  0.00     0.000 C 
BRANCH  12  13
ATOM     13  C   UNL     1      12.792  12.294  33.371  1.00  0.00    -0.000 C 
BRANCH  13  14
ATOM     14  C   UNL     1      13.389  13.534  34.070  1.00  0.00    -0.000 C 
BRANCH  14  15
ATOM     15  C   UNL     1      12.547  14.057  35.250  1.00  0.00    -0.000 C 
BRANCH  15  16
ATOM     16  C   UNL     1      12.793  13.343  36.589  1.00  0.00    -0.000 C 
BRANCH  16  17
ATOM     17  C   UNL     1      11.543  12.619  37.119  1.00  0.00    -0.000 C 
BRANCH  17  18
ATOM     18  C   UNL     1      11.873  11.638  38.255  1.00  0.00    -0.003 C 
ATOM     19  C   UNL     1      11.406  10.212  37.957  1.00  0.00     0.004 C 
ENDBRANCH  17  18
ENDBRANCH  16  17
ENDBRANCH  15  16
ENDBRANCH  14  15
ENDBRANCH  13  14
ENDBRANCH  12  13
ENDBRANCH   1  12
TORSDOF 14
ENDMDL
MODEL 5
REMARK VINA RESULT:    -4.670      1.548      2.315
REMARK INTER + INTRA:         -10.866
REMARK INTER:                  -9.305
REMARK INTRA:                  -1.561
REMARK UNBOUND:                -2.374
REMARK SMILES CCCCCCCCCCCCCC[C@@H](C)C(=O)[O-]
REMARK SMILES IDX 9 1 10 2 11 3 12 4 13 5 14 6 15 7 16 8 17 9 18 10 19 11 8 12
REMARK SMILES IDX 7 13 6 14 5 15 4 16 3 17 2 18 1 19
REMARK H PARENT
REMARK Flexibility Score: inf
ROOT
ATOM      1  C   UNL     1      15.432  10.745  34.521  1.00  0.00     0.000 C 
ENDROOT
BRANCH   1   2
ATOM      2  C   UNL     1      16.782  11.468  34.702  1.00  0.00     0.000 C 
BRANCH   2   3
ATOM      3  C   UNL     1      17.331  12.156  33.436  1.00  0.00     0.000 C 
BRANCH   3   4
ATOM      4  C   UNL     1      18.569  11.485  32.811  1.00  0.00     0.000 C 
BRANCH   4   5
ATOM      5  C   UNL     1      19.907  11.850  33.478  1.00  0.00     0.001 C 
BRANCH   5   6
ATOM      6  C   UNL     1      20.527  13.138  32.907  1.00  0.00     0.009 C 
BRANCH   6   7
ATOM      7  C   UNL     1      20.598  14.274  33.949  1.00  0.00     0.032 C 
ATOM      8  C   UNL     1      22.015  14.848  34.086  1.00  0.00     0.014 C 
BRANCH   7   9
ATOM      9  C   UNL     1      19.646  15.374  33.566  1.00  0.00     0.044 C 
ATOM     10  O   UNL     1      18.628  15.603  34.271  1.00  0.00    -0.550 OA
ATOM     11  O   UNL     1      19.881  16.143  32.432  1.00  0.00    -0.550 OA
ENDBRANCH   7   9
ENDBRANCH   6   7
ENDBRANCH   5   6
ENDBRANCH   4   5
ENDBRANCH   3   4
ENDBRANCH   2   3
ENDBRANCH   1   2
BRANCH   1  12
ATOM     12  C   UNL     1      14.886  10.737  33.081  1.00  0.00     0.000 C 
BRANCH  12  13
ATOM     13  C   UNL     1      13.534  11.459  32.947  1.00  0.00    -0.000 C 
BRANCH  13  14
ATOM     14  C   UNL     1      13.629  12.956  33.313  1.00  0.00    -0.000 C 
BRANCH  14  15
ATOM     15  C   UNL     1      12.458  13.468  34.175  1.00  0.00    -0.000 C 
BRANCH  15  16
ATOM     16  C   UNL     1      12.869  14.135  35.497  1.00  0.00    -0.000 C 
BRANCH  16  17
ATOM     17  C   UNL     1      13.374  13.127  36.543  1.00  0.00    -0.000 C 
BRANCH  17  18
ATOM     18  C   UNL     1      12.381  11.977  36.775  1.00  0.00    -0.003 C 
ATOM     19  C   UNL     1      11.352  12.296  37.860  1.00  0.00     0.004 C 
ENDBRANCH  17  18
ENDBRANCH  16  17
ENDBRANCH  15  16
ENDBRANCH  14  15
ENDBRANCH  13  14
ENDBRANCH  12  13
ENDBRANCH   1  12
TORSDOF 14
ENDMDL
MODEL 6
REMARK VINA RESULT:    -4.666      4.121      7.133
REMARK INTER + INTRA:         -10.858
REMARK INTER:                  -8.451
REMARK INTRA:                  -2.407
REMARK UNBOUND:                -2.374
REMARK SMILES CCCCCCCCCCCCCC[C@@H](C)C(=O)[O-]
REMARK SMILES IDX 9 1 10 2 11 3 12 4 13 5 14 6 15 7 16 8 17 9 18 10 19 11 8 12
REMARK SMILES IDX 7 13 6 14 5 15 4 16 3 17 2 18 1 19
REMARK H PARENT
REMARK Flexibility Score: inf
ROOT
ATOM      1  C   UNL     1      14.088  10.920  33.212  1.00  0.00     0.000 C 
ENDROOT
BRANCH   1   2
ATOM      2  C   UNL     1      13.121  12.117  33.306  1.00  0.00     0.000 C 
BRANCH   2   3
ATOM      3  C   UNL     1      13.755  13.434  33.796  1.00  0.00     0.000 C 
BRANCH   3   4
ATOM      4  C   UNL     1      13.105  14.046  35.053  1.00  0.00     0.000 C 
BRANCH   4   5
ATOM      5  C   UNL     1      12.202  13.085  35.846  1.00  0.00     0.001 C 
BRANCH   5   6
ATOM      6  C   UNL     1      12.891  12.517  37.100  1.00  0.00     0.009 C 
BRANCH   6   7
ATOM      7  C   UNL     1      12.453  11.072  37.415  1.00  0.00     0.032 C 
ATOM      8  C   UNL     1      13.383  10.391  38.428  1.00  0.00     0.014 C 
BRANCH   7   9
ATOM      9  C   UNL     1      11.046  11.074  37.947  1.00  0.00     0.044 C 
ATOM     10  O   UNL     1      10.660  11.996  38.713  1.00  0.00    -0.550 OA
ATOM     11  O   UNL     1      10.163  10.057  37.601  1.00  0.00    -0.550 OA
ENDBRANCH   7   9
ENDBRANCH   6   7
ENDBRANCH   5   6
ENDBRANCH   4   5
ENDBRANCH   3   4
ENDBRANCH   2   3
ENDBRANCH   1   2
BRANCH   1  12
ATOM     12  C   UNL     1      14.595  10.384  34.563  1.00  0.00     0.000 C 
BRANCH  12  13
ATOM     13  C   UNL     1      16.049  10.788  34.862  1.00  0.00    -0.000 C 
BRANCH  13  14
ATOM     14  C   UNL     1      16.157  11.742  36.071  1.00  0.00    -0.000 C 
BRANCH  14  15
ATOM     15  C   UNL     1      16.863  13.076  35.757  1.00  0.00    -0.000 C 
BRANCH  15  16
ATOM     16  C   UNL     1      17.371  13.217  34.313  1.00  0.00    -0.000 C 
BRANCH  16  17
ATOM     17  C   UNL     1      18.856  13.613  34.237  1.00  0.00    -0.000 C 
BRANCH  17  18
ATOM     18  C   UNL     1      19.701  12.573  33.484  1.00  0.00    -0.003 C 
ATOM     19  C   UNL     1      18.846  11.558  32.724  1.00  0.00     0.004 C 
ENDBRANCH  17  18
ENDBRANCH  16  17
ENDBRANCH  15  16
ENDBRANCH  14  15
ENDBRANCH  13  14
ENDBRANCH  12  13
ENDBRANCH   1  12
TORSDOF 14
ENDMDL
MODEL 7
REMARK VINA RESULT:    -4.648      1.438      1.602
REMARK INTER + INTRA:         -10.827
REMARK INTER:                  -8.481
REMARK INTRA:                  -2.346
REMARK UNBOUND:                -2.374
REMARK SMILES CCCCCCCCCCCCCC[C@@H](C)C(=O)[O-]
REMARK SMILES IDX 9 1 10 2 11 3 12 4 13 5 14 6 15 7 16 8 17 9 18 10 19 11 8 12
REMARK SMILES IDX 7 13 6 14 5 15 4 16 3 17 2 18 1 19
REMARK H PARENT
REMARK Flexibility Score: inf
ROOT
ATOM      1  C   UNL     1      16.240  11.079  34.635  1.00  0.00     0.000 C 
ENDROOT
BRANCH   1   2
ATOM      2  C   UNL     1      16.343  11.459  36.126  1.00  0.00     0.000 C 
BRANCH   2   3
ATOM      3  C   UNL     1      16.660  12.942  36.403  1.00  0.00     0.000 C 
BRANCH   3   4
ATOM      4  C   UNL     1      17.361  13.689  35.251  1.00  0.00     0.000 C 
BRANCH   4   5
ATOM      5  C   UNL     1      18.686  14.370  35.636  1.00  0.00     0.001 C 
BRANCH   5   6
ATOM      6  C   UNL     1      19.921  13.601  35.133  1.00  0.00     0.009 C 
BRANCH   6   7
ATOM      7  C   UNL     1      19.577  12.587  34.023  1.00  0.00     0.032 C 
ATOM      8  C   UNL     1      20.237  12.946  32.684  1.00  0.00     0.014 C 
BRANCH   7   9
ATOM      9  C   UNL     1      20.009  11.209  34.442  1.00  0.00     0.044 C 
ATOM     10  O   UNL     1      20.610  10.459  33.629  1.00  0.00    -0.550 OA
ATOM     11  O   UNL     1      19.746  10.752  35.729  1.00  0.00    -0.550 OA
ENDBRANCH   7   9
ENDBRANCH   6   7
ENDBRANCH   5   6
ENDBRANCH   4   5
ENDBRANCH   3   4
ENDBRANCH   2   3
ENDBRANCH   1   2
BRANCH   1  12
ATOM     12  C   UNL     1      14.878  10.509  34.201  1.00  0.00     0.000 C 
BRANCH  12  13
ATOM     13  C   UNL     1      14.312  11.196  32.946  1.00  0.00    -0.000 C 
BRANCH  13  14
ATOM     14  C   UNL     1      13.147  12.154  33.277  1.00  0.00    -0.000 C 
BRANCH  14  15
ATOM     15  C   UNL     1      13.567  13.399  34.083  1.00  0.00    -0.000 C 
BRANCH  15  16
ATOM     16  C   UNL     1      12.622  13.776  35.234  1.00  0.00    -0.000 C 
BRANCH  16  17
ATOM     17  C   UNL     1      13.066  13.193  36.587  1.00  0.00    -0.000 C 
BRANCH  17  18
ATOM     18  C   UNL     1      12.006  12.263  37.200  1.00  0.00    -0.003 C 
ATOM     19  C   UNL     1      12.039  10.857  36.601  1.00  0.00     0.004 C 
ENDBRANCH  17  18
ENDBRANCH  16  17
ENDBRANCH  15  16
ENDBRANCH  14  15
ENDBRANCH  13  14
ENDBRANCH  12  13
ENDBRANCH   1  12
TORSDOF 14
ENDMDL
MODEL 8
REMARK VINA RESULT:    -4.595      1.397      2.831
REMARK INTER + INTRA:         -10.729
REMARK INTER:                  -8.347
REMARK INTRA:                  -2.382
REMARK UNBOUND:                -2.374
REMARK SMILES CCCCCCCCCCCCCC[C@@H](C)C(=O)[O-]
REMARK SMILES IDX 9 1 10 2 11 3 12 4 13 5 14 6 15 7 16 8 17 9 18 10 19 11 8 12
REMARK SMILES IDX 7 13 6 14 5 15 4 16 3 17 2 18 1 19
REMARK H PARENT
REMARK Flexibility Score: inf
ROOT
ATOM      1  C   UNL     1      16.943  12.990  35.644  1.00  0.00     0.000 C 
ENDROOT
BRANCH   1   2
ATOM      2  C   UNL     1      17.321  11.588  36.161  1.00  0.00     0.000 C 
BRANCH   2   3
ATOM      3  C   UNL     1      18.795  11.421  36.582  1.00  0.00     0.000 C 
BRANCH   3   4
ATOM      4  C   UNL     1      19.744  10.935  35.469  1.00  0.00     0.000 C 
BRANCH   4   5
ATOM      5  C   UNL     1      20.746  11.990  34.969  1.00  0.00     0.001 C 
BRANCH   5   6
ATOM      6  C   UNL     1      20.484  12.420  33.515  1.00  0.00     0.009 C 
BRANCH   6   7
ATOM      7  C   UNL     1      20.236  13.937  33.380  1.00  0.00     0.032 C 
ATOM      8  C   UNL     1      20.150  14.635  34.745  1.00  0.00     0.014 C 
BRANCH   7   9
ATOM      9  C   UNL     1      21.336  14.561  32.566  1.00  0.00     0.044 C 
ATOM     10  O   UNL     1      21.880  15.630  32.950  1.00  0.00    -0.550 OA
ATOM     11  O   UNL     1      21.759  13.964  31.383  1.00  0.00    -0.550 OA
ENDBRANCH   7   9
ENDBRANCH   6   7
ENDBRANCH   5   6
ENDBRANCH   4   5
ENDBRANCH   3   4
ENDBRANCH   2   3
ENDBRANCH   1   2
BRANCH   1  12
ATOM     12  C   UNL     1      16.700  13.081  34.126  1.00  0.00     0.000 C 
BRANCH  12  13
ATOM     13  C   UNL     1      16.833  11.723  33.414  1.00  0.00    -0.000 C 
BRANCH  13  14
ATOM     14  C   UNL     1      15.472  11.182  32.926  1.00  0.00    -0.000 C 
BRANCH  14  15
ATOM     15  C   UNL     1      14.627  10.518  34.031  1.00  0.00    -0.000 C 
BRANCH  15  16
ATOM     16  C   UNL     1      13.238  11.140  34.247  1.00  0.00    -0.000 C 
BRANCH  16  17
ATOM     17  C   UNL     1      13.106  12.540  33.624  1.00  0.00    -0.000 C 
BRANCH  17  18
ATOM     18  C   UNL     1      13.034  13.649  34.686  1.00  0.00    -0.003 C 
ATOM     19  C   UNL     1      12.338  13.192  35.969  1.00  0.00     0.004 C 
ENDBRANCH  17  18
ENDBRANCH  16  17
ENDBRANCH  15  16
ENDBRANCH  14  15
ENDBRANCH  13  14
ENDBRANCH  12  13
ENDBRANCH   1  12
TORSDOF 14
ENDMDL
MODEL 9
REMARK VINA RESULT:    -4.576      1.473      2.650
REMARK INTER + INTRA:         -10.694
REMARK INTER:                  -8.540
REMARK INTRA:                  -2.154
REMARK UNBOUND:                -2.374
REMARK SMILES CCCCCCCCCCCCCC[C@@H](C)C(=O)[O-]
REMARK SMILES IDX 9 1 10 2 11 3 12 4 13 5 14 6 15 7 16 8 17 9 18 10 19 11 8 12
REMARK SMILES IDX 7 13 6 14 5 15 4 16 3 17 2 18 1 19
REMARK H PARENT
REMARK Flexibility Score: inf
ROOT
ATOM      1  C   UNL     1      13.893  11.114  33.837  1.00  0.00     0.000 C 
ENDROOT
BRANCH   1   2
ATOM      2  C   UNL     1      15.421  11.052  34.030  1.00  0.00     0.000 C 
BRANCH   2   3
ATOM      3  C   UNL     1      15.893  10.966  35.496  1.00  0.00     0.000 C 
BRANCH   3   4
ATOM      4  C   UNL     1      16.561  12.241  36.045  1.00  0.00     0.000 C 
BRANCH   4   5
ATOM      5  C   UNL     1      16.577  13.432  35.071  1.00  0.00     0.001 C 
BRANCH   5   6
ATOM      6  C   UNL     1      17.958  13.660  34.429  1.00  0.00     0.009 C 
BRANCH   6   7
ATOM      7  C   UNL     1      18.730  14.826  35.080  1.00  0.00     0.032 C 
ATOM      8  C   UNL     1      19.438  14.403  36.374  1.00  0.00     0.014 C 
BRANCH   7   9
ATOM      9  C   UNL     1      19.742  15.369  34.108  1.00  0.00     0.044 C 
ATOM     10  O   UNL     1      19.426  16.297  33.317  1.00  0.00    -0.550 OA
ATOM     11  O   UNL     1      21.031  14.850  34.073  1.00  0.00    -0.550 OA
ENDBRANCH   7   9
ENDBRANCH   6   7
ENDBRANCH   5   6
ENDBRANCH   4   5
ENDBRANCH   3   4
ENDBRANCH   2   3
ENDBRANCH   1   2
BRANCH   1  12
ATOM     12  C   UNL     1      13.356  12.458  33.313  1.00  0.00     0.000 C 
BRANCH  12  13
ATOM     13  C   UNL     1      12.392  13.145  34.296  1.00  0.00    -0.000 C 
BRANCH  13  14
ATOM     14  C   UNL     1      13.137  13.955  35.379  1.00  0.00    -0.000 C 
BRANCH  14  15
ATOM     15  C   UNL     1      13.134  13.293  36.771  1.00  0.00    -0.000 C 
BRANCH  15  16
ATOM     16  C   UNL     1      11.832  12.563  37.139  1.00  0.00    -0.000 C 
BRANCH  16  17
ATOM     17  C   UNL     1      12.069  11.335  38.036  1.00  0.00    -0.000 C 
BRANCH  17  18
ATOM     18  C   UNL     1      12.765  10.188  37.285  1.00  0.00    -0.003 C 
ATOM     19  C   UNL     1      11.824   9.454  36.328  1.00  0.00     0.004 C 
ENDBRANCH  17  18
ENDBRANCH  16  17
ENDBRANCH  15  16
ENDBRANCH  14  15
ENDBRANCH  13  14
ENDBRANCH  12  13
ENDBRANCH   1  12
TORSDOF 14
ENDMDL
