MODEL 1
REMARK VINA RESULT:    -4.685      0.000      0.000
REMARK INTER + INTRA:          -9.497
REMARK INTER:                  -7.287
REMARK INTRA:                  -2.210
REMARK UNBOUND:                -2.210
REMARK SMILES COc1cc(CNC(=O)CCCCC=CC(C)C)ccc1O
REMARK SMILES IDX 11 1 12 2 13 3 14 4 15 5 16 6 17 7 18 8 10 9 8 10 9 11 7 12
REMARK SMILES IDX 6 14 5 15 4 16 19 17 3 18 20 19 21 20 2 21 1 22 22 23
REMARK H PARENT 7 13 22 24
REMARK Flexibility Score: inf
ROOT
ATOM      1  C   UNL     1      52.119 -40.459 -30.581  1.00  0.00     0.010 C 
ENDROOT
BRANCH   1   2
ATOM      2  C   UNL     1      52.863 -41.064 -31.780  1.00  0.00     0.005 C 
BRANCH   2   3
ATOM      3  C   UNL     1      54.388 -41.034 -31.601  1.00  0.00     0.027 C 
BRANCH   3   4
ATOM      4  C   UNL     1      54.832 -42.075 -30.605  1.00  0.00    -0.031 C 
ATOM      5  C   UNL     1      55.481 -41.808 -29.456  1.00  0.00    -0.028 C 
BRANCH   5   6
ATOM      6  C   UNL     1      55.934 -40.429 -29.024  1.00  0.00     0.005 C 
ATOM      7  C   UNL     1      57.219 -40.536 -28.200  1.00  0.00     0.012 C 
ATOM      8  C   UNL     1      54.829 -39.746 -28.211  1.00  0.00     0.012 C 
ENDBRANCH   5   6
ENDBRANCH   3   4
ENDBRANCH   2   3
ENDBRANCH   1   2
BRANCH   1   9
ATOM      9  C   UNL     1      50.989 -41.362 -30.071  1.00  0.00     0.100 C 
BRANCH   9  10
ATOM     10  C   UNL     1      51.544 -42.463 -29.221  1.00  0.00     0.220 C 
ATOM     11  O   UNL     1      51.591 -43.638 -29.678  1.00  0.00    -0.275 OA
ATOM     12  N   UNL     1      52.062 -42.172 -27.915  1.00  0.00    -0.352 N 
ATOM     13  H   UNL     1      52.065 -41.182 -27.579  1.00  0.00     0.163 HD
BRANCH  12  14
ATOM     14  C   UNL     1      52.610 -43.205 -27.039  1.00  0.00     0.151 C 
BRANCH  14  15
ATOM     15  C   UNL     1      53.721 -42.639 -26.198  1.00  0.00    -0.025 A 
ATOM     16  C   UNL     1      53.474 -41.549 -25.350  1.00  0.00     0.056 A 
ATOM     17  C   UNL     1      55.002 -43.210 -26.231  1.00  0.00     0.009 A 
ATOM     18  C   UNL     1      54.501 -41.020 -24.544  1.00  0.00     0.160 A 
ATOM     19  C   UNL     1      56.025 -42.692 -25.433  1.00  0.00     0.050 A 
ATOM     20  C   UNL     1      55.778 -41.598 -24.592  1.00  0.00     0.157 A 
BRANCH  18  21
ATOM     21  O   UNL     1      54.292 -39.928 -23.686  1.00  0.00    -0.493 OA
ATOM     22  C   UNL     1      53.770 -40.031 -22.366  1.00  0.00     0.278 C 
ENDBRANCH  18  21
BRANCH  20  23
ATOM     23  O   UNL     1      56.800 -41.081 -23.797  1.00  0.00    -0.504 OA
ATOM     24  H   UNL     1      56.605 -40.631 -22.911  1.00  0.00     0.293 HD
ENDBRANCH  20  23
ENDBRANCH  14  15
ENDBRANCH  12  14
ENDBRANCH   9  10
ENDBRANCH   1   9
TORSDOF 10
ENDMDL
MODEL 2
REMARK VINA RESULT:    -4.657      2.387      4.785
REMARK INTER + INTRA:          -9.454
REMARK INTER:                  -8.069
REMARK INTRA:                  -1.385
REMARK UNBOUND:                -2.210
REMARK SMILES COc1cc(CNC(=O)CCCCC=CC(C)C)ccc1O
REMARK SMILES IDX 11 1 12 2 13 3 14 4 15 5 16 6 17 7 18 8 10 9 8 10 9 11 7 12
REMARK SMILES IDX 6 14 5 15 4 16 19 17 3 18 20 19 21 20 2 21 1 22 22 23
REMARK H PARENT 7 13 22 24
REMARK Flexibility Score: inf
ROOT
ATOM      1  C   UNL     1      53.644 -40.437 -32.336  1.00  0.00     0.010 C 
ENDROOT
BRANCH   1   2
ATOM      2  C   UNL     1      53.014 -41.300 -31.231  1.00  0.00     0.005 C 
BRANCH   2   3
ATOM      3  C   UNL     1      51.778 -40.639 -30.602  1.00  0.00     0.027 C 
BRANCH   3   4
ATOM      4  C   UNL     1      51.746 -40.870 -29.113  1.00  0.00    -0.031 C 
ATOM      5  C   UNL     1      50.657 -41.258 -28.423  1.00  0.00    -0.028 C 
BRANCH   5   6
ATOM      6  C   UNL     1      49.279 -41.447 -29.022  1.00  0.00     0.005 C 
ATOM      7  C   UNL     1      48.209 -41.037 -28.008  1.00  0.00     0.012 C 
ATOM      8  C   UNL     1      49.088 -42.906 -29.446  1.00  0.00     0.012 C 
ENDBRANCH   5   6
ENDBRANCH   3   4
ENDBRANCH   2   3
ENDBRANCH   1   2
BRANCH   1   9
ATOM      9  C   UNL     1      55.105 -40.809 -32.613  1.00  0.00     0.100 C 
BRANCH   9  10
ATOM     10  C   UNL     1      55.908 -40.749 -31.349  1.00  0.00     0.220 C 
ATOM     11  O   UNL     1      56.482 -41.789 -30.927  1.00  0.00    -0.275 OA
ATOM     12  N   UNL     1      56.060 -39.503 -30.653  1.00  0.00    -0.352 N 
ATOM     13  H   UNL     1      55.622 -38.642 -31.052  1.00  0.00     0.163 HD
BRANCH  12  14
ATOM     14  C   UNL     1      56.826 -39.384 -29.415  1.00  0.00     0.151 C 
BRANCH  14  15
ATOM     15  C   UNL     1      55.988 -39.814 -28.241  1.00  0.00    -0.025 A 
ATOM     16  C   UNL     1      56.359 -40.941 -27.490  1.00  0.00     0.056 A 
ATOM     17  C   UNL     1      54.851 -39.082 -27.871  1.00  0.00     0.009 A 
ATOM     18  C   UNL     1      55.593 -41.344 -26.379  1.00  0.00     0.160 A 
ATOM     19  C   UNL     1      54.088 -39.477 -26.768  1.00  0.00     0.050 A 
ATOM     20  C   UNL     1      54.455 -40.606 -26.024  1.00  0.00     0.157 A 
BRANCH  18  21
ATOM     21  O   UNL     1      55.931 -42.467 -25.605  1.00  0.00    -0.493 OA
ATOM     22  C   UNL     1      56.098 -43.781 -26.126  1.00  0.00     0.278 C 
ENDBRANCH  18  21
BRANCH  20  23
ATOM     23  O   UNL     1      53.693 -40.999 -24.925  1.00  0.00    -0.504 OA
ATOM     24  H   UNL     1      53.513 -40.368 -24.152  1.00  0.00     0.293 HD
ENDBRANCH  20  23
ENDBRANCH  14  15
ENDBRANCH  12  14
ENDBRANCH   9  10
ENDBRANCH   1   9
TORSDOF 10
ENDMDL
MODEL 3
REMARK VINA RESULT:    -4.652      2.121      3.648
REMARK INTER + INTRA:          -9.445
REMARK INTER:                  -7.384
REMARK INTRA:                  -2.061
REMARK UNBOUND:                -2.210
REMARK SMILES COc1cc(CNC(=O)CCCCC=CC(C)C)ccc1O
REMARK SMILES IDX 11 1 12 2 13 3 14 4 15 5 16 6 17 7 18 8 10 9 8 10 9 11 7 12
REMARK SMILES IDX 6 14 5 15 4 16 19 17 3 18 20 19 21 20 2 21 1 22 22 23
REMARK H PARENT 7 13 22 24
REMARK Flexibility Score: inf
ROOT
ATOM      1  C   UNL     1      52.072 -40.525 -30.196  1.00  0.00     0.010 C 
ENDROOT
BRANCH   1   2
ATOM      2  C   UNL     1      50.650 -41.100 -30.287  1.00  0.00     0.005 C 
BRANCH   2   3
ATOM      3  C   UNL     1      50.591 -42.585 -29.901  1.00  0.00     0.027 C 
BRANCH   3   4
ATOM      4  C   UNL     1      49.865 -42.771 -28.593  1.00  0.00    -0.031 C 
ATOM      5  C   UNL     1      50.461 -42.800 -27.385  1.00  0.00    -0.028 C 
BRANCH   5   6
ATOM      6  C   UNL     1      51.957 -42.729 -27.161  1.00  0.00     0.005 C 
ATOM      7  C   UNL     1      52.395 -43.847 -26.211  1.00  0.00     0.012 C 
ATOM      8  C   UNL     1      52.335 -41.359 -26.589  1.00  0.00     0.012 C 
ENDBRANCH   5   6
ENDBRANCH   3   4
ENDBRANCH   2   3
ENDBRANCH   1   2
BRANCH   1   9
ATOM      9  C   UNL     1      52.903 -40.807 -31.453  1.00  0.00     0.100 C 
BRANCH   9  10
ATOM     10  C   UNL     1      54.201 -41.459 -31.086  1.00  0.00     0.220 C 
ATOM     11  O   UNL     1      55.277 -41.021 -31.575  1.00  0.00    -0.275 OA
ATOM     12  N   UNL     1      54.219 -42.544 -30.147  1.00  0.00    -0.352 N 
ATOM     13  H   UNL     1      53.321 -42.854 -29.711  1.00  0.00     0.163 HD
BRANCH  12  14
ATOM     14  C   UNL     1      55.452 -43.222 -29.754  1.00  0.00     0.151 C 
BRANCH  14  15
ATOM     15  C   UNL     1      55.716 -43.017 -28.288  1.00  0.00    -0.025 A 
ATOM     16  C   UNL     1      55.714 -41.721 -27.749  1.00  0.00     0.056 A 
ATOM     17  C   UNL     1      55.938 -44.115 -27.443  1.00  0.00     0.009 A 
ATOM     18  C   UNL     1      55.944 -41.517 -26.374  1.00  0.00     0.160 A 
ATOM     19  C   UNL     1      56.164 -43.918 -26.079  1.00  0.00     0.050 A 
ATOM     20  C   UNL     1      56.170 -42.623 -25.543  1.00  0.00     0.157 A 
BRANCH  18  21
ATOM     21  O   UNL     1      55.953 -40.235 -25.800  1.00  0.00    -0.493 OA
ATOM     22  C   UNL     1      57.047 -39.327 -25.877  1.00  0.00     0.278 C 
ENDBRANCH  18  21
BRANCH  20  23
ATOM     23  O   UNL     1      56.396 -42.429 -24.181  1.00  0.00    -0.504 OA
ATOM     24  H   UNL     1      56.323 -41.512 -23.758  1.00  0.00     0.293 HD
ENDBRANCH  20  23
ENDBRANCH  14  15
ENDBRANCH  12  14
ENDBRANCH   9  10
ENDBRANCH   1   9
TORSDOF 10
ENDMDL
MODEL 4
REMARK VINA RESULT:    -4.524      2.539      5.146
REMARK INTER + INTRA:          -9.246
REMARK INTER:                  -7.295
REMARK INTRA:                  -1.951
REMARK UNBOUND:                -2.210
REMARK SMILES COc1cc(CNC(=O)CCCCC=CC(C)C)ccc1O
REMARK SMILES IDX 11 1 12 2 13 3 14 4 15 5 16 6 17 7 18 8 10 9 8 10 9 11 7 12
REMARK SMILES IDX 6 14 5 15 4 16 19 17 3 18 20 19 21 20 2 21 1 22 22 23
REMARK H PARENT 7 13 22 24
REMARK Flexibility Score: inf
ROOT
ATOM      1  C   UNL     1      51.334 -42.937 -26.243  1.00  0.00     0.010 C 
ENDROOT
BRANCH   1   2
ATOM      2  C   UNL     1      50.068 -43.336 -27.016  1.00  0.00     0.005 C 
BRANCH   2   3
ATOM      3  C   UNL     1      50.293 -43.365 -28.535  1.00  0.00     0.027 C 
BRANCH   3   4
ATOM      4  C   UNL     1      49.770 -42.105 -29.179  1.00  0.00    -0.031 C 
ATOM      5  C   UNL     1      50.534 -41.201 -29.820  1.00  0.00    -0.028 C 
BRANCH   5   6
ATOM      6  C   UNL     1      52.043 -41.268 -29.926  1.00  0.00     0.005 C 
ATOM      7  C   UNL     1      52.681 -40.397 -28.840  1.00  0.00     0.012 C 
ATOM      8  C   UNL     1      52.491 -40.807 -31.317  1.00  0.00     0.012 C 
ENDBRANCH   5   6
ENDBRANCH   3   4
ENDBRANCH   2   3
ENDBRANCH   1   2
BRANCH   1   9
ATOM      9  C   UNL     1      52.503 -43.898 -26.488  1.00  0.00     0.100 C 
BRANCH   9  10
ATOM     10  C   UNL     1      53.799 -43.148 -26.514  1.00  0.00     0.220 C 
ATOM     11  O   UNL     1      53.926 -42.102 -25.822  1.00  0.00    -0.275 OA
ATOM     12  N   UNL     1      54.902 -43.646 -27.286  1.00  0.00    -0.352 N 
ATOM     13  H   UNL     1      54.792 -44.544 -27.807  1.00  0.00     0.163 HD
BRANCH  12  14
ATOM     14  C   UNL     1      56.188 -42.954 -27.354  1.00  0.00     0.151 C 
BRANCH  14  15
ATOM     15  C   UNL     1      56.206 -42.001 -28.517  1.00  0.00    -0.025 A 
ATOM     16  C   UNL     1      56.643 -40.680 -28.335  1.00  0.00     0.056 A 
ATOM     17  C   UNL     1      55.814 -42.427 -29.795  1.00  0.00     0.009 A 
ATOM     18  C   UNL     1      56.681 -39.781 -29.419  1.00  0.00     0.160 A 
ATOM     19  C   UNL     1      55.851 -41.541 -30.874  1.00  0.00     0.050 A 
ATOM     20  C   UNL     1      56.281 -40.220 -30.689  1.00  0.00     0.157 A 
BRANCH  18  21
ATOM     21  O   UNL     1      57.109 -38.451 -29.274  1.00  0.00    -0.493 OA
ATOM     22  C   UNL     1      56.985 -37.692 -28.077  1.00  0.00     0.278 C 
ENDBRANCH  18  21
BRANCH  20  23
ATOM     23  O   UNL     1      56.316 -39.337 -31.768  1.00  0.00    -0.504 OA
ATOM     24  H   UNL     1      57.092 -39.328 -32.419  1.00  0.00     0.293 HD
ENDBRANCH  20  23
ENDBRANCH  14  15
ENDBRANCH  12  14
ENDBRANCH   9  10
ENDBRANCH   1   9
TORSDOF 10
ENDMDL
MODEL 5
REMARK VINA RESULT:    -4.473      2.909      4.632
REMARK INTER + INTRA:          -9.167
REMARK INTER:                  -7.145
REMARK INTRA:                  -2.022
REMARK UNBOUND:                -2.210
REMARK SMILES COc1cc(CNC(=O)CCCCC=CC(C)C)ccc1O
REMARK SMILES IDX 11 1 12 2 13 3 14 4 15 5 16 6 17 7 18 8 10 9 8 10 9 11 7 12
REMARK SMILES IDX 6 14 5 15 4 16 19 17 3 18 20 19 21 20 2 21 1 22 22 23
REMARK H PARENT 7 13 22 24
REMARK Flexibility Score: inf
ROOT
ATOM      1  C   UNL     1      54.055 -41.820 -30.998  1.00  0.00     0.010 C 
ENDROOT
BRANCH   1   2
ATOM      2  C   UNL     1      52.547 -41.590 -31.177  1.00  0.00     0.005 C 
BRANCH   2   3
ATOM      3  C   UNL     1      52.042 -40.367 -30.396  1.00  0.00     0.027 C 
BRANCH   3   4
ATOM      4  C   UNL     1      51.670 -40.748 -28.985  1.00  0.00    -0.031 C 
ATOM      5  C   UNL     1      52.453 -40.551 -27.908  1.00  0.00    -0.028 C 
BRANCH   5   6
ATOM      6  C   UNL     1      53.858 -39.988 -27.956  1.00  0.00     0.005 C 
ATOM      7  C   UNL     1      54.854 -41.026 -27.431  1.00  0.00     0.012 C 
ATOM      8  C   UNL     1      53.936 -38.702 -27.127  1.00  0.00     0.012 C 
ENDBRANCH   5   6
ENDBRANCH   3   4
ENDBRANCH   2   3
ENDBRANCH   1   2
BRANCH   1   9
ATOM      9  C   UNL     1      54.901 -40.720 -31.650  1.00  0.00     0.100 C 
BRANCH   9  10
ATOM     10  C   UNL     1      56.198 -40.555 -30.918  1.00  0.00     0.220 C 
ATOM     11  O   UNL     1      56.912 -41.567 -30.681  1.00  0.00    -0.275 OA
ATOM     12  N   UNL     1      56.643 -39.247 -30.531  1.00  0.00    -0.352 N 
ATOM     13  H   UNL     1      56.062 -38.417 -30.787  1.00  0.00     0.163 HD
BRANCH  12  14
ATOM     14  C   UNL     1      57.894 -39.025 -29.810  1.00  0.00     0.151 C 
BRANCH  14  15
ATOM     15  C   UNL     1      57.622 -38.378 -28.480  1.00  0.00    -0.025 A 
ATOM     16  C   UNL     1      57.798 -39.109 -27.295  1.00  0.00     0.056 A 
ATOM     17  C   UNL     1      57.218 -37.036 -28.409  1.00  0.00     0.009 A 
ATOM     18  C   UNL     1      57.563 -38.510 -26.042  1.00  0.00     0.160 A 
ATOM     19  C   UNL     1      56.985 -36.436 -27.169  1.00  0.00     0.050 A 
ATOM     20  C   UNL     1      57.154 -37.169 -25.987  1.00  0.00     0.157 A 
BRANCH  18  21
ATOM     21  O   UNL     1      57.725 -39.210 -24.835  1.00  0.00    -0.493 OA
ATOM     22  C   UNL     1      56.698 -39.961 -24.197  1.00  0.00     0.278 C 
ENDBRANCH  18  21
BRANCH  20  23
ATOM     23  O   UNL     1      56.920 -36.569 -24.751  1.00  0.00    -0.504 OA
ATOM     24  H   UNL     1      56.149 -36.858 -24.160  1.00  0.00     0.293 HD
ENDBRANCH  20  23
ENDBRANCH  14  15
ENDBRANCH  12  14
ENDBRANCH   9  10
ENDBRANCH   1   9
TORSDOF 10
ENDMDL
MODEL 6
REMARK VINA RESULT:    -4.433      1.865      3.966
REMARK INTER + INTRA:          -9.105
REMARK INTER:                  -7.772
REMARK INTRA:                  -1.333
REMARK UNBOUND:                -2.210
REMARK SMILES COc1cc(CNC(=O)CCCCC=CC(C)C)ccc1O
REMARK SMILES IDX 11 1 12 2 13 3 14 4 15 5 16 6 17 7 18 8 10 9 8 10 9 11 7 12
REMARK SMILES IDX 6 14 5 15 4 16 19 17 3 18 20 19 21 20 2 21 1 22 22 23
REMARK H PARENT 7 13 22 24
REMARK Flexibility Score: inf
ROOT
ATOM      1  C   UNL     1      54.345 -41.112 -30.698  1.00  0.00     0.010 C 
ENDROOT
BRANCH   1   2
ATOM      2  C   UNL     1      52.976 -41.124 -31.395  1.00  0.00     0.005 C 
BRANCH   2   3
ATOM      3  C   UNL     1      51.906 -40.362 -30.600  1.00  0.00     0.027 C 
BRANCH   3   4
ATOM      4  C   UNL     1      51.903 -40.792 -29.155  1.00  0.00    -0.031 C 
ATOM      5  C   UNL     1      50.831 -41.284 -28.506  1.00  0.00    -0.028 C 
BRANCH   5   6
ATOM      6  C   UNL     1      49.445 -41.409 -29.102  1.00  0.00     0.005 C 
ATOM      7  C   UNL     1      48.389 -41.100 -28.038  1.00  0.00     0.012 C 
ATOM      8  C   UNL     1      49.242 -42.819 -29.667  1.00  0.00     0.012 C 
ENDBRANCH   5   6
ENDBRANCH   3   4
ENDBRANCH   2   3
ENDBRANCH   1   2
BRANCH   1   9
ATOM      9  C   UNL     1      55.107 -42.431 -30.870  1.00  0.00     0.100 C 
BRANCH   9  10
ATOM     10  C   UNL     1      55.534 -42.966 -29.537  1.00  0.00     0.220 C 
ATOM     11  O   UNL     1      56.756 -43.180 -29.316  1.00  0.00    -0.275 OA
ATOM     12  N   UNL     1      54.560 -43.185 -28.506  1.00  0.00    -0.352 N 
ATOM     13  H   UNL     1      53.560 -42.947 -28.693  1.00  0.00     0.163 HD
BRANCH  12  14
ATOM     14  C   UNL     1      54.916 -43.709 -27.189  1.00  0.00     0.151 C 
BRANCH  14  15
ATOM     15  C   UNL     1      54.697 -42.660 -26.134  1.00  0.00    -0.025 A 
ATOM     16  C   UNL     1      55.798 -42.059 -25.503  1.00  0.00     0.056 A 
ATOM     17  C   UNL     1      53.399 -42.253 -25.791  1.00  0.00     0.009 A 
ATOM     18  C   UNL     1      55.607 -41.063 -24.525  1.00  0.00     0.160 A 
ATOM     19  C   UNL     1      53.204 -41.264 -24.824  1.00  0.00     0.050 A 
ATOM     20  C   UNL     1      54.303 -40.671 -24.189  1.00  0.00     0.157 A 
BRANCH  18  21
ATOM     21  O   UNL     1      56.683 -40.442 -23.869  1.00  0.00    -0.493 OA
ATOM     22  C   UNL     1      57.384 -39.309 -24.370  1.00  0.00     0.278 C 
ENDBRANCH  18  21
BRANCH  20  23
ATOM     23  O   UNL     1      54.106 -39.685 -23.222  1.00  0.00    -0.504 OA
ATOM     24  H   UNL     1      54.864 -39.091 -22.910  1.00  0.00     0.293 HD
ENDBRANCH  20  23
ENDBRANCH  14  15
ENDBRANCH  12  14
ENDBRANCH   9  10
ENDBRANCH   1   9
TORSDOF 10
ENDMDL
MODEL 7
REMARK VINA RESULT:    -4.415      1.996      4.035
REMARK INTER + INTRA:          -9.077
REMARK INTER:                  -7.237
REMARK INTRA:                  -1.839
REMARK UNBOUND:                -2.210
REMARK SMILES COc1cc(CNC(=O)CCCCC=CC(C)C)ccc1O
REMARK SMILES IDX 11 1 12 2 13 3 14 4 15 5 16 6 17 7 18 8 10 9 8 10 9 11 7 12
REMARK SMILES IDX 6 14 5 15 4 16 19 17 3 18 20 19 21 20 2 21 1 22 22 23
REMARK H PARENT 7 13 22 24
REMARK Flexibility Score: inf
ROOT
ATOM      1  C   UNL     1      49.956 -41.642 -28.235  1.00  0.00     0.010 C 
ENDROOT
BRANCH   1   2
ATOM      2  C   UNL     1      49.222 -42.990 -28.170  1.00  0.00     0.005 C 
BRANCH   2   3
ATOM      3  C   UNL     1      49.362 -43.669 -26.800  1.00  0.00     0.027 C 
BRANCH   3   4
ATOM      4  C   UNL     1      50.792 -44.074 -26.545  1.00  0.00    -0.031 C 
ATOM      5  C   UNL     1      51.592 -43.511 -25.621  1.00  0.00    -0.028 C 
BRANCH   5   6
ATOM      6  C   UNL     1      51.207 -42.334 -24.749  1.00  0.00     0.005 C 
ATOM      7  C   UNL     1      52.434 -41.457 -24.484  1.00  0.00     0.012 C 
ATOM      8  C   UNL     1      50.608 -42.833 -23.430  1.00  0.00     0.012 C 
ENDBRANCH   5   6
ENDBRANCH   3   4
ENDBRANCH   2   3
ENDBRANCH   1   2
BRANCH   1   9
ATOM      9  C   UNL     1      50.295 -41.224 -29.671  1.00  0.00     0.100 C 
BRANCH   9  10
ATOM     10  C   UNL     1      51.775 -41.283 -29.896  1.00  0.00     0.220 C 
ATOM     11  O   UNL     1      52.301 -40.542 -30.770  1.00  0.00    -0.275 OA
ATOM     12  N   UNL     1      52.591 -42.142 -29.087  1.00  0.00    -0.352 N 
ATOM     13  H   UNL     1      52.141 -42.706 -28.331  1.00  0.00     0.163 HD
BRANCH  12  14
ATOM     14  C   UNL     1      54.038 -42.245 -29.263  1.00  0.00     0.151 C 
BRANCH  14  15
ATOM     15  C   UNL     1      54.723 -42.318 -27.926  1.00  0.00    -0.025 A 
ATOM     16  C   UNL     1      55.171 -41.143 -27.302  1.00  0.00     0.056 A 
ATOM     17  C   UNL     1      54.894 -43.551 -27.279  1.00  0.00     0.009 A 
ATOM     18  C   UNL     1      55.798 -41.196 -26.042  1.00  0.00     0.160 A 
ATOM     19  C   UNL     1      55.514 -43.609 -26.028  1.00  0.00     0.050 A 
ATOM     20  C   UNL     1      55.968 -42.436 -25.410  1.00  0.00     0.157 A 
BRANCH  18  21
ATOM     21  O   UNL     1      56.262 -40.042 -25.388  1.00  0.00    -0.493 OA
ATOM     22  C   UNL     1      55.456 -39.200 -24.571  1.00  0.00     0.278 C 
ENDBRANCH  18  21
BRANCH  20  23
ATOM     23  O   UNL     1      56.587 -42.496 -24.162  1.00  0.00    -0.504 OA
ATOM     24  H   UNL     1      57.461 -42.991 -24.028  1.00  0.00     0.293 HD
ENDBRANCH  20  23
ENDBRANCH  14  15
ENDBRANCH  12  14
ENDBRANCH   9  10
ENDBRANCH   1   9
TORSDOF 10
ENDMDL
MODEL 8
REMARK VINA RESULT:    -4.390      2.669      6.338
REMARK INTER + INTRA:          -9.038
REMARK INTER:                  -7.013
REMARK INTRA:                  -2.025
REMARK UNBOUND:                -2.210
REMARK SMILES COc1cc(CNC(=O)CCCCC=CC(C)C)ccc1O
REMARK SMILES IDX 11 1 12 2 13 3 14 4 15 5 16 6 17 7 18 8 10 9 8 10 9 11 7 12
REMARK SMILES IDX 6 14 5 15 4 16 19 17 3 18 20 19 21 20 2 21 1 22 22 23
REMARK H PARENT 7 13 22 24
REMARK Flexibility Score: inf
ROOT
ATOM      1  C   UNL     1      54.863 -39.717 -22.726  1.00  0.00     0.010 C 
ENDROOT
BRANCH   1   2
ATOM      2  C   UNL     1      54.633 -38.199 -22.752  1.00  0.00     0.005 C 
BRANCH   2   3
ATOM      3  C   UNL     1      55.765 -37.445 -23.466  1.00  0.00     0.027 C 
BRANCH   3   4
ATOM      4  C   UNL     1      55.209 -36.400 -24.400  1.00  0.00    -0.031 C 
ATOM      5  C   UNL     1      55.076 -36.557 -25.730  1.00  0.00    -0.028 C 
BRANCH   5   6
ATOM      6  C   UNL     1      55.535 -37.775 -26.504  1.00  0.00     0.005 C 
ATOM      7  C   UNL     1      56.596 -37.371 -27.531  1.00  0.00     0.012 C 
ATOM      8  C   UNL     1      54.340 -38.436 -27.198  1.00  0.00     0.012 C 
ENDBRANCH   5   6
ENDBRANCH   3   4
ENDBRANCH   2   3
ENDBRANCH   1   2
BRANCH   1   9
ATOM      9  C   UNL     1      54.236 -40.430 -23.931  1.00  0.00     0.100 C 
BRANCH   9  10
ATOM     10  C   UNL     1      55.301 -41.036 -24.792  1.00  0.00     0.220 C 
ATOM     11  O   UNL     1      56.512 -40.910 -24.464  1.00  0.00    -0.275 OA
ATOM     12  N   UNL     1      54.940 -41.794 -25.955  1.00  0.00    -0.352 N 
ATOM     13  H   UNL     1      53.928 -41.933 -26.176  1.00  0.00     0.163 HD
BRANCH  12  14
ATOM     14  C   UNL     1      55.934 -42.404 -26.836  1.00  0.00     0.151 C 
BRANCH  14  15
ATOM     15  C   UNL     1      56.020 -41.643 -28.130  1.00  0.00    -0.025 A 
ATOM     16  C   UNL     1      54.931 -41.640 -29.016  1.00  0.00     0.056 A 
ATOM     17  C   UNL     1      57.172 -40.909 -28.451  1.00  0.00     0.009 A 
ATOM     18  C   UNL     1      54.992 -40.918 -30.224  1.00  0.00     0.160 A 
ATOM     19  C   UNL     1      57.237 -40.190 -29.647  1.00  0.00     0.050 A 
ATOM     20  C   UNL     1      56.152 -40.194 -30.534  1.00  0.00     0.157 A 
BRANCH  18  21
ATOM     21  O   UNL     1      53.924 -40.895 -31.136  1.00  0.00    -0.493 OA
ATOM     22  C   UNL     1      52.586 -41.260 -30.818  1.00  0.00     0.278 C 
ENDBRANCH  18  21
BRANCH  20  23
ATOM     23  O   UNL     1      56.220 -39.477 -31.728  1.00  0.00    -0.504 OA
ATOM     24  H   UNL     1      56.569 -39.898 -32.580  1.00  0.00     0.293 HD
ENDBRANCH  20  23
ENDBRANCH  14  15
ENDBRANCH  12  14
ENDBRANCH   9  10
ENDBRANCH   1   9
TORSDOF 10
ENDMDL
MODEL 9
REMARK VINA RESULT:    -4.313      2.555      4.679
REMARK INTER + INTRA:          -8.918
REMARK INTER:                  -7.974
REMARK INTRA:                  -0.945
REMARK UNBOUND:                -2.210
REMARK SMILES COc1cc(CNC(=O)CCCCC=CC(C)C)ccc1O
REMARK SMILES IDX 11 1 12 2 13 3 14 4 15 5 16 6 17 7 18 8 10 9 8 10 9 11 7 12
REMARK SMILES IDX 6 14 5 15 4 16 19 17 3 18 20 19 21 20 2 21 1 22 22 23
REMARK H PARENT 7 13 22 24
REMARK Flexibility Score: inf
ROOT
ATOM      1  C   UNL     1      52.533 -41.352 -31.357  1.00  0.00     0.010 C 
ENDROOT
BRANCH   1   2
ATOM      2  C   UNL     1      52.036 -40.369 -30.286  1.00  0.00     0.005 C 
BRANCH   2   3
ATOM      3  C   UNL     1      51.219 -41.063 -29.186  1.00  0.00     0.027 C 
BRANCH   3   4
ATOM      4  C   UNL     1      49.993 -41.724 -29.765  1.00  0.00    -0.031 C 
ATOM      5  C   UNL     1      48.849 -41.939 -29.088  1.00  0.00    -0.028 C 
BRANCH   5   6
ATOM      6  C   UNL     1      48.643 -41.623 -27.622  1.00  0.00     0.005 C 
ATOM      7  C   UNL     1      47.969 -42.806 -26.923  1.00  0.00     0.012 C 
ATOM      8  C   UNL     1      47.794 -40.356 -27.474  1.00  0.00     0.012 C 
ENDBRANCH   5   6
ENDBRANCH   3   4
ENDBRANCH   2   3
ENDBRANCH   1   2
BRANCH   1   9
ATOM      9  C   UNL     1      53.635 -40.754 -32.240  1.00  0.00     0.100 C 
BRANCH   9  10
ATOM     10  C   UNL     1      54.977 -40.946 -31.602  1.00  0.00     0.220 C 
ATOM     11  O   UNL     1      55.857 -40.052 -31.724  1.00  0.00    -0.275 OA
ATOM     12  N   UNL     1      55.238 -42.119 -30.817  1.00  0.00    -0.352 N 
ATOM     13  H   UNL     1      54.476 -42.820 -30.683  1.00  0.00     0.163 HD
BRANCH  12  14
ATOM     14  C   UNL     1      56.529 -42.363 -30.176  1.00  0.00     0.151 C 
BRANCH  14  15
ATOM     15  C   UNL     1      56.393 -42.274 -28.681  1.00  0.00    -0.025 A 
ATOM     16  C   UNL     1      56.381 -41.020 -28.051  1.00  0.00     0.056 A 
ATOM     17  C   UNL     1      56.249 -43.436 -27.908  1.00  0.00     0.009 A 
ATOM     18  C   UNL     1      56.238 -40.922 -26.653  1.00  0.00     0.160 A 
ATOM     19  C   UNL     1      56.104 -43.345 -26.521  1.00  0.00     0.050 A 
ATOM     20  C   UNL     1      56.101 -42.092 -25.892  1.00  0.00     0.157 A 
BRANCH  18  21
ATOM     21  O   UNL     1      56.225 -39.685 -25.987  1.00  0.00    -0.493 OA
ATOM     22  C   UNL     1      57.387 -38.912 -25.705  1.00  0.00     0.278 C 
ENDBRANCH  18  21
BRANCH  20  23
ATOM     23  O   UNL     1      55.957 -42.003 -24.508  1.00  0.00    -0.504 OA
ATOM     24  H   UNL     1      55.843 -41.110 -24.044  1.00  0.00     0.293 HD
ENDBRANCH  20  23
ENDBRANCH  14  15
ENDBRANCH  12  14
ENDBRANCH   9  10
ENDBRANCH   1   9
TORSDOF 10
ENDMDL
