MODEL 1
REMARK VINA RESULT:    -4.099      0.000      0.000
REMARK INTER + INTRA:          -6.021
REMARK INTER:                  -5.536
REMARK INTRA:                  -0.485
REMARK UNBOUND:                -0.485
REMARK SMILES [NH3+]CCCC[C@H]([NH3+])C(=O)[O-]
REMARK SMILES IDX 4 1 3 2 2 3 1 4 5 8 6 9 7 10 8 14 9 15 10 16
REMARK H PARENT 1 5 1 6 1 7 7 11 7 12 7 13
REMARK Flexibility Score: inf
ROOT
ATOM      1  C   UNL     1     -18.987  12.123 -11.840  1.00  0.00     0.012 C 
ENDROOT
BRANCH   1   2
ATOM      2  C   UNL     1     -19.217  13.634 -11.710  1.00  0.00     0.061 C 
BRANCH   2   3
ATOM      3  C   UNL     1     -19.953  13.970 -10.407  1.00  0.00     0.258 C 
BRANCH   3   4
ATOM      4  N   UNL     1     -19.200  14.944  -9.617  1.00  0.00    -0.358 N 
ATOM      5  H   UNL     1     -18.766  14.476  -8.789  1.00  0.00     0.344 HD
ATOM      6  H   UNL     1     -18.443  15.352 -10.211  1.00  0.00     0.344 HD
ATOM      7  H   UNL     1     -19.832  15.714  -9.297  1.00  0.00     0.344 HD
ENDBRANCH   3   4
ENDBRANCH   2   3
ENDBRANCH   1   2
BRANCH   1   8
ATOM      8  C   UNL     1     -17.883  11.649 -10.882  1.00  0.00     0.072 C 
BRANCH   8   9
ATOM      9  C   UNL     1     -16.557  12.415 -11.075  1.00  0.00     0.227 C 
BRANCH   9  10
ATOM     10  N   UNL     1     -15.464  11.521 -11.481  1.00  0.00    -0.350 N 
ATOM     11  H   UNL     1     -15.851  10.614 -11.825  1.00  0.00     0.345 HD
ATOM     12  H   UNL     1     -14.813  11.342 -10.682  1.00  0.00     0.345 HD
ATOM     13  H   UNL     1     -14.926  11.952 -12.270  1.00  0.00     0.345 HD
ENDBRANCH   9  10
BRANCH   9  14
ATOM     14  C   UNL     1     -16.195  13.130  -9.799  1.00  0.00     0.099 C 
ATOM     15  O   UNL     1     -16.915  13.007  -8.772  1.00  0.00    -0.544 OA
ATOM     16  O   UNL     1     -15.073  13.948  -9.755  1.00  0.00    -0.544 OA
ENDBRANCH   9  14
ENDBRANCH   8   9
ENDBRANCH   1   8
TORSDOF 7
ENDMDL
MODEL 2
REMARK VINA RESULT:    -4.002      5.151      6.727
REMARK INTER + INTRA:          -5.891
REMARK INTER:                  -5.365
REMARK INTRA:                  -0.526
REMARK UNBOUND:                -0.485
REMARK SMILES [NH3+]CCCC[C@H]([NH3+])C(=O)[O-]
REMARK SMILES IDX 4 1 3 2 2 3 1 4 5 8 6 9 7 10 8 14 9 15 10 16
REMARK H PARENT 1 5 1 6 1 7 7 11 7 12 7 13
REMARK Flexibility Score: inf
ROOT
ATOM      1  C   UNL     1     -12.817  16.314  -5.297  1.00  0.00     0.012 C 
ENDROOT
BRANCH   1   2
ATOM      2  C   UNL     1     -12.996  14.817  -5.019  1.00  0.00     0.061 C 
BRANCH   2   3
ATOM      3  C   UNL     1     -14.293  14.550  -4.244  1.00  0.00     0.258 C 
BRANCH   3   4
ATOM      4  N   UNL     1     -15.206  13.715  -5.023  1.00  0.00    -0.358 N 
ATOM      5  H   UNL     1     -15.884  14.316  -5.547  1.00  0.00     0.344 HD
ATOM      6  H   UNL     1     -14.654  13.152  -5.708  1.00  0.00     0.344 HD
ATOM      7  H   UNL     1     -15.727  13.064  -4.391  1.00  0.00     0.344 HD
ENDBRANCH   3   4
ENDBRANCH   2   3
ENDBRANCH   1   2
BRANCH   1   8
ATOM      8  C   UNL     1     -13.780  16.792  -6.394  1.00  0.00     0.072 C 
BRANCH   8   9
ATOM      9  C   UNL     1     -13.529  16.097  -7.751  1.00  0.00     0.227 C 
BRANCH   9  10
ATOM     10  N   UNL     1     -13.039  17.041  -8.765  1.00  0.00    -0.350 N 
ATOM     11  H   UNL     1     -12.226  17.579  -8.391  1.00  0.00     0.345 HD
ATOM     12  H   UNL     1     -13.795  17.705  -9.051  1.00  0.00     0.345 HD
ATOM     13  H   UNL     1     -12.708  16.517  -9.608  1.00  0.00     0.345 HD
ENDBRANCH   9  10
BRANCH   9  14
ATOM     14  C   UNL     1     -14.798  15.438  -8.225  1.00  0.00     0.099 C 
ATOM     15  O   UNL     1     -15.831  15.448  -7.503  1.00  0.00    -0.544 OA
ATOM     16  O   UNL     1     -14.829  14.796  -9.456  1.00  0.00    -0.544 OA
ENDBRANCH   9  14
ENDBRANCH   8   9
ENDBRANCH   1   8
TORSDOF 7
ENDMDL
MODEL 3
REMARK VINA RESULT:    -3.994      3.600      5.220
REMARK INTER + INTRA:          -5.881
REMARK INTER:                  -5.808
REMARK INTRA:                  -0.073
REMARK UNBOUND:                -0.485
REMARK SMILES [NH3+]CCCC[C@H]([NH3+])C(=O)[O-]
REMARK SMILES IDX 4 1 3 2 2 3 1 4 5 8 6 9 7 10 8 14 9 15 10 16
REMARK H PARENT 1 5 1 6 1 7 7 11 7 12 7 13
REMARK Flexibility Score: inf
ROOT
ATOM      1  C   UNL     1     -15.691  13.618  -9.171  1.00  0.00     0.012 C 
ENDROOT
BRANCH   1   2
ATOM      2  C   UNL     1     -15.233  12.655 -10.273  1.00  0.00     0.061 C 
BRANCH   2   3
ATOM      3  C   UNL     1     -15.552  11.200  -9.904  1.00  0.00     0.258 C 
BRANCH   3   4
ATOM      4  N   UNL     1     -14.346  10.373  -9.949  1.00  0.00    -0.358 N 
ATOM      5  H   UNL     1     -14.502   9.483  -9.422  1.00  0.00     0.344 HD
ATOM      6  H   UNL     1     -14.127  10.143 -10.945  1.00  0.00     0.344 HD
ATOM      7  H   UNL     1     -13.538  10.892  -9.535  1.00  0.00     0.344 HD
ENDBRANCH   3   4
ENDBRANCH   2   3
ENDBRANCH   1   2
BRANCH   1   8
ATOM      8  C   UNL     1     -14.887  14.926  -9.212  1.00  0.00     0.072 C 
BRANCH   8   9
ATOM      9  C   UNL     1     -14.792  15.609  -7.830  1.00  0.00     0.227 C 
BRANCH   9  10
ATOM     10  N   UNL     1     -15.979  16.426  -7.542  1.00  0.00    -0.350 N 
ATOM     11  H   UNL     1     -16.516  16.601  -8.421  1.00  0.00     0.345 HD
ATOM     12  H   UNL     1     -15.706  17.340  -7.113  1.00  0.00     0.345 HD
ATOM     13  H   UNL     1     -16.612  15.915  -6.884  1.00  0.00     0.345 HD
ENDBRANCH   9  10
BRANCH   9  14
ATOM     14  C   UNL     1     -13.550  16.460  -7.770  1.00  0.00     0.099 C 
ATOM     15  O   UNL     1     -12.835  16.619  -8.795  1.00  0.00    -0.544 OA
ATOM     16  O   UNL     1     -13.174  17.056  -6.573  1.00  0.00    -0.544 OA
ENDBRANCH   9  14
ENDBRANCH   8   9
ENDBRANCH   1   8
TORSDOF 7
ENDMDL
MODEL 4
REMARK VINA RESULT:    -3.963      3.209      4.254
REMARK INTER + INTRA:          -5.838
REMARK INTER:                  -5.720
REMARK INTRA:                  -0.118
REMARK UNBOUND:                -0.485
REMARK SMILES [NH3+]CCCC[C@H]([NH3+])C(=O)[O-]
REMARK SMILES IDX 4 1 3 2 2 3 1 4 5 8 6 9 7 10 8 14 9 15 10 16
REMARK H PARENT 1 5 1 6 1 7 7 11 7 12 7 13
REMARK Flexibility Score: inf
ROOT
ATOM      1  C   UNL     1     -15.388  14.027  -8.487  1.00  0.00     0.012 C 
ENDROOT
BRANCH   1   2
ATOM      2  C   UNL     1     -15.082  15.524  -8.360  1.00  0.00     0.061 C 
BRANCH   2   3
ATOM      3  C   UNL     1     -13.922  15.930  -9.279  1.00  0.00     0.258 C 
BRANCH   3   4
ATOM      4  N   UNL     1     -13.120  16.991  -8.671  1.00  0.00    -0.358 N 
ATOM      5  H   UNL     1     -12.395  16.576  -8.041  1.00  0.00     0.344 HD
ATOM      6  H   UNL     1     -12.642  17.533  -9.426  1.00  0.00     0.344 HD
ATOM      7  H   UNL     1     -13.733  17.638  -8.125  1.00  0.00     0.344 HD
ENDBRANCH   3   4
ENDBRANCH   2   3
ENDBRANCH   1   2
BRANCH   1   8
ATOM      8  C   UNL     1     -15.676  13.644  -9.947  1.00  0.00     0.072 C 
BRANCH   8   9
ATOM      9  C   UNL     1     -15.276  12.188 -10.270  1.00  0.00     0.227 C 
BRANCH   9  10
ATOM     10  N   UNL     1     -14.616  12.081 -11.578  1.00  0.00    -0.350 N 
ATOM     11  H   UNL     1     -13.578  12.085 -11.458  1.00  0.00     0.345 HD
ATOM     12  H   UNL     1     -14.897  12.871 -12.203  1.00  0.00     0.345 HD
ATOM     13  H   UNL     1     -14.874  11.175 -12.035  1.00  0.00     0.345 HD
ENDBRANCH   9  10
BRANCH   9  14
ATOM     14  C   UNL     1     -16.498  11.307 -10.233  1.00  0.00     0.099 C 
ATOM     15  O   UNL     1     -16.704  10.543  -9.252  1.00  0.00    -0.544 OA
ATOM     16  O   UNL     1     -17.394  11.316 -11.294  1.00  0.00    -0.544 OA
ENDBRANCH   9  14
ENDBRANCH   8   9
ENDBRANCH   1   8
TORSDOF 7
ENDMDL
MODEL 5
REMARK VINA RESULT:    -3.958      1.338      1.724
REMARK INTER + INTRA:          -5.832
REMARK INTER:                  -5.324
REMARK INTRA:                  -0.508
REMARK UNBOUND:                -0.485
REMARK SMILES [NH3+]CCCC[C@H]([NH3+])C(=O)[O-]
REMARK SMILES IDX 4 1 3 2 2 3 1 4 5 8 6 9 7 10 8 14 9 15 10 16
REMARK H PARENT 1 5 1 6 1 7 7 11 7 12 7 13
REMARK Flexibility Score: inf
ROOT
ATOM      1  C   UNL     1     -18.794  13.657 -11.474  1.00  0.00     0.012 C 
ENDROOT
BRANCH   1   2
ATOM      2  C   UNL     1     -20.163  13.653 -10.783  1.00  0.00     0.061 C 
BRANCH   2   3
ATOM      3  C   UNL     1     -20.128  14.466  -9.482  1.00  0.00     0.258 C 
BRANCH   3   4
ATOM      4  N   UNL     1     -18.781  14.970  -9.217  1.00  0.00    -0.358 N 
ATOM      5  H   UNL     1     -18.822  15.981  -8.951  1.00  0.00     0.344 HD
ATOM      6  H   UNL     1     -18.363  14.429  -8.426  1.00  0.00     0.344 HD
ATOM      7  H   UNL     1     -18.179  14.852 -10.064  1.00  0.00     0.344 HD
ENDBRANCH   3   4
ENDBRANCH   2   3
ENDBRANCH   1   2
BRANCH   1   8
ATOM      8  C   UNL     1     -18.181  12.249 -11.492  1.00  0.00     0.072 C 
BRANCH   8   9
ATOM      9  C   UNL     1     -16.860  12.164 -10.696  1.00  0.00     0.227 C 
BRANCH   9  10
ATOM     10  N   UNL     1     -15.827  11.420 -11.429  1.00  0.00    -0.350 N 
ATOM     11  H   UNL     1     -15.790  11.742 -12.422  1.00  0.00     0.345 HD
ATOM     12  H   UNL     1     -16.019  10.393 -11.403  1.00  0.00     0.345 HD
ATOM     13  H   UNL     1     -14.888  11.603 -11.005  1.00  0.00     0.345 HD
ENDBRANCH   9  10
BRANCH   9  14
ATOM     14  C   UNL     1     -17.116  11.516  -9.360  1.00  0.00     0.099 C 
ATOM     15  O   UNL     1     -16.871  10.293  -9.187  1.00  0.00    -0.544 OA
ATOM     16  O   UNL     1     -17.646  12.264  -8.316  1.00  0.00    -0.544 OA
ENDBRANCH   9  14
ENDBRANCH   8   9
ENDBRANCH   1   8
TORSDOF 7
ENDMDL
MODEL 6
REMARK VINA RESULT:    -3.824      3.493      4.927
REMARK INTER + INTRA:          -5.651
REMARK INTER:                  -5.511
REMARK INTRA:                  -0.140
REMARK UNBOUND:                -0.485
REMARK SMILES [NH3+]CCCC[C@H]([NH3+])C(=O)[O-]
REMARK SMILES IDX 4 1 3 2 2 3 1 4 5 8 6 9 7 10 8 14 9 15 10 16
REMARK H PARENT 1 5 1 6 1 7 7 11 7 12 7 13
REMARK Flexibility Score: inf
ROOT
ATOM      1  C   UNL     1     -16.151  14.697  -9.272  1.00  0.00     0.012 C 
ENDROOT
BRANCH   1   2
ATOM      2  C   UNL     1     -16.420  13.284  -9.804  1.00  0.00     0.061 C 
BRANCH   2   3
ATOM      3  C   UNL     1     -15.189  12.721 -10.525  1.00  0.00     0.258 C 
BRANCH   3   4
ATOM      4  N   UNL     1     -15.563  11.632 -11.427  1.00  0.00    -0.358 N 
ATOM      5  H   UNL     1     -15.890  12.021 -12.342  1.00  0.00     0.344 HD
ATOM      6  H   UNL     1     -14.728  11.026 -11.597  1.00  0.00     0.344 HD
ATOM      7  H   UNL     1     -16.321  11.053 -10.998  1.00  0.00     0.344 HD
ENDBRANCH   3   4
ENDBRANCH   2   3
ENDBRANCH   1   2
BRANCH   1   8
ATOM      8  C   UNL     1     -14.645  14.938  -9.084  1.00  0.00     0.072 C 
BRANCH   8   9
ATOM      9  C   UNL     1     -14.242  16.408  -9.330  1.00  0.00     0.227 C 
BRANCH   9  10
ATOM     10  N   UNL     1     -12.938  16.513  -9.998  1.00  0.00    -0.350 N 
ATOM     11  H   UNL     1     -12.915  15.894 -10.839  1.00  0.00     0.345 HD
ATOM     12  H   UNL     1     -12.164  16.246  -9.347  1.00  0.00     0.345 HD
ATOM     13  H   UNL     1     -12.784  17.495 -10.326  1.00  0.00     0.345 HD
ENDBRANCH   9  10
BRANCH   9  14
ATOM     14  C   UNL     1     -14.215  17.151  -8.019  1.00  0.00     0.099 C 
ATOM     15  O   UNL     1     -13.245  17.012  -7.227  1.00  0.00    -0.544 OA
ATOM     16  O   UNL     1     -15.275  17.978  -7.668  1.00  0.00    -0.544 OA
ENDBRANCH   9  14
ENDBRANCH   8   9
ENDBRANCH   1   8
TORSDOF 7
ENDMDL
MODEL 7
REMARK VINA RESULT:    -3.806      2.274      2.724
REMARK INTER + INTRA:          -5.627
REMARK INTER:                  -5.137
REMARK INTRA:                  -0.490
REMARK UNBOUND:                -0.485
REMARK SMILES [NH3+]CCCC[C@H]([NH3+])C(=O)[O-]
REMARK SMILES IDX 4 1 3 2 2 3 1 4 5 8 6 9 7 10 8 14 9 15 10 16
REMARK H PARENT 1 5 1 6 1 7 7 11 7 12 7 13
REMARK Flexibility Score: inf
ROOT
ATOM      1  C   UNL     1     -18.008  14.214 -10.205  1.00  0.00     0.012 C 
ENDROOT
BRANCH   1   2
ATOM      2  C   UNL     1     -19.014  13.807 -11.288  1.00  0.00     0.061 C 
BRANCH   2   3
ATOM      3  C   UNL     1     -19.709  12.487 -10.930  1.00  0.00     0.258 C 
BRANCH   3   4
ATOM      4  N   UNL     1     -19.477  11.477 -11.962  1.00  0.00    -0.358 N 
ATOM      5  H   UNL     1     -19.010  10.639 -11.545  1.00  0.00     0.344 HD
ATOM      6  H   UNL     1     -20.395  11.186 -12.367  1.00  0.00     0.344 HD
ATOM      7  H   UNL     1     -18.880  11.872 -12.724  1.00  0.00     0.344 HD
ENDBRANCH   3   4
ENDBRANCH   2   3
ENDBRANCH   1   2
BRANCH   1   8
ATOM      8  C   UNL     1     -17.499  12.986  -9.435  1.00  0.00     0.072 C 
BRANCH   8   9
ATOM      9  C   UNL     1     -15.983  12.757  -9.614  1.00  0.00     0.227 C 
BRANCH   9  10
ATOM     10  N   UNL     1     -15.237  14.023  -9.624  1.00  0.00    -0.350 N 
ATOM     11  H   UNL     1     -15.236  14.446  -8.668  1.00  0.00     0.345 HD
ATOM     12  H   UNL     1     -15.658  14.698 -10.303  1.00  0.00     0.345 HD
ATOM     13  H   UNL     1     -14.240  13.847  -9.890  1.00  0.00     0.345 HD
ENDBRANCH   9  10
BRANCH   9  14
ATOM     14  C   UNL     1     -15.733  11.998 -10.892  1.00  0.00     0.099 C 
ATOM     15  O   UNL     1     -14.718  12.250 -11.595  1.00  0.00    -0.544 OA
ATOM     16  O   UNL     1     -16.636  11.031 -11.313  1.00  0.00    -0.544 OA
ENDBRANCH   9  14
ENDBRANCH   8   9
ENDBRANCH   1   8
TORSDOF 7
ENDMDL
MODEL 8
REMARK VINA RESULT:    -3.801     17.278     18.461
REMARK INTER + INTRA:          -5.619
REMARK INTER:                  -5.048
REMARK INTRA:                  -0.572
REMARK UNBOUND:                -0.485
REMARK SMILES [NH3+]CCCC[C@H]([NH3+])C(=O)[O-]
REMARK SMILES IDX 4 1 3 2 2 3 1 4 5 8 6 9 7 10 8 14 9 15 10 16
REMARK H PARENT 1 5 1 6 1 7 7 11 7 12 7 13
REMARK Flexibility Score: inf
ROOT
ATOM      1  C   UNL     1      -1.720  17.367 -21.846  1.00  0.00     0.012 C 
ENDROOT
BRANCH   1   2
ATOM      2  C   UNL     1      -1.257  17.993 -20.524  1.00  0.00     0.061 C 
BRANCH   2   3
ATOM      3  C   UNL     1      -2.326  18.935 -19.954  1.00  0.00     0.258 C 
BRANCH   3   4
ATOM      4  N   UNL     1      -3.468  18.179 -19.441  1.00  0.00    -0.358 N 
ATOM      5  H   UNL     1      -3.139  17.424 -18.796  1.00  0.00     0.344 HD
ATOM      6  H   UNL     1      -4.096  18.826 -18.912  1.00  0.00     0.344 HD
ATOM      7  H   UNL     1      -4.006  17.757 -20.233  1.00  0.00     0.344 HD
ENDBRANCH   3   4
ENDBRANCH   2   3
ENDBRANCH   1   2
BRANCH   1   8
ATOM      8  C   UNL     1      -1.756  15.834 -21.748  1.00  0.00     0.072 C 
BRANCH   8   9
ATOM      9  C   UNL     1      -3.171  15.257 -21.969  1.00  0.00     0.227 C 
BRANCH   9  10
ATOM     10  N   UNL     1      -4.098  16.269 -22.494  1.00  0.00    -0.350 N 
ATOM     11  H   UNL     1      -4.315  16.975 -21.754  1.00  0.00     0.345 HD
ATOM     12  H   UNL     1      -4.986  15.826 -22.824  1.00  0.00     0.345 HD
ATOM     13  H   UNL     1      -3.654  16.779 -23.293  1.00  0.00     0.345 HD
ENDBRANCH   9  10
BRANCH   9  14
ATOM     14  C   UNL     1      -3.697  14.695 -20.674  1.00  0.00     0.099 C 
ATOM     15  O   UNL     1      -4.621  13.839 -20.678  1.00  0.00    -0.544 OA
ATOM     16  O   UNL     1      -3.177  15.137 -19.463  1.00  0.00    -0.544 OA
ENDBRANCH   9  14
ENDBRANCH   8   9
ENDBRANCH   1   8
TORSDOF 7
ENDMDL
MODEL 9
REMARK VINA RESULT:    -3.730      2.029      2.167
REMARK INTER + INTRA:          -5.523
REMARK INTER:                  -5.243
REMARK INTRA:                  -0.281
REMARK UNBOUND:                -0.485
REMARK SMILES [NH3+]CCCC[C@H]([NH3+])C(=O)[O-]
REMARK SMILES IDX 4 1 3 2 2 3 1 4 5 8 6 9 7 10 8 14 9 15 10 16
REMARK H PARENT 1 5 1 6 1 7 7 11 7 12 7 13
REMARK Flexibility Score: inf
ROOT
ATOM      1  C   UNL     1     -18.407  11.744 -11.373  1.00  0.00     0.012 C 
ENDROOT
BRANCH   1   2
ATOM      2  C   UNL     1     -18.890  13.134 -11.804  1.00  0.00     0.061 C 
BRANCH   2   3
ATOM      3  C   UNL     1     -19.279  13.985 -10.589  1.00  0.00     0.258 C 
BRANCH   3   4
ATOM      4  N   UNL     1     -18.140  14.770 -10.114  1.00  0.00    -0.358 N 
ATOM      5  H   UNL     1     -17.500  14.168  -9.546  1.00  0.00     0.344 HD
ATOM      6  H   UNL     1     -17.614  15.141 -10.937  1.00  0.00     0.344 HD
ATOM      7  H   UNL     1     -18.474  15.575  -9.535  1.00  0.00     0.344 HD
ENDBRANCH   3   4
ENDBRANCH   2   3
ENDBRANCH   1   2
BRANCH   1   8
ATOM      8  C   UNL     1     -18.822  11.440  -9.925  1.00  0.00     0.072 C 
BRANCH   8   9
ATOM      9  C   UNL     1     -17.649  10.917  -9.067  1.00  0.00     0.227 C 
BRANCH   9  10
ATOM     10  N   UNL     1     -17.797  11.290  -7.654  1.00  0.00    -0.350 N 
ATOM     11  H   UNL     1     -17.878  12.327  -7.563  1.00  0.00     0.345 HD
ATOM     12  H   UNL     1     -16.981  10.954  -7.093  1.00  0.00     0.345 HD
ATOM     13  H   UNL     1     -18.674  10.871  -7.265  1.00  0.00     0.345 HD
ENDBRANCH   9  10
BRANCH   9  14
ATOM     14  C   UNL     1     -16.348  11.449  -9.610  1.00  0.00     0.099 C 
ATOM     15  O   UNL     1     -15.549  10.686 -10.216  1.00  0.00    -0.544 OA
ATOM     16  O   UNL     1     -16.012  12.784  -9.423  1.00  0.00    -0.544 OA
ENDBRANCH   9  14
ENDBRANCH   8   9
ENDBRANCH   1   8
TORSDOF 7
ENDMDL
