MODEL 1
REMARK VINA RESULT:    -3.946      0.000      0.000
REMARK INTER + INTRA:          -4.061
REMARK INTER:                  -4.061
REMARK INTRA:                   0.000
REMARK UNBOUND:                 0.000
REMARK SMILES O=c1ccc2ccc(O)cc2o1
REMARK SMILES IDX 6 1 7 2 8 3 10 4 11 5 5 6 4 7 3 8 2 9 1 10 12 11 9 12
REMARK H PARENT 9 13
REMARK Flexibility Score: inf
ROOT
ATOM      1  C   UNL     1     -12.109   5.694  -1.525  1.00  0.00     0.016 A 
ATOM      2  C   UNL     1     -12.025   7.073  -1.743  1.00  0.00     0.047 A 
ATOM      3  C   UNL     1     -11.876   7.577  -3.041  1.00  0.00     0.119 A 
ATOM      4  C   UNL     1     -11.811   6.696  -4.130  1.00  0.00     0.094 A 
ATOM      5  C   UNL     1     -11.895   5.315  -3.923  1.00  0.00     0.142 A 
ATOM      6  C   UNL     1     -12.044   4.810  -2.612  1.00  0.00     0.018 A 
ATOM      7  C   UNL     1     -12.125   3.425  -2.436  1.00  0.00     0.019 A 
ATOM      8  C   UNL     1     -12.056   2.589  -3.550  1.00  0.00     0.094 A 
ATOM      9  C   UNL     1     -11.906   3.159  -4.819  1.00  0.00     0.336 A 
ATOM     10  O   UNL     1     -11.842   2.422  -5.836  1.00  0.00    -0.246 OA
ATOM     11  O   UNL     1     -11.833   4.481  -4.958  1.00  0.00    -0.423 OA
ENDROOT
BRANCH   3  12
ATOM     12  O   UNL     1     -11.794   8.954  -3.237  1.00  0.00    -0.508 OA
ATOM     13  H   UNL     1     -11.267   9.549  -2.608  1.00  0.00     0.293 HD
ENDBRANCH   3  12
TORSDOF 1
ENDMDL
MODEL 2
REMARK VINA RESULT:    -3.936     12.088     13.146
REMARK INTER + INTRA:          -4.052
REMARK INTER:                  -4.052
REMARK INTRA:                   0.000
REMARK UNBOUND:                 0.000
REMARK SMILES O=c1ccc2ccc(O)cc2o1
REMARK SMILES IDX 6 1 7 2 8 3 10 4 11 5 5 6 4 7 3 8 2 9 1 10 12 11 9 12
REMARK H PARENT 9 13
REMARK Flexibility Score: inf
ROOT
ATOM      1  C   UNL     1      -9.847  -2.013   9.242  1.00  0.00     0.016 A 
ATOM      2  C   UNL     1      -8.605  -1.683   9.796  1.00  0.00     0.047 A 
ATOM      3  C   UNL     1      -7.649  -1.003   9.032  1.00  0.00     0.119 A 
ATOM      4  C   UNL     1      -7.935  -0.650   7.705  1.00  0.00     0.094 A 
ATOM      5  C   UNL     1      -9.174  -0.975   7.143  1.00  0.00     0.142 A 
ATOM      6  C   UNL     1     -10.137  -1.662   7.916  1.00  0.00     0.018 A 
ATOM      7  C   UNL     1     -11.366  -1.974   7.327  1.00  0.00     0.019 A 
ATOM      8  C   UNL     1     -11.605  -1.602   6.005  1.00  0.00     0.094 A 
ATOM      9  C   UNL     1     -10.605  -0.925   5.299  1.00  0.00     0.336 A 
ATOM     10  O   UNL     1     -10.801  -0.581   4.105  1.00  0.00    -0.246 OA
ATOM     11  O   UNL     1      -9.444  -0.640   5.884  1.00  0.00    -0.423 OA
ENDROOT
BRANCH   3  12
ATOM     12  O   UNL     1      -6.419  -0.683   9.601  1.00  0.00    -0.508 OA
ATOM     13  H   UNL     1      -5.915   0.157   9.337  1.00  0.00     0.293 HD
ENDBRANCH   3  12
TORSDOF 1
ENDMDL
MODEL 3
REMARK VINA RESULT:    -3.883     12.376     13.583
REMARK INTER + INTRA:          -3.997
REMARK INTER:                  -3.997
REMARK INTRA:                   0.000
REMARK UNBOUND:                 0.000
REMARK SMILES O=c1ccc2ccc(O)cc2o1
REMARK SMILES IDX 6 1 7 2 8 3 10 4 11 5 5 6 4 7 3 8 2 9 1 10 12 11 9 12
REMARK H PARENT 9 13
REMARK Flexibility Score: inf
ROOT
ATOM      1  C   UNL     1     -11.188  -1.869   7.692  1.00  0.00     0.016 A 
ATOM      2  C   UNL     1     -11.446  -1.573   6.349  1.00  0.00     0.047 A 
ATOM      3  C   UNL     1     -10.444  -1.019   5.542  1.00  0.00     0.119 A 
ATOM      4  C   UNL     1      -9.176  -0.759   6.080  1.00  0.00     0.094 A 
ATOM      5  C   UNL     1      -8.908  -1.052   7.423  1.00  0.00     0.142 A 
ATOM      6  C   UNL     1      -9.921  -1.610   8.233  1.00  0.00     0.018 A 
ATOM      7  C   UNL     1      -9.625  -1.892   9.571  1.00  0.00     0.019 A 
ATOM      8  C   UNL     1      -8.349  -1.616  10.062  1.00  0.00     0.094 A 
ATOM      9  C   UNL     1      -7.396  -1.061   9.200  1.00  0.00     0.336 A 
ATOM     10  O   UNL     1      -6.239  -0.805   9.624  1.00  0.00    -0.246 OA
ATOM     11  O   UNL     1      -7.704  -0.803   7.931  1.00  0.00    -0.423 OA
ENDROOT
BRANCH   3  12
ATOM     12  O   UNL     1     -10.719  -0.732   4.207  1.00  0.00    -0.508 OA
ATOM     13  H   UNL     1     -10.723  -1.457   3.499  1.00  0.00     0.293 HD
ENDBRANCH   3  12
TORSDOF 1
ENDMDL
MODEL 4
REMARK VINA RESULT:    -3.790     17.041     17.503
REMARK INTER + INTRA:          -3.900
REMARK INTER:                  -3.900
REMARK INTRA:                   0.000
REMARK UNBOUND:                 0.000
REMARK SMILES O=c1ccc2ccc(O)cc2o1
REMARK SMILES IDX 6 1 7 2 8 3 10 4 11 5 5 6 4 7 3 8 2 9 1 10 12 11 9 12
REMARK H PARENT 9 13
REMARK Flexibility Score: inf
ROOT
ATOM      1  C   UNL     1       6.251   2.935  -7.834  1.00  0.00     0.016 A 
ATOM      2  C   UNL     1       7.030   3.786  -7.042  1.00  0.00     0.047 A 
ATOM      3  C   UNL     1       6.557   5.057  -6.693  1.00  0.00     0.119 A 
ATOM      4  C   UNL     1       5.297   5.482  -7.137  1.00  0.00     0.094 A 
ATOM      5  C   UNL     1       4.510   4.638  -7.929  1.00  0.00     0.142 A 
ATOM      6  C   UNL     1       4.990   3.357  -8.280  1.00  0.00     0.018 A 
ATOM      7  C   UNL     1       4.181   2.535  -9.072  1.00  0.00     0.019 A 
ATOM      8  C   UNL     1       2.935   3.001  -9.490  1.00  0.00     0.094 A 
ATOM      9  C   UNL     1       2.525   4.282  -9.105  1.00  0.00     0.336 A 
ATOM     10  O   UNL     1       1.404   4.720  -9.471  1.00  0.00    -0.246 OA
ATOM     11  O   UNL     1       3.314   5.043  -8.349  1.00  0.00    -0.423 OA
ENDROOT
BRANCH   3  12
ATOM     12  O   UNL     1       7.348   5.890  -5.904  1.00  0.00    -0.508 OA
ATOM     13  H   UNL     1       7.240   5.924  -4.897  1.00  0.00     0.293 HD
ENDBRANCH   3  12
TORSDOF 1
ENDMDL
MODEL 5
REMARK VINA RESULT:    -3.739     18.281     19.616
REMARK INTER + INTRA:          -3.848
REMARK INTER:                  -3.848
REMARK INTRA:                   0.000
REMARK UNBOUND:                 0.000
REMARK SMILES O=c1ccc2ccc(O)cc2o1
REMARK SMILES IDX 6 1 7 2 8 3 10 4 11 5 5 6 4 7 3 8 2 9 1 10 12 11 9 12
REMARK H PARENT 9 13
REMARK Flexibility Score: inf
ROOT
ATOM      1  C   UNL     1       5.117  -6.125  -5.769  1.00  0.00     0.016 A 
ATOM      2  C   UNL     1       5.775  -6.123  -4.534  1.00  0.00     0.047 A 
ATOM      3  C   UNL     1       5.956  -4.926  -3.831  1.00  0.00     0.119 A 
ATOM      4  C   UNL     1       5.477  -3.721  -4.364  1.00  0.00     0.094 A 
ATOM      5  C   UNL     1       4.817  -3.713  -5.599  1.00  0.00     0.142 A 
ATOM      6  C   UNL     1       4.636  -4.922  -6.305  1.00  0.00     0.018 A 
ATOM      7  C   UNL     1       3.973  -4.883  -7.536  1.00  0.00     0.019 A 
ATOM      8  C   UNL     1       3.513  -3.661  -8.026  1.00  0.00     0.094 A 
ATOM      9  C   UNL     1       3.729  -2.503  -7.272  1.00  0.00     0.336 A 
ATOM     10  O   UNL     1       3.322  -1.391  -7.697  1.00  0.00    -0.246 OA
ATOM     11  O   UNL     1       4.362  -2.569  -6.103  1.00  0.00    -0.423 OA
ENDROOT
BRANCH   3  12
ATOM     12  O   UNL     1       6.614  -4.945  -2.603  1.00  0.00    -0.508 OA
ATOM     13  H   UNL     1       6.871  -4.088  -2.126  1.00  0.00     0.293 HD
ENDBRANCH   3  12
TORSDOF 1
ENDMDL
MODEL 6
REMARK VINA RESULT:    -3.738     19.014     20.153
REMARK INTER + INTRA:          -3.847
REMARK INTER:                  -3.847
REMARK INTRA:                   0.000
REMARK UNBOUND:                 0.000
REMARK SMILES O=c1ccc2ccc(O)cc2o1
REMARK SMILES IDX 6 1 7 2 8 3 10 4 11 5 5 6 4 7 3 8 2 9 1 10 12 11 9 12
REMARK H PARENT 9 13
REMARK Flexibility Score: inf
ROOT
ATOM      1  C   UNL     1       4.290  -4.993  -6.146  1.00  0.00     0.016 A 
ATOM      2  C   UNL     1       3.994  -3.826  -6.860  1.00  0.00     0.047 A 
ATOM      3  C   UNL     1       4.613  -2.616  -6.524  1.00  0.00     0.119 A 
ATOM      4  C   UNL     1       5.534  -2.569  -5.467  1.00  0.00     0.094 A 
ATOM      5  C   UNL     1       5.836  -3.731  -4.748  1.00  0.00     0.142 A 
ATOM      6  C   UNL     1       5.210  -4.950  -5.089  1.00  0.00     0.018 A 
ATOM      7  C   UNL     1       5.532  -6.094  -4.352  1.00  0.00     0.019 A 
ATOM      8  C   UNL     1       6.454  -5.999  -3.310  1.00  0.00     0.094 A 
ATOM      9  C   UNL     1       7.034  -4.758  -3.028  1.00  0.00     0.336 A 
ATOM     10  O   UNL     1       7.868  -4.652  -2.092  1.00  0.00    -0.246 OA
ATOM     11  O   UNL     1       6.710  -3.685  -3.746  1.00  0.00    -0.423 OA
ENDROOT
BRANCH   3  12
ATOM     12  O   UNL     1       4.306  -1.465  -7.247  1.00  0.00    -0.508 OA
ATOM     13  H   UNL     1       3.998  -0.616  -6.786  1.00  0.00     0.293 HD
ENDBRANCH   3  12
TORSDOF 1
ENDMDL
MODEL 7
REMARK VINA RESULT:    -3.738      2.037      4.623
REMARK INTER + INTRA:          -3.847
REMARK INTER:                  -3.847
REMARK INTRA:                   0.000
REMARK UNBOUND:                 0.000
REMARK SMILES O=c1ccc2ccc(O)cc2o1
REMARK SMILES IDX 6 1 7 2 8 3 10 4 11 5 5 6 4 7 3 8 2 9 1 10 12 11 9 12
REMARK H PARENT 9 13
REMARK Flexibility Score: inf
ROOT
ATOM      1  C   UNL     1     -11.592   3.102  -3.836  1.00  0.00     0.016 A 
ATOM      2  C   UNL     1     -11.612   2.124  -2.835  1.00  0.00     0.047 A 
ATOM      3  C   UNL     1     -11.765   2.489  -1.492  1.00  0.00     0.119 A 
ATOM      4  C   UNL     1     -11.900   3.841  -1.146  1.00  0.00     0.094 A 
ATOM      5  C   UNL     1     -11.882   4.826  -2.139  1.00  0.00     0.142 A 
ATOM      6  C   UNL     1     -11.727   4.454  -3.493  1.00  0.00     0.018 A 
ATOM      7  C   UNL     1     -11.712   5.461  -4.464  1.00  0.00     0.019 A 
ATOM      8  C   UNL     1     -11.851   6.792  -4.071  1.00  0.00     0.094 A 
ATOM      9  C   UNL     1     -11.999   7.086  -2.711  1.00  0.00     0.336 A 
ATOM     10  O   UNL     1     -12.125   8.281  -2.337  1.00  0.00    -0.246 OA
ATOM     11  O   UNL     1     -12.010   6.109  -1.808  1.00  0.00    -0.423 OA
ENDROOT
BRANCH   3  12
ATOM     12  O   UNL     1     -11.782   1.501  -0.511  1.00  0.00    -0.508 OA
ATOM     13  H   UNL     1     -12.229   1.653   0.387  1.00  0.00     0.293 HD
ENDBRANCH   3  12
TORSDOF 1
ENDMDL
MODEL 8
REMARK VINA RESULT:    -3.637     15.170     16.929
REMARK INTER + INTRA:          -3.744
REMARK INTER:                  -3.744
REMARK INTRA:                   0.000
REMARK UNBOUND:                 0.000
REMARK SMILES O=c1ccc2ccc(O)cc2o1
REMARK SMILES IDX 6 1 7 2 8 3 10 4 11 5 5 6 4 7 3 8 2 9 1 10 12 11 9 12
REMARK H PARENT 9 13
REMARK Flexibility Score: inf
ROOT
ATOM      1  C   UNL     1      -0.136  -5.871  -8.277  1.00  0.00     0.016 A 
ATOM      2  C   UNL     1      -1.376  -5.376  -8.697  1.00  0.00     0.047 A 
ATOM      3  C   UNL     1      -1.514  -4.030  -9.057  1.00  0.00     0.119 A 
ATOM      4  C   UNL     1      -0.407  -3.171  -8.997  1.00  0.00     0.094 A 
ATOM      5  C   UNL     1       0.837  -3.657  -8.578  1.00  0.00     0.142 A 
ATOM      6  C   UNL     1       0.973  -5.015  -8.215  1.00  0.00     0.018 A 
ATOM      7  C   UNL     1       2.228  -5.472  -7.801  1.00  0.00     0.019 A 
ATOM      8  C   UNL     1       3.300  -4.581  -7.758  1.00  0.00     0.094 A 
ATOM      9  C   UNL     1       3.091  -3.249  -8.131  1.00  0.00     0.336 A 
ATOM     10  O   UNL     1       4.046  -2.430  -8.098  1.00  0.00    -0.246 OA
ATOM     11  O   UNL     1       1.886  -2.841  -8.522  1.00  0.00    -0.423 OA
ENDROOT
BRANCH   3  12
ATOM     12  O   UNL     1      -2.756  -3.556  -9.474  1.00  0.00    -0.508 OA
ATOM     13  H   UNL     1      -3.477  -4.183  -9.813  1.00  0.00     0.293 HD
ENDBRANCH   3  12
TORSDOF 1
ENDMDL
