MODEL 1
REMARK VINA RESULT:    -4.508      0.000      0.000
REMARK INTER + INTRA:          -5.036
REMARK INTER:                  -4.903
REMARK INTRA:                  -0.133
REMARK UNBOUND:                -0.133
REMARK SMILES C=C(C)[C@@H]1CC=C(C)[C@@H](O)C1
REMARK SMILES IDX 8 1 7 2 6 3 5 4 4 5 11 6 9 7 10 8 2 10 1 11 3 12
REMARK H PARENT 10 9
REMARK Flexibility Score: inf
ROOT
ATOM      1  C   UNL     1     139.524 133.458 151.806  1.00  0.00     0.042 C 
ATOM      2  C   UNL     1     138.650 132.610 150.917  1.00  0.00    -0.049 C 
ATOM      3  C   UNL     1     137.473 133.103 150.493  1.00  0.00    -0.025 C 
ATOM      4  C   UNL     1     136.602 132.278 149.587  1.00  0.00     0.035 C 
ATOM      5  C   UNL     1     136.486 130.832 150.121  1.00  0.00     0.021 C 
ATOM      6  C   UNL     1     137.847 130.233 150.603  1.00  0.00     0.044 C 
ATOM      7  C   UNL     1     139.042 131.209 150.469  1.00  0.00     0.140 C 
ENDROOT
BRANCH   7   8
ATOM      8  O   UNL     1     140.161 130.715 151.163  1.00  0.00    -0.389 OA
ATOM      9  H   UNL     1     140.768 130.296 150.498  1.00  0.00     0.211 HD
ENDBRANCH   7   8
BRANCH   5  10
ATOM     10  C   UNL     1     135.813 129.938 149.087  1.00  0.00    -0.077 C 
ATOM     11  C   UNL     1     136.434 129.649 147.933  1.00  0.00     0.008 C 
ATOM     12  C   UNL     1     134.453 129.344 149.350  1.00  0.00     0.039 C 
ENDBRANCH   5  10
TORSDOF 2
ENDMDL
MODEL 2
REMARK VINA RESULT:    -4.245      1.197      4.347
REMARK INTER + INTRA:          -4.750
REMARK INTER:                  -4.619
REMARK INTRA:                  -0.131
REMARK UNBOUND:                -0.133
REMARK SMILES C=C(C)[C@@H]1CC=C(C)[C@@H](O)C1
REMARK SMILES IDX 8 1 7 2 6 3 5 4 4 5 11 6 9 7 10 8 2 10 1 11 3 12
REMARK H PARENT 10 9
REMARK Flexibility Score: inf
ROOT
ATOM      1  C   UNL     1     135.552 129.639 149.382  1.00  0.00     0.042 C 
ATOM      2  C   UNL     1     136.482 130.685 149.942  1.00  0.00    -0.049 C 
ATOM      3  C   UNL     1     136.303 131.973 149.599  1.00  0.00    -0.025 C 
ATOM      4  C   UNL     1     137.207 133.030 150.170  1.00  0.00     0.035 C 
ATOM      5  C   UNL     1     138.685 132.586 150.069  1.00  0.00     0.021 C 
ATOM      6  C   UNL     1     138.918 131.097 150.482  1.00  0.00     0.044 C 
ATOM      7  C   UNL     1     137.625 130.350 150.892  1.00  0.00     0.140 C 
ENDROOT
BRANCH   7   8
ATOM      8  O   UNL     1     137.861 128.967 150.982  1.00  0.00    -0.389 OA
ATOM      9  H   UNL     1     138.632 128.754 150.393  1.00  0.00     0.211 HD
ENDBRANCH   7   8
BRANCH   5  10
ATOM     10  C   UNL     1     139.577 133.534 150.860  1.00  0.00    -0.077 C 
ATOM     11  C   UNL     1     139.701 133.400 152.189  1.00  0.00     0.008 C 
ATOM     12  C   UNL     1     140.352 134.623 150.163  1.00  0.00     0.039 C 
ENDBRANCH   5  10
TORSDOF 2
ENDMDL
MODEL 3
REMARK VINA RESULT:    -4.220     13.758     15.285
REMARK INTER + INTRA:          -4.723
REMARK INTER:                  -4.599
REMARK INTRA:                  -0.124
REMARK UNBOUND:                -0.133
REMARK SMILES C=C(C)[C@@H]1CC=C(C)[C@@H](O)C1
REMARK SMILES IDX 8 1 7 2 6 3 5 4 4 5 11 6 9 7 10 8 2 10 1 11 3 12
REMARK H PARENT 10 9
REMARK Flexibility Score: inf
ROOT
ATOM      1  C   UNL     1     140.361 143.916 146.110  1.00  0.00     0.042 C 
ATOM      2  C   UNL     1     141.477 143.768 145.106  1.00  0.00    -0.049 C 
ATOM      3  C   UNL     1     142.361 144.770 144.956  1.00  0.00    -0.025 C 
ATOM      4  C   UNL     1     143.492 144.626 143.977  1.00  0.00     0.035 C 
ATOM      5  C   UNL     1     142.970 144.083 142.626  1.00  0.00     0.021 C 
ATOM      6  C   UNL     1     141.956 142.905 142.779  1.00  0.00     0.044 C 
ATOM      7  C   UNL     1     141.655 142.522 144.249  1.00  0.00     0.140 C 
ENDROOT
BRANCH   7   8
ATOM      8  O   UNL     1     140.547 141.659 144.317  1.00  0.00    -0.389 OA
ATOM      9  H   UNL     1     139.756 142.203 144.569  1.00  0.00     0.211 HD
ENDBRANCH   7   8
BRANCH   5  10
ATOM     10  C   UNL     1     144.137 143.708 141.721  1.00  0.00    -0.077 C 
ATOM     11  C   UNL     1     144.613 144.587 140.828  1.00  0.00     0.008 C 
ATOM     12  C   UNL     1     144.790 142.353 141.830  1.00  0.00     0.039 C 
ENDBRANCH   5  10
TORSDOF 2
ENDMDL
MODEL 4
REMARK VINA RESULT:    -4.141      3.095      5.583
REMARK INTER + INTRA:          -4.637
REMARK INTER:                  -4.527
REMARK INTRA:                  -0.110
REMARK UNBOUND:                -0.133
REMARK SMILES C=C(C)[C@@H]1CC=C(C)[C@@H](O)C1
REMARK SMILES IDX 8 1 7 2 6 3 5 4 4 5 11 6 9 7 10 8 2 10 1 11 3 12
REMARK H PARENT 10 9
REMARK Flexibility Score: inf
ROOT
ATOM      1  C   UNL     1     137.505 133.205 150.598  1.00  0.00     0.042 C 
ATOM      2  C   UNL     1     138.996 133.357 150.425  1.00  0.00    -0.049 C 
ATOM      3  C   UNL     1     139.509 133.412 149.184  1.00  0.00    -0.025 C 
ATOM      4  C   UNL     1     140.990 133.587 148.996  1.00  0.00     0.035 C 
ATOM      5  C   UNL     1     141.769 132.624 149.922  1.00  0.00     0.021 C 
ATOM      6  C   UNL     1     141.199 132.559 151.375  1.00  0.00     0.044 C 
ATOM      7  C   UNL     1     139.956 133.456 151.602  1.00  0.00     0.140 C 
ENDROOT
BRANCH   7   8
ATOM      8  O   UNL     1     139.341 133.145 152.827  1.00  0.00    -0.389 OA
ATOM      9  H   UNL     1     138.479 132.693 152.626  1.00  0.00     0.211 HD
ENDBRANCH   7   8
BRANCH   5  10
ATOM     10  C   UNL     1     143.253 132.967 149.915  1.00  0.00    -0.077 C 
ATOM     11  C   UNL     1     143.708 133.995 149.184  1.00  0.00     0.008 C 
ATOM     12  C   UNL     1     144.230 132.175 150.745  1.00  0.00     0.039 C 
ENDBRANCH   5  10
TORSDOF 2
ENDMDL
MODEL 5
REMARK VINA RESULT:    -4.072      2.802      4.020
REMARK INTER + INTRA:          -4.562
REMARK INTER:                  -4.445
REMARK INTRA:                  -0.117
REMARK UNBOUND:                -0.133
REMARK SMILES C=C(C)[C@@H]1CC=C(C)[C@@H](O)C1
REMARK SMILES IDX 8 1 7 2 6 3 5 4 4 5 11 6 9 7 10 8 2 10 1 11 3 12
REMARK H PARENT 10 9
REMARK Flexibility Score: inf
ROOT
ATOM      1  C   UNL     1     143.705 132.605 150.754  1.00  0.00     0.042 C 
ATOM      2  C   UNL     1     142.238 132.580 150.406  1.00  0.00    -0.049 C 
ATOM      3  C   UNL     1     141.862 132.795 149.133  1.00  0.00    -0.025 C 
ATOM      4  C   UNL     1     140.405 132.749 148.768  1.00  0.00     0.035 C 
ATOM      5  C   UNL     1     139.569 133.564 149.782  1.00  0.00     0.021 C 
ATOM      6  C   UNL     1     139.978 133.314 151.269  1.00  0.00     0.044 C 
ATOM      7  C   UNL     1     141.150 132.317 151.439  1.00  0.00     0.140 C 
ENDROOT
BRANCH   7   8
ATOM      8  O   UNL     1     141.639 132.350 152.756  1.00  0.00    -0.389 OA
ATOM      9  H   UNL     1     141.050 132.953 153.281  1.00  0.00     0.211 HD
ENDBRANCH   7   8
BRANCH   5  10
ATOM     10  C   UNL     1     138.082 133.320 149.559  1.00  0.00    -0.077 C 
ATOM     11  C   UNL     1     137.260 133.137 150.602  1.00  0.00     0.008 C 
ATOM     12  C   UNL     1     137.505 133.303 148.166  1.00  0.00     0.039 C 
ENDBRANCH   5  10
TORSDOF 2
ENDMDL
MODEL 6
REMARK VINA RESULT:    -4.006      2.780      3.412
REMARK INTER + INTRA:          -4.490
REMARK INTER:                  -4.365
REMARK INTRA:                  -0.125
REMARK UNBOUND:                -0.133
REMARK SMILES C=C(C)[C@@H]1CC=C(C)[C@@H](O)C1
REMARK SMILES IDX 8 1 7 2 6 3 5 4 4 5 11 6 9 7 10 8 2 10 1 11 3 12
REMARK H PARENT 10 9
REMARK Flexibility Score: inf
ROOT
ATOM      1  C   UNL     1     139.469 133.359 151.974  1.00  0.00     0.042 C 
ATOM      2  C   UNL     1     138.966 133.455 150.556  1.00  0.00    -0.049 C 
ATOM      3  C   UNL     1     137.668 133.216 150.303  1.00  0.00    -0.025 C 
ATOM      4  C   UNL     1     137.147 133.331 148.898  1.00  0.00     0.035 C 
ATOM      5  C   UNL     1     138.090 132.603 147.913  1.00  0.00     0.021 C 
ATOM      6  C   UNL     1     139.605 132.882 148.177  1.00  0.00     0.044 C 
ATOM      7  C   UNL     1     139.868 133.817 149.384  1.00  0.00     0.140 C 
ENDROOT
BRANCH   7   8
ATOM      8  O   UNL     1     141.231 133.804 149.729  1.00  0.00    -0.389 OA
ATOM      9  H   UNL     1     141.410 134.612 150.278  1.00  0.00     0.211 HD
ENDBRANCH   7   8
BRANCH   5  10
ATOM     10  C   UNL     1     137.702 132.923 146.475  1.00  0.00    -0.077 C 
ATOM     11  C   UNL     1     137.228 134.136 146.154  1.00  0.00     0.008 C 
ATOM     12  C   UNL     1     137.866 131.894 145.386  1.00  0.00     0.039 C 
ENDBRANCH   5  10
TORSDOF 2
ENDMDL
MODEL 7
REMARK VINA RESULT:    -4.002      1.792      2.156
REMARK INTER + INTRA:          -4.485
REMARK INTER:                  -4.370
REMARK INTRA:                  -0.116
REMARK UNBOUND:                -0.133
REMARK SMILES C=C(C)[C@@H]1CC=C(C)[C@@H](O)C1
REMARK SMILES IDX 8 1 7 2 6 3 5 4 4 5 11 6 9 7 10 8 2 10 1 11 3 12
REMARK H PARENT 10 9
REMARK Flexibility Score: inf
ROOT
ATOM      1  C   UNL     1     140.504 134.936 149.947  1.00  0.00     0.042 C 
ATOM      2  C   UNL     1     139.636 133.713 149.784  1.00  0.00    -0.049 C 
ATOM      3  C   UNL     1     139.364 133.263 148.547  1.00  0.00    -0.025 C 
ATOM      4  C   UNL     1     138.520 132.031 148.370  1.00  0.00     0.035 C 
ATOM      5  C   UNL     1     137.264 132.105 149.268  1.00  0.00     0.021 C 
ATOM      6  C   UNL     1     137.562 132.608 150.717  1.00  0.00     0.044 C 
ATOM      7  C   UNL     1     139.051 132.953 150.967  1.00  0.00     0.140 C 
ENDROOT
BRANCH   7   8
ATOM      8  O   UNL     1     139.199 133.649 152.180  1.00  0.00    -0.389 OA
ATOM      9  H   UNL     1     138.579 134.425 152.160  1.00  0.00     0.211 HD
ENDBRANCH   7   8
BRANCH   5  10
ATOM     10  C   UNL     1     136.541 130.764 149.276  1.00  0.00    -0.077 C 
ATOM     11  C   UNL     1     136.439 130.040 148.151  1.00  0.00     0.008 C 
ATOM     12  C   UNL     1     135.949 130.216 150.550  1.00  0.00     0.039 C 
ENDBRANCH   5  10
TORSDOF 2
ENDMDL
MODEL 8
REMARK VINA RESULT:    -4.000     14.051     15.188
REMARK INTER + INTRA:          -4.483
REMARK INTER:                  -4.360
REMARK INTRA:                  -0.124
REMARK UNBOUND:                -0.133
REMARK SMILES C=C(C)[C@@H]1CC=C(C)[C@@H](O)C1
REMARK SMILES IDX 8 1 7 2 6 3 5 4 4 5 11 6 9 7 10 8 2 10 1 11 3 12
REMARK H PARENT 10 9
REMARK Flexibility Score: inf
ROOT
ATOM      1  C   UNL     1     144.846 142.282 140.693  1.00  0.00     0.042 C 
ATOM      2  C   UNL     1     144.293 142.564 142.068  1.00  0.00    -0.049 C 
ATOM      3  C   UNL     1     143.992 141.533 142.877  1.00  0.00    -0.025 C 
ATOM      4  C   UNL     1     143.463 141.800 144.259  1.00  0.00     0.035 C 
ATOM      5  C   UNL     1     142.346 142.868 144.212  1.00  0.00     0.021 C 
ATOM      6  C   UNL     1     142.685 144.084 143.291  1.00  0.00     0.044 C 
ATOM      7  C   UNL     1     144.062 143.975 142.590  1.00  0.00     0.140 C 
ENDROOT
BRANCH   7   8
ATOM      8  O   UNL     1     144.180 144.948 141.582  1.00  0.00    -0.389 OA
ATOM      9  H   UNL     1     144.776 144.582 140.878  1.00  0.00     0.211 HD
ENDBRANCH   7   8
BRANCH   5  10
ATOM     10  C   UNL     1     141.982 143.315 145.622  1.00  0.00    -0.077 C 
ATOM     11  C   UNL     1     142.910 143.328 146.591  1.00  0.00     0.008 C 
ATOM     12  C   UNL     1     140.583 143.772 145.948  1.00  0.00     0.039 C 
ENDBRANCH   5  10
TORSDOF 2
ENDMDL
MODEL 9
REMARK VINA RESULT:    -3.978     13.787     15.313
REMARK INTER + INTRA:          -4.460
REMARK INTER:                  -4.339
REMARK INTRA:                  -0.121
REMARK UNBOUND:                -0.133
REMARK SMILES C=C(C)[C@@H]1CC=C(C)[C@@H](O)C1
REMARK SMILES IDX 8 1 7 2 6 3 5 4 4 5 11 6 9 7 10 8 2 10 1 11 3 12
REMARK H PARENT 10 9
REMARK Flexibility Score: inf
ROOT
ATOM      1  C   UNL     1     140.484 143.567 146.138  1.00  0.00     0.042 C 
ATOM      2  C   UNL     1     141.362 143.442 144.918  1.00  0.00    -0.049 C 
ATOM      3  C   UNL     1     141.615 142.221 144.415  1.00  0.00    -0.025 C 
ATOM      4  C   UNL     1     142.468 142.083 143.185  1.00  0.00     0.035 C 
ATOM      5  C   UNL     1     143.741 142.951 143.312  1.00  0.00     0.021 C 
ATOM      6  C   UNL     1     143.466 144.381 143.877  1.00  0.00     0.044 C 
ATOM      7  C   UNL     1     141.978 144.646 144.219  1.00  0.00     0.140 C 
ENDROOT
BRANCH   7   8
ATOM      8  O   UNL     1     141.847 145.829 144.967  1.00  0.00    -0.389 OA
ATOM      9  H   UNL     1     141.571 146.551 144.343  1.00  0.00     0.211 HD
ENDBRANCH   7   8
BRANCH   5  10
ATOM     10  C   UNL     1     144.478 143.005 141.980  1.00  0.00    -0.077 C 
ATOM     11  C   UNL     1     145.139 141.930 141.525  1.00  0.00     0.008 C 
ATOM     12  C   UNL     1     144.460 144.257 141.140  1.00  0.00     0.039 C 
ENDBRANCH   5  10
TORSDOF 2
ENDMDL
