MODEL 1
REMARK VINA RESULT:    -3.523      0.000      0.000
REMARK INTER + INTRA:          -4.127
REMARK INTER:                  -4.038
REMARK INTRA:                  -0.089
REMARK UNBOUND:                -0.089
REMARK SMILES COc1cc(C(=O)[O-])ccc1O
REMARK SMILES IDX 5 1 9 2 4 3 10 4 3 5 11 6 6 7 7 8 8 9 2 10 1 11 12 12
REMARK H PARENT 12 13
REMARK Flexibility Score: inf
ROOT
ATOM      1  C   UNL     1     -20.017  30.264  21.751  1.00  0.00     0.001 A 
ATOM      2  C   UNL     1     -19.415  29.379  20.845  1.00  0.00     0.014 A 
ATOM      3  C   UNL     1     -21.395  30.528  21.639  1.00  0.00     0.060 A 
ATOM      4  C   UNL     1     -20.173  28.769  19.844  1.00  0.00     0.051 A 
ATOM      5  C   UNL     1     -22.165  29.914  20.630  1.00  0.00     0.161 A 
ATOM      6  C   UNL     1     -21.541  29.030  19.732  1.00  0.00     0.157 A 
ENDROOT
BRANCH   1   7
ATOM      7  C   UNL     1     -19.208  30.909  22.811  1.00  0.00     0.072 C 
ATOM      8  O   UNL     1     -18.305  30.265  23.409  1.00  0.00    -0.545 OA
ATOM      9  O   UNL     1     -19.434  32.234  23.162  1.00  0.00    -0.545 OA
ENDBRANCH   1   7
BRANCH   5  10
ATOM     10  O   UNL     1     -23.540  30.158  20.493  1.00  0.00    -0.493 OA
ATOM     11  C   UNL     1     -24.123  31.450  20.345  1.00  0.00     0.278 C 
ENDBRANCH   5  10
BRANCH   6  12
ATOM     12  O   UNL     1     -22.265  28.401  18.718  1.00  0.00    -0.504 OA
ATOM     13  H   UNL     1     -22.436  28.843  17.824  1.00  0.00     0.293 HD
ENDBRANCH   6  12
TORSDOF 3
ENDMDL
MODEL 2
REMARK VINA RESULT:    -3.487      8.304      9.113
REMARK INTER + INTRA:          -4.086
REMARK INTER:                  -4.007
REMARK INTRA:                  -0.079
REMARK UNBOUND:                -0.089
REMARK SMILES COc1cc(C(=O)[O-])ccc1O
REMARK SMILES IDX 5 1 9 2 4 3 10 4 3 5 11 6 6 7 7 8 8 9 2 10 1 11 12 12
REMARK H PARENT 12 13
REMARK Flexibility Score: inf
ROOT
ATOM      1  C   UNL     1     -20.142  23.399  16.007  1.00  0.00     0.001 A 
ATOM      2  C   UNL     1     -19.232  24.082  15.186  1.00  0.00     0.014 A 
ATOM      3  C   UNL     1     -21.393  23.027  15.481  1.00  0.00     0.060 A 
ATOM      4  C   UNL     1     -19.564  24.388  13.865  1.00  0.00     0.051 A 
ATOM      5  C   UNL     1     -21.734  23.333  14.148  1.00  0.00     0.161 A 
ATOM      6  C   UNL     1     -20.806  24.018  13.342  1.00  0.00     0.157 A 
ENDROOT
BRANCH   1   7
ATOM      7  C   UNL     1     -19.784  23.077  17.407  1.00  0.00     0.072 C 
ATOM      8  O   UNL     1     -18.577  22.980  17.754  1.00  0.00    -0.545 OA
ATOM      9  O   UNL     1     -20.776  22.876  18.360  1.00  0.00    -0.545 OA
ENDBRANCH   1   7
BRANCH   5  10
ATOM     10  O   UNL     1     -22.974  22.975  13.596  1.00  0.00    -0.493 OA
ATOM     11  C   UNL     1     -24.125  23.814  13.579  1.00  0.00     0.278 C 
ENDBRANCH   5  10
BRANCH   6  12
ATOM     12  O   UNL     1     -21.102  24.341  12.017  1.00  0.00    -0.504 OA
ATOM     13  H   UNL     1     -20.558  25.016  11.493  1.00  0.00     0.293 HD
ENDBRANCH   6  12
TORSDOF 3
ENDMDL
MODEL 3
REMARK VINA RESULT:    -3.416      8.175     10.534
REMARK INTER + INTRA:          -4.004
REMARK INTER:                  -3.902
REMARK INTRA:                  -0.103
REMARK UNBOUND:                -0.089
REMARK SMILES COc1cc(C(=O)[O-])ccc1O
REMARK SMILES IDX 5 1 9 2 4 3 10 4 3 5 11 6 6 7 7 8 8 9 2 10 1 11 12 12
REMARK H PARENT 12 13
REMARK Flexibility Score: inf
ROOT
ATOM      1  C   UNL     1     -21.642  23.606  12.818  1.00  0.00     0.001 A 
ATOM      2  C   UNL     1     -20.297  24.000  12.879  1.00  0.00     0.014 A 
ATOM      3  C   UNL     1     -22.305  23.249  14.007  1.00  0.00     0.060 A 
ATOM      4  C   UNL     1     -19.626  24.037  14.102  1.00  0.00     0.051 A 
ATOM      5  C   UNL     1     -21.631  23.284  15.245  1.00  0.00     0.161 A 
ATOM      6  C   UNL     1     -20.283  23.683  15.282  1.00  0.00     0.157 A 
ENDROOT
BRANCH   1   7
ATOM      7  C   UNL     1     -22.349  23.569  11.518  1.00  0.00     0.072 C 
ATOM      8  O   UNL     1     -23.391  22.875  11.374  1.00  0.00    -0.545 OA
ATOM      9  O   UNL     1     -21.874  24.300  10.436  1.00  0.00    -0.545 OA
ENDBRANCH   1   7
BRANCH   5  10
ATOM     10  O   UNL     1     -22.266  22.933  16.447  1.00  0.00    -0.493 OA
ATOM     11  C   UNL     1     -23.085  23.809  17.216  1.00  0.00     0.278 C 
ENDBRANCH   5  10
BRANCH   6  12
ATOM     12  O   UNL     1     -19.578  23.732  16.486  1.00  0.00    -0.504 OA
ATOM     13  H   UNL     1     -18.856  24.420  16.660  1.00  0.00     0.293 HD
ENDBRANCH   6  12
TORSDOF 3
ENDMDL
MODEL 4
REMARK VINA RESULT:    -3.362      2.234      3.590
REMARK INTER + INTRA:          -3.943
REMARK INTER:                  -3.859
REMARK INTRA:                  -0.084
REMARK UNBOUND:                -0.089
REMARK SMILES COc1cc(C(=O)[O-])ccc1O
REMARK SMILES IDX 5 1 9 2 4 3 10 4 3 5 11 6 6 7 7 8 8 9 2 10 1 11 12 12
REMARK H PARENT 12 13
REMARK Flexibility Score: inf
ROOT
ATOM      1  C   UNL     1     -18.678  28.390  21.857  1.00  0.00     0.001 A 
ATOM      2  C   UNL     1     -19.142  29.619  21.365  1.00  0.00     0.014 A 
ATOM      3  C   UNL     1     -19.196  27.197  21.319  1.00  0.00     0.060 A 
ATOM      4  C   UNL     1     -20.104  29.657  20.355  1.00  0.00     0.051 A 
ATOM      5  C   UNL     1     -20.168  27.230  20.299  1.00  0.00     0.161 A 
ATOM      6  C   UNL     1     -20.618  28.473  19.820  1.00  0.00     0.157 A 
ENDROOT
BRANCH   1   7
ATOM      7  C   UNL     1     -17.657  28.355  22.929  1.00  0.00     0.072 C 
ATOM      8  O   UNL     1     -17.345  27.267  23.483  1.00  0.00    -0.545 OA
ATOM      9  O   UNL     1     -17.027  29.524  23.341  1.00  0.00    -0.545 OA
ENDBRANCH   1   7
BRANCH   5  10
ATOM     10  O   UNL     1     -20.703  26.057  19.744  1.00  0.00    -0.493 OA
ATOM     11  C   UNL     1     -19.967  24.857  19.523  1.00  0.00     0.278 C 
ENDBRANCH   5  10
BRANCH   6  12
ATOM     12  O   UNL     1     -21.579  28.552  18.811  1.00  0.00    -0.504 OA
ATOM     13  H   UNL     1     -21.626  27.877  18.058  1.00  0.00     0.293 HD
ENDBRANCH   6  12
TORSDOF 3
ENDMDL
MODEL 5
REMARK VINA RESULT:    -3.222      9.141     10.674
REMARK INTER + INTRA:          -3.783
REMARK INTER:                  -3.681
REMARK INTRA:                  -0.101
REMARK UNBOUND:                -0.089
REMARK SMILES COc1cc(C(=O)[O-])ccc1O
REMARK SMILES IDX 5 1 9 2 4 3 10 4 3 5 11 6 6 7 7 8 8 9 2 10 1 11 12 12
REMARK H PARENT 12 13
REMARK Flexibility Score: inf
ROOT
ATOM      1  C   UNL     1     -21.021  23.555  13.975  1.00  0.00     0.001 A 
ATOM      2  C   UNL     1     -22.271  23.058  14.374  1.00  0.00     0.014 A 
ATOM      3  C   UNL     1     -20.810  23.869  12.620  1.00  0.00     0.060 A 
ATOM      4  C   UNL     1     -23.291  22.877  13.438  1.00  0.00     0.051 A 
ATOM      5  C   UNL     1     -21.836  23.688  11.671  1.00  0.00     0.161 A 
ATOM      6  C   UNL     1     -23.081  23.189  12.092  1.00  0.00     0.157 A 
ENDROOT
BRANCH   1   7
ATOM      7  C   UNL     1     -19.943  23.744  14.972  1.00  0.00     0.072 C 
ATOM      8  O   UNL     1     -18.977  24.517  14.733  1.00  0.00    -0.545 OA
ATOM      9  O   UNL     1     -19.980  23.071  16.188  1.00  0.00    -0.545 OA
ENDBRANCH   1   7
BRANCH   5  10
ATOM     10  O   UNL     1     -21.654  23.992  10.312  1.00  0.00    -0.493 OA
ATOM     11  C   UNL     1     -21.809  25.289   9.745  1.00  0.00     0.278 C 
ENDBRANCH   5  10
BRANCH   6  12
ATOM     12  O   UNL     1     -24.125  22.995  11.187  1.00  0.00    -0.504 OA
ATOM     13  H   UNL     1     -24.319  22.091  10.773  1.00  0.00     0.293 HD
ENDBRANCH   6  12
TORSDOF 3
ENDMDL
MODEL 6
REMARK VINA RESULT:    -3.155      2.519      3.925
REMARK INTER + INTRA:          -3.706
REMARK INTER:                  -3.610
REMARK INTRA:                  -0.095
REMARK UNBOUND:                -0.089
REMARK SMILES COc1cc(C(=O)[O-])ccc1O
REMARK SMILES IDX 5 1 9 2 4 3 10 4 3 5 11 6 6 7 7 8 8 9 2 10 1 11 12 12
REMARK H PARENT 12 13
REMARK Flexibility Score: inf
ROOT
ATOM      1  C   UNL     1     -18.621  28.933  22.214  1.00  0.00     0.001 A 
ATOM      2  C   UNL     1     -19.376  29.616  21.248  1.00  0.00     0.014 A 
ATOM      3  C   UNL     1     -18.570  27.527  22.174  1.00  0.00     0.060 A 
ATOM      4  C   UNL     1     -20.065  28.910  20.261  1.00  0.00     0.051 A 
ATOM      5  C   UNL     1     -19.264  26.809  21.180  1.00  0.00     0.161 A 
ATOM      6  C   UNL     1     -20.014  27.514  20.221  1.00  0.00     0.157 A 
ENDROOT
BRANCH   1   7
ATOM      7  C   UNL     1     -17.892  29.687  23.259  1.00  0.00     0.072 C 
ATOM      8  O   UNL     1     -16.853  29.209  23.787  1.00  0.00    -0.545 OA
ATOM      9  O   UNL     1     -18.344  30.934  23.673  1.00  0.00    -0.545 OA
ENDBRANCH   1   7
BRANCH   5  10
ATOM     10  O   UNL     1     -19.231  25.407  21.115  1.00  0.00    -0.493 OA
ATOM     11  C   UNL     1     -18.058  24.635  20.876  1.00  0.00     0.278 C 
ENDBRANCH   5  10
BRANCH   6  12
ATOM     12  O   UNL     1     -20.716  26.843  19.219  1.00  0.00    -0.504 OA
ATOM     13  H   UNL     1     -20.249  26.403  18.436  1.00  0.00     0.293 HD
ENDBRANCH   6  12
TORSDOF 3
ENDMDL
MODEL 7
REMARK VINA RESULT:    -3.067      1.251      2.835
REMARK INTER + INTRA:          -3.604
REMARK INTER:                  -3.503
REMARK INTRA:                  -0.101
REMARK UNBOUND:                -0.089
REMARK SMILES COc1cc(C(=O)[O-])ccc1O
REMARK SMILES IDX 5 1 9 2 4 3 10 4 3 5 11 6 6 7 7 8 8 9 2 10 1 11 12 12
REMARK H PARENT 12 13
REMARK Flexibility Score: inf
ROOT
ATOM      1  C   UNL     1     -20.104  30.054  21.753  1.00  0.00     0.001 A 
ATOM      2  C   UNL     1     -21.344  30.584  21.365  1.00  0.00     0.014 A 
ATOM      3  C   UNL     1     -19.659  28.855  21.168  1.00  0.00     0.060 A 
ATOM      4  C   UNL     1     -22.125  29.929  20.412  1.00  0.00     0.051 A 
ATOM      5  C   UNL     1     -20.443  28.189  20.205  1.00  0.00     0.161 A 
ATOM      6  C   UNL     1     -21.683  28.738  19.830  1.00  0.00     0.157 A 
ENDROOT
BRANCH   1   7
ATOM      7  C   UNL     1     -19.281  30.754  22.766  1.00  0.00     0.072 C 
ATOM      8  O   UNL     1     -18.325  30.162  23.335  1.00  0.00    -0.545 OA
ATOM      9  O   UNL     1     -19.550  32.075  23.104  1.00  0.00    -0.545 OA
ENDBRANCH   1   7
BRANCH   5  10
ATOM     10  O   UNL     1     -20.025  26.991  19.604  1.00  0.00    -0.493 OA
ATOM     11  C   UNL     1     -20.005  25.724  20.254  1.00  0.00     0.278 C 
ENDBRANCH   5  10
BRANCH   6  12
ATOM     12  O   UNL     1     -22.491  28.112  18.880  1.00  0.00    -0.504 OA
ATOM     13  H   UNL     1     -22.826  27.164  18.998  1.00  0.00     0.293 HD
ENDBRANCH   6  12
TORSDOF 3
ENDMDL
MODEL 8
REMARK VINA RESULT:    -3.063      1.570      5.114
REMARK INTER + INTRA:          -3.600
REMARK INTER:                  -3.497
REMARK INTRA:                  -0.102
REMARK UNBOUND:                -0.089
REMARK SMILES COc1cc(C(=O)[O-])ccc1O
REMARK SMILES IDX 5 1 9 2 4 3 10 4 3 5 11 6 6 7 7 8 8 9 2 10 1 11 12 12
REMARK H PARENT 12 13
REMARK Flexibility Score: inf
ROOT
ATOM      1  C   UNL     1     -20.229  29.199  20.855  1.00  0.00     0.001 A 
ATOM      2  C   UNL     1     -20.921  30.333  21.306  1.00  0.00     0.014 A 
ATOM      3  C   UNL     1     -19.016  28.845  21.474  1.00  0.00     0.060 A 
ATOM      4  C   UNL     1     -20.411  31.100  22.356  1.00  0.00     0.051 A 
ATOM      5  C   UNL     1     -18.497  29.616  22.533  1.00  0.00     0.161 A 
ATOM      6  C   UNL     1     -19.207  30.749  22.971  1.00  0.00     0.157 A 
ENDROOT
BRANCH   1   7
ATOM      7  C   UNL     1     -20.775  28.390  19.741  1.00  0.00     0.072 C 
ATOM      8  O   UNL     1     -20.321  27.239  19.503  1.00  0.00    -0.545 OA
ATOM      9  O   UNL     1     -21.796  28.888  18.942  1.00  0.00    -0.545 OA
ENDBRANCH   1   7
BRANCH   5  10
ATOM     10  O   UNL     1     -17.290  29.287  23.170  1.00  0.00    -0.493 OA
ATOM     11  C   UNL     1     -17.136  28.240  24.123  1.00  0.00     0.278 C 
ENDBRANCH   5  10
BRANCH   6  12
ATOM     12  O   UNL     1     -18.729  31.540  24.017  1.00  0.00    -0.504 OA
ATOM     13  H   UNL     1     -19.325  32.188  24.517  1.00  0.00     0.293 HD
ENDBRANCH   6  12
TORSDOF 3
ENDMDL
MODEL 9
REMARK VINA RESULT:    -1.165      9.896     12.202
REMARK INTER + INTRA:          -1.425
REMARK INTER:                  -1.321
REMARK INTRA:                  -0.103
REMARK UNBOUND:                -0.089
REMARK SMILES COc1cc(C(=O)[O-])ccc1O
REMARK SMILES IDX 5 1 9 2 4 3 10 4 3 5 11 6 6 7 7 8 8 9 2 10 1 11 12 12
REMARK H PARENT 12 13
REMARK Flexibility Score: inf
ROOT
ATOM      1  C   UNL     1     -22.527  24.625  10.299  1.00  0.00     0.001 A 
ATOM      2  C   UNL     1     -23.835  24.721  10.797  1.00  0.00     0.014 A 
ATOM      3  C   UNL     1     -21.512  24.121  11.133  1.00  0.00     0.060 A 
ATOM      4  C   UNL     1     -24.125  24.322  12.103  1.00  0.00     0.051 A 
ATOM      5  C   UNL     1     -21.799  23.717  12.453  1.00  0.00     0.161 A 
ATOM      6  C   UNL     1     -23.118  23.821  12.931  1.00  0.00     0.157 A 
ENDROOT
BRANCH   1   7
ATOM      7  C   UNL     1     -22.225  25.050   8.913  1.00  0.00     0.072 C 
ATOM      8  O   UNL     1     -21.127  24.749   8.375  1.00  0.00    -0.545 OA
ATOM      9  O   UNL     1     -23.150  25.790   8.186  1.00  0.00    -0.545 OA
ENDBRANCH   1   7
BRANCH   5  10
ATOM     10  O   UNL     1     -20.808  23.210  13.308  1.00  0.00    -0.493 OA
ATOM     11  C   UNL     1     -19.891  24.011  14.048  1.00  0.00     0.278 C 
ENDBRANCH   5  10
BRANCH   6  12
ATOM     12  O   UNL     1     -23.446  23.432  14.231  1.00  0.00    -0.504 OA
ATOM     13  H   UNL     1     -22.788  22.953  14.833  1.00  0.00     0.293 HD
ENDBRANCH   6  12
TORSDOF 3
ENDMDL
