MODEL 1
REMARK VINA RESULT:    -5.501      0.000      0.000
REMARK INTER + INTRA:          -6.498
REMARK INTER:                  -6.305
REMARK INTRA:                  -0.193
REMARK UNBOUND:                -0.193
REMARK SMILES COc1ccc(C(C)=O)c(O)c1
REMARK SMILES IDX 6 1 10 2 12 3 3 4 4 5 5 6 7 7 8 8 9 9 11 10 2 12 1 13
REMARK H PARENT 11 11
REMARK Flexibility Score: inf
ROOT
ATOM      1  C   UNL     1     -12.683   2.109  -9.285  1.00  0.00     0.059 A 
ATOM      2  C   UNL     1     -13.983   1.630  -9.567  1.00  0.00     0.130 A 
ATOM      3  C   UNL     1     -14.154   0.351 -10.117  1.00  0.00     0.093 A 
ATOM      4  C   UNL     1     -13.055  -0.473 -10.379  1.00  0.00     0.122 A 
ATOM      5  C   UNL     1     -11.765  -0.004 -10.083  1.00  0.00     0.047 A 
ATOM      6  C   UNL     1     -11.583   1.270  -9.540  1.00  0.00     0.019 A 
ENDROOT
BRANCH   1   7
ATOM      7  C   UNL     1     -12.434   3.462  -8.718  1.00  0.00     0.163 C 
ATOM      8  C   UNL     1     -11.075   3.913  -8.277  1.00  0.00     0.093 C 
ATOM      9  O   UNL     1     -13.397   4.268  -8.599  1.00  0.00    -0.294 OA
ENDBRANCH   1   7
BRANCH   2  10
ATOM     10  O   UNL     1     -15.108   2.403  -9.284  1.00  0.00    -0.507 OA
ATOM     11  H   UNL     1     -15.529   3.008  -9.979  1.00  0.00     0.293 HD
ENDBRANCH   2  10
BRANCH   4  12
ATOM     12  O   UNL     1     -13.289  -1.741 -10.929  1.00  0.00    -0.497 OA
ATOM     13  C   UNL     1     -14.009  -2.781 -10.275  1.00  0.00     0.278 C 
ENDBRANCH   4  12
TORSDOF 3
ENDMDL
MODEL 2
REMARK VINA RESULT:    -5.485      1.357      5.008
REMARK INTER + INTRA:          -6.480
REMARK INTER:                  -6.264
REMARK INTRA:                  -0.216
REMARK UNBOUND:                -0.193
REMARK SMILES COc1ccc(C(C)=O)c(O)c1
REMARK SMILES IDX 6 1 10 2 12 3 3 4 4 5 5 6 7 7 8 8 9 9 11 10 2 12 1 13
REMARK H PARENT 11 11
REMARK Flexibility Score: inf
ROOT
ATOM      1  C   UNL     1     -13.011  -0.012 -10.012  1.00  0.00     0.059 A 
ATOM      2  C   UNL     1     -11.858   0.706  -9.617  1.00  0.00     0.130 A 
ATOM      3  C   UNL     1     -11.966   2.055  -9.248  1.00  0.00     0.093 A 
ATOM      4  C   UNL     1     -13.204   2.704  -9.248  1.00  0.00     0.122 A 
ATOM      5  C   UNL     1     -14.351   1.987  -9.625  1.00  0.00     0.047 A 
ATOM      6  C   UNL     1     -14.254   0.645  -9.998  1.00  0.00     0.019 A 
ENDROOT
BRANCH   1   7
ATOM      7  C   UNL     1     -12.960  -1.439 -10.432  1.00  0.00     0.163 C 
ATOM      8  C   UNL     1     -14.103  -2.116 -11.125  1.00  0.00     0.093 C 
ATOM      9  O   UNL     1     -11.920  -2.114 -10.199  1.00  0.00    -0.294 OA
ENDBRANCH   1   7
BRANCH   2  10
ATOM     10  O   UNL     1     -10.611   0.084  -9.564  1.00  0.00    -0.507 OA
ATOM     11  H   UNL     1     -10.256  -0.329  -8.710  1.00  0.00     0.293 HD
ENDBRANCH   2  10
BRANCH   4  12
ATOM     12  O   UNL     1     -13.249   4.053  -8.869  1.00  0.00    -0.497 OA
ATOM     13  C   UNL     1     -12.874   4.541  -7.585  1.00  0.00     0.278 C 
ENDBRANCH   4  12
TORSDOF 3
ENDMDL
MODEL 3
REMARK VINA RESULT:    -5.407      4.574      7.258
REMARK INTER + INTRA:          -6.391
REMARK INTER:                  -6.055
REMARK INTRA:                  -0.336
REMARK UNBOUND:                -0.193
REMARK SMILES COc1ccc(C(C)=O)c(O)c1
REMARK SMILES IDX 6 1 10 2 12 3 3 4 4 5 5 6 7 7 8 8 9 9 11 10 2 12 1 13
REMARK H PARENT 11 11
REMARK Flexibility Score: inf
ROOT
ATOM      1  C   UNL     1     -10.361  -4.678  -7.843  1.00  0.00     0.059 A 
ATOM      2  C   UNL     1     -10.800  -4.578  -9.183  1.00  0.00     0.130 A 
ATOM      3  C   UNL     1     -10.734  -3.346  -9.852  1.00  0.00     0.093 A 
ATOM      4  C   UNL     1     -10.224  -2.210  -9.217  1.00  0.00     0.122 A 
ATOM      5  C   UNL     1      -9.773  -2.312  -7.891  1.00  0.00     0.047 A 
ATOM      6  C   UNL     1      -9.838  -3.533  -7.215  1.00  0.00     0.019 A 
ENDROOT
BRANCH   1   7
ATOM      7  C   UNL     1     -10.422  -5.951  -7.074  1.00  0.00     0.163 C 
ATOM      8  C   UNL     1     -11.034  -6.039  -5.709  1.00  0.00     0.093 C 
ATOM      9  O   UNL     1      -9.942  -7.001  -7.581  1.00  0.00    -0.294 OA
ENDBRANCH   1   7
BRANCH   2  10
ATOM     10  O   UNL     1     -11.278  -5.696  -9.865  1.00  0.00    -0.507 OA
ATOM     11  H   UNL     1     -12.202  -6.073  -9.691  1.00  0.00     0.293 HD
ENDBRANCH   2  10
BRANCH   4  12
ATOM     12  O   UNL     1     -10.183  -1.007  -9.936  1.00  0.00    -0.497 OA
ATOM     13  C   UNL     1     -11.330  -0.239 -10.286  1.00  0.00     0.278 C 
ENDBRANCH   4  12
TORSDOF 3
ENDMDL
MODEL 4
REMARK VINA RESULT:    -5.390      2.363      3.321
REMARK INTER + INTRA:          -6.371
REMARK INTER:                  -6.073
REMARK INTRA:                  -0.298
REMARK UNBOUND:                -0.193
REMARK SMILES COc1ccc(C(C)=O)c(O)c1
REMARK SMILES IDX 6 1 10 2 12 3 3 4 4 5 5 6 7 7 8 8 9 9 11 10 2 12 1 13
REMARK H PARENT 11 11
REMARK Flexibility Score: inf
ROOT
ATOM      1  C   UNL     1     -12.477   0.165  -9.770  1.00  0.00     0.059 A 
ATOM      2  C   UNL     1     -11.168  -0.131  -9.324  1.00  0.00     0.130 A 
ATOM      3  C   UNL     1     -10.662  -1.433  -9.454  1.00  0.00     0.093 A 
ATOM      4  C   UNL     1     -11.427  -2.447 -10.037  1.00  0.00     0.122 A 
ATOM      5  C   UNL     1     -12.721  -2.150 -10.496  1.00  0.00     0.047 A 
ATOM      6  C   UNL     1     -13.236  -0.858 -10.366  1.00  0.00     0.019 A 
ENDROOT
BRANCH   1   7
ATOM      7  C   UNL     1     -13.077   1.521  -9.643  1.00  0.00     0.163 C 
ATOM      8  C   UNL     1     -14.556   1.741  -9.552  1.00  0.00     0.093 C 
ATOM      9  O   UNL     1     -12.321   2.531  -9.612  1.00  0.00    -0.294 OA
ENDBRANCH   1   7
BRANCH   2  10
ATOM     10  O   UNL     1     -10.357   0.861  -8.774  1.00  0.00    -0.507 OA
ATOM     11  H   UNL     1     -10.250   0.969  -7.772  1.00  0.00     0.293 HD
ENDBRANCH   2  10
BRANCH   4  12
ATOM     12  O   UNL     1     -10.867  -3.729 -10.141  1.00  0.00    -0.497 OA
ATOM     13  C   UNL     1     -10.536  -4.554  -9.029  1.00  0.00     0.278 C 
ENDBRANCH   4  12
TORSDOF 3
ENDMDL
MODEL 5
REMARK VINA RESULT:    -5.281      2.439      5.006
REMARK INTER + INTRA:          -6.246
REMARK INTER:                  -5.934
REMARK INTRA:                  -0.312
REMARK UNBOUND:                -0.193
REMARK SMILES COc1ccc(C(C)=O)c(O)c1
REMARK SMILES IDX 6 1 10 2 12 3 3 4 4 5 5 6 7 7 8 8 9 9 11 10 2 12 1 13
REMARK H PARENT 11 11
REMARK Flexibility Score: inf
ROOT
ATOM      1  C   UNL     1     -10.996  -1.930  -9.659  1.00  0.00     0.059 A 
ATOM      2  C   UNL     1     -12.284  -2.373 -10.036  1.00  0.00     0.130 A 
ATOM      3  C   UNL     1     -13.301  -1.440 -10.286  1.00  0.00     0.093 A 
ATOM      4  C   UNL     1     -13.057  -0.067 -10.186  1.00  0.00     0.122 A 
ATOM      5  C   UNL     1     -11.773   0.375  -9.828  1.00  0.00     0.047 A 
ATOM      6  C   UNL     1     -10.755  -0.547  -9.572  1.00  0.00     0.019 A 
ENDROOT
BRANCH   1   7
ATOM      7  C   UNL     1      -9.881  -2.870  -9.362  1.00  0.00     0.163 C 
ATOM      8  C   UNL     1      -9.260  -2.980  -8.004  1.00  0.00     0.093 C 
ATOM      9  O   UNL     1      -9.434  -3.608 -10.283  1.00  0.00    -0.294 OA
ENDBRANCH   1   7
BRANCH   2  10
ATOM     10  O   UNL     1     -12.558  -3.732 -10.187  1.00  0.00    -0.507 OA
ATOM     11  H   UNL     1     -12.538  -4.184 -11.093  1.00  0.00     0.293 HD
ENDBRANCH   2  10
BRANCH   4  12
ATOM     12  O   UNL     1     -14.112   0.819 -10.449  1.00  0.00    -0.497 OA
ATOM     13  C   UNL     1     -14.422   1.959  -9.654  1.00  0.00     0.278 C 
ENDBRANCH   4  12
TORSDOF 3
ENDMDL
MODEL 6
REMARK VINA RESULT:    -5.227      1.558      2.218
REMARK INTER + INTRA:          -6.184
REMARK INTER:                  -5.918
REMARK INTRA:                  -0.266
REMARK UNBOUND:                -0.193
REMARK SMILES COc1ccc(C(C)=O)c(O)c1
REMARK SMILES IDX 6 1 10 2 12 3 3 4 4 5 5 6 7 7 8 8 9 9 11 10 2 12 1 13
REMARK H PARENT 11 11
REMARK Flexibility Score: inf
ROOT
ATOM      1  C   UNL     1     -12.614   2.000  -9.275  1.00  0.00     0.059 A 
ATOM      2  C   UNL     1     -11.723   0.905  -9.350  1.00  0.00     0.130 A 
ATOM      3  C   UNL     1     -12.130  -0.288  -9.964  1.00  0.00     0.093 A 
ATOM      4  C   UNL     1     -13.406  -0.411 -10.523  1.00  0.00     0.122 A 
ATOM      5  C   UNL     1     -14.285   0.683 -10.464  1.00  0.00     0.047 A 
ATOM      6  C   UNL     1     -13.891   1.874  -9.850  1.00  0.00     0.019 A 
ENDROOT
BRANCH   1   7
ATOM      7  C   UNL     1     -12.248   3.286  -8.620  1.00  0.00     0.163 C 
ATOM      8  C   UNL     1     -13.274   4.250  -8.109  1.00  0.00     0.093 C 
ATOM      9  O   UNL     1     -11.030   3.586  -8.487  1.00  0.00    -0.294 OA
ENDBRANCH   1   7
BRANCH   2  10
ATOM     10  O   UNL     1     -10.428   0.999  -8.840  1.00  0.00    -0.507 OA
ATOM     11  H   UNL     1     -10.151   0.517  -7.993  1.00  0.00     0.293 HD
ENDBRANCH   2  10
BRANCH   4  12
ATOM     12  O   UNL     1     -13.756  -1.628 -11.125  1.00  0.00    -0.497 OA
ATOM     13  C   UNL     1     -14.604  -2.605 -10.529  1.00  0.00     0.278 C 
ENDBRANCH   4  12
TORSDOF 3
ENDMDL
MODEL 7
REMARK VINA RESULT:    -5.188      6.171      8.169
REMARK INTER + INTRA:          -6.139
REMARK INTER:                  -5.803
REMARK INTRA:                  -0.337
REMARK UNBOUND:                -0.193
REMARK SMILES COc1ccc(C(C)=O)c(O)c1
REMARK SMILES IDX 6 1 10 2 12 3 3 4 4 5 5 6 7 7 8 8 9 9 11 10 2 12 1 13
REMARK H PARENT 11 11
REMARK Flexibility Score: inf
ROOT
ATOM      1  C   UNL     1      -9.823  -4.696  -7.393  1.00  0.00     0.059 A 
ATOM      2  C   UNL     1      -9.835  -5.978  -7.989  1.00  0.00     0.130 A 
ATOM      3  C   UNL     1     -10.427  -7.057  -7.316  1.00  0.00     0.093 A 
ATOM      4  C   UNL     1     -11.025  -6.884  -6.065  1.00  0.00     0.122 A 
ATOM      5  C   UNL     1     -11.029  -5.607  -5.480  1.00  0.00     0.047 A 
ATOM      6  C   UNL     1     -10.438  -4.527  -6.139  1.00  0.00     0.019 A 
ENDROOT
BRANCH   1   7
ATOM      7  C   UNL     1      -9.196  -3.515  -8.047  1.00  0.00     0.163 C 
ATOM      8  C   UNL     1      -9.879  -2.185  -8.133  1.00  0.00     0.093 C 
ATOM      9  O   UNL     1      -8.046  -3.628  -8.553  1.00  0.00    -0.294 OA
ENDBRANCH   1   7
BRANCH   2  10
ATOM     10  O   UNL     1      -9.285  -6.185  -9.254  1.00  0.00    -0.507 OA
ATOM     11  H   UNL     1      -8.319  -5.960  -9.459  1.00  0.00     0.293 HD
ENDBRANCH   2  10
BRANCH   4  12
ATOM     12  O   UNL     1     -11.602  -8.000  -5.441  1.00  0.00    -0.497 OA
ATOM     13  C   UNL     1     -12.987  -8.125  -5.137  1.00  0.00     0.278 C 
ENDBRANCH   4  12
TORSDOF 3
ENDMDL
MODEL 8
REMARK VINA RESULT:    -4.953      4.513      7.450
REMARK INTER + INTRA:          -5.870
REMARK INTER:                  -5.548
REMARK INTRA:                  -0.322
REMARK UNBOUND:                -0.193
REMARK SMILES COc1ccc(C(C)=O)c(O)c1
REMARK SMILES IDX 6 1 10 2 12 3 3 4 4 5 5 6 7 7 8 8 9 9 11 10 2 12 1 13
REMARK H PARENT 11 11
REMARK Flexibility Score: inf
ROOT
ATOM      1  C   UNL     1     -10.514  -4.830  -8.479  1.00  0.00     0.059 A 
ATOM      2  C   UNL     1      -9.440  -3.962  -8.176  1.00  0.00     0.130 A 
ATOM      3  C   UNL     1      -9.445  -2.646  -8.661  1.00  0.00     0.093 A 
ATOM      4  C   UNL     1     -10.510  -2.167  -9.431  1.00  0.00     0.122 A 
ATOM      5  C   UNL     1     -11.586  -3.024  -9.717  1.00  0.00     0.047 A 
ATOM      6  C   UNL     1     -11.587  -4.337  -9.243  1.00  0.00     0.019 A 
ENDROOT
BRANCH   1   7
ATOM      7  C   UNL     1     -10.558  -6.242  -8.009  1.00  0.00     0.163 C 
ATOM      8  C   UNL     1     -11.142  -7.347  -8.835  1.00  0.00     0.093 C 
ATOM      9  O   UNL     1     -10.090  -6.530  -6.874  1.00  0.00    -0.294 OA
ENDBRANCH   1   7
BRANCH   2  10
ATOM     10  O   UNL     1      -8.378  -4.387  -7.379  1.00  0.00    -0.507 OA
ATOM     11  H   UNL     1      -8.010  -5.330  -7.437  1.00  0.00     0.293 HD
ENDBRANCH   2  10
BRANCH   4  12
ATOM     12  O   UNL     1     -10.460  -0.842  -9.887  1.00  0.00    -0.497 OA
ATOM     13  C   UNL     1     -11.599  -0.002 -10.044  1.00  0.00     0.278 C 
ENDBRANCH   4  12
TORSDOF 3
ENDMDL
