MODEL 1
REMARK VINA RESULT:    -6.554      0.000      0.000
REMARK INTER + INTRA:          -6.938
REMARK INTER:                  -6.938
REMARK INTRA:                   0.000
REMARK UNBOUND:                 0.000
REMARK SMILES O=c1ccc2cc(O)c(O)cc2o1
REMARK SMILES IDX 4 1 3 2 2 3 1 4 13 5 12 6 11 7 9 8 7 9 6 10 5 11 8 12 10 14
REMARK H PARENT 8 13 10 15
REMARK Flexibility Score: inf
ROOT
ATOM      1  C   UNL     1      -0.261  53.685  -4.158  1.00  0.00     0.019 A 
ATOM      2  C   UNL     1      -0.119  52.503  -4.885  1.00  0.00     0.094 A 
ATOM      3  C   UNL     1       0.052  52.578  -6.272  1.00  0.00     0.336 A 
ATOM      4  O   UNL     1       0.182  51.523  -6.947  1.00  0.00    -0.246 OA
ATOM      5  O   UNL     1       0.079  53.759  -6.885  1.00  0.00    -0.423 OA
ATOM      6  C   UNL     1      -0.052  54.909  -6.229  1.00  0.00     0.142 A 
ATOM      7  C   UNL     1      -0.016  56.120  -6.926  1.00  0.00     0.098 A 
ATOM      8  C   UNL     1      -0.154  57.335  -6.243  1.00  0.00     0.161 A 
ATOM      9  C   UNL     1      -0.330  57.339  -4.846  1.00  0.00     0.158 A 
ATOM     10  C   UNL     1      -0.366  56.126  -4.142  1.00  0.00     0.062 A 
ATOM     11  C   UNL     1      -0.228  54.911  -4.828  1.00  0.00     0.022 A 
ENDROOT
BRANCH   9  12
ATOM     12  O   UNL     1      -0.467  58.547  -4.165  1.00  0.00    -0.504 OA
ATOM     13  H   UNL     1      -0.148  58.657  -3.209  1.00  0.00     0.293 HD
ENDBRANCH   9  12
BRANCH   8  14
ATOM     14  O   UNL     1      -0.114  58.526  -6.967  1.00  0.00    -0.504 OA
ATOM     15  H   UNL     1      -0.581  59.366  -6.647  1.00  0.00     0.293 HD
ENDBRANCH   8  14
TORSDOF 2
ENDMDL
MODEL 2
REMARK VINA RESULT:    -6.474      1.093      4.501
REMARK INTER + INTRA:          -6.852
REMARK INTER:                  -6.852
REMARK INTRA:                   0.000
REMARK UNBOUND:                 0.000
REMARK SMILES O=c1ccc2cc(O)c(O)cc2o1
REMARK SMILES IDX 4 1 3 2 2 3 1 4 13 5 12 6 11 7 9 8 7 9 6 10 5 11 8 12 10 14
REMARK H PARENT 8 13 10 15
REMARK Flexibility Score: inf
ROOT
ATOM      1  C   UNL     1      -0.442  56.494  -4.313  1.00  0.00     0.019 A 
ATOM      2  C   UNL     1      -0.249  57.693  -4.999  1.00  0.00     0.094 A 
ATOM      3  C   UNL     1       0.124  57.650  -6.347  1.00  0.00     0.336 A 
ATOM      4  O   UNL     1       0.303  58.720  -6.984  1.00  0.00    -0.246 OA
ATOM      5  O   UNL     1       0.291  56.482  -6.962  1.00  0.00    -0.423 OA
ATOM      6  C   UNL     1       0.116  55.316  -6.345  1.00  0.00     0.142 A 
ATOM      7  C   UNL     1       0.306  54.119  -7.044  1.00  0.00     0.098 A 
ATOM      8  C   UNL     1       0.124  52.889  -6.401  1.00  0.00     0.161 A 
ATOM      9  C   UNL     1      -0.251  52.853  -5.044  1.00  0.00     0.158 A 
ATOM     10  C   UNL     1      -0.442  54.051  -4.340  1.00  0.00     0.062 A 
ATOM     11  C   UNL     1      -0.260  55.282  -4.985  1.00  0.00     0.022 A 
ENDROOT
BRANCH   9  12
ATOM     12  O   UNL     1      -0.432  51.629  -4.404  1.00  0.00    -0.504 OA
ATOM     13  H   UNL     1      -0.773  51.573  -3.451  1.00  0.00     0.293 HD
ENDBRANCH   9  12
BRANCH   8  14
ATOM     14  O   UNL     1       0.321  51.713  -7.124  1.00  0.00    -0.504 OA
ATOM     15  H   UNL     1      -0.008  51.605  -8.076  1.00  0.00     0.293 HD
ENDBRANCH   8  14
TORSDOF 2
ENDMDL
MODEL 3
REMARK VINA RESULT:    -6.192      1.096      2.253
REMARK INTER + INTRA:          -6.554
REMARK INTER:                  -6.554
REMARK INTRA:                   0.000
REMARK UNBOUND:                 0.000
REMARK SMILES O=c1ccc2cc(O)c(O)cc2o1
REMARK SMILES IDX 4 1 3 2 2 3 1 4 13 5 12 6 11 7 9 8 7 9 6 10 5 11 8 12 10 14
REMARK H PARENT 8 13 10 15
REMARK Flexibility Score: inf
ROOT
ATOM      1  C   UNL     1       0.419  54.220  -7.125  1.00  0.00     0.019 A 
ATOM      2  C   UNL     1       0.235  52.967  -6.542  1.00  0.00     0.094 A 
ATOM      3  C   UNL     1      -0.196  52.895  -5.213  1.00  0.00     0.336 A 
ATOM      4  O   UNL     1      -0.368  51.774  -4.668  1.00  0.00    -0.246 OA
ATOM      5  O   UNL     1      -0.427  54.007  -4.519  1.00  0.00    -0.423 OA
ATOM      6  C   UNL     1      -0.265  55.221  -5.037  1.00  0.00     0.142 A 
ATOM      7  C   UNL     1      -0.523  56.354  -4.259  1.00  0.00     0.098 A 
ATOM      8  C   UNL     1      -0.355  57.636  -4.797  1.00  0.00     0.161 A 
ATOM      9  C   UNL     1       0.077  57.787  -6.129  1.00  0.00     0.158 A 
ATOM     10  C   UNL     1       0.337  56.653  -6.913  1.00  0.00     0.062 A 
ATOM     11  C   UNL     1       0.168  55.371  -6.372  1.00  0.00     0.022 A 
ENDROOT
BRANCH   9  12
ATOM     12  O   UNL     1       0.245  59.062  -6.666  1.00  0.00    -0.504 OA
ATOM     13  H   UNL     1       0.415  59.869  -6.076  1.00  0.00     0.293 HD
ENDBRANCH   9  12
BRANCH   8  14
ATOM     14  O   UNL     1      -0.620  58.746  -3.996  1.00  0.00    -0.504 OA
ATOM     15  H   UNL     1      -1.497  58.855  -3.501  1.00  0.00     0.293 HD
ENDBRANCH   8  14
TORSDOF 2
ENDMDL
MODEL 4
REMARK VINA RESULT:    -5.949      1.093      5.033
REMARK INTER + INTRA:          -6.296
REMARK INTER:                  -6.296
REMARK INTRA:                   0.000
REMARK UNBOUND:                 0.000
REMARK SMILES O=c1ccc2cc(O)c(O)cc2o1
REMARK SMILES IDX 4 1 3 2 2 3 1 4 13 5 12 6 11 7 9 8 7 9 6 10 5 11 8 12 10 14
REMARK H PARENT 8 13 10 15
REMARK Flexibility Score: inf
ROOT
ATOM      1  C   UNL     1       0.283  56.446  -6.928  1.00  0.00     0.019 A 
ATOM      2  C   UNL     1       0.091  57.601  -6.172  1.00  0.00     0.094 A 
ATOM      3  C   UNL     1      -0.270  57.477  -4.826  1.00  0.00     0.336 A 
ATOM      4  O   UNL     1      -0.448  58.507  -4.125  1.00  0.00    -0.246 OA
ATOM      5  O   UNL     1      -0.426  56.274  -4.278  1.00  0.00    -0.423 OA
ATOM      6  C   UNL     1      -0.252  55.147  -4.965  1.00  0.00     0.142 A 
ATOM      7  C   UNL     1      -0.430  53.911  -4.336  1.00  0.00     0.098 A 
ATOM      8  C   UNL     1      -0.249  52.721  -5.051  1.00  0.00     0.161 A 
ATOM      9  C   UNL     1       0.114  52.766  -6.411  1.00  0.00     0.158 A 
ATOM     10  C   UNL     1       0.294  54.005  -7.045  1.00  0.00     0.062 A 
ATOM     11  C   UNL     1       0.112  55.195  -6.327  1.00  0.00     0.022 A 
ENDROOT
BRANCH   9  12
ATOM     12  O   UNL     1       0.294  51.583  -7.124  1.00  0.00    -0.504 OA
ATOM     13  H   UNL     1       0.961  50.880  -6.826  1.00  0.00     0.293 HD
ENDBRANCH   9  12
BRANCH   8  14
ATOM     14  O   UNL     1      -0.435  51.504  -4.397  1.00  0.00    -0.504 OA
ATOM     15  H   UNL     1       0.210  50.730  -4.505  1.00  0.00     0.293 HD
ENDBRANCH   8  14
TORSDOF 2
ENDMDL
MODEL 5
REMARK VINA RESULT:    -5.703     11.571     14.108
REMARK INTER + INTRA:          -6.037
REMARK INTER:                  -6.037
REMARK INTRA:                   0.000
REMARK UNBOUND:                 0.000
REMARK SMILES O=c1ccc2cc(O)c(O)cc2o1
REMARK SMILES IDX 4 1 3 2 2 3 1 4 13 5 12 6 11 7 9 8 7 9 6 10 5 11 8 12 10 14
REMARK H PARENT 8 13 10 15
REMARK Flexibility Score: inf
ROOT
ATOM      1  C   UNL     1      -5.124  63.557   4.652  1.00  0.00     0.019 A 
ATOM      2  C   UNL     1      -5.818  64.735   4.922  1.00  0.00     0.094 A 
ATOM      3  C   UNL     1      -7.139  64.860   4.479  1.00  0.00     0.336 A 
ATOM      4  O   UNL     1      -7.784  65.916   4.713  1.00  0.00    -0.246 OA
ATOM      5  O   UNL     1      -7.722  63.868   3.810  1.00  0.00    -0.423 OA
ATOM      6  C   UNL     1      -7.095  62.728   3.531  1.00  0.00     0.142 A 
ATOM      7  C   UNL     1      -7.759  61.720   2.824  1.00  0.00     0.098 A 
ATOM      8  C   UNL     1      -7.106  60.517   2.527  1.00  0.00     0.161 A 
ATOM      9  C   UNL     1      -5.775  60.319   2.941  1.00  0.00     0.158 A 
ATOM     10  C   UNL     1      -5.106  61.327   3.651  1.00  0.00     0.062 A 
ATOM     11  C   UNL     1      -5.761  62.531   3.947  1.00  0.00     0.022 A 
ENDROOT
BRANCH   9  12
ATOM     12  O   UNL     1      -5.125  59.123   2.646  1.00  0.00    -0.504 OA
ATOM     13  H   UNL     1      -4.988  58.813   1.690  1.00  0.00     0.293 HD
ENDBRANCH   9  12
BRANCH   8  14
ATOM     14  O   UNL     1      -7.794  59.532   1.820  1.00  0.00    -0.504 OA
ATOM     15  H   UNL     1      -8.281  58.775   2.286  1.00  0.00     0.293 HD
ENDBRANCH   8  14
TORSDOF 2
ENDMDL
MODEL 6
REMARK VINA RESULT:    -5.679     11.520     14.080
REMARK INTER + INTRA:          -6.011
REMARK INTER:                  -6.011
REMARK INTRA:                   0.000
REMARK UNBOUND:                 0.000
REMARK SMILES O=c1ccc2cc(O)c(O)cc2o1
REMARK SMILES IDX 4 1 3 2 2 3 1 4 13 5 12 6 11 7 9 8 7 9 6 10 5 11 8 12 10 14
REMARK H PARENT 8 13 10 15
REMARK Flexibility Score: inf
ROOT
ATOM      1  C   UNL     1      -7.625  63.981   3.992  1.00  0.00     0.019 A 
ATOM      2  C   UNL     1      -6.886  64.921   4.710  1.00  0.00     0.094 A 
ATOM      3  C   UNL     1      -5.563  64.624   5.052  1.00  0.00     0.336 A 
ATOM      4  O   UNL     1      -4.878  65.458   5.700  1.00  0.00    -0.246 OA
ATOM      5  O   UNL     1      -5.019  63.462   4.696  1.00  0.00    -0.423 OA
ATOM      6  C   UNL     1      -5.689  62.539   4.010  1.00  0.00     0.142 A 
ATOM      7  C   UNL     1      -5.065  61.337   3.664  1.00  0.00     0.098 A 
ATOM      8  C   UNL     1      -5.763  60.360   2.942  1.00  0.00     0.161 A 
ATOM      9  C   UNL     1      -7.100  60.588   2.563  1.00  0.00     0.158 A 
ATOM     10  C   UNL     1      -7.728  61.793   2.908  1.00  0.00     0.062 A 
ATOM     11  C   UNL     1      -7.028  62.770   3.630  1.00  0.00     0.022 A 
ENDROOT
BRANCH   9  12
ATOM     12  O   UNL     1      -7.795  59.617   1.845  1.00  0.00    -0.504 OA
ATOM     13  H   UNL     1      -7.350  59.079   1.110  1.00  0.00     0.293 HD
ENDBRANCH   9  12
BRANCH   8  14
ATOM     14  O   UNL     1      -5.114  59.171   2.612  1.00  0.00    -0.504 OA
ATOM     15  H   UNL     1      -5.536  58.265   2.774  1.00  0.00     0.293 HD
ENDBRANCH   8  14
TORSDOF 2
ENDMDL
MODEL 7
REMARK VINA RESULT:    -5.657     12.095     13.219
REMARK INTER + INTRA:          -5.988
REMARK INTER:                  -5.988
REMARK INTRA:                   0.000
REMARK UNBOUND:                 0.000
REMARK SMILES O=c1ccc2cc(O)c(O)cc2o1
REMARK SMILES IDX 4 1 3 2 2 3 1 4 13 5 12 6 11 7 9 8 7 9 6 10 5 11 8 12 10 14
REMARK H PARENT 8 13 10 15
REMARK Flexibility Score: inf
ROOT
ATOM      1  C   UNL     1       5.396  51.268   7.232  1.00  0.00     0.019 A 
ATOM      2  C   UNL     1       4.644  50.472   8.095  1.00  0.00     0.094 A 
ATOM      3  C   UNL     1       3.268  50.701   8.202  1.00  0.00     0.336 A 
ATOM      4  O   UNL     1       2.571  49.993   8.975  1.00  0.00    -0.246 OA
ATOM      5  O   UNL     1       2.688  51.664   7.489  1.00  0.00    -0.423 OA
ATOM      6  C   UNL     1       3.369  52.445   6.654  1.00  0.00     0.142 A 
ATOM      7  C   UNL     1       2.705  53.442   5.932  1.00  0.00     0.098 A 
ATOM      8  C   UNL     1       3.414  54.267   5.051  1.00  0.00     0.161 A 
ATOM      9  C   UNL     1       4.803  54.097   4.891  1.00  0.00     0.158 A 
ATOM     10  C   UNL     1       5.472  53.098   5.614  1.00  0.00     0.062 A 
ATOM     11  C   UNL     1       4.760  52.272   6.495  1.00  0.00     0.022 A 
ENDROOT
BRANCH   9  12
ATOM     12  O   UNL     1       5.509  54.918   4.015  1.00  0.00    -0.504 OA
ATOM     13  H   UNL     1       5.036  55.566   3.396  1.00  0.00     0.293 HD
ENDBRANCH   9  12
BRANCH   8  14
ATOM     14  O   UNL     1       2.725  55.252   4.345  1.00  0.00    -0.504 OA
ATOM     15  H   UNL     1       3.162  55.793   3.608  1.00  0.00     0.293 HD
ENDBRANCH   8  14
TORSDOF 2
ENDMDL
MODEL 8
REMARK VINA RESULT:    -5.543     12.262     13.703
REMARK INTER + INTRA:          -5.867
REMARK INTER:                  -5.867
REMARK INTRA:                   0.000
REMARK UNBOUND:                 0.000
REMARK SMILES O=c1ccc2cc(O)c(O)cc2o1
REMARK SMILES IDX 4 1 3 2 2 3 1 4 13 5 12 6 11 7 9 8 7 9 6 10 5 11 8 12 10 14
REMARK H PARENT 8 13 10 15
REMARK Flexibility Score: inf
ROOT
ATOM      1  C   UNL     1       3.172  54.160   5.248  1.00  0.00     0.019 A 
ATOM      2  C   UNL     1       4.163  54.685   4.418  1.00  0.00     0.094 A 
ATOM      3  C   UNL     1       5.457  54.157   4.492  1.00  0.00     0.336 A 
ATOM      4  O   UNL     1       6.365  54.617   3.751  1.00  0.00    -0.246 OA
ATOM      5  O   UNL     1       5.735  53.171   5.340  1.00  0.00    -0.423 OA
ATOM      6  C   UNL     1       4.820  52.643   6.149  1.00  0.00     0.142 A 
ATOM      7  C   UNL     1       5.171  51.607   7.021  1.00  0.00     0.098 A 
ATOM      8  C   UNL     1       4.214  51.046   7.874  1.00  0.00     0.161 A 
ATOM      9  C   UNL     1       2.890  51.525   7.857  1.00  0.00     0.158 A 
ATOM     10  C   UNL     1       2.533  52.563   6.984  1.00  0.00     0.062 A 
ATOM     11  C   UNL     1       3.493  53.124   6.129  1.00  0.00     0.022 A 
ENDROOT
BRANCH   9  12
ATOM     12  O   UNL     1       1.936  50.967   8.706  1.00  0.00    -0.504 OA
ATOM     13  H   UNL     1       1.022  50.688   8.368  1.00  0.00     0.293 HD
ENDBRANCH   9  12
BRANCH   8  14
ATOM     14  O   UNL     1       4.595  50.015   8.732  1.00  0.00    -0.504 OA
ATOM     15  H   UNL     1       4.591  49.044   8.442  1.00  0.00     0.293 HD
ENDBRANCH   8  14
TORSDOF 2
ENDMDL
MODEL 9
REMARK VINA RESULT:    -5.514     12.017     14.400
REMARK INTER + INTRA:          -5.837
REMARK INTER:                  -5.837
REMARK INTRA:                   0.000
REMARK UNBOUND:                 0.000
REMARK SMILES O=c1ccc2cc(O)c(O)cc2o1
REMARK SMILES IDX 4 1 3 2 2 3 1 4 13 5 12 6 11 7 9 8 7 9 6 10 5 11 8 12 10 14
REMARK H PARENT 8 13 10 15
REMARK Flexibility Score: inf
ROOT
ATOM      1  C   UNL     1      -7.161  64.557   4.560  1.00  0.00     0.019 A 
ATOM      2  C   UNL     1      -8.482  64.914   4.293  1.00  0.00     0.094 A 
ATOM      3  C   UNL     1      -9.303  64.010   3.610  1.00  0.00     0.336 A 
ATOM      4  O   UNL     1     -10.499  64.313   3.359  1.00  0.00    -0.246 OA
ATOM      5  O   UNL     1      -8.827  62.829   3.222  1.00  0.00    -0.423 OA
ATOM      6  C   UNL     1      -7.574  62.450   3.456  1.00  0.00     0.142 A 
ATOM      7  C   UNL     1      -7.130  61.196   3.024  1.00  0.00     0.098 A 
ATOM      8  C   UNL     1      -5.812  60.790   3.267  1.00  0.00     0.161 A 
ATOM      9  C   UNL     1      -4.927  61.647   3.950  1.00  0.00     0.158 A 
ATOM     10  C   UNL     1      -5.369  62.905   4.385  1.00  0.00     0.062 A 
ATOM     11  C   UNL     1      -6.688  63.310   4.141  1.00  0.00     0.022 A 
ENDROOT
BRANCH   9  12
ATOM     12  O   UNL     1      -3.616  61.243   4.192  1.00  0.00    -0.504 OA
ATOM     13  H   UNL     1      -3.064  60.775   3.483  1.00  0.00     0.293 HD
ENDBRANCH   9  12
BRANCH   8  14
ATOM     14  O   UNL     1      -5.399  59.534   2.824  1.00  0.00    -0.504 OA
ATOM     15  H   UNL     1      -5.013  59.390   1.899  1.00  0.00     0.293 HD
ENDBRANCH   8  14
TORSDOF 2
ENDMDL
