MODEL 1
REMARK VINA RESULT:    -4.964      0.000      0.000
REMARK INTER + INTRA:          -9.537
REMARK INTER:                  -8.737
REMARK INTRA:                  -0.800
REMARK UNBOUND:                -0.800
REMARK SMILES CCCCCCC=CCCCCCCCC(=O)[O-]
REMARK SMILES IDX 10 1 11 2 12 3 13 4 14 5 15 6 16 7 17 8 18 9 9 10 8 11 7 12
REMARK SMILES IDX 6 13 5 14 4 15 3 16 2 17 1 18
REMARK H PARENT
REMARK Flexibility Score: inf
ROOT
ATOM      1  C   UNL     1      11.849  -0.250 -16.724  1.00  0.00     0.004 C 
ENDROOT
BRANCH   1   2
ATOM      2  C   UNL     1      10.385  -0.133 -17.191  1.00  0.00     0.000 C 
BRANCH   2   3
ATOM      3  C   UNL     1      10.230  -0.264 -18.716  1.00  0.00     0.000 C 
BRANCH   3   4
ATOM      4  C   UNL     1       9.891  -1.699 -19.152  1.00  0.00     0.000 C 
BRANCH   4   5
ATOM      5  C   UNL     1      10.577  -2.097 -20.471  1.00  0.00     0.006 C 
BRANCH   5   6
ATOM      6  C   UNL     1       9.768  -3.143 -21.251  1.00  0.00     0.053 C 
BRANCH   6   7
ATOM      7  C   UNL     1       9.993  -3.027 -22.728  1.00  0.00     0.041 C 
ATOM      8  O   UNL     1       9.704  -3.985 -23.491  1.00  0.00    -0.550 OA
ATOM      9  O   UNL     1      10.490  -1.845 -23.265  1.00  0.00    -0.550 OA
ENDBRANCH   6   7
ENDBRANCH   5   6
ENDBRANCH   4   5
ENDBRANCH   3   4
ENDBRANCH   2   3
ENDBRANCH   1   2
BRANCH   1  10
ATOM     10  C   UNL     1      12.476   1.085 -16.284  1.00  0.00     0.027 C 
BRANCH  10  11
ATOM     11  C   UNL     1      12.981   1.906 -17.439  1.00  0.00    -0.031 C 
ATOM     12  C   UNL     1      12.474   1.775 -18.674  1.00  0.00    -0.031 C 
BRANCH  12  13
ATOM     13  C   UNL     1      12.999   2.581 -19.830  1.00  0.00     0.027 C 
BRANCH  13  14
ATOM     14  C   UNL     1      13.265   1.690 -21.052  1.00  0.00     0.004 C 
BRANCH  14  15
ATOM     15  C   UNL     1      12.877   0.222 -20.809  1.00  0.00     0.000 C 
BRANCH  15  16
ATOM     16  C   UNL     1      14.065  -0.741 -20.979  1.00  0.00    -0.000 C 
BRANCH  16  17
ATOM     17  C   UNL     1      14.657  -1.188 -19.634  1.00  0.00    -0.003 C 
ATOM     18  C   UNL     1      13.619  -1.839 -18.720  1.00  0.00     0.004 C 
ENDBRANCH  16  17
ENDBRANCH  15  16
ENDBRANCH  14  15
ENDBRANCH  13  14
ENDBRANCH  12  13
ENDBRANCH  10  11
ENDBRANCH   1  10
TORSDOF 13
ENDMDL
MODEL 2
REMARK VINA RESULT:    -4.519      0.621      2.518
REMARK INTER + INTRA:          -8.753
REMARK INTER:                  -6.975
REMARK INTRA:                  -1.778
REMARK UNBOUND:                -0.800
REMARK SMILES CCCCCCC=CCCCCCCCC(=O)[O-]
REMARK SMILES IDX 10 1 11 2 12 3 13 4 14 5 15 6 16 7 17 8 18 9 9 10 8 11 7 12
REMARK SMILES IDX 6 13 5 14 4 15 3 16 2 17 1 18
REMARK H PARENT
REMARK Flexibility Score: inf
ROOT
ATOM      1  C   UNL     1      11.925  -0.341 -16.800  1.00  0.00     0.004 C 
ENDROOT
BRANCH   1   2
ATOM      2  C   UNL     1      10.451  -0.225 -17.235  1.00  0.00     0.000 C 
BRANCH   2   3
ATOM      3  C   UNL     1      10.275  -0.228 -18.763  1.00  0.00     0.000 C 
BRANCH   3   4
ATOM      4  C   UNL     1       9.775  -1.582 -19.295  1.00  0.00     0.000 C 
BRANCH   4   5
ATOM      5  C   UNL     1      10.576  -2.074 -20.514  1.00  0.00     0.006 C 
BRANCH   5   6
ATOM      6  C   UNL     1       9.828  -3.161 -21.297  1.00  0.00     0.053 C 
BRANCH   6   7
ATOM      7  C   UNL     1       9.967  -2.971 -22.777  1.00  0.00     0.041 C 
ATOM      8  O   UNL     1      10.499  -1.926 -23.235  1.00  0.00    -0.550 OA
ATOM      9  O   UNL     1       9.540  -3.965 -23.648  1.00  0.00    -0.550 OA
ENDBRANCH   6   7
ENDBRANCH   5   6
ENDBRANCH   4   5
ENDBRANCH   3   4
ENDBRANCH   2   3
ENDBRANCH   1   2
BRANCH   1  10
ATOM     10  C   UNL     1      12.508  -1.759 -16.938  1.00  0.00     0.027 C 
BRANCH  10  11
ATOM     11  C   UNL     1      13.231  -1.974 -18.240  1.00  0.00    -0.031 C 
ATOM     12  C   UNL     1      13.750  -0.953 -18.936  1.00  0.00    -0.031 C 
BRANCH  12  13
ATOM     13  C   UNL     1      14.450  -1.170 -20.249  1.00  0.00     0.027 C 
BRANCH  13  14
ATOM     14  C   UNL     1      13.680  -0.512 -21.404  1.00  0.00     0.004 C 
BRANCH  14  15
ATOM     15  C   UNL     1      12.764   0.627 -20.929  1.00  0.00     0.000 C 
BRANCH  15  16
ATOM     16  C   UNL     1      13.429   2.010 -21.046  1.00  0.00    -0.000 C 
BRANCH  16  17
ATOM     17  C   UNL     1      12.862   3.023 -20.039  1.00  0.00    -0.003 C 
ATOM     18  C   UNL     1      12.868   2.494 -18.605  1.00  0.00     0.004 C 
ENDBRANCH  16  17
ENDBRANCH  15  16
ENDBRANCH  14  15
ENDBRANCH  13  14
ENDBRANCH  12  13
ENDBRANCH  10  11
ENDBRANCH   1  10
TORSDOF 13
ENDMDL
MODEL 3
REMARK VINA RESULT:    -4.429      2.471      4.210
REMARK INTER + INTRA:          -8.596
REMARK INTER:                  -7.514
REMARK INTRA:                  -1.082
REMARK UNBOUND:                -0.800
REMARK SMILES CCCCCCC=CCCCCCCCC(=O)[O-]
REMARK SMILES IDX 10 1 11 2 12 3 13 4 14 5 15 6 16 7 17 8 18 9 9 10 8 11 7 12
REMARK SMILES IDX 6 13 5 14 4 15 3 16 2 17 1 18
REMARK H PARENT
REMARK Flexibility Score: inf
ROOT
ATOM      1  C   UNL     1      13.874  -0.892 -20.587  1.00  0.00     0.004 C 
ENDROOT
BRANCH   1   2
ATOM      2  C   UNL     1      13.578  -1.003 -19.079  1.00  0.00     0.000 C 
BRANCH   2   3
ATOM      3  C   UNL     1      12.298  -1.801 -18.777  1.00  0.00     0.000 C 
BRANCH   3   4
ATOM      4  C   UNL     1      11.080  -0.893 -18.543  1.00  0.00     0.000 C 
BRANCH   4   5
ATOM      5  C   UNL     1       9.971  -1.102 -19.590  1.00  0.00     0.006 C 
BRANCH   5   6
ATOM      6  C   UNL     1       9.935  -2.545 -20.114  1.00  0.00     0.053 C 
BRANCH   6   7
ATOM      7  C   UNL     1      10.115  -2.598 -21.600  1.00  0.00     0.041 C 
ATOM      8  O   UNL     1       9.770  -3.623 -22.245  1.00  0.00    -0.550 OA
ATOM      9  O   UNL     1      10.633  -1.501 -22.278  1.00  0.00    -0.550 OA
ENDBRANCH   6   7
ENDBRANCH   5   6
ENDBRANCH   4   5
ENDBRANCH   3   4
ENDBRANCH   2   3
ENDBRANCH   1   2
BRANCH   1  10
ATOM     10  C   UNL     1      13.155   0.278 -21.282  1.00  0.00     0.027 C 
BRANCH  10  11
ATOM     11  C   UNL     1      12.972   1.472 -20.385  1.00  0.00    -0.031 C 
ATOM     12  C   UNL     1      13.291   2.712 -20.786  1.00  0.00    -0.031 C 
BRANCH  12  13
ATOM     13  C   UNL     1      13.128   3.899 -19.878  1.00  0.00     0.027 C 
BRANCH  13  14
ATOM     14  C   UNL     1      13.542   5.198 -20.585  1.00  0.00     0.004 C 
BRANCH  14  15
ATOM     15  C   UNL     1      15.044   5.493 -20.448  1.00  0.00     0.000 C 
BRANCH  15  16
ATOM     16  C   UNL     1      15.641   6.125 -21.718  1.00  0.00    -0.000 C 
BRANCH  16  17
ATOM     17  C   UNL     1      16.811   5.308 -22.288  1.00  0.00    -0.003 C 
ATOM     18  C   UNL     1      16.507   4.728 -23.669  1.00  0.00     0.004 C 
ENDBRANCH  16  17
ENDBRANCH  15  16
ENDBRANCH  14  15
ENDBRANCH  13  14
ENDBRANCH  12  13
ENDBRANCH  10  11
ENDBRANCH   1  10
TORSDOF 13
ENDMDL
MODEL 4
REMARK VINA RESULT:    -4.282      2.194      3.852
REMARK INTER + INTRA:          -8.337
REMARK INTER:                  -7.068
REMARK INTRA:                  -1.269
REMARK UNBOUND:                -0.800
REMARK SMILES CCCCCCC=CCCCCCCCC(=O)[O-]
REMARK SMILES IDX 10 1 11 2 12 3 13 4 14 5 15 6 16 7 17 8 18 9 9 10 8 11 7 12
REMARK SMILES IDX 6 13 5 14 4 15 3 16 2 17 1 18
REMARK H PARENT
REMARK Flexibility Score: inf
ROOT
ATOM      1  C   UNL     1      12.875  -1.288 -17.443  1.00  0.00     0.004 C 
ENDROOT
BRANCH   1   2
ATOM      2  C   UNL     1      12.682  -1.802 -18.883  1.00  0.00     0.000 C 
BRANCH   2   3
ATOM      3  C   UNL     1      13.832  -1.400 -19.822  1.00  0.00     0.000 C 
BRANCH   3   4
ATOM      4  C   UNL     1      13.335  -0.674 -21.084  1.00  0.00     0.000 C 
BRANCH   4   5
ATOM      5  C   UNL     1      11.799  -0.643 -21.186  1.00  0.00     0.006 C 
BRANCH   5   6
ATOM      6  C   UNL     1      11.268  -1.649 -22.216  1.00  0.00     0.053 C 
BRANCH   6   7
ATOM      7  C   UNL     1      10.228  -2.550 -21.624  1.00  0.00     0.041 C 
ATOM      8  O   UNL     1       9.697  -2.266 -20.519  1.00  0.00    -0.550 OA
ATOM      9  O   UNL     1       9.821  -3.687 -22.311  1.00  0.00    -0.550 OA
ENDBRANCH   6   7
ENDBRANCH   5   6
ENDBRANCH   4   5
ENDBRANCH   3   4
ENDBRANCH   2   3
ENDBRANCH   1   2
BRANCH   1  10
ATOM     10  C   UNL     1      11.910  -0.157 -17.047  1.00  0.00     0.027 C 
BRANCH  10  11
ATOM     11  C   UNL     1      12.479   1.215 -17.292  1.00  0.00    -0.031 C 
ATOM     12  C   UNL     1      12.465   1.777 -18.509  1.00  0.00    -0.031 C 
BRANCH  12  13
ATOM     13  C   UNL     1      13.055   3.138 -18.754  1.00  0.00     0.027 C 
BRANCH  13  14
ATOM     14  C   UNL     1      13.183   3.425 -20.257  1.00  0.00     0.004 C 
BRANCH  14  15
ATOM     15  C   UNL     1      13.175   4.929 -20.575  1.00  0.00     0.000 C 
BRANCH  15  16
ATOM     16  C   UNL     1      14.535   5.597 -20.307  1.00  0.00    -0.000 C 
BRANCH  16  17
ATOM     17  C   UNL     1      15.561   5.309 -21.414  1.00  0.00    -0.003 C 
ATOM     18  C   UNL     1      16.945   5.873 -21.096  1.00  0.00     0.004 C 
ENDBRANCH  16  17
ENDBRANCH  15  16
ENDBRANCH  14  15
ENDBRANCH  13  14
ENDBRANCH  12  13
ENDBRANCH  10  11
ENDBRANCH   1  10
TORSDOF 13
ENDMDL
MODEL 5
REMARK VINA RESULT:    -4.081      3.556      5.415
REMARK INTER + INTRA:          -7.982
REMARK INTER:                  -6.835
REMARK INTRA:                  -1.147
REMARK UNBOUND:                -0.800
REMARK SMILES CCCCCCC=CCCCCCCCC(=O)[O-]
REMARK SMILES IDX 10 1 11 2 12 3 13 4 14 5 15 6 16 7 17 8 18 9 9 10 8 11 7 12
REMARK SMILES IDX 6 13 5 14 4 15 3 16 2 17 1 18
REMARK H PARENT
REMARK Flexibility Score: inf
ROOT
ATOM      1  C   UNL     1      13.566  -0.730 -20.578  1.00  0.00     0.004 C 
ENDROOT
BRANCH   1   2
ATOM      2  C   UNL     1      12.515  -1.715 -20.033  1.00  0.00     0.000 C 
BRANCH   2   3
ATOM      3  C   UNL     1      11.129  -1.528 -20.673  1.00  0.00     0.000 C 
BRANCH   3   4
ATOM      4  C   UNL     1      10.060  -1.106 -19.651  1.00  0.00     0.000 C 
BRANCH   4   5
ATOM      5  C   UNL     1      10.614  -1.010 -18.217  1.00  0.00     0.006 C 
BRANCH   5   6
ATOM      6  C   UNL     1      11.020   0.424 -17.849  1.00  0.00     0.053 C 
BRANCH   6   7
ATOM      7  C   UNL     1      12.214   0.446 -16.946  1.00  0.00     0.041 C 
ATOM      8  O   UNL     1      12.430  -0.510 -16.155  1.00  0.00    -0.550 OA
ATOM      9  O   UNL     1      13.109   1.507 -17.003  1.00  0.00    -0.550 OA
ENDBRANCH   6   7
ENDBRANCH   5   6
ENDBRANCH   4   5
ENDBRANCH   3   4
ENDBRANCH   2   3
ENDBRANCH   1   2
BRANCH   1  10
ATOM     10  C   UNL     1      12.967   0.500 -21.282  1.00  0.00     0.027 C 
BRANCH  10  11
ATOM     11  C   UNL     1      12.940   1.724 -20.406  1.00  0.00    -0.031 C 
ATOM     12  C   UNL     1      13.301   2.930 -20.868  1.00  0.00    -0.031 C 
BRANCH  12  13
ATOM     13  C   UNL     1      13.295   4.145 -19.982  1.00  0.00     0.027 C 
BRANCH  13  14
ATOM     14  C   UNL     1      13.711   5.401 -20.763  1.00  0.00     0.004 C 
BRANCH  14  15
ATOM     15  C   UNL     1      15.190   5.763 -20.554  1.00  0.00     0.000 C 
BRANCH  15  16
ATOM     16  C   UNL     1      15.930   6.015 -21.880  1.00  0.00    -0.000 C 
BRANCH  16  17
ATOM     17  C   UNL     1      16.293   4.711 -22.607  1.00  0.00    -0.003 C 
ATOM     18  C   UNL     1      16.790   4.950 -24.033  1.00  0.00     0.004 C 
ENDBRANCH  16  17
ENDBRANCH  15  16
ENDBRANCH  14  15
ENDBRANCH  13  14
ENDBRANCH  12  13
ENDBRANCH  10  11
ENDBRANCH   1  10
TORSDOF 13
ENDMDL
MODEL 6
REMARK VINA RESULT:    -3.861      3.430      5.496
REMARK INTER + INTRA:          -7.596
REMARK INTER:                  -6.692
REMARK INTRA:                  -0.904
REMARK UNBOUND:                -0.800
REMARK SMILES CCCCCCC=CCCCCCCCC(=O)[O-]
REMARK SMILES IDX 10 1 11 2 12 3 13 4 14 5 15 6 16 7 17 8 18 9 9 10 8 11 7 12
REMARK SMILES IDX 6 13 5 14 4 15 3 16 2 17 1 18
REMARK H PARENT
REMARK Flexibility Score: inf
ROOT
ATOM      1  C   UNL     1      12.492  -1.097 -16.422  1.00  0.00     0.004 C 
ENDROOT
BRANCH   1   2
ATOM      2  C   UNL     1      11.697  -0.008 -17.167  1.00  0.00     0.000 C 
BRANCH   2   3
ATOM      3  C   UNL     1      12.408   1.355 -17.174  1.00  0.00     0.000 C 
BRANCH   3   4
ATOM      4  C   UNL     1      12.898   1.757 -18.575  1.00  0.00     0.000 C 
BRANCH   4   5
ATOM      5  C   UNL     1      12.853   3.279 -18.806  1.00  0.00     0.006 C 
BRANCH   5   6
ATOM      6  C   UNL     1      13.148   3.651 -20.266  1.00  0.00     0.053 C 
BRANCH   6   7
ATOM      7  C   UNL     1      13.628   5.065 -20.390  1.00  0.00     0.041 C 
ATOM      8  O   UNL     1      14.856   5.328 -20.299  1.00  0.00    -0.550 OA
ATOM      9  O   UNL     1      12.722   6.087 -20.640  1.00  0.00    -0.550 OA
ENDBRANCH   6   7
ENDBRANCH   5   6
ENDBRANCH   4   5
ENDBRANCH   3   4
ENDBRANCH   2   3
ENDBRANCH   1   2
BRANCH   1  10
ATOM     10  C   UNL     1      13.120  -2.157 -17.344  1.00  0.00     0.027 C 
BRANCH  10  11
ATOM     11  C   UNL     1      13.027  -1.797 -18.802  1.00  0.00    -0.031 C 
ATOM     12  C   UNL     1      14.093  -1.365 -19.492  1.00  0.00    -0.031 C 
BRANCH  12  13
ATOM     13  C   UNL     1      13.989  -0.984 -20.943  1.00  0.00     0.027 C 
BRANCH  13  14
ATOM     14  C   UNL     1      12.725  -0.153 -21.210  1.00  0.00     0.004 C 
BRANCH  14  15
ATOM     15  C   UNL     1      11.576  -0.996 -21.786  1.00  0.00     0.000 C 
BRANCH  15  16
ATOM     16  C   UNL     1      10.576  -1.450 -20.708  1.00  0.00    -0.000 C 
BRANCH  16  17
ATOM     17  C   UNL     1       9.931  -2.804 -21.038  1.00  0.00    -0.003 C 
ATOM     18  C   UNL     1      10.079  -3.185 -22.511  1.00  0.00     0.004 C 
ENDBRANCH  16  17
ENDBRANCH  15  16
ENDBRANCH  14  15
ENDBRANCH  13  14
ENDBRANCH  12  13
ENDBRANCH  10  11
ENDBRANCH   1  10
TORSDOF 13
ENDMDL
MODEL 7
REMARK VINA RESULT:    -3.778      4.461      7.153
REMARK INTER + INTRA:          -7.448
REMARK INTER:                  -6.294
REMARK INTRA:                  -1.154
REMARK UNBOUND:                -0.800
REMARK SMILES CCCCCCC=CCCCCCCCC(=O)[O-]
REMARK SMILES IDX 10 1 11 2 12 3 13 4 14 5 15 6 16 7 17 8 18 9 9 10 8 11 7 12
REMARK SMILES IDX 6 13 5 14 4 15 3 16 2 17 1 18
REMARK H PARENT
REMARK Flexibility Score: inf
ROOT
ATOM      1  C   UNL     1      13.124   3.814 -20.305  1.00  0.00     0.004 C 
ENDROOT
BRANCH   1   2
ATOM      2  C   UNL     1      12.920   5.339 -20.229  1.00  0.00     0.000 C 
BRANCH   2   3
ATOM      3  C   UNL     1      13.969   6.125 -21.034  1.00  0.00     0.000 C 
BRANCH   3   4
ATOM      4  C   UNL     1      15.409   5.763 -20.634  1.00  0.00     0.000 C 
BRANCH   4   5
ATOM      5  C   UNL     1      16.432   6.091 -21.737  1.00  0.00     0.006 C 
BRANCH   5   6
ATOM      6  C   UNL     1      16.147   5.327 -23.036  1.00  0.00     0.053 C 
BRANCH   6   7
ATOM      7  C   UNL     1      17.343   5.304 -23.939  1.00  0.00     0.041 C 
ATOM      8  O   UNL     1      17.215   5.006 -25.155  1.00  0.00    -0.550 OA
ATOM      9  O   UNL     1      18.595   5.647 -23.442  1.00  0.00    -0.550 OA
ENDBRANCH   6   7
ENDBRANCH   5   6
ENDBRANCH   4   5
ENDBRANCH   3   4
ENDBRANCH   2   3
ENDBRANCH   1   2
BRANCH   1  10
ATOM     10  C   UNL     1      13.255   3.130 -18.933  1.00  0.00     0.027 C 
BRANCH  10  11
ATOM     11  C   UNL     1      12.544   1.805 -18.865  1.00  0.00    -0.031 C 
ATOM     12  C   UNL     1      12.323   1.181 -17.699  1.00  0.00    -0.031 C 
BRANCH  12  13
ATOM     13  C   UNL     1      11.633  -0.153 -17.639  1.00  0.00     0.027 C 
BRANCH  13  14
ATOM     14  C   UNL     1      10.329  -0.141 -18.451  1.00  0.00     0.004 C 
BRANCH  14  15
ATOM     15  C   UNL     1      10.143  -1.416 -19.288  1.00  0.00     0.000 C 
BRANCH  15  16
ATOM     16  C   UNL     1      11.428  -1.834 -20.024  1.00  0.00    -0.000 C 
BRANCH  16  17
ATOM     17  C   UNL     1      11.683  -0.995 -21.285  1.00  0.00    -0.003 C 
ATOM     18  C   UNL     1      13.122  -0.487 -21.374  1.00  0.00     0.004 C 
ENDBRANCH  16  17
ENDBRANCH  15  16
ENDBRANCH  14  15
ENDBRANCH  13  14
ENDBRANCH  12  13
ENDBRANCH  10  11
ENDBRANCH   1  10
TORSDOF 13
ENDMDL
MODEL 8
REMARK VINA RESULT:    -3.718      3.725      6.216
REMARK INTER + INTRA:          -7.343
REMARK INTER:                  -6.034
REMARK INTRA:                  -1.309
REMARK UNBOUND:                -0.800
REMARK SMILES CCCCCCC=CCCCCCCCC(=O)[O-]
REMARK SMILES IDX 10 1 11 2 12 3 13 4 14 5 15 6 16 7 17 8 18 9 9 10 8 11 7 12
REMARK SMILES IDX 6 13 5 14 4 15 3 16 2 17 1 18
REMARK H PARENT
REMARK Flexibility Score: inf
ROOT
ATOM      1  C   UNL     1      13.268   2.139 -17.813  1.00  0.00     0.004 C 
ENDROOT
BRANCH   1   2
ATOM      2  C   UNL     1      12.452   2.629 -19.024  1.00  0.00     0.000 C 
BRANCH   2   3
ATOM      3  C   UNL     1      13.335   3.143 -20.174  1.00  0.00     0.000 C 
BRANCH   3   4
ATOM      4  C   UNL     1      13.331   4.678 -20.278  1.00  0.00     0.000 C 
BRANCH   4   5
ATOM      5  C   UNL     1      14.749   5.278 -20.271  1.00  0.00     0.006 C 
BRANCH   5   6
ATOM      6  C   UNL     1      15.095   5.959 -21.602  1.00  0.00     0.053 C 
BRANCH   6   7
ATOM      7  C   UNL     1      16.362   5.415 -22.189  1.00  0.00     0.041 C 
ATOM      8  O   UNL     1      17.472   5.922 -21.882  1.00  0.00    -0.550 OA
ATOM      9  O   UNL     1      16.317   4.325 -23.049  1.00  0.00    -0.550 OA
ENDBRANCH   6   7
ENDBRANCH   5   6
ENDBRANCH   4   5
ENDBRANCH   3   4
ENDBRANCH   2   3
ENDBRANCH   1   2
BRANCH   1  10
ATOM     10  C   UNL     1      12.443   1.357 -16.775  1.00  0.00     0.027 C 
BRANCH  10  11
ATOM     11  C   UNL     1      11.901   0.060 -17.312  1.00  0.00    -0.031 C 
ATOM     12  C   UNL     1      10.799   0.017 -18.075  1.00  0.00    -0.031 C 
BRANCH  12  13
ATOM     13  C   UNL     1      10.248  -1.284 -18.590  1.00  0.00     0.027 C 
BRANCH  13  14
ATOM     14  C   UNL     1      10.225  -1.307 -20.126  1.00  0.00     0.004 C 
BRANCH  14  15
ATOM     15  C   UNL     1      11.552  -1.795 -20.729  1.00  0.00     0.000 C 
BRANCH  15  16
ATOM     16  C   UNL     1      12.419  -0.641 -21.262  1.00  0.00    -0.000 C 
BRANCH  16  17
ATOM     17  C   UNL     1      13.852  -0.678 -20.710  1.00  0.00    -0.003 C 
ATOM     18  C   UNL     1      13.962  -1.473 -19.409  1.00  0.00     0.004 C 
ENDBRANCH  16  17
ENDBRANCH  15  16
ENDBRANCH  14  15
ENDBRANCH  13  14
ENDBRANCH  12  13
ENDBRANCH  10  11
ENDBRANCH   1  10
TORSDOF 13
ENDMDL
MODEL 9
REMARK VINA RESULT:    -3.568      3.218      4.562
REMARK INTER + INTRA:          -7.079
REMARK INTER:                  -6.526
REMARK INTRA:                  -0.553
REMARK UNBOUND:                -0.800
REMARK SMILES CCCCCCC=CCCCCCCCC(=O)[O-]
REMARK SMILES IDX 10 1 11 2 12 3 13 4 14 5 15 6 16 7 17 8 18 9 9 10 8 11 7 12
REMARK SMILES IDX 6 13 5 14 4 15 3 16 2 17 1 18
REMARK H PARENT
REMARK Flexibility Score: inf
ROOT
ATOM      1  C   UNL     1      12.880   1.605 -17.926  1.00  0.00     0.004 C 
ENDROOT
BRANCH   1   2
ATOM      2  C   UNL     1      11.692   0.722 -17.498  1.00  0.00     0.000 C 
BRANCH   2   3
ATOM      3  C   UNL     1      12.066  -0.765 -17.371  1.00  0.00     0.000 C 
BRANCH   3   4
ATOM      4  C   UNL     1      13.211  -1.167 -18.316  1.00  0.00     0.000 C 
BRANCH   4   5
ATOM      5  C   UNL     1      12.706  -1.735 -19.654  1.00  0.00     0.006 C 
BRANCH   5   6
ATOM      6  C   UNL     1      11.177  -1.681 -19.766  1.00  0.00     0.053 C 
BRANCH   6   7
ATOM      7  C   UNL     1      10.716  -1.900 -21.174  1.00  0.00     0.041 C 
ATOM      8  O   UNL     1      10.015  -2.905 -21.464  1.00  0.00    -0.550 OA
ATOM      9  O   UNL     1      11.034  -0.975 -22.161  1.00  0.00    -0.550 OA
ENDBRANCH   6   7
ENDBRANCH   5   6
ENDBRANCH   4   5
ENDBRANCH   3   4
ENDBRANCH   2   3
ENDBRANCH   1   2
BRANCH   1  10
ATOM     10  C   UNL     1      12.812   2.083 -19.387  1.00  0.00     0.027 C 
BRANCH  10  11
ATOM     11  C   UNL     1      12.895   3.579 -19.521  1.00  0.00    -0.031 C 
ATOM     12  C   UNL     1      13.674   4.163 -20.443  1.00  0.00    -0.031 C 
BRANCH  12  13
ATOM     13  C   UNL     1      13.772   5.659 -20.558  1.00  0.00     0.027 C 
BRANCH  13  14
ATOM     14  C   UNL     1      15.237   6.120 -20.561  1.00  0.00     0.004 C 
BRANCH  14  15
ATOM     15  C   UNL     1      16.074   5.422 -21.645  1.00  0.00     0.000 C 
BRANCH  15  16
ATOM     16  C   UNL     1      17.498   5.994 -21.754  1.00  0.00    -0.000 C 
BRANCH  16  17
ATOM     17  C   UNL     1      18.124   5.755 -23.137  1.00  0.00    -0.003 C 
ATOM     18  C   UNL     1      17.085   5.401 -24.201  1.00  0.00     0.004 C 
ENDBRANCH  16  17
ENDBRANCH  15  16
ENDBRANCH  14  15
ENDBRANCH  13  14
ENDBRANCH  12  13
ENDBRANCH  10  11
ENDBRANCH   1  10
TORSDOF 13
ENDMDL
