MODEL 1
REMARK VINA RESULT:    -3.245      0.000      0.000
REMARK INTER + INTRA:          -3.858
REMARK INTER:                  -3.814
REMARK INTRA:                  -0.044
REMARK UNBOUND:                -0.044
REMARK SMILES CCCCC(=O)[O-]
REMARK SMILES IDX 4 1 5 2 6 3 7 4 3 5 2 6 1 7
REMARK H PARENT
REMARK Flexibility Score: inf
ROOT
ATOM      1  C   UNL     1       6.825 -15.128  24.147  1.00  0.00     0.053 C 
ENDROOT
BRANCH   1   2
ATOM      2  C   UNL     1       8.107 -14.785  24.840  1.00  0.00     0.041 C 
ATOM      3  O   UNL     1       9.075 -14.318  24.186  1.00  0.00    -0.550 OA
ATOM      4  O   UNL     1       8.248 -15.028  26.201  1.00  0.00    -0.550 OA
ENDBRANCH   1   2
BRANCH   1   5
ATOM      5  C   UNL     1       6.984 -14.984  22.628  1.00  0.00     0.006 C 
BRANCH   5   6
ATOM      6  C   UNL     1       5.984 -13.987  22.023  1.00  0.00    -0.003 C 
ATOM      7  C   UNL     1       5.904 -14.082  20.499  1.00  0.00     0.004 C 
ENDBRANCH   5   6
ENDBRANCH   1   5
TORSDOF 3
ENDMDL
MODEL 2
REMARK VINA RESULT:    -3.203      0.842      1.442
REMARK INTER + INTRA:          -3.809
REMARK INTER:                  -3.746
REMARK INTRA:                  -0.063
REMARK UNBOUND:                -0.044
REMARK SMILES CCCCC(=O)[O-]
REMARK SMILES IDX 4 1 5 2 6 3 7 4 3 5 2 6 1 7
REMARK H PARENT
REMARK Flexibility Score: inf
ROOT
ATOM      1  C   UNL     1       7.884 -15.423  23.302  1.00  0.00     0.053 C 
ENDROOT
BRANCH   1   2
ATOM      2  C   UNL     1       8.703 -14.692  24.319  1.00  0.00     0.041 C 
ATOM      3  O   UNL     1       8.231 -14.455  25.462  1.00  0.00    -0.550 OA
ATOM      4  O   UNL     1       9.971 -14.228  23.989  1.00  0.00    -0.550 OA
ENDBRANCH   1   2
BRANCH   1   5
ATOM      5  C   UNL     1       6.459 -14.855  23.255  1.00  0.00     0.006 C 
BRANCH   5   6
ATOM      6  C   UNL     1       6.334 -13.656  22.303  1.00  0.00    -0.003 C 
ATOM      7  C   UNL     1       5.920 -14.065  20.890  1.00  0.00     0.004 C 
ENDBRANCH   5   6
ENDBRANCH   1   5
TORSDOF 3
ENDMDL
MODEL 3
REMARK VINA RESULT:    -3.198      1.500      2.055
REMARK INTER + INTRA:          -3.803
REMARK INTER:                  -3.769
REMARK INTRA:                  -0.034
REMARK UNBOUND:                -0.044
REMARK SMILES CCCCC(=O)[O-]
REMARK SMILES IDX 4 1 5 2 6 3 7 4 3 5 2 6 1 7
REMARK H PARENT
REMARK Flexibility Score: inf
ROOT
ATOM      1  C   UNL     1       6.902 -15.145  22.523  1.00  0.00     0.053 C 
ENDROOT
BRANCH   1   2
ATOM      2  C   UNL     1       6.652 -15.412  23.974  1.00  0.00     0.041 C 
ATOM      3  O   UNL     1       5.619 -16.033  24.336  1.00  0.00    -0.550 OA
ATOM      4  O   UNL     1       7.537 -14.931  24.932  1.00  0.00    -0.550 OA
ENDBRANCH   1   2
BRANCH   1   5
ATOM      5  C   UNL     1       6.020 -13.988  22.033  1.00  0.00     0.006 C 
BRANCH   5   6
ATOM      6  C   UNL     1       5.825 -14.001  20.509  1.00  0.00    -0.003 C 
ATOM      7  C   UNL     1       6.708 -15.034  19.809  1.00  0.00     0.004 C 
ENDBRANCH   5   6
ENDBRANCH   1   5
TORSDOF 3
ENDMDL
MODEL 4
REMARK VINA RESULT:    -3.065      1.772      2.463
REMARK INTER + INTRA:          -3.647
REMARK INTER:                  -3.599
REMARK INTRA:                  -0.048
REMARK UNBOUND:                -0.044
REMARK SMILES CCCCC(=O)[O-]
REMARK SMILES IDX 4 1 5 2 6 3 7 4 3 5 2 6 1 7
REMARK H PARENT
REMARK Flexibility Score: inf
ROOT
ATOM      1  C   UNL     1       6.736 -16.943  24.445  1.00  0.00     0.053 C 
ENDROOT
BRANCH   1   2
ATOM      2  C   UNL     1       7.167 -16.927  25.878  1.00  0.00     0.041 C 
ATOM      3  O   UNL     1       7.040 -17.957  26.590  1.00  0.00    -0.550 OA
ATOM      4  O   UNL     1       7.664 -15.758  26.442  1.00  0.00    -0.550 OA
ENDBRANCH   1   2
BRANCH   1   5
ATOM      5  C   UNL     1       6.043 -15.624  24.080  1.00  0.00     0.006 C 
BRANCH   5   6
ATOM      6  C   UNL     1       6.852 -14.793  23.073  1.00  0.00    -0.003 C 
ATOM      7  C   UNL     1       5.965 -14.044  22.079  1.00  0.00     0.004 C 
ENDBRANCH   5   6
ENDBRANCH   1   5
TORSDOF 3
ENDMDL
MODEL 5
REMARK VINA RESULT:    -2.980      2.956      4.169
REMARK INTER + INTRA:          -3.546
REMARK INTER:                  -3.460
REMARK INTRA:                  -0.086
REMARK UNBOUND:                -0.044
REMARK SMILES CCCCC(=O)[O-]
REMARK SMILES IDX 4 1 5 2 6 3 7 4 3 5 2 6 1 7
REMARK H PARENT
REMARK Flexibility Score: inf
ROOT
ATOM      1  C   UNL     1       5.821 -13.995  21.992  1.00  0.00     0.053 C 
ENDROOT
BRANCH   1   2
ATOM      2  C   UNL     1       6.292 -14.366  20.621  1.00  0.00     0.041 C 
ATOM      3  O   UNL     1       5.976 -13.660  19.628  1.00  0.00    -0.550 OA
ATOM      4  O   UNL     1       7.042 -15.520  20.432  1.00  0.00    -0.550 OA
ENDBRANCH   1   2
BRANCH   1   5
ATOM      5  C   UNL     1       6.758 -14.580  23.056  1.00  0.00     0.006 C 
BRANCH   5   6
ATOM      6  C   UNL     1       6.040 -15.557  24.000  1.00  0.00    -0.003 C 
ATOM      7  C   UNL     1       6.646 -16.960  23.971  1.00  0.00     0.004 C 
ENDBRANCH   5   6
ENDBRANCH   1   5
TORSDOF 3
ENDMDL
MODEL 6
REMARK VINA RESULT:    -2.973      1.779      2.917
REMARK INTER + INTRA:          -3.538
REMARK INTER:                  -3.408
REMARK INTRA:                  -0.131
REMARK UNBOUND:                -0.044
REMARK SMILES CCCCC(=O)[O-]
REMARK SMILES IDX 4 1 5 2 6 3 7 4 3 5 2 6 1 7
REMARK H PARENT
REMARK Flexibility Score: inf
ROOT
ATOM      1  C   UNL     1       7.070 -14.779  24.001  1.00  0.00     0.053 C 
ENDROOT
BRANCH   1   2
ATOM      2  C   UNL     1       8.289 -14.643  24.858  1.00  0.00     0.041 C 
ATOM      3  O   UNL     1       9.385 -14.289  24.351  1.00  0.00    -0.550 OA
ATOM      4  O   UNL     1       8.226 -14.954  26.211  1.00  0.00    -0.550 OA
ENDBRANCH   1   2
BRANCH   1   5
ATOM      5  C   UNL     1       6.272 -16.026  24.401  1.00  0.00     0.006 C 
BRANCH   5   6
ATOM      6  C   UNL     1       6.874 -17.320  23.831  1.00  0.00    -0.003 C 
ATOM      7  C   UNL     1       7.336 -18.286  24.922  1.00  0.00     0.004 C 
ENDBRANCH   5   6
ENDBRANCH   1   5
TORSDOF 3
ENDMDL
MODEL 7
REMARK VINA RESULT:    -2.856      1.440      1.929
REMARK INTER + INTRA:          -3.400
REMARK INTER:                  -3.358
REMARK INTRA:                  -0.043
REMARK UNBOUND:                -0.044
REMARK SMILES CCCCC(=O)[O-]
REMARK SMILES IDX 4 1 5 2 6 3 7 4 3 5 2 6 1 7
REMARK H PARENT
REMARK Flexibility Score: inf
ROOT
ATOM      1  C   UNL     1       9.005 -14.996  24.509  1.00  0.00     0.053 C 
ENDROOT
BRANCH   1   2
ATOM      2  C   UNL     1       9.003 -15.615  25.871  1.00  0.00     0.041 C 
ATOM      3  O   UNL     1      10.041 -16.170  26.318  1.00  0.00    -0.550 OA
ATOM      4  O   UNL     1       7.839 -15.623  26.630  1.00  0.00    -0.550 OA
ENDBRANCH   1   2
BRANCH   1   5
ATOM      5  C   UNL     1       7.623 -14.414  24.184  1.00  0.00     0.006 C 
BRANCH   5   6
ATOM      6  C   UNL     1       6.979 -15.074  22.956  1.00  0.00    -0.003 C 
ATOM      7  C   UNL     1       6.108 -14.107  22.154  1.00  0.00     0.004 C 
ENDBRANCH   5   6
ENDBRANCH   1   5
TORSDOF 3
ENDMDL
MODEL 8
REMARK VINA RESULT:    -2.854      3.107      3.844
REMARK INTER + INTRA:          -3.398
REMARK INTER:                  -3.283
REMARK INTRA:                  -0.116
REMARK UNBOUND:                -0.044
REMARK SMILES CCCCC(=O)[O-]
REMARK SMILES IDX 4 1 5 2 6 3 7 4 3 5 2 6 1 7
REMARK H PARENT
REMARK Flexibility Score: inf
ROOT
ATOM      1  C   UNL     1       7.224 -16.377  25.925  1.00  0.00     0.053 C 
ENDROOT
BRANCH   1   2
ATOM      2  C   UNL     1       6.536 -16.462  24.598  1.00  0.00     0.041 C 
ATOM      3  O   UNL     1       6.624 -17.509  23.905  1.00  0.00    -0.550 OA
ATOM      4  O   UNL     1       5.839 -15.366  24.104  1.00  0.00    -0.550 OA
ENDBRANCH   1   2
BRANCH   1   5
ATOM      5  C   UNL     1       8.260 -15.245  25.918  1.00  0.00     0.006 C 
BRANCH   5   6
ATOM      6  C   UNL     1       9.540 -15.624  25.157  1.00  0.00    -0.003 C 
ATOM      7  C   UNL     1       9.900 -14.614  24.068  1.00  0.00     0.004 C 
ENDBRANCH   5   6
ENDBRANCH   1   5
TORSDOF 3
ENDMDL
MODEL 9
REMARK VINA RESULT:    -2.786      2.709      3.586
REMARK INTER + INTRA:          -3.318
REMARK INTER:                  -3.249
REMARK INTRA:                  -0.069
REMARK UNBOUND:                -0.044
REMARK SMILES CCCCC(=O)[O-]
REMARK SMILES IDX 4 1 5 2 6 3 7 4 3 5 2 6 1 7
REMARK H PARENT
REMARK Flexibility Score: inf
ROOT
ATOM      1  C   UNL     1       5.955 -16.274  24.375  1.00  0.00     0.053 C 
ENDROOT
BRANCH   1   2
ATOM      2  C   UNL     1       6.667 -15.054  23.880  1.00  0.00     0.041 C 
ATOM      3  O   UNL     1       7.627 -14.570  24.535  1.00  0.00    -0.550 OA
ATOM      4  O   UNL     1       6.238 -14.422  22.720  1.00  0.00    -0.550 OA
ENDBRANCH   1   2
BRANCH   1   5
ATOM      5  C   UNL     1       6.916 -17.469  24.426  1.00  0.00     0.006 C 
BRANCH   5   6
ATOM      6  C   UNL     1       7.145 -18.100  23.044  1.00  0.00    -0.003 C 
ATOM      7  C   UNL     1       6.781 -19.584  23.005  1.00  0.00     0.004 C 
ENDBRANCH   5   6
ENDBRANCH   1   5
TORSDOF 3
ENDMDL
