MODEL 1
REMARK VINA RESULT:    -2.463      0.000      0.000
REMARK INTER + INTRA:          -5.982
REMARK INTER:                  -4.478
REMARK INTRA:                  -1.504
REMARK UNBOUND:                -1.504
REMARK SMILES CCCCCCCCCCCCCCCC(=O)[O-]
REMARK SMILES IDX 9 1 10 2 11 3 12 4 13 5 14 6 15 7 16 8 17 9 18 10 8 11 7 12
REMARK SMILES IDX 6 13 5 14 4 15 3 16 2 17 1 18
REMARK H PARENT
REMARK Flexibility Score: inf
ROOT
ATOM      1  C   UNL     1      -4.595  -7.235   3.118  1.00  0.00     0.000 C 
ENDROOT
BRANCH   1   2
ATOM      2  C   UNL     1      -3.778  -8.371   3.753  1.00  0.00     0.000 C 
BRANCH   2   3
ATOM      3  C   UNL     1      -3.055  -9.234   2.708  1.00  0.00     0.000 C 
BRANCH   3   4
ATOM      4  C   UNL     1      -2.407 -10.489   3.321  1.00  0.00     0.000 C 
BRANCH   4   5
ATOM      5  C   UNL     1      -0.919 -10.285   3.647  1.00  0.00     0.000 C 
BRANCH   5   6
ATOM      6  C   UNL     1      -0.439  -8.857   3.350  1.00  0.00     0.006 C 
BRANCH   6   7
ATOM      7  C   UNL     1      -0.092  -8.115   4.645  1.00  0.00     0.053 C 
BRANCH   7   8
ATOM      8  C   UNL     1       0.132  -6.662   4.373  1.00  0.00     0.041 C 
ATOM      9  O   UNL     1      -0.377  -5.790   5.125  1.00  0.00    -0.550 OA
ATOM     10  O   UNL     1       0.860  -6.268   3.258  1.00  0.00    -0.550 OA
ENDBRANCH   7   8
ENDBRANCH   6   7
ENDBRANCH   5   6
ENDBRANCH   4   5
ENDBRANCH   3   4
ENDBRANCH   2   3
ENDBRANCH   1   2
BRANCH   1  11
ATOM     11  C   UNL     1      -5.906  -7.011   3.880  1.00  0.00     0.000 C 
BRANCH  11  12
ATOM     12  C   UNL     1      -6.950  -8.073   3.502  1.00  0.00    -0.000 C 
BRANCH  12  13
ATOM     13  C   UNL     1      -6.751  -9.393   4.265  1.00  0.00    -0.000 C 
BRANCH  13  14
ATOM     14  C   UNL     1      -7.022 -10.629   3.387  1.00  0.00    -0.000 C 
BRANCH  14  15
ATOM     15  C   UNL     1      -7.123 -10.280   1.893  1.00  0.00    -0.000 C 
BRANCH  15  16
ATOM     16  C   UNL     1      -5.896 -10.744   1.094  1.00  0.00    -0.000 C 
BRANCH  16  17
ATOM     17  C   UNL     1      -5.589  -9.771  -0.050  1.00  0.00    -0.003 C 
ATOM     18  C   UNL     1      -6.813  -8.933  -0.407  1.00  0.00     0.004 C 
ENDBRANCH  16  17
ENDBRANCH  15  16
ENDBRANCH  14  15
ENDBRANCH  13  14
ENDBRANCH  12  13
ENDBRANCH  11  12
ENDBRANCH   1  11
TORSDOF 14
ENDMDL
MODEL 2
REMARK VINA RESULT:    -2.355      0.857      1.893
REMARK INTER + INTRA:          -5.787
REMARK INTER:                  -4.208
REMARK INTRA:                  -1.579
REMARK UNBOUND:                -1.504
REMARK SMILES CCCCCCCCCCCCCCCC(=O)[O-]
REMARK SMILES IDX 9 1 10 2 11 3 12 4 13 5 14 6 15 7 16 8 17 9 18 10 8 11 7 12
REMARK SMILES IDX 6 13 5 14 4 15 3 16 2 17 1 18
REMARK H PARENT
REMARK Flexibility Score: inf
ROOT
ATOM      1  C   UNL     1      -3.162  -9.214   2.697  1.00  0.00     0.000 C 
ENDROOT
BRANCH   1   2
ATOM      2  C   UNL     1      -2.396 -10.545   2.737  1.00  0.00     0.000 C 
BRANCH   2   3
ATOM      3  C   UNL     1      -0.882 -10.350   2.916  1.00  0.00     0.000 C 
BRANCH   3   4
ATOM      4  C   UNL     1      -0.344 -11.026   4.189  1.00  0.00     0.000 C 
BRANCH   4   5
ATOM      5  C   UNL     1       0.380 -10.040   5.120  1.00  0.00     0.000 C 
BRANCH   5   6
ATOM      6  C   UNL     1      -0.268  -8.648   5.125  1.00  0.00     0.006 C 
BRANCH   6   7
ATOM      7  C   UNL     1       0.798  -7.548   5.115  1.00  0.00     0.053 C 
BRANCH   7   8
ATOM      8  C   UNL     1       0.366  -6.406   4.251  1.00  0.00     0.041 C 
ATOM      9  O   UNL     1       0.871  -6.250   3.108  1.00  0.00    -0.550 OA
ATOM     10  O   UNL     1      -0.558  -5.485   4.727  1.00  0.00    -0.550 OA
ENDBRANCH   7   8
ENDBRANCH   6   7
ENDBRANCH   5   6
ENDBRANCH   4   5
ENDBRANCH   3   4
ENDBRANCH   2   3
ENDBRANCH   1   2
BRANCH   1  11
ATOM     11  C   UNL     1      -3.891  -8.962   4.023  1.00  0.00     0.000 C 
BRANCH  11  12
ATOM     12  C   UNL     1      -4.765  -7.700   3.938  1.00  0.00    -0.000 C 
BRANCH  12  13
ATOM     13  C   UNL     1      -6.268  -8.023   3.936  1.00  0.00    -0.000 C 
BRANCH  13  14
ATOM     14  C   UNL     1      -6.547  -9.537   3.961  1.00  0.00    -0.000 C 
BRANCH  14  15
ATOM     15  C   UNL     1      -7.111 -10.055   2.628  1.00  0.00    -0.000 C 
BRANCH  15  16
ATOM     16  C   UNL     1      -6.037 -10.702   1.743  1.00  0.00    -0.000 C 
BRANCH  16  17
ATOM     17  C   UNL     1      -6.161 -10.223   0.292  1.00  0.00    -0.003 C 
ATOM     18  C   UNL     1      -5.729  -8.766   0.152  1.00  0.00     0.004 C 
ENDBRANCH  16  17
ENDBRANCH  15  16
ENDBRANCH  14  15
ENDBRANCH  13  14
ENDBRANCH  12  13
ENDBRANCH  11  12
ENDBRANCH   1  11
TORSDOF 14
ENDMDL
MODEL 3
REMARK VINA RESULT:    -2.338      2.326      4.201
REMARK INTER + INTRA:          -5.755
REMARK INTER:                  -3.993
REMARK INTRA:                  -1.762
REMARK UNBOUND:                -1.504
REMARK SMILES CCCCCCCCCCCCCCCC(=O)[O-]
REMARK SMILES IDX 9 1 10 2 11 3 12 4 13 5 14 6 15 7 16 8 17 9 18 10 8 11 7 12
REMARK SMILES IDX 6 13 5 14 4 15 3 16 2 17 1 18
REMARK H PARENT
REMARK Flexibility Score: inf
ROOT
ATOM      1  C   UNL     1      -0.573  -9.914   2.735  1.00  0.00     0.000 C 
ENDROOT
BRANCH   1   2
ATOM      2  C   UNL     1      -0.492  -9.407   4.183  1.00  0.00     0.000 C 
BRANCH   2   3
ATOM      3  C   UNL     1      -0.248  -7.892   4.266  1.00  0.00     0.000 C 
BRANCH   3   4
ATOM      4  C   UNL     1      -1.356  -7.155   5.039  1.00  0.00     0.000 C 
BRANCH   4   5
ATOM      5  C   UNL     1      -2.705  -7.889   4.981  1.00  0.00     0.000 C 
BRANCH   5   6
ATOM      6  C   UNL     1      -3.644  -7.314   3.910  1.00  0.00     0.006 C 
BRANCH   6   7
ATOM      7  C   UNL     1      -5.106  -7.398   4.361  1.00  0.00     0.053 C 
BRANCH   7   8
ATOM      8  C   UNL     1      -5.867  -6.197   3.896  1.00  0.00     0.041 C 
ATOM      9  O   UNL     1      -7.125  -6.222   3.850  1.00  0.00    -0.550 OA
ATOM     10  O   UNL     1      -5.186  -5.067   3.464  1.00  0.00    -0.550 OA
ENDBRANCH   7   8
ENDBRANCH   6   7
ENDBRANCH   5   6
ENDBRANCH   4   5
ENDBRANCH   3   4
ENDBRANCH   2   3
ENDBRANCH   1   2
BRANCH   1  11
ATOM     11  C   UNL     1      -1.508 -11.125   2.630  1.00  0.00     0.000 C 
BRANCH  11  12
ATOM     12  C   UNL     1      -2.978 -10.681   2.563  1.00  0.00    -0.000 C 
BRANCH  12  13
ATOM     13  C   UNL     1      -3.715 -10.879   3.897  1.00  0.00    -0.000 C 
BRANCH  13  14
ATOM     14  C   UNL     1      -5.223 -11.125   3.707  1.00  0.00    -0.000 C 
BRANCH  14  15
ATOM     15  C   UNL     1      -5.661 -10.994   2.239  1.00  0.00    -0.000 C 
BRANCH  15  16
ATOM     16  C   UNL     1      -6.415  -9.685   1.962  1.00  0.00    -0.000 C 
BRANCH  16  17
ATOM     17  C   UNL     1      -5.642  -8.808   0.970  1.00  0.00    -0.003 C 
ATOM     18  C   UNL     1      -6.310  -8.806  -0.402  1.00  0.00     0.004 C 
ENDBRANCH  16  17
ENDBRANCH  15  16
ENDBRANCH  14  15
ENDBRANCH  13  14
ENDBRANCH  12  13
ENDBRANCH  11  12
ENDBRANCH   1  11
TORSDOF 14
ENDMDL
MODEL 4
REMARK VINA RESULT:    -2.215      1.422      3.139
REMARK INTER + INTRA:          -5.531
REMARK INTER:                  -4.362
REMARK INTRA:                  -1.169
REMARK UNBOUND:                -1.504
REMARK SMILES CCCCCCCCCCCCCCCC(=O)[O-]
REMARK SMILES IDX 9 1 10 2 11 3 12 4 13 5 14 6 15 7 16 8 17 9 18 10 8 11 7 12
REMARK SMILES IDX 6 13 5 14 4 15 3 16 2 17 1 18
REMARK H PARENT
REMARK Flexibility Score: inf
ROOT
ATOM      1  C   UNL     1      -3.779  -9.959   3.388  1.00  0.00     0.000 C 
ENDROOT
BRANCH   1   2
ATOM      2  C   UNL     1      -2.836 -10.983   2.737  1.00  0.00     0.000 C 
BRANCH   2   3
ATOM      3  C   UNL     1      -1.354 -10.650   2.967  1.00  0.00     0.000 C 
BRANCH   3   4
ATOM      4  C   UNL     1      -0.961 -10.694   4.455  1.00  0.00     0.000 C 
BRANCH   4   5
ATOM      5  C   UNL     1      -1.033  -9.312   5.125  1.00  0.00     0.000 C 
BRANCH   5   6
ATOM      6  C   UNL     1      -0.797  -8.162   4.135  1.00  0.00     0.006 C 
BRANCH   6   7
ATOM      7  C   UNL     1      -1.291  -6.832   4.712  1.00  0.00     0.053 C 
BRANCH   7   8
ATOM      8  C   UNL     1      -0.246  -5.773   4.557  1.00  0.00     0.041 C 
ATOM      9  O   UNL     1      -0.421  -4.631   5.056  1.00  0.00    -0.550 OA
ATOM     10  O   UNL     1       0.901  -6.032   3.817  1.00  0.00    -0.550 OA
ENDBRANCH   7   8
ENDBRANCH   6   7
ENDBRANCH   5   6
ENDBRANCH   4   5
ENDBRANCH   3   4
ENDBRANCH   2   3
ENDBRANCH   1   2
BRANCH   1  11
ATOM     11  C   UNL     1      -4.107  -8.820   2.415  1.00  0.00     0.000 C 
BRANCH  11  12
ATOM     12  C   UNL     1      -5.349  -9.155   1.574  1.00  0.00    -0.000 C 
BRANCH  12  13
ATOM     13  C   UNL     1      -6.569  -8.301   1.959  1.00  0.00    -0.000 C 
BRANCH  13  14
ATOM     14  C   UNL     1      -7.102  -8.633   3.364  1.00  0.00    -0.000 C 
BRANCH  14  15
ATOM     15  C   UNL     1      -6.618  -7.635   4.429  1.00  0.00    -0.000 C 
BRANCH  15  16
ATOM     16  C   UNL     1      -6.610  -6.187   3.920  1.00  0.00    -0.000 C 
BRANCH  16  17
ATOM     17  C   UNL     1      -5.177  -5.654   3.808  1.00  0.00    -0.003 C 
ATOM     18  C   UNL     1      -5.167  -4.167   3.463  1.00  0.00     0.004 C 
ENDBRANCH  16  17
ENDBRANCH  15  16
ENDBRANCH  14  15
ENDBRANCH  13  14
ENDBRANCH  12  13
ENDBRANCH  11  12
ENDBRANCH   1  11
TORSDOF 14
ENDMDL
MODEL 5
REMARK VINA RESULT:    -2.094      2.385      6.087
REMARK INTER + INTRA:          -5.311
REMARK INTER:                  -4.394
REMARK INTRA:                  -0.917
REMARK UNBOUND:                -1.504
REMARK SMILES CCCCCCCCCCCCCCCC(=O)[O-]
REMARK SMILES IDX 9 1 10 2 11 3 12 4 13 5 14 6 15 7 16 8 17 9 18 10 8 11 7 12
REMARK SMILES IDX 6 13 5 14 4 15 3 16 2 17 1 18
REMARK H PARENT
REMARK Flexibility Score: inf
ROOT
ATOM      1  C   UNL     1      -3.675  -9.522   2.545  1.00  0.00     0.000 C 
ENDROOT
BRANCH   1   2
ATOM      2  C   UNL     1      -4.892  -9.487   1.607  1.00  0.00     0.000 C 
BRANCH   2   3
ATOM      3  C   UNL     1      -5.973  -8.501   2.078  1.00  0.00     0.000 C 
BRANCH   3   4
ATOM      4  C   UNL     1      -6.984  -9.148   3.042  1.00  0.00     0.000 C 
BRANCH   4   5
ATOM      5  C   UNL     1      -6.487  -9.162   4.497  1.00  0.00     0.000 C 
BRANCH   5   6
ATOM      6  C   UNL     1      -6.247  -7.751   5.052  1.00  0.00     0.006 C 
BRANCH   6   7
ATOM      7  C   UNL     1      -7.125  -6.722   4.332  1.00  0.00     0.053 C 
BRANCH   7   8
ATOM      8  C   UNL     1      -6.455  -5.385   4.311  1.00  0.00     0.041 C 
ATOM      9  O   UNL     1      -5.425  -5.203   3.609  1.00  0.00    -0.550 OA
ATOM     10  O   UNL     1      -6.937  -4.354   5.106  1.00  0.00    -0.550 OA
ENDBRANCH   7   8
ENDBRANCH   6   7
ENDBRANCH   5   6
ENDBRANCH   4   5
ENDBRANCH   3   4
ENDBRANCH   2   3
ENDBRANCH   1   2
BRANCH   1  11
ATOM     11  C   UNL     1      -3.450 -10.936   3.096  1.00  0.00     0.000 C 
BRANCH  11  12
ATOM     12  C   UNL     1      -3.228 -10.903   4.616  1.00  0.00    -0.000 C 
BRANCH  12  13
ATOM     13  C   UNL     1      -2.373  -9.706   5.062  1.00  0.00    -0.000 C 
BRANCH  13  14
ATOM     14  C   UNL     1      -0.895  -9.851   4.657  1.00  0.00    -0.000 C 
BRANCH  14  15
ATOM     15  C   UNL     1      -0.394  -8.663   3.820  1.00  0.00    -0.000 C 
BRANCH  15  16
ATOM     16  C   UNL     1       0.187  -7.535   4.684  1.00  0.00    -0.000 C 
BRANCH  16  17
ATOM     17  C   UNL     1      -0.895  -6.515   5.055  1.00  0.00    -0.003 C 
ATOM     18  C   UNL     1      -0.426  -5.089   4.785  1.00  0.00     0.004 C 
ENDBRANCH  16  17
ENDBRANCH  15  16
ENDBRANCH  14  15
ENDBRANCH  13  14
ENDBRANCH  12  13
ENDBRANCH  11  12
ENDBRANCH   1  11
TORSDOF 14
ENDMDL
MODEL 6
REMARK VINA RESULT:    -1.871      3.285      6.936
REMARK INTER + INTRA:          -4.906
REMARK INTER:                  -3.809
REMARK INTRA:                  -1.098
REMARK UNBOUND:                -1.504
REMARK SMILES CCCCCCCCCCCCCCCC(=O)[O-]
REMARK SMILES IDX 9 1 10 2 11 3 12 4 13 5 14 6 15 7 16 8 17 9 18 10 8 11 7 12
REMARK SMILES IDX 6 13 5 14 4 15 3 16 2 17 1 18
REMARK H PARENT
REMARK Flexibility Score: inf
ROOT
ATOM      1  C   UNL     1      -1.440 -10.140   2.871  1.00  0.00     0.000 C 
ENDROOT
BRANCH   1   2
ATOM      2  C   UNL     1      -2.677 -11.035   3.050  1.00  0.00     0.000 C 
BRANCH   2   3
ATOM      3  C   UNL     1      -3.463 -10.707   4.329  1.00  0.00     0.000 C 
BRANCH   3   4
ATOM      4  C   UNL     1      -4.947 -11.104   4.231  1.00  0.00     0.000 C 
BRANCH   4   5
ATOM      5  C   UNL     1      -5.491 -11.003   2.796  1.00  0.00     0.000 C 
BRANCH   5   6
ATOM      6  C   UNL     1      -6.176  -9.658   2.518  1.00  0.00     0.006 C 
BRANCH   6   7
ATOM      7  C   UNL     1      -5.448  -8.891   1.408  1.00  0.00     0.053 C 
BRANCH   7   8
ATOM      8  C   UNL     1      -5.870  -9.390   0.063  1.00  0.00     0.041 C 
ATOM      9  O   UNL     1      -5.372 -10.447  -0.406  1.00  0.00    -0.550 OA
ATOM     10  O   UNL     1      -6.775  -8.660  -0.696  1.00  0.00    -0.550 OA
ENDBRANCH   7   8
ENDBRANCH   6   7
ENDBRANCH   5   6
ENDBRANCH   4   5
ENDBRANCH   3   4
ENDBRANCH   2   3
ENDBRANCH   1   2
BRANCH   1  11
ATOM     11  C   UNL     1      -0.199 -10.980   2.544  1.00  0.00     0.000 C 
BRANCH  11  12
ATOM     12  C   UNL     1       0.710 -11.119   3.775  1.00  0.00    -0.000 C 
BRANCH  12  13
ATOM     13  C   UNL     1       0.319 -10.157   4.909  1.00  0.00    -0.000 C 
BRANCH  13  14
ATOM     14  C   UNL     1       1.355  -9.037   5.116  1.00  0.00    -0.000 C 
BRANCH  14  15
ATOM     15  C   UNL     1       0.755  -7.635   4.922  1.00  0.00    -0.000 C 
BRANCH  15  16
ATOM     16  C   UNL     1      -0.777  -7.657   4.826  1.00  0.00    -0.000 C 
BRANCH  16  17
ATOM     17  C   UNL     1      -1.360  -6.255   5.041  1.00  0.00    -0.003 C 
ATOM     18  C   UNL     1      -0.337  -5.175   4.702  1.00  0.00     0.004 C 
ENDBRANCH  16  17
ENDBRANCH  15  16
ENDBRANCH  14  15
ENDBRANCH  13  14
ENDBRANCH  12  13
ENDBRANCH  11  12
ENDBRANCH   1  11
TORSDOF 14
ENDMDL
MODEL 7
REMARK VINA RESULT:    -1.726      2.932      5.593
REMARK INTER + INTRA:          -4.642
REMARK INTER:                  -3.091
REMARK INTRA:                  -1.551
REMARK UNBOUND:                -1.504
REMARK SMILES CCCCCCCCCCCCCCCC(=O)[O-]
REMARK SMILES IDX 9 1 10 2 11 3 12 4 13 5 14 6 15 7 16 8 17 9 18 10 8 11 7 12
REMARK SMILES IDX 6 13 5 14 4 15 3 16 2 17 1 18
REMARK H PARENT
REMARK Flexibility Score: inf
ROOT
ATOM      1  C   UNL     1      -0.188  -8.704   3.015  1.00  0.00     0.000 C 
ENDROOT
BRANCH   1   2
ATOM      2  C   UNL     1      -0.566 -10.190   2.910  1.00  0.00     0.000 C 
BRANCH   2   3
ATOM      3  C   UNL     1      -2.022 -10.399   2.465  1.00  0.00     0.000 C 
BRANCH   3   4
ATOM      4  C   UNL     1      -2.868 -11.122   3.527  1.00  0.00     0.000 C 
BRANCH   4   5
ATOM      5  C   UNL     1      -4.379 -10.972   3.282  1.00  0.00     0.000 C 
BRANCH   5   6
ATOM      6  C   UNL     1      -4.740 -11.003   1.790  1.00  0.00     0.006 C 
BRANCH   6   7
ATOM      7  C   UNL     1      -6.037 -10.233   1.524  1.00  0.00     0.053 C 
BRANCH   7   8
ATOM      8  C   UNL     1      -5.895  -9.369   0.311  1.00  0.00     0.041 C 
ATOM      9  O   UNL     1      -5.089  -8.401   0.313  1.00  0.00    -0.550 OA
ATOM     10  O   UNL     1      -6.690  -9.600  -0.804  1.00  0.00    -0.550 OA
ENDBRANCH   7   8
ENDBRANCH   6   7
ENDBRANCH   5   6
ENDBRANCH   4   5
ENDBRANCH   3   4
ENDBRANCH   2   3
ENDBRANCH   1   2
BRANCH   1  11
ATOM     11  C   UNL     1      -0.317  -8.206   4.460  1.00  0.00     0.000 C 
BRANCH  11  12
ATOM     12  C   UNL     1      -0.577  -6.692   4.498  1.00  0.00    -0.000 C 
BRANCH  12  13
ATOM     13  C   UNL     1      -2.075  -6.350   4.466  1.00  0.00    -0.000 C 
BRANCH  13  14
ATOM     14  C   UNL     1      -2.966  -7.605   4.426  1.00  0.00    -0.000 C 
BRANCH  14  15
ATOM     15  C   UNL     1      -4.260  -7.383   3.624  1.00  0.00    -0.000 C 
BRANCH  15  16
ATOM     16  C   UNL     1      -4.716  -5.917   3.633  1.00  0.00    -0.000 C 
BRANCH  16  17
ATOM     17  C   UNL     1      -6.198  -5.807   4.009  1.00  0.00    -0.003 C 
ATOM     18  C   UNL     1      -6.898  -7.158   3.895  1.00  0.00     0.004 C 
ENDBRANCH  16  17
ENDBRANCH  15  16
ENDBRANCH  14  15
ENDBRANCH  13  14
ENDBRANCH  12  13
ENDBRANCH  11  12
ENDBRANCH   1  11
TORSDOF 14
ENDMDL
MODEL 8
REMARK VINA RESULT:    -1.671      2.433      6.561
REMARK INTER + INTRA:          -4.543
REMARK INTER:                  -3.500
REMARK INTRA:                  -1.042
REMARK UNBOUND:                -1.504
REMARK SMILES CCCCCCCCCCCCCCCC(=O)[O-]
REMARK SMILES IDX 9 1 10 2 11 3 12 4 13 5 14 6 15 7 16 8 17 9 18 10 8 11 7 12
REMARK SMILES IDX 6 13 5 14 4 15 3 16 2 17 1 18
REMARK H PARENT
REMARK Flexibility Score: inf
ROOT
ATOM      1  C   UNL     1      -3.101 -10.195   3.547  1.00  0.00     0.000 C 
ENDROOT
BRANCH   1   2
ATOM      2  C   UNL     1      -3.865 -11.099   2.567  1.00  0.00     0.000 C 
BRANCH   2   3
ATOM      3  C   UNL     1      -5.290 -10.597   2.288  1.00  0.00     0.000 C 
BRANCH   3   4
ATOM      4  C   UNL     1      -5.398  -9.831   0.957  1.00  0.00     0.000 C 
BRANCH   4   5
ATOM      5  C   UNL     1      -6.479  -8.738   0.991  1.00  0.00     0.000 C 
BRANCH   5   6
ATOM      6  C   UNL     1      -6.694  -8.164   2.398  1.00  0.00     0.006 C 
BRANCH   6   7
ATOM      7  C   UNL     1      -5.519  -7.272   2.812  1.00  0.00     0.053 C 
BRANCH   7   8
ATOM      8  C   UNL     1      -5.930  -6.338   3.906  1.00  0.00     0.041 C 
ATOM      9  O   UNL     1      -5.655  -5.112   3.829  1.00  0.00    -0.550 OA
ATOM     10  O   UNL     1      -6.571  -6.830   5.035  1.00  0.00    -0.550 OA
ENDBRANCH   7   8
ENDBRANCH   6   7
ENDBRANCH   5   6
ENDBRANCH   4   5
ENDBRANCH   3   4
ENDBRANCH   2   3
ENDBRANCH   1   2
BRANCH   1  11
ATOM     11  C   UNL     1      -1.904  -9.529   2.859  1.00  0.00     0.000 C 
BRANCH  11  12
ATOM     12  C   UNL     1      -0.772  -9.260   3.863  1.00  0.00    -0.000 C 
BRANCH  12  13
ATOM     13  C   UNL     1      -1.255  -8.491   5.104  1.00  0.00    -0.000 C 
BRANCH  13  14
ATOM     14  C   UNL     1      -0.759  -7.033   5.125  1.00  0.00    -0.000 C 
BRANCH  14  15
ATOM     15  C   UNL     1       0.335  -6.768   4.078  1.00  0.00    -0.000 C 
BRANCH  15  16
ATOM     16  C   UNL     1       0.451  -5.282   3.709  1.00  0.00    -0.000 C 
BRANCH  16  17
ATOM     17  C   UNL     1      -0.395  -4.416   4.649  1.00  0.00    -0.003 C 
ATOM     18  C   UNL     1       0.384  -3.192   5.122  1.00  0.00     0.004 C 
ENDBRANCH  16  17
ENDBRANCH  15  16
ENDBRANCH  14  15
ENDBRANCH  13  14
ENDBRANCH  12  13
ENDBRANCH  11  12
ENDBRANCH   1  11
TORSDOF 14
ENDMDL
