MODEL 1
REMARK VINA RESULT:    -5.114      0.000      0.000
REMARK INTER + INTRA:          -6.398
REMARK INTER:                  -6.161
REMARK INTRA:                  -0.237
REMARK UNBOUND:                -0.237
REMARK SMILES O=c1c(O)c(-c2ccc(O)c(O)c2)oc2cc(O)cc(O)c12
REMARK SMILES IDX 5 1 3 2 2 3 1 4 22 5 20 6 19 7 17 8 16 9 15 10 14 11 6 12
REMARK SMILES IDX 7 13 8 14 9 15 13 16 11 17 10 18 12 20 4 22 21 24 18 26
REMARK H PARENT 10 19 12 21 4 23 21 25 18 27
REMARK Flexibility Score: inf
ROOT
ATOM      1  C   UNL     1     106.759  85.198  16.867  1.00  0.00     0.180 A 
ATOM      2  C   UNL     1     108.112  85.349  16.520  1.00  0.00     0.208 A 
ATOM      3  C   UNL     1     108.760  86.560  16.812  1.00  0.00     0.238 A 
ATOM      4  O   UNL     1     109.985  86.670  16.548  1.00  0.00    -0.285 OA
ATOM      5  C   UNL     1     108.041  87.611  17.432  1.00  0.00     0.111 A 
ATOM      6  C   UNL     1     108.585  88.895  17.737  1.00  0.00     0.134 A 
ATOM      7  C   UNL     1     107.821  89.812  18.469  1.00  0.00     0.093 A 
ATOM      8  C   UNL     1     106.513  89.519  18.850  1.00  0.00     0.123 A 
ATOM      9  C   UNL     1     105.950  88.289  18.505  1.00  0.00     0.094 A 
ATOM     10  C   UNL     1     106.699  87.339  17.807  1.00  0.00     0.146 A 
ATOM     11  O   UNL     1     106.131  86.177  17.507  1.00  0.00    -0.452 OA
ENDROOT
BRANCH   1  12
ATOM     12  C   UNL     1     106.003  83.960  16.570  1.00  0.00     0.025 A 
ATOM     13  C   UNL     1     106.234  82.773  17.283  1.00  0.00     0.016 A 
ATOM     14  C   UNL     1     105.526  81.612  16.968  1.00  0.00     0.051 A 
ATOM     15  C   UNL     1     104.585  81.607  15.932  1.00  0.00     0.157 A 
ATOM     16  C   UNL     1     105.076  83.952  15.515  1.00  0.00     0.062 A 
ATOM     17  C   UNL     1     104.361  82.792  15.193  1.00  0.00     0.158 A 
BRANCH  15  18
ATOM     18  O   UNL     1     103.909  80.414  15.672  1.00  0.00    -0.504 OA
ATOM     19  H   UNL     1     104.257  79.500  15.926  1.00  0.00     0.293 HD
ENDBRANCH  15  18
BRANCH  17  20
ATOM     20  O   UNL     1     103.446  82.861  14.140  1.00  0.00    -0.504 OA
ATOM     21  H   UNL     1     103.707  82.924  13.168  1.00  0.00     0.293 HD
ENDBRANCH  17  20
ENDBRANCH   1  12
BRANCH   2  22
ATOM     22  O   UNL     1     108.808  84.291  15.928  1.00  0.00    -0.502 OA
ATOM     23  H   UNL     1     108.339  83.523  15.465  1.00  0.00     0.293 HD
ENDBRANCH   2  22
BRANCH   6  24
ATOM     24  O   UNL     1     109.850  89.324  17.324  1.00  0.00    -0.507 OA
ATOM     25  H   UNL     1     110.720  88.888  17.588  1.00  0.00     0.293 HD
ENDBRANCH   6  24
BRANCH   8  26
ATOM     26  O   UNL     1     105.777  90.462  19.564  1.00  0.00    -0.508 OA
ATOM     27  H   UNL     1     106.028  91.444  19.559  1.00  0.00     0.293 HD
ENDBRANCH   8  26
TORSDOF 6
ENDMDL
MODEL 2
REMARK VINA RESULT:    -4.941      5.772      8.211
REMARK INTER + INTRA:          -6.189
REMARK INTER:                  -5.884
REMARK INTRA:                  -0.305
REMARK UNBOUND:                -0.237
REMARK SMILES O=c1c(O)c(-c2ccc(O)c(O)c2)oc2cc(O)cc(O)c12
REMARK SMILES IDX 5 1 3 2 2 3 1 4 22 5 20 6 19 7 17 8 16 9 15 10 14 11 6 12
REMARK SMILES IDX 7 13 8 14 9 15 13 16 11 17 10 18 12 20 4 22 21 24 18 26
REMARK H PARENT 10 19 12 21 4 23 21 25 18 27
REMARK Flexibility Score: inf
ROOT
ATOM      1  C   UNL     1     103.318  81.905  20.307  1.00  0.00     0.180 A 
ATOM      2  C   UNL     1     102.124  82.291  20.938  1.00  0.00     0.208 A 
ATOM      3  C   UNL     1     101.984  82.079  22.319  1.00  0.00     0.238 A 
ATOM      4  O   UNL     1     100.933  82.476  22.888  1.00  0.00    -0.285 OA
ATOM      5  C   UNL     1     103.033  81.469  23.048  1.00  0.00     0.111 A 
ATOM      6  C   UNL     1     102.983  81.168  24.443  1.00  0.00     0.134 A 
ATOM      7  C   UNL     1     104.128  80.683  25.086  1.00  0.00     0.093 A 
ATOM      8  C   UNL     1     105.299  80.426  24.375  1.00  0.00     0.123 A 
ATOM      9  C   UNL     1     105.341  80.659  23.000  1.00  0.00     0.094 A 
ATOM     10  C   UNL     1     104.226  81.177  22.336  1.00  0.00     0.146 A 
ATOM     11  O   UNL     1     104.309  81.396  21.029  1.00  0.00    -0.452 OA
ENDROOT
BRANCH   1  12
ATOM     12  C   UNL     1     103.530  82.074  18.851  1.00  0.00     0.025 A 
ATOM     13  C   UNL     1     103.944  83.302  18.311  1.00  0.00     0.016 A 
ATOM     14  C   UNL     1     104.114  83.444  16.932  1.00  0.00     0.051 A 
ATOM     15  C   UNL     1     103.863  82.374  16.066  1.00  0.00     0.157 A 
ATOM     16  C   UNL     1     103.257  81.006  17.983  1.00  0.00     0.062 A 
ATOM     17  C   UNL     1     103.425  81.139  16.599  1.00  0.00     0.158 A 
BRANCH  15  18
ATOM     18  O   UNL     1     104.057  82.582  14.700  1.00  0.00    -0.504 OA
ATOM     19  H   UNL     1     104.946  82.472  14.233  1.00  0.00     0.293 HD
ENDBRANCH  15  18
BRANCH  17  20
ATOM     20  O   UNL     1     103.147  80.030  15.799  1.00  0.00    -0.504 OA
ATOM     21  H   UNL     1     102.718  79.181  16.138  1.00  0.00     0.293 HD
ENDBRANCH  17  20
ENDBRANCH   1  12
BRANCH   2  22
ATOM     22  O   UNL     1     101.109  82.912  20.204  1.00  0.00    -0.502 OA
ATOM     23  H   UNL     1     101.152  83.015  19.197  1.00  0.00     0.293 HD
ENDBRANCH   2  22
BRANCH   6  24
ATOM     24  O   UNL     1     101.834  81.302  25.229  1.00  0.00    -0.507 OA
ATOM     25  H   UNL     1     100.972  80.802  25.076  1.00  0.00     0.293 HD
ENDBRANCH   6  24
BRANCH   8  26
ATOM     26  O   UNL     1     106.415  79.929  25.045  1.00  0.00    -0.508 OA
ATOM     27  H   UNL     1     107.031  80.537  25.573  1.00  0.00     0.293 HD
ENDBRANCH   8  26
TORSDOF 6
ENDMDL
MODEL 3
REMARK VINA RESULT:    -4.859      4.325      7.325
REMARK INTER + INTRA:          -6.090
REMARK INTER:                  -5.774
REMARK INTRA:                  -0.316
REMARK UNBOUND:                -0.237
REMARK SMILES O=c1c(O)c(-c2ccc(O)c(O)c2)oc2cc(O)cc(O)c12
REMARK SMILES IDX 5 1 3 2 2 3 1 4 22 5 20 6 19 7 17 8 16 9 15 10 14 11 6 12
REMARK SMILES IDX 7 13 8 14 9 15 13 16 11 17 10 18 12 20 4 22 21 24 18 26
REMARK H PARENT 10 19 12 21 4 23 21 25 18 27
REMARK Flexibility Score: inf
ROOT
ATOM      1  C   UNL     1     103.574  84.422  19.754  1.00  0.00     0.180 A 
ATOM      2  C   UNL     1     104.635  83.573  20.110  1.00  0.00     0.208 A 
ATOM      3  C   UNL     1     105.240  82.784  19.118  1.00  0.00     0.238 A 
ATOM      4  O   UNL     1     106.225  82.066  19.434  1.00  0.00    -0.285 OA
ATOM      5  C   UNL     1     104.766  82.843  17.786  1.00  0.00     0.111 A 
ATOM      6  C   UNL     1     105.277  82.058  16.708  1.00  0.00     0.134 A 
ATOM      7  C   UNL     1     104.820  82.294  15.406  1.00  0.00     0.093 A 
ATOM      8  C   UNL     1     103.826  83.236  15.150  1.00  0.00     0.123 A 
ATOM      9  C   UNL     1     103.276  83.967  16.204  1.00  0.00     0.094 A 
ATOM     10  C   UNL     1     103.737  83.781  17.510  1.00  0.00     0.146 A 
ATOM     11  O   UNL     1     103.196  84.503  18.483  1.00  0.00    -0.452 OA
ENDROOT
BRANCH   1  12
ATOM     12  C   UNL     1     102.871  85.264  20.747  1.00  0.00     0.025 A 
ATOM     13  C   UNL     1     101.673  84.843  21.346  1.00  0.00     0.016 A 
ATOM     14  C   UNL     1     101.015  85.666  22.263  1.00  0.00     0.051 A 
ATOM     15  C   UNL     1     101.529  86.925  22.591  1.00  0.00     0.157 A 
ATOM     16  C   UNL     1     103.377  86.537  21.058  1.00  0.00     0.062 A 
ATOM     17  C   UNL     1     102.724  87.368  21.976  1.00  0.00     0.158 A 
BRANCH  15  18
ATOM     18  O   UNL     1     100.825  87.696  23.517  1.00  0.00    -0.504 OA
ATOM     19  H   UNL     1     101.118  87.835  24.474  1.00  0.00     0.293 HD
ENDBRANCH  15  18
BRANCH  17  20
ATOM     20  O   UNL     1     103.292  88.615  22.246  1.00  0.00    -0.504 OA
ATOM     21  H   UNL     1     104.241  88.747  22.561  1.00  0.00     0.293 HD
ENDBRANCH  17  20
ENDBRANCH   1  12
BRANCH   2  22
ATOM     22  O   UNL     1     105.102  83.547  21.428  1.00  0.00    -0.502 OA
ATOM     23  H   UNL     1     104.485  83.634  22.226  1.00  0.00     0.293 HD
ENDBRANCH   2  22
BRANCH   6  24
ATOM     24  O   UNL     1     106.207  81.026  16.867  1.00  0.00    -0.507 OA
ATOM     25  H   UNL     1     107.200  81.120  16.723  1.00  0.00     0.293 HD
ENDBRANCH   6  24
BRANCH   8  26
ATOM     26  O   UNL     1     103.384  83.432  13.843  1.00  0.00    -0.508 OA
ATOM     27  H   UNL     1     102.740  84.179  13.609  1.00  0.00     0.293 HD
ENDBRANCH   8  26
TORSDOF 6
ENDMDL
MODEL 4
REMARK VINA RESULT:    -4.854      3.527      5.160
REMARK INTER + INTRA:          -6.083
REMARK INTER:                  -5.749
REMARK INTRA:                  -0.335
REMARK UNBOUND:                -0.237
REMARK SMILES O=c1c(O)c(-c2ccc(O)c(O)c2)oc2cc(O)cc(O)c12
REMARK SMILES IDX 5 1 3 2 2 3 1 4 22 5 20 6 19 7 17 8 16 9 15 10 14 11 6 12
REMARK SMILES IDX 7 13 8 14 9 15 13 16 11 17 10 18 12 20 4 22 21 24 18 26
REMARK H PARENT 10 19 12 21 4 23 21 25 18 27
REMARK Flexibility Score: inf
ROOT
ATOM      1  C   UNL     1     104.787  84.881  15.970  1.00  0.00     0.180 A 
ATOM      2  C   UNL     1     105.033  83.522  16.229  1.00  0.00     0.208 A 
ATOM      3  C   UNL     1     105.048  83.074  17.559  1.00  0.00     0.238 A 
ATOM      4  O   UNL     1     105.216  81.846  17.782  1.00  0.00    -0.285 OA
ATOM      5  C   UNL     1     104.832  83.992  18.615  1.00  0.00     0.111 A 
ATOM      6  C   UNL     1     104.865  83.656  20.002  1.00  0.00     0.134 A 
ATOM      7  C   UNL     1     104.507  84.618  20.954  1.00  0.00     0.093 A 
ATOM      8  C   UNL     1     104.182  85.919  20.577  1.00  0.00     0.123 A 
ATOM      9  C   UNL     1     104.205  86.276  19.227  1.00  0.00     0.094 A 
ATOM     10  C   UNL     1     104.522  85.329  18.251  1.00  0.00     0.146 A 
ATOM     11  O   UNL     1     104.522  85.705  16.977  1.00  0.00    -0.452 OA
ENDROOT
BRANCH   1  12
ATOM     12  C   UNL     1     104.780  85.433  14.596  1.00  0.00     0.025 A 
ATOM     13  C   UNL     1     105.955  85.906  13.993  1.00  0.00     0.016 A 
ATOM     14  C   UNL     1     105.920  86.445  12.705  1.00  0.00     0.051 A 
ATOM     15  C   UNL     1     104.714  86.534  12.000  1.00  0.00     0.157 A 
ATOM     16  C   UNL     1     103.566  85.541  13.900  1.00  0.00     0.062 A 
ATOM     17  C   UNL     1     103.521  86.080  12.608  1.00  0.00     0.158 A 
BRANCH  15  18
ATOM     18  O   UNL     1     104.749  87.078  10.716  1.00  0.00    -0.504 OA
ATOM     19  H   UNL     1     105.568  87.079  10.125  1.00  0.00     0.293 HD
ENDBRANCH  15  18
BRANCH  17  20
ATOM     20  O   UNL     1     102.279  86.144  11.972  1.00  0.00    -0.504 OA
ATOM     21  H   UNL     1     102.132  85.928  10.997  1.00  0.00     0.293 HD
ENDBRANCH  17  20
ENDBRANCH   1  12
BRANCH   2  22
ATOM     22  O   UNL     1     105.223  82.628  15.171  1.00  0.00    -0.502 OA
ATOM     23  H   UNL     1     106.004  82.701  14.531  1.00  0.00     0.293 HD
ENDBRANCH   2  22
BRANCH   6  24
ATOM     24  O   UNL     1     105.264  82.409  20.493  1.00  0.00    -0.507 OA
ATOM     25  H   UNL     1     105.026  82.046  21.402  1.00  0.00     0.293 HD
ENDBRANCH   6  24
BRANCH   8  26
ATOM     26  O   UNL     1     103.847  86.855  21.553  1.00  0.00    -0.508 OA
ATOM     27  H   UNL     1     104.546  87.460  21.969  1.00  0.00     0.293 HD
ENDBRANCH   8  26
TORSDOF 6
ENDMDL
MODEL 5
REMARK VINA RESULT:    -4.786      5.779      8.112
REMARK INTER + INTRA:          -6.002
REMARK INTER:                  -5.786
REMARK INTRA:                  -0.216
REMARK UNBOUND:                -0.237
REMARK SMILES O=c1c(O)c(-c2ccc(O)c(O)c2)oc2cc(O)cc(O)c12
REMARK SMILES IDX 5 1 3 2 2 3 1 4 22 5 20 6 19 7 17 8 16 9 15 10 14 11 6 12
REMARK SMILES IDX 7 13 8 14 9 15 13 16 11 17 10 18 12 20 4 22 21 24 18 26
REMARK H PARENT 10 19 12 21 4 23 21 25 18 27
REMARK Flexibility Score: inf
ROOT
ATOM      1  C   UNL     1     103.238  83.022  21.267  1.00  0.00     0.180 A 
ATOM      2  C   UNL     1     103.898  84.207  20.897  1.00  0.00     0.208 A 
ATOM      3  C   UNL     1     104.333  84.359  19.571  1.00  0.00     0.238 A 
ATOM      4  O   UNL     1     104.875  85.443  19.233  1.00  0.00    -0.285 OA
ATOM      5  C   UNL     1     104.116  83.319  18.635  1.00  0.00     0.111 A 
ATOM      6  C   UNL     1     104.550  83.348  17.275  1.00  0.00     0.134 A 
ATOM      7  C   UNL     1     104.167  82.320  16.406  1.00  0.00     0.093 A 
ATOM      8  C   UNL     1     103.423  81.233  16.860  1.00  0.00     0.123 A 
ATOM      9  C   UNL     1     103.044  81.163  18.201  1.00  0.00     0.094 A 
ATOM     10  C   UNL     1     103.380  82.191  19.085  1.00  0.00     0.146 A 
ATOM     11  O   UNL     1     102.991  82.094  20.351  1.00  0.00    -0.452 OA
ENDROOT
BRANCH   1  12
ATOM     12  C   UNL     1     102.773  82.779  22.651  1.00  0.00     0.025 A 
ATOM     13  C   UNL     1     101.700  83.500  23.199  1.00  0.00     0.016 A 
ATOM     14  C   UNL     1     101.294  83.270  24.515  1.00  0.00     0.051 A 
ATOM     15  C   UNL     1     101.956  82.330  25.313  1.00  0.00     0.157 A 
ATOM     16  C   UNL     1     103.452  81.852  23.457  1.00  0.00     0.062 A 
ATOM     17  C   UNL     1     103.052  81.614  24.778  1.00  0.00     0.158 A 
BRANCH  15  18
ATOM     18  O   UNL     1     101.498  82.146  26.619  1.00  0.00    -0.504 OA
ATOM     19  H   UNL     1     102.054  81.746  27.361  1.00  0.00     0.293 HD
ENDBRANCH  15  18
BRANCH  17  20
ATOM     20  O   UNL     1     103.766  80.668  25.515  1.00  0.00    -0.504 OA
ATOM     21  H   UNL     1     103.966  80.754  26.501  1.00  0.00     0.293 HD
ENDBRANCH  17  20
ENDBRANCH   1  12
BRANCH   2  22
ATOM     22  O   UNL     1     104.082  85.230  21.832  1.00  0.00    -0.502 OA
ATOM     23  H   UNL     1     104.356  86.168  21.564  1.00  0.00     0.293 HD
ENDBRANCH   2  22
BRANCH   6  24
ATOM     24  O   UNL     1     105.375  84.343  16.741  1.00  0.00    -0.507 OA
ATOM     25  H   UNL     1     106.190  84.171  16.174  1.00  0.00     0.293 HD
ENDBRANCH   6  24
BRANCH   8  26
ATOM     26  O   UNL     1     103.072  80.220  15.969  1.00  0.00    -0.508 OA
ATOM     27  H   UNL     1     103.204  80.324  14.970  1.00  0.00     0.293 HD
ENDBRANCH   8  26
TORSDOF 6
ENDMDL
MODEL 6
REMARK VINA RESULT:    -4.756      5.512      7.517
REMARK INTER + INTRA:          -5.966
REMARK INTER:                  -5.640
REMARK INTRA:                  -0.326
REMARK UNBOUND:                -0.237
REMARK SMILES O=c1c(O)c(-c2ccc(O)c(O)c2)oc2cc(O)cc(O)c12
REMARK SMILES IDX 5 1 3 2 2 3 1 4 22 5 20 6 19 7 17 8 16 9 15 10 14 11 6 12
REMARK SMILES IDX 7 13 8 14 9 15 13 16 11 17 10 18 12 20 4 22 21 24 18 26
REMARK H PARENT 10 19 12 21 4 23 21 25 18 27
REMARK Flexibility Score: inf
ROOT
ATOM      1  C   UNL     1     105.027  81.270  20.163  1.00  0.00     0.180 A 
ATOM      2  C   UNL     1     106.233  80.714  20.621  1.00  0.00     0.208 A 
ATOM      3  C   UNL     1     106.374  80.424  21.987  1.00  0.00     0.238 A 
ATOM      4  O   UNL     1     107.437  79.877  22.383  1.00  0.00    -0.285 OA
ATOM      5  C   UNL     1     105.313  80.708  22.881  1.00  0.00     0.111 A 
ATOM      6  C   UNL     1     105.362  80.494  24.292  1.00  0.00     0.134 A 
ATOM      7  C   UNL     1     104.208  80.689  25.059  1.00  0.00     0.093 A 
ATOM      8  C   UNL     1     103.028  81.153  24.481  1.00  0.00     0.123 A 
ATOM      9  C   UNL     1     102.986  81.424  23.113  1.00  0.00     0.094 A 
ATOM     10  C   UNL     1     104.110  81.204  22.314  1.00  0.00     0.146 A 
ATOM     11  O   UNL     1     104.027  81.463  21.014  1.00  0.00    -0.452 OA
ENDROOT
BRANCH   1  12
ATOM     12  C   UNL     1     104.812  81.625  18.741  1.00  0.00     0.025 A 
ATOM     13  C   UNL     1     105.247  82.854  18.221  1.00  0.00     0.016 A 
ATOM     14  C   UNL     1     105.012  83.177  16.883  1.00  0.00     0.051 A 
ATOM     15  C   UNL     1     104.330  82.289  16.043  1.00  0.00     0.157 A 
ATOM     16  C   UNL     1     104.109  80.742  17.906  1.00  0.00     0.062 A 
ATOM     17  C   UNL     1     103.869  81.057  16.563  1.00  0.00     0.158 A 
BRANCH  15  18
ATOM     18  O   UNL     1     104.132  82.671  14.715  1.00  0.00    -0.504 OA
ATOM     19  H   UNL     1     104.874  82.964  14.095  1.00  0.00     0.293 HD
ENDBRANCH  15  18
BRANCH  17  20
ATOM     20  O   UNL     1     103.175  80.126  15.788  1.00  0.00    -0.504 OA
ATOM     21  H   UNL     1     102.832  79.244  16.138  1.00  0.00     0.293 HD
ENDBRANCH  17  20
ENDBRANCH   1  12
BRANCH   2  22
ATOM     22  O   UNL     1     107.260  80.421  19.718  1.00  0.00    -0.502 OA
ATOM     23  H   UNL     1     107.093  80.293  18.727  1.00  0.00     0.293 HD
ENDBRANCH   2  22
BRANCH   6  24
ATOM     24  O   UNL     1     106.517  80.117  24.984  1.00  0.00    -0.507 OA
ATOM     25  H   UNL     1     107.181  80.761  25.386  1.00  0.00     0.293 HD
ENDBRANCH   6  24
BRANCH   8  26
ATOM     26  O   UNL     1     101.903  81.351  25.279  1.00  0.00    -0.508 OA
ATOM     27  H   UNL     1     101.270  82.127  25.120  1.00  0.00     0.293 HD
ENDBRANCH   8  26
TORSDOF 6
ENDMDL
MODEL 7
REMARK VINA RESULT:    -4.746     10.424     12.252
REMARK INTER + INTRA:          -5.953
REMARK INTER:                  -5.623
REMARK INTRA:                  -0.330
REMARK UNBOUND:                -0.237
REMARK SMILES O=c1c(O)c(-c2ccc(O)c(O)c2)oc2cc(O)cc(O)c12
REMARK SMILES IDX 5 1 3 2 2 3 1 4 22 5 20 6 19 7 17 8 16 9 15 10 14 11 6 12
REMARK SMILES IDX 7 13 8 14 9 15 13 16 11 17 10 18 12 20 4 22 21 24 18 26
REMARK H PARENT 10 19 12 21 4 23 21 25 18 27
REMARK Flexibility Score: inf
ROOT
ATOM      1  C   UNL     1     111.207  94.493  21.789  1.00  0.00     0.180 A 
ATOM      2  C   UNL     1     110.817  94.191  20.473  1.00  0.00     0.208 A 
ATOM      3  C   UNL     1     111.805  94.066  19.482  1.00  0.00     0.238 A 
ATOM      4  O   UNL     1     111.454  93.743  18.317  1.00  0.00    -0.285 OA
ATOM      5  C   UNL     1     113.167  94.260  19.817  1.00  0.00     0.111 A 
ATOM      6  C   UNL     1     114.247  94.198  18.885  1.00  0.00     0.134 A 
ATOM      7  C   UNL     1     115.565  94.276  19.351  1.00  0.00     0.093 A 
ATOM      8  C   UNL     1     115.841  94.480  20.701  1.00  0.00     0.123 A 
ATOM      9  C   UNL     1     114.791  94.603  21.613  1.00  0.00     0.094 A 
ATOM     10  C   UNL     1     113.466  94.493  21.184  1.00  0.00     0.146 A 
ATOM     11  O   UNL     1     112.496  94.604  22.084  1.00  0.00    -0.452 OA
ENDROOT
BRANCH   1  12
ATOM     12  C   UNL     1     110.223  94.665  22.881  1.00  0.00     0.025 A 
ATOM     13  C   UNL     1     109.682  95.924  23.187  1.00  0.00     0.016 A 
ATOM     14  C   UNL     1     108.773  96.065  24.238  1.00  0.00     0.051 A 
ATOM     15  C   UNL     1     108.397  94.961  25.011  1.00  0.00     0.157 A 
ATOM     16  C   UNL     1     109.863  93.560  23.670  1.00  0.00     0.062 A 
ATOM     17  C   UNL     1     108.953  93.692  24.726  1.00  0.00     0.158 A 
BRANCH  15  18
ATOM     18  O   UNL     1     107.482  95.170  26.044  1.00  0.00    -0.504 OA
ATOM     19  H   UNL     1     107.596  95.867  26.767  1.00  0.00     0.293 HD
ENDBRANCH  15  18
BRANCH  17  20
ATOM     20  O   UNL     1     108.633  92.547  25.458  1.00  0.00    -0.504 OA
ATOM     21  H   UNL     1     109.135  91.674  25.390  1.00  0.00     0.293 HD
ENDBRANCH  17  20
ENDBRANCH   1  12
BRANCH   2  22
ATOM     22  O   UNL     1     109.469  93.983  20.169  1.00  0.00    -0.502 OA
ATOM     23  H   UNL     1     109.042  93.064  20.190  1.00  0.00     0.293 HD
ENDBRANCH   2  22
BRANCH   6  24
ATOM     24  O   UNL     1     114.078  94.087  17.501  1.00  0.00    -0.507 OA
ATOM     25  H   UNL     1     114.015  94.867  16.866  1.00  0.00     0.293 HD
ENDBRANCH   6  24
BRANCH   8  26
ATOM     26  O   UNL     1     117.165  94.569  21.126  1.00  0.00    -0.508 OA
ATOM     27  H   UNL     1     117.832  93.829  20.940  1.00  0.00     0.293 HD
ENDBRANCH   8  26
TORSDOF 6
ENDMDL
MODEL 8
REMARK VINA RESULT:    -4.705      7.950      9.453
REMARK INTER + INTRA:          -5.905
REMARK INTER:                  -5.713
REMARK INTRA:                  -0.192
REMARK UNBOUND:                -0.237
REMARK SMILES O=c1c(O)c(-c2ccc(O)c(O)c2)oc2cc(O)cc(O)c12
REMARK SMILES IDX 5 1 3 2 2 3 1 4 22 5 20 6 19 7 17 8 16 9 15 10 14 11 6 12
REMARK SMILES IDX 7 13 8 14 9 15 13 16 11 17 10 18 12 20 4 22 21 24 18 26
REMARK H PARENT 10 19 12 21 4 23 21 25 18 27
REMARK Flexibility Score: inf
ROOT
ATOM      1  C   UNL     1     102.322  81.840  22.972  1.00  0.00     0.180 A 
ATOM      2  C   UNL     1     101.042  81.926  23.545  1.00  0.00     0.208 A 
ATOM      3  C   UNL     1     100.923  82.295  24.894  1.00  0.00     0.238 A 
ATOM      4  O   UNL     1      99.772  82.422  25.387  1.00  0.00    -0.285 OA
ATOM      5  C   UNL     1     102.086  82.559  25.657  1.00  0.00     0.111 A 
ATOM      6  C   UNL     1     102.086  82.902  27.043  1.00  0.00     0.134 A 
ATOM      7  C   UNL     1     103.286  83.269  27.663  1.00  0.00     0.093 A 
ATOM      8  C   UNL     1     104.494  83.243  26.969  1.00  0.00     0.123 A 
ATOM      9  C   UNL     1     104.514  82.851  25.629  1.00  0.00     0.094 A 
ATOM     10  C   UNL     1     103.329  82.514  24.973  1.00  0.00     0.146 A 
ATOM     11  O   UNL     1     103.389  82.157  23.695  1.00  0.00    -0.452 OA
ENDROOT
BRANCH   1  12
ATOM     12  C   UNL     1     102.529  81.433  21.563  1.00  0.00     0.025 A 
ATOM     13  C   UNL     1     103.168  80.226  21.237  1.00  0.00     0.016 A 
ATOM     14  C   UNL     1     103.374  79.875  19.901  1.00  0.00     0.051 A 
ATOM     15  C   UNL     1     102.960  80.723  18.868  1.00  0.00     0.157 A 
ATOM     16  C   UNL     1     102.134  82.295  20.528  1.00  0.00     0.062 A 
ATOM     17  C   UNL     1     102.335  81.951  19.186  1.00  0.00     0.158 A 
BRANCH  15  18
ATOM     18  O   UNL     1     103.192  80.310  17.555  1.00  0.00    -0.504 OA
ATOM     19  H   UNL     1     103.451  79.369  17.296  1.00  0.00     0.293 HD
ENDBRANCH  15  18
BRANCH  17  20
ATOM     20  O   UNL     1     101.904  82.852  18.210  1.00  0.00    -0.504 OA
ATOM     21  H   UNL     1     101.283  82.610  17.453  1.00  0.00     0.293 HD
ENDBRANCH  17  20
ENDBRANCH   1  12
BRANCH   2  22
ATOM     22  O   UNL     1      99.906  81.682  22.767  1.00  0.00    -0.502 OA
ATOM     23  H   UNL     1      98.980  81.978  23.050  1.00  0.00     0.293 HD
ENDBRANCH   2  22
BRANCH   6  24
ATOM     24  O   UNL     1     100.947  82.872  27.854  1.00  0.00    -0.507 OA
ATOM     25  H   UNL     1     100.253  83.602  27.898  1.00  0.00     0.293 HD
ENDBRANCH   6  24
BRANCH   8  26
ATOM     26  O   UNL     1     105.671  83.599  27.623  1.00  0.00    -0.508 OA
ATOM     27  H   UNL     1     105.702  84.378  28.271  1.00  0.00     0.293 HD
ENDBRANCH   8  26
TORSDOF 6
ENDMDL
MODEL 9
REMARK VINA RESULT:    -4.644      5.208      6.772
REMARK INTER + INTRA:          -5.831
REMARK INTER:                  -5.501
REMARK INTRA:                  -0.329
REMARK UNBOUND:                -0.237
REMARK SMILES O=c1c(O)c(-c2ccc(O)c(O)c2)oc2cc(O)cc(O)c12
REMARK SMILES IDX 5 1 3 2 2 3 1 4 22 5 20 6 19 7 17 8 16 9 15 10 14 11 6 12
REMARK SMILES IDX 7 13 8 14 9 15 13 16 11 17 10 18 12 20 4 22 21 24 18 26
REMARK H PARENT 10 19 12 21 4 23 21 25 18 27
REMARK Flexibility Score: inf
ROOT
ATOM      1  C   UNL     1     104.134  84.615  21.098  1.00  0.00     0.180 A 
ATOM      2  C   UNL     1     104.073  86.016  21.000  1.00  0.00     0.208 A 
ATOM      3  C   UNL     1     104.394  86.628  19.778  1.00  0.00     0.238 A 
ATOM      4  O   UNL     1     104.286  87.878  19.681  1.00  0.00    -0.285 OA
ATOM      5  C   UNL     1     104.787  85.833  18.674  1.00  0.00     0.111 A 
ATOM      6  C   UNL     1     105.173  86.349  17.400  1.00  0.00     0.134 A 
ATOM      7  C   UNL     1     105.416  85.465  16.342  1.00  0.00     0.093 A 
ATOM      8  C   UNL     1     105.352  84.086  16.527  1.00  0.00     0.123 A 
ATOM      9  C   UNL     1     105.034  83.568  17.784  1.00  0.00     0.094 A 
ATOM     10  C   UNL     1     104.751  84.425  18.850  1.00  0.00     0.146 A 
ATOM     11  O   UNL     1     104.442  83.894  20.027  1.00  0.00    -0.452 OA
ENDROOT
BRANCH   1  12
ATOM     12  C   UNL     1     103.834  83.900  22.359  1.00  0.00     0.025 A 
ATOM     13  C   UNL     1     104.845  83.591  23.282  1.00  0.00     0.016 A 
ATOM     14  C   UNL     1     104.542  82.894  24.454  1.00  0.00     0.051 A 
ATOM     15  C   UNL     1     103.232  82.481  24.722  1.00  0.00     0.157 A 
ATOM     16  C   UNL     1     102.523  83.468  22.615  1.00  0.00     0.062 A 
ATOM     17  C   UNL     1     102.210  82.769  23.787  1.00  0.00     0.158 A 
BRANCH  15  18
ATOM     18  O   UNL     1     102.996  81.793  25.912  1.00  0.00    -0.504 OA
ATOM     19  H   UNL     1     103.697  81.252  26.400  1.00  0.00     0.293 HD
ENDBRANCH  15  18
BRANCH  17  20
ATOM     20  O   UNL     1     100.882  82.382  23.981  1.00  0.00    -0.504 OA
ATOM     21  H   UNL     1     100.294  81.999  23.255  1.00  0.00     0.293 HD
ENDBRANCH  17  20
ENDBRANCH   1  12
BRANCH   2  22
ATOM     22  O   UNL     1     103.662  86.780  22.096  1.00  0.00    -0.502 OA
ATOM     23  H   UNL     1     103.705  86.434  23.047  1.00  0.00     0.293 HD
ENDBRANCH   2  22
BRANCH   6  24
ATOM     24  O   UNL     1     105.356  87.710  17.133  1.00  0.00    -0.507 OA
ATOM     25  H   UNL     1     104.730  88.443  17.428  1.00  0.00     0.293 HD
ENDBRANCH   6  24
BRANCH   8  26
ATOM     26  O   UNL     1     105.616  83.236  15.455  1.00  0.00    -0.508 OA
ATOM     27  H   UNL     1     106.342  83.445  14.779  1.00  0.00     0.293 HD
ENDBRANCH   8  26
TORSDOF 6
ENDMDL
