MODEL 1
REMARK VINA RESULT:    -4.687      0.000      0.000
REMARK INTER + INTRA:          -4.824
REMARK INTER:                  -4.824
REMARK INTRA:                   0.000
REMARK UNBOUND:                 0.000
REMARK SMILES Cc1ccccc1O
REMARK SMILES IDX 1 1 2 2 3 3 4 4 5 5 6 6 7 7 8 8
REMARK H PARENT 8 9
REMARK Flexibility Score: inf
ROOT
ATOM      1  C   UNL     1      -7.728  -9.146  14.015  1.00  0.00     0.048 C 
ATOM      2  C   UNL     1      -7.087  -7.839  13.644  1.00  0.00    -0.009 A 
ATOM      3  C   UNL     1      -5.900  -7.820  12.892  1.00  0.00     0.007 A 
ATOM      4  C   UNL     1      -5.304  -6.604  12.546  1.00  0.00     0.001 A 
ATOM      5  C   UNL     1      -5.885  -5.399  12.949  1.00  0.00     0.004 A 
ATOM      6  C   UNL     1      -7.065  -5.408  13.696  1.00  0.00     0.046 A 
ATOM      7  C   UNL     1      -7.671  -6.623  14.046  1.00  0.00     0.118 A 
ENDROOT
BRANCH   7   8
ATOM      8  O   UNL     1      -8.849  -6.627  14.794  1.00  0.00    -0.508 OA
ATOM      9  H   UNL     1      -8.855  -6.374  15.775  1.00  0.00     0.293 HD
ENDBRANCH   7   8
TORSDOF 1
ENDMDL
MODEL 2
REMARK VINA RESULT:    -4.418      9.600     10.499
REMARK INTER + INTRA:          -4.547
REMARK INTER:                  -4.547
REMARK INTRA:                   0.000
REMARK UNBOUND:                 0.000
REMARK SMILES Cc1ccccc1O
REMARK SMILES IDX 1 1 2 2 3 3 4 4 5 5 6 6 7 7 8 8
REMARK H PARENT 8 9
REMARK Flexibility Score: inf
ROOT
ATOM      1  C   UNL     1      -4.051  -9.122   4.950  1.00  0.00     0.048 C 
ATOM      2  C   UNL     1      -3.675  -7.916   4.137  1.00  0.00    -0.009 A 
ATOM      3  C   UNL     1      -2.323  -7.575   3.959  1.00  0.00     0.007 A 
ATOM      4  C   UNL     1      -1.973  -6.454   3.202  1.00  0.00     0.001 A 
ATOM      5  C   UNL     1      -2.966  -5.663   2.618  1.00  0.00     0.004 A 
ATOM      6  C   UNL     1      -4.312  -5.994   2.790  1.00  0.00     0.046 A 
ATOM      7  C   UNL     1      -4.673  -7.118   3.547  1.00  0.00     0.118 A 
ENDROOT
BRANCH   7   8
ATOM      8  O   UNL     1      -6.019  -7.444   3.716  1.00  0.00    -0.508 OA
ATOM      9  H   UNL     1      -6.752  -6.754   3.591  1.00  0.00     0.293 HD
ENDBRANCH   7   8
TORSDOF 1
ENDMDL
MODEL 3
REMARK VINA RESULT:    -4.319      1.752      2.439
REMARK INTER + INTRA:          -4.445
REMARK INTER:                  -4.445
REMARK INTRA:                   0.000
REMARK UNBOUND:                 0.000
REMARK SMILES Cc1ccccc1O
REMARK SMILES IDX 1 1 2 2 3 3 4 4 5 5 6 6 7 7 8 8
REMARK H PARENT 8 9
REMARK Flexibility Score: inf
ROOT
ATOM      1  C   UNL     1      -7.556  -8.530  14.112  1.00  0.00     0.048 C 
ATOM      2  C   UNL     1      -6.957  -7.233  13.648  1.00  0.00    -0.009 A 
ATOM      3  C   UNL     1      -7.401  -6.014  14.189  1.00  0.00     0.007 A 
ATOM      4  C   UNL     1      -6.844  -4.807  13.759  1.00  0.00     0.001 A 
ATOM      5  C   UNL     1      -5.841  -4.805  12.786  1.00  0.00     0.004 A 
ATOM      6  C   UNL     1      -5.393  -6.011  12.242  1.00  0.00     0.046 A 
ATOM      7  C   UNL     1      -5.946  -7.227  12.669  1.00  0.00     0.118 A 
ENDROOT
BRANCH   7   8
ATOM      8  O   UNL     1      -5.496  -8.430  12.122  1.00  0.00    -0.508 OA
ATOM      9  H   UNL     1      -6.075  -9.261  12.120  1.00  0.00     0.293 HD
ENDBRANCH   7   8
TORSDOF 1
ENDMDL
MODEL 4
REMARK VINA RESULT:    -4.292     17.854     18.862
REMARK INTER + INTRA:          -4.418
REMARK INTER:                  -4.418
REMARK INTRA:                   0.000
REMARK UNBOUND:                 0.000
REMARK SMILES Cc1ccccc1O
REMARK SMILES IDX 1 1 2 2 3 3 4 4 5 5 6 6 7 7 8 8
REMARK H PARENT 8 9
REMARK Flexibility Score: inf
ROOT
ATOM      1  C   UNL     1       0.459   8.503   3.800  1.00  0.00     0.048 C 
ATOM      2  C   UNL     1      -0.150   7.279   3.176  1.00  0.00    -0.009 A 
ATOM      3  C   UNL     1      -1.494   6.952   3.423  1.00  0.00     0.007 A 
ATOM      4  C   UNL     1      -2.060   5.814   2.842  1.00  0.00     0.001 A 
ATOM      5  C   UNL     1      -1.291   4.993   2.013  1.00  0.00     0.004 A 
ATOM      6  C   UNL     1       0.046   5.311   1.762  1.00  0.00     0.046 A 
ATOM      7  C   UNL     1       0.622   6.451   2.339  1.00  0.00     0.118 A 
ENDROOT
BRANCH   7   8
ATOM      8  O   UNL     1       1.958   6.764   2.086  1.00  0.00    -0.508 OA
ATOM      9  H   UNL     1       2.229   7.664   1.707  1.00  0.00     0.293 HD
ENDBRANCH   7   8
TORSDOF 1
ENDMDL
MODEL 5
REMARK VINA RESULT:    -4.234      1.845      2.448
REMARK INTER + INTRA:          -4.358
REMARK INTER:                  -4.358
REMARK INTRA:                   0.000
REMARK UNBOUND:                 0.000
REMARK SMILES Cc1ccccc1O
REMARK SMILES IDX 1 1 2 2 3 3 4 4 5 5 6 6 7 7 8 8
REMARK H PARENT 8 9
REMARK Flexibility Score: inf
ROOT
ATOM      1  C   UNL     1      -7.413  -6.715  14.071  1.00  0.00     0.048 C 
ATOM      2  C   UNL     1      -6.110  -6.177  13.551  1.00  0.00    -0.009 A 
ATOM      3  C   UNL     1      -5.663  -6.525  12.264  1.00  0.00     0.007 A 
ATOM      4  C   UNL     1      -4.452  -6.024  11.780  1.00  0.00     0.001 A 
ATOM      5  C   UNL     1      -3.676  -5.176  12.574  1.00  0.00     0.004 A 
ATOM      6  C   UNL     1      -4.112  -4.824  13.854  1.00  0.00     0.046 A 
ATOM      7  C   UNL     1      -5.327  -5.321  14.347  1.00  0.00     0.118 A 
ENDROOT
BRANCH   7   8
ATOM      8  O   UNL     1      -5.758  -4.968  15.627  1.00  0.00    -0.508 OA
ATOM      9  H   UNL     1      -6.577  -4.388  15.769  1.00  0.00     0.293 HD
ENDBRANCH   7   8
TORSDOF 1
ENDMDL
MODEL 6
REMARK VINA RESULT:    -4.234      2.561      3.697
REMARK INTER + INTRA:          -4.357
REMARK INTER:                  -4.357
REMARK INTRA:                   0.000
REMARK UNBOUND:                 0.000
REMARK SMILES Cc1ccccc1O
REMARK SMILES IDX 1 1 2 2 3 3 4 4 5 5 6 6 7 7 8 8
REMARK H PARENT 8 9
REMARK Flexibility Score: inf
ROOT
ATOM      1  C   UNL     1      -2.940  -5.639  12.127  1.00  0.00     0.048 C 
ATOM      2  C   UNL     1      -4.250  -5.738  12.857  1.00  0.00    -0.009 A 
ATOM      3  C   UNL     1      -5.259  -6.597  12.389  1.00  0.00     0.007 A 
ATOM      4  C   UNL     1      -6.476  -6.691  13.069  1.00  0.00     0.001 A 
ATOM      5  C   UNL     1      -6.699  -5.927  14.218  1.00  0.00     0.004 A 
ATOM      6  C   UNL     1      -5.701  -5.071  14.691  1.00  0.00     0.046 A 
ATOM      7  C   UNL     1      -4.476  -4.972  14.016  1.00  0.00     0.118 A 
ENDROOT
BRANCH   7   8
ATOM      8  O   UNL     1      -3.483  -4.114  14.492  1.00  0.00    -0.508 OA
ATOM      9  H   UNL     1      -3.703  -3.183  14.827  1.00  0.00     0.293 HD
ENDBRANCH   7   8
TORSDOF 1
ENDMDL
MODEL 7
REMARK VINA RESULT:    -4.225      2.914      3.927
REMARK INTER + INTRA:          -4.349
REMARK INTER:                  -4.349
REMARK INTRA:                   0.000
REMARK UNBOUND:                 0.000
REMARK SMILES Cc1ccccc1O
REMARK SMILES IDX 1 1 2 2 3 3 4 4 5 5 6 6 7 7 8 8
REMARK H PARENT 8 9
REMARK Flexibility Score: inf
ROOT
ATOM      1  C   UNL     1      -5.020  -4.430  16.176  1.00  0.00     0.048 C 
ATOM      2  C   UNL     1      -5.310  -4.794  14.747  1.00  0.00    -0.009 A 
ATOM      3  C   UNL     1      -6.484  -5.493  14.418  1.00  0.00     0.007 A 
ATOM      4  C   UNL     1      -6.754  -5.831  13.090  1.00  0.00     0.001 A 
ATOM      5  C   UNL     1      -5.857  -5.476  12.079  1.00  0.00     0.004 A 
ATOM      6  C   UNL     1      -4.687  -4.781  12.396  1.00  0.00     0.046 A 
ATOM      7  C   UNL     1      -4.408  -4.437  13.726  1.00  0.00     0.118 A 
ENDROOT
BRANCH   7   8
ATOM      8  O   UNL     1      -3.239  -3.743  14.038  1.00  0.00    -0.508 OA
ATOM      9  H   UNL     1      -3.188  -3.122  14.837  1.00  0.00     0.293 HD
ENDBRANCH   7   8
TORSDOF 1
ENDMDL
MODEL 8
REMARK VINA RESULT:    -4.218      1.662      2.860
REMARK INTER + INTRA:          -4.341
REMARK INTER:                  -4.341
REMARK INTRA:                   0.000
REMARK UNBOUND:                 0.000
REMARK SMILES Cc1ccccc1O
REMARK SMILES IDX 1 1 2 2 3 3 4 4 5 5 6 6 7 7 8 8
REMARK H PARENT 8 9
REMARK Flexibility Score: inf
ROOT
ATOM      1  C   UNL     1      -5.404  -4.543  15.662  1.00  0.00     0.048 C 
ATOM      2  C   UNL     1      -5.236  -5.270  14.358  1.00  0.00    -0.009 A 
ATOM      3  C   UNL     1      -4.045  -5.141  13.623  1.00  0.00     0.007 A 
ATOM      4  C   UNL     1      -3.888  -5.818  12.411  1.00  0.00     0.001 A 
ATOM      5  C   UNL     1      -4.916  -6.627  11.921  1.00  0.00     0.004 A 
ATOM      6  C   UNL     1      -6.104  -6.762  12.645  1.00  0.00     0.046 A 
ATOM      7  C   UNL     1      -6.269  -6.088  13.863  1.00  0.00     0.118 A 
ENDROOT
BRANCH   7   8
ATOM      8  O   UNL     1      -7.458  -6.225  14.582  1.00  0.00    -0.508 OA
ATOM      9  H   UNL     1      -7.626  -5.700  15.432  1.00  0.00     0.293 HD
ENDBRANCH   7   8
TORSDOF 1
ENDMDL
MODEL 9
REMARK VINA RESULT:    -4.145      2.221      3.129
REMARK INTER + INTRA:          -4.266
REMARK INTER:                  -4.266
REMARK INTRA:                   0.000
REMARK UNBOUND:                 0.000
REMARK SMILES Cc1ccccc1O
REMARK SMILES IDX 1 1 2 2 3 3 4 4 5 5 6 6 7 7 8 8
REMARK H PARENT 8 9
REMARK Flexibility Score: inf
ROOT
ATOM      1  C   UNL     1      -7.545  -6.216  14.014  1.00  0.00     0.048 C 
ATOM      2  C   UNL     1      -6.239  -5.493  13.844  1.00  0.00    -0.009 A 
ATOM      3  C   UNL     1      -5.470  -5.145  14.968  1.00  0.00     0.007 A 
ATOM      4  C   UNL     1      -4.255  -4.473  14.811  1.00  0.00     0.001 A 
ATOM      5  C   UNL     1      -3.798  -4.141  13.533  1.00  0.00     0.004 A 
ATOM      6  C   UNL     1      -4.555  -4.483  12.409  1.00  0.00     0.046 A 
ATOM      7  C   UNL     1      -5.775  -5.159  12.558  1.00  0.00     0.118 A 
ENDROOT
BRANCH   7   8
ATOM      8  O   UNL     1      -6.528  -5.497  11.433  1.00  0.00    -0.508 OA
ATOM      9  H   UNL     1      -6.286  -5.155  10.510  1.00  0.00     0.293 HD
ENDBRANCH   7   8
TORSDOF 1
ENDMDL
