MODEL 1
REMARK VINA RESULT:    -2.276      0.000      0.000
REMARK INTER + INTRA:          -3.058
REMARK INTER:                  -2.675
REMARK INTRA:                  -0.383
REMARK UNBOUND:                -0.383
REMARK SMILES [NH3+][C@H](CO)C(=O)[O-]
REMARK SMILES IDX 3 1 2 2 1 3 5 7 6 8 7 9 4 10
REMARK H PARENT 1 4 1 5 1 6 4 11
REMARK Flexibility Score: inf
ROOT
ATOM      1  C   UNL     1     208.214 187.391  -4.555  1.00  0.00     0.227 C 
ENDROOT
BRANCH   1   2
ATOM      2  C   UNL     1     207.627 188.007  -3.271  1.00  0.00     0.253 C 
BRANCH   2   3
ATOM      3  N   UNL     1     208.078 189.393  -3.094  1.00  0.00    -0.348 N 
ATOM      4  H   UNL     1     209.072 189.486  -3.406  1.00  0.00     0.345 HD
ATOM      5  H   UNL     1     207.483 190.051  -3.649  1.00  0.00     0.345 HD
ATOM      6  H   UNL     1     208.030 189.656  -2.082  1.00  0.00     0.345 HD
ENDBRANCH   2   3
BRANCH   2   7
ATOM      7  C   UNL     1     206.124 187.944  -3.307  1.00  0.00     0.102 C 
ATOM      8  O   UNL     1     205.519 186.900  -2.943  1.00  0.00    -0.544 OA
ATOM      9  O   UNL     1     205.393 189.047  -3.728  1.00  0.00    -0.544 OA
ENDBRANCH   2   7
ENDBRANCH   1   2
BRANCH   1  10
ATOM     10  O   UNL     1     207.223 187.250  -5.537  1.00  0.00    -0.390 OA
ATOM     11  H   UNL     1     207.599 187.623  -6.376  1.00  0.00     0.210 HD
ENDBRANCH   1  10
TORSDOF 4
ENDMDL
MODEL 2
REMARK VINA RESULT:    -2.222      2.218      3.023
REMARK INTER + INTRA:          -2.995
REMARK INTER:                  -2.769
REMARK INTRA:                  -0.226
REMARK UNBOUND:                -0.383
REMARK SMILES [NH3+][C@H](CO)C(=O)[O-]
REMARK SMILES IDX 3 1 2 2 1 3 5 7 6 8 7 9 4 10
REMARK H PARENT 1 4 1 5 1 6 4 11
REMARK Flexibility Score: inf
ROOT
ATOM      1  C   UNL     1     206.423 187.258  -3.255  1.00  0.00     0.227 C 
ENDROOT
BRANCH   1   2
ATOM      2  C   UNL     1     207.592 186.974  -4.216  1.00  0.00     0.253 C 
BRANCH   2   3
ATOM      3  N   UNL     1     207.202 187.216  -5.611  1.00  0.00    -0.348 N 
ATOM      4  H   UNL     1     207.930 187.796  -6.088  1.00  0.00     0.345 HD
ATOM      5  H   UNL     1     207.093 186.312  -6.127  1.00  0.00     0.345 HD
ATOM      6  H   UNL     1     206.297 187.740  -5.641  1.00  0.00     0.345 HD
ENDBRANCH   2   3
BRANCH   2   7
ATOM      7  C   UNL     1     208.782 187.820  -3.848  1.00  0.00     0.102 C 
ATOM      8  O   UNL     1     209.916 187.294  -3.690  1.00  0.00    -0.544 OA
ATOM      9  O   UNL     1     208.637 189.193  -3.698  1.00  0.00    -0.544 OA
ENDBRANCH   2   7
ENDBRANCH   1   2
BRANCH   1  10
ATOM     10  O   UNL     1     205.767 188.447  -3.607  1.00  0.00    -0.390 OA
ATOM     11  H   UNL     1     204.847 188.193  -3.880  1.00  0.00     0.210 HD
ENDBRANCH   1  10
TORSDOF 4
ENDMDL
MODEL 3
REMARK VINA RESULT:    -2.221     21.499     21.953
REMARK INTER + INTRA:          -2.994
REMARK INTER:                  -2.609
REMARK INTRA:                  -0.385
REMARK UNBOUND:                -0.383
REMARK SMILES [NH3+][C@H](CO)C(=O)[O-]
REMARK SMILES IDX 3 1 2 2 1 3 5 7 6 8 7 9 4 10
REMARK H PARENT 1 4 1 5 1 6 4 11
REMARK Flexibility Score: inf
ROOT
ATOM      1  C   UNL     1     219.151 206.067  -6.419  1.00  0.00     0.227 C 
ENDROOT
BRANCH   1   2
ATOM      2  C   UNL     1     220.144 205.064  -5.804  1.00  0.00     0.253 C 
BRANCH   2   3
ATOM      3  N   UNL     1     219.439 203.956  -5.147  1.00  0.00    -0.348 N 
ATOM      4  H   UNL     1     220.128 203.242  -4.817  1.00  0.00     0.345 HD
ATOM      5  H   UNL     1     218.885 204.301  -4.330  1.00  0.00     0.345 HD
ATOM      6  H   UNL     1     218.793 203.493  -5.829  1.00  0.00     0.345 HD
ENDBRANCH   2   3
BRANCH   2   7
ATOM      7  C   UNL     1     221.075 204.541  -6.864  1.00  0.00     0.102 C 
ATOM      8  O   UNL     1     220.919 203.383  -7.336  1.00  0.00    -0.544 OA
ATOM      9  O   UNL     1     222.105 205.341  -7.340  1.00  0.00    -0.544 OA
ENDBRANCH   2   7
ENDBRANCH   1   2
BRANCH   1  10
ATOM     10  O   UNL     1     219.259 206.079  -7.817  1.00  0.00    -0.390 OA
ATOM     11  H   UNL     1     219.104 205.148  -8.122  1.00  0.00     0.210 HD
ENDBRANCH   1  10
TORSDOF 4
ENDMDL
MODEL 4
REMARK VINA RESULT:    -2.164     21.405     21.806
REMARK INTER + INTRA:          -2.926
REMARK INTER:                  -2.575
REMARK INTRA:                  -0.351
REMARK UNBOUND:                -0.383
REMARK SMILES [NH3+][C@H](CO)C(=O)[O-]
REMARK SMILES IDX 3 1 2 2 1 3 5 7 6 8 7 9 4 10
REMARK H PARENT 1 4 1 5 1 6 4 11
REMARK Flexibility Score: inf
ROOT
ATOM      1  C   UNL     1     220.800 203.779  -5.576  1.00  0.00     0.227 C 
ENDROOT
BRANCH   1   2
ATOM      2  C   UNL     1     220.937 205.216  -6.111  1.00  0.00     0.253 C 
BRANCH   2   3
ATOM      3  N   UNL     1     221.908 205.281  -7.212  1.00  0.00    -0.348 N 
ATOM      4  H   UNL     1     222.406 204.366  -7.300  1.00  0.00     0.345 HD
ATOM      5  H   UNL     1     221.429 205.499  -8.116  1.00  0.00     0.345 HD
ATOM      6  H   UNL     1     222.621 206.021  -7.013  1.00  0.00     0.345 HD
ENDBRANCH   2   3
BRANCH   2   7
ATOM      7  C   UNL     1     219.596 205.731  -6.562  1.00  0.00     0.102 C 
ATOM      8  O   UNL     1     219.367 205.930  -7.785  1.00  0.00    -0.544 OA
ATOM      9  O   UNL     1     218.597 205.974  -5.629  1.00  0.00    -0.544 OA
ENDBRANCH   2   7
ENDBRANCH   1   2
BRANCH   1  10
ATOM     10  O   UNL     1     219.663 203.155  -6.110  1.00  0.00    -0.390 OA
ATOM     11  H   UNL     1     219.922 202.218  -6.311  1.00  0.00     0.210 HD
ENDBRANCH   1  10
TORSDOF 4
ENDMDL
MODEL 5
REMARK VINA RESULT:    -2.054      1.476      1.851
REMARK INTER + INTRA:          -2.797
REMARK INTER:                  -2.568
REMARK INTRA:                  -0.229
REMARK UNBOUND:                -0.383
REMARK SMILES [NH3+][C@H](CO)C(=O)[O-]
REMARK SMILES IDX 3 1 2 2 1 3 5 7 6 8 7 9 4 10
REMARK H PARENT 1 4 1 5 1 6 4 11
REMARK Flexibility Score: inf
ROOT
ATOM      1  C   UNL     1     208.904 188.699  -3.859  1.00  0.00     0.227 C 
ENDROOT
BRANCH   1   2
ATOM      2  C   UNL     1     207.642 188.456  -3.012  1.00  0.00     0.253 C 
BRANCH   2   3
ATOM      3  N   UNL     1     206.868 189.694  -2.847  1.00  0.00    -0.348 N 
ATOM      4  H   UNL     1     206.268 189.853  -3.688  1.00  0.00     0.345 HD
ATOM      5  H   UNL     1     206.260 189.641  -1.997  1.00  0.00     0.345 HD
ATOM      6  H   UNL     1     207.518 190.509  -2.753  1.00  0.00     0.345 HD
ENDBRANCH   2   3
BRANCH   2   7
ATOM      7  C   UNL     1     206.792 187.386  -3.643  1.00  0.00     0.102 C 
ATOM      8  O   UNL     1     205.763 186.957  -3.056  1.00  0.00    -0.544 OA
ATOM      9  O   UNL     1     207.131 186.876  -4.890  1.00  0.00    -0.544 OA
ENDBRANCH   2   7
ENDBRANCH   1   2
BRANCH   1  10
ATOM     10  O   UNL     1     209.746 187.578  -3.831  1.00  0.00    -0.390 OA
ATOM     11  H   UNL     1     210.676 187.921  -3.878  1.00  0.00     0.210 HD
ENDBRANCH   1  10
TORSDOF 4
ENDMDL
MODEL 6
REMARK VINA RESULT:    -2.052      1.995      3.029
REMARK INTER + INTRA:          -2.795
REMARK INTER:                  -2.572
REMARK INTRA:                  -0.223
REMARK UNBOUND:                -0.383
REMARK SMILES [NH3+][C@H](CO)C(=O)[O-]
REMARK SMILES IDX 3 1 2 2 1 3 5 7 6 8 7 9 4 10
REMARK H PARENT 1 4 1 5 1 6 4 11
REMARK Flexibility Score: inf
ROOT
ATOM      1  C   UNL     1     206.077 189.312  -3.131  1.00  0.00     0.227 C 
ENDROOT
BRANCH   1   2
ATOM      2  C   UNL     1     206.669 187.891  -3.112  1.00  0.00     0.253 C 
BRANCH   2   3
ATOM      3  N   UNL     1     205.608 186.875  -3.110  1.00  0.00    -0.348 N 
ATOM      4  H   UNL     1     205.113 186.880  -2.189  1.00  0.00     0.345 HD
ATOM      5  H   UNL     1     204.916 187.061  -3.873  1.00  0.00     0.345 HD
ATOM      6  H   UNL     1     206.026 185.926  -3.249  1.00  0.00     0.345 HD
ENDBRANCH   2   3
BRANCH   2   7
ATOM      7  C   UNL     1     207.582 187.695  -4.292  1.00  0.00     0.102 C 
ATOM      8  O   UNL     1     207.248 186.933  -5.239  1.00  0.00    -0.544 OA
ATOM      9  O   UNL     1     208.795 188.368  -4.351  1.00  0.00    -0.544 OA
ENDBRANCH   2   7
ENDBRANCH   1   2
BRANCH   1  10
ATOM     10  O   UNL     1     207.048 190.261  -2.782  1.00  0.00    -0.390 OA
ATOM     11  H   UNL     1     207.807 190.134  -3.408  1.00  0.00     0.210 HD
ENDBRANCH   1  10
TORSDOF 4
ENDMDL
MODEL 7
REMARK VINA RESULT:    -2.034     21.361     21.851
REMARK INTER + INTRA:          -2.774
REMARK INTER:                  -2.532
REMARK INTRA:                  -0.242
REMARK UNBOUND:                -0.383
REMARK SMILES [NH3+][C@H](CO)C(=O)[O-]
REMARK SMILES IDX 3 1 2 2 1 3 5 7 6 8 7 9 4 10
REMARK H PARENT 1 4 1 5 1 6 4 11
REMARK Flexibility Score: inf
ROOT
ATOM      1  C   UNL     1     219.058 204.723  -5.125  1.00  0.00     0.227 C 
ENDROOT
BRANCH   1   2
ATOM      2  C   UNL     1     220.425 204.334  -5.717  1.00  0.00     0.253 C 
BRANCH   2   3
ATOM      3  N   UNL     1     220.472 202.904  -6.048  1.00  0.00    -0.348 N 
ATOM      4  H   UNL     1     221.044 202.393  -5.338  1.00  0.00     0.345 HD
ATOM      5  H   UNL     1     219.508 202.496  -6.069  1.00  0.00     0.345 HD
ATOM      6  H   UNL     1     220.921 202.771  -6.984  1.00  0.00     0.345 HD
ENDBRANCH   2   3
BRANCH   2   7
ATOM      7  C   UNL     1     220.717 205.166  -6.937  1.00  0.00     0.102 C 
ATOM      8  O   UNL     1     221.906 205.416  -7.270  1.00  0.00    -0.544 OA
ATOM      9  O   UNL     1     219.672 205.651  -7.712  1.00  0.00    -0.544 OA
ENDBRANCH   2   7
ENDBRANCH   1   2
BRANCH   1  10
ATOM     10  O   UNL     1     218.993 206.103  -4.886  1.00  0.00    -0.390 OA
ATOM     11  H   UNL     1     219.783 206.506  -5.331  1.00  0.00     0.210 HD
ENDBRANCH   1  10
TORSDOF 4
ENDMDL
MODEL 8
REMARK VINA RESULT:    -2.032     21.040     21.486
REMARK INTER + INTRA:          -2.771
REMARK INTER:                  -2.379
REMARK INTRA:                  -0.392
REMARK UNBOUND:                -0.383
REMARK SMILES [NH3+][C@H](CO)C(=O)[O-]
REMARK SMILES IDX 3 1 2 2 1 3 5 7 6 8 7 9 4 10
REMARK H PARENT 1 4 1 5 1 6 4 11
REMARK Flexibility Score: inf
ROOT
ATOM      1  C   UNL     1     219.447 205.807  -6.360  1.00  0.00     0.227 C 
ENDROOT
BRANCH   1   2
ATOM      2  C   UNL     1     220.635 204.947  -6.830  1.00  0.00     0.253 C 
BRANCH   2   3
ATOM      3  N   UNL     1     221.914 205.547  -6.430  1.00  0.00    -0.348 N 
ATOM      4  H   UNL     1     222.109 206.392  -7.015  1.00  0.00     0.345 HD
ATOM      5  H   UNL     1     221.894 205.826  -5.421  1.00  0.00     0.345 HD
ATOM      6  H   UNL     1     222.690 204.861  -6.581  1.00  0.00     0.345 HD
ENDBRANCH   2   3
BRANCH   2   7
ATOM      7  C   UNL     1     220.513 203.552  -6.280  1.00  0.00     0.102 C 
ATOM      8  O   UNL     1     219.937 202.650  -6.945  1.00  0.00    -0.544 OA
ATOM      9  O   UNL     1     221.054 203.246  -5.037  1.00  0.00    -0.544 OA
ENDBRANCH   2   7
ENDBRANCH   1   2
BRANCH   1  10
ATOM     10  O   UNL     1     218.680 205.119  -5.409  1.00  0.00    -0.390 OA
ATOM     11  H   UNL     1     219.228 204.349  -5.106  1.00  0.00     0.210 HD
ENDBRANCH   1  10
TORSDOF 4
ENDMDL
MODEL 9
REMARK VINA RESULT:    -1.368      1.478      2.547
REMARK INTER + INTRA:          -1.991
REMARK INTER:                  -1.747
REMARK INTRA:                  -0.244
REMARK UNBOUND:                -0.383
REMARK SMILES [NH3+][C@H](CO)C(=O)[O-]
REMARK SMILES IDX 3 1 2 2 1 3 5 7 6 8 7 9 4 10
REMARK H PARENT 1 4 1 5 1 6 4 11
REMARK Flexibility Score: inf
ROOT
ATOM      1  C   UNL     1     208.126 189.354  -2.773  1.00  0.00     0.227 C 
ENDROOT
BRANCH   1   2
ATOM      2  C   UNL     1     208.583 188.320  -3.817  1.00  0.00     0.253 C 
BRANCH   2   3
ATOM      3  N   UNL     1     209.777 187.597  -3.358  1.00  0.00    -0.348 N 
ATOM      4  H   UNL     1     210.482 187.549  -4.130  1.00  0.00     0.345 HD
ATOM      5  H   UNL     1     210.205 188.075  -2.532  1.00  0.00     0.345 HD
ATOM      6  H   UNL     1     209.519 186.618  -3.093  1.00  0.00     0.345 HD
ENDBRANCH   2   3
BRANCH   2   7
ATOM      7  C   UNL     1     207.467 187.355  -4.114  1.00  0.00     0.102 C 
ATOM      8  O   UNL     1     207.256 186.965  -5.294  1.00  0.00    -0.544 OA
ATOM      9  O   UNL     1     206.671 186.875  -3.082  1.00  0.00    -0.544 OA
ENDBRANCH   2   7
ENDBRANCH   1   2
BRANCH   1  10
ATOM     10  O   UNL     1     206.777 189.688  -2.961  1.00  0.00    -0.390 OA
ATOM     11  H   UNL     1     206.461 189.164  -3.742  1.00  0.00     0.210 HD
ENDBRANCH   1  10
TORSDOF 4
ENDMDL
