MODEL 1
REMARK VINA RESULT:    -4.589      0.000      0.000
REMARK INTER + INTRA:          -5.405
REMARK INTER:                  -5.260
REMARK INTRA:                  -0.145
REMARK UNBOUND:                -0.145
REMARK SMILES O=C([O-])C=Cc1ccc(O)cc1
REMARK SMILES IDX 6 1 7 2 12 3 8 4 11 5 9 6 5 7 4 8 2 9 1 10 3 11 10 12
REMARK H PARENT 10 13
REMARK Flexibility Score: inf
ROOT
ATOM      1  C   UNL     1       3.878  -8.488   4.776  1.00  0.00    -0.025 A 
ATOM      2  C   UNL     1       3.171  -8.167   5.954  1.00  0.00     0.012 A 
ATOM      3  C   UNL     1       5.262  -8.251   4.731  1.00  0.00     0.012 A 
ATOM      4  C   UNL     1       3.846  -7.645   7.062  1.00  0.00     0.047 A 
ATOM      5  C   UNL     1       5.932  -7.731   5.842  1.00  0.00     0.047 A 
ATOM      6  C   UNL     1       5.226  -7.427   7.012  1.00  0.00     0.115 A 
ENDROOT
BRANCH   1   7
ATOM      7  C   UNL     1       3.210  -9.033   3.568  1.00  0.00     0.010 C 
ATOM      8  C   UNL     1       1.889  -9.238   3.475  1.00  0.00     0.025 C 
BRANCH   8   9
ATOM      9  C   UNL     1       1.272  -9.792   2.259  1.00  0.00     0.064 C 
ATOM     10  O   UNL     1       1.993 -10.378   1.410  1.00  0.00    -0.545 OA
ATOM     11  O   UNL     1      -0.094  -9.679   2.033  1.00  0.00    -0.545 OA
ENDBRANCH   8   9
ENDBRANCH   1   7
BRANCH   6  12
ATOM     12  O   UNL     1       5.882  -6.909   8.125  1.00  0.00    -0.508 OA
ATOM     13  H   UNL     1       5.894  -5.913   8.316  1.00  0.00     0.293 HD
ENDBRANCH   6  12
TORSDOF 3
ENDMDL
MODEL 2
REMARK VINA RESULT:    -4.395      1.384      2.028
REMARK INTER + INTRA:          -5.183
REMARK INTER:                  -5.035
REMARK INTRA:                  -0.148
REMARK UNBOUND:                -0.145
REMARK SMILES O=C([O-])C=Cc1ccc(O)cc1
REMARK SMILES IDX 6 1 7 2 12 3 8 4 11 5 9 6 5 7 4 8 2 9 1 10 3 11 10 12
REMARK H PARENT 10 13
REMARK Flexibility Score: inf
ROOT
ATOM      1  C   UNL     1       4.483  -7.667   6.133  1.00  0.00    -0.025 A 
ATOM      2  C   UNL     1       4.242  -6.572   6.989  1.00  0.00     0.012 A 
ATOM      3  C   UNL     1       5.810  -8.068   5.905  1.00  0.00     0.012 A 
ATOM      4  C   UNL     1       5.306  -5.916   7.615  1.00  0.00     0.047 A 
ATOM      5  C   UNL     1       6.872  -7.410   6.534  1.00  0.00     0.047 A 
ATOM      6  C   UNL     1       6.622  -6.332   7.392  1.00  0.00     0.115 A 
ENDROOT
BRANCH   1   7
ATOM      7  C   UNL     1       3.392  -8.391   5.435  1.00  0.00     0.010 C 
ATOM      8  C   UNL     1       3.451  -8.768   4.151  1.00  0.00     0.025 C 
BRANCH   8   9
ATOM      9  C   UNL     1       2.338  -9.475   3.497  1.00  0.00     0.064 C 
ATOM     10  O   UNL     1       1.231  -9.570   4.088  1.00  0.00    -0.545 OA
ATOM     11  O   UNL     1       2.488 -10.038   2.235  1.00  0.00    -0.545 OA
ENDBRANCH   8   9
ENDBRANCH   1   7
BRANCH   6  12
ATOM     12  O   UNL     1       7.670  -5.669   8.024  1.00  0.00    -0.508 OA
ATOM     13  H   UNL     1       8.589  -5.608   7.602  1.00  0.00     0.293 HD
ENDBRANCH   6  12
TORSDOF 3
ENDMDL
MODEL 3
REMARK VINA RESULT:    -4.243      1.484      5.835
REMARK INTER + INTRA:          -5.008
REMARK INTER:                  -4.874
REMARK INTRA:                  -0.134
REMARK UNBOUND:                -0.145
REMARK SMILES O=C([O-])C=Cc1ccc(O)cc1
REMARK SMILES IDX 6 1 7 2 12 3 8 4 11 5 9 6 5 7 4 8 2 9 1 10 3 11 10 12
REMARK H PARENT 10 13
REMARK Flexibility Score: inf
ROOT
ATOM      1  C   UNL     1       4.461  -8.446   5.343  1.00  0.00    -0.025 A 
ATOM      2  C   UNL     1       3.386  -8.857   6.159  1.00  0.00     0.012 A 
ATOM      3  C   UNL     1       4.312  -8.501   3.948  1.00  0.00     0.012 A 
ATOM      4  C   UNL     1       2.186  -9.286   5.582  1.00  0.00     0.047 A 
ATOM      5  C   UNL     1       3.110  -8.930   3.376  1.00  0.00     0.047 A 
ATOM      6  C   UNL     1       2.043  -9.322   4.192  1.00  0.00     0.115 A 
ENDROOT
BRANCH   1   7
ATOM      7  C   UNL     1       5.759  -7.993   5.902  1.00  0.00     0.010 C 
ATOM      8  C   UNL     1       5.904  -6.891   6.650  1.00  0.00     0.025 C 
BRANCH   8   9
ATOM      9  C   UNL     1       7.215  -6.474   7.174  1.00  0.00     0.064 C 
ATOM     10  O   UNL     1       7.736  -7.115   8.124  1.00  0.00    -0.545 OA
ATOM     11  O   UNL     1       7.890  -5.385   6.636  1.00  0.00    -0.545 OA
ENDBRANCH   8   9
ENDBRANCH   1   7
BRANCH   6  12
ATOM     12  O   UNL     1       0.842  -9.751   3.635  1.00  0.00    -0.508 OA
ATOM     13  H   UNL     1       0.503  -9.378   2.755  1.00  0.00     0.293 HD
ENDBRANCH   6  12
TORSDOF 3
ENDMDL
MODEL 4
REMARK VINA RESULT:    -4.117     13.852     15.363
REMARK INTER + INTRA:          -4.864
REMARK INTER:                  -4.719
REMARK INTRA:                  -0.145
REMARK UNBOUND:                -0.145
REMARK SMILES O=C([O-])C=Cc1ccc(O)cc1
REMARK SMILES IDX 6 1 7 2 12 3 8 4 11 5 9 6 5 7 4 8 2 9 1 10 3 11 10 12
REMARK H PARENT 10 13
REMARK Flexibility Score: inf
ROOT
ATOM      1  C   UNL     1      13.593   1.626   0.771  1.00  0.00    -0.025 A 
ATOM      2  C   UNL     1      13.629   0.359   0.154  1.00  0.00     0.012 A 
ATOM      3  C   UNL     1      13.921   1.726   2.133  1.00  0.00     0.012 A 
ATOM      4  C   UNL     1      14.011  -0.772   0.883  1.00  0.00     0.047 A 
ATOM      5  C   UNL     1      14.304   0.593   2.859  1.00  0.00     0.047 A 
ATOM      6  C   UNL     1      14.350  -0.659   2.235  1.00  0.00     0.115 A 
ENDROOT
BRANCH   1   7
ATOM      7  C   UNL     1      13.184   2.856   0.047  1.00  0.00     0.010 C 
ATOM      8  C   UNL     1      12.326   3.759   0.539  1.00  0.00     0.025 C 
BRANCH   8   9
ATOM      9  C   UNL     1      11.940   4.959  -0.222  1.00  0.00     0.064 C 
ATOM     10  O   UNL     1      12.834   5.731  -0.658  1.00  0.00    -0.545 OA
ATOM     11  O   UNL     1      10.605   5.254  -0.469  1.00  0.00    -0.545 OA
ENDBRANCH   8   9
ENDBRANCH   1   7
BRANCH   6  12
ATOM     12  O   UNL     1      14.730  -1.794   2.946  1.00  0.00    -0.508 OA
ATOM     13  H   UNL     1      15.375  -1.739   3.726  1.00  0.00     0.293 HD
ENDBRANCH   6  12
TORSDOF 3
ENDMDL
MODEL 5
REMARK VINA RESULT:    -4.026      8.642     10.138
REMARK INTER + INTRA:          -4.760
REMARK INTER:                  -4.612
REMARK INTRA:                  -0.147
REMARK UNBOUND:                -0.145
REMARK SMILES O=C([O-])C=Cc1ccc(O)cc1
REMARK SMILES IDX 6 1 7 2 12 3 8 4 11 5 9 6 5 7 4 8 2 9 1 10 3 11 10 12
REMARK H PARENT 10 13
REMARK Flexibility Score: inf
ROOT
ATOM      1  C   UNL     1      -1.986 -12.616  -2.098  1.00  0.00    -0.025 A 
ATOM      2  C   UNL     1      -3.171 -13.325  -1.811  1.00  0.00     0.012 A 
ATOM      3  C   UNL     1      -1.523 -11.668  -1.171  1.00  0.00     0.012 A 
ATOM      4  C   UNL     1      -3.855 -13.102  -0.612  1.00  0.00     0.047 A 
ATOM      5  C   UNL     1      -2.209 -11.449   0.028  1.00  0.00     0.047 A 
ATOM      6  C   UNL     1      -3.377 -12.166   0.311  1.00  0.00     0.115 A 
ENDROOT
BRANCH   1   7
ATOM      7  C   UNL     1      -1.228 -12.805  -3.360  1.00  0.00     0.010 C 
ATOM      8  C   UNL     1      -0.551 -11.827  -3.976  1.00  0.00     0.025 C 
BRANCH   8   9
ATOM      9  C   UNL     1       0.177 -12.060  -5.234  1.00  0.00     0.064 C 
ATOM     10  O   UNL     1      -0.467 -12.230  -6.302  1.00  0.00    -0.545 OA
ATOM     11  O   UNL     1       1.567 -12.093  -5.263  1.00  0.00    -0.545 OA
ENDBRANCH   8   9
ENDBRANCH   1   7
BRANCH   6  12
ATOM     12  O   UNL     1      -4.070 -11.958   1.500  1.00  0.00    -0.508 OA
ATOM     13  H   UNL     1      -3.872 -12.505   2.331  1.00  0.00     0.293 HD
ENDBRANCH   6  12
TORSDOF 3
ENDMDL
MODEL 6
REMARK VINA RESULT:    -3.993      9.900     11.389
REMARK INTER + INTRA:          -4.722
REMARK INTER:                  -4.584
REMARK INTRA:                  -0.138
REMARK UNBOUND:                -0.145
REMARK SMILES O=C([O-])C=Cc1ccc(O)cc1
REMARK SMILES IDX 6 1 7 2 12 3 8 4 11 5 9 6 5 7 4 8 2 9 1 10 3 11 10 12
REMARK H PARENT 10 13
REMARK Flexibility Score: inf
ROOT
ATOM      1  C   UNL     1       7.710   1.777   4.048  1.00  0.00    -0.025 A 
ATOM      2  C   UNL     1       9.072   1.788   3.683  1.00  0.00     0.012 A 
ATOM      3  C   UNL     1       7.096   2.987   4.411  1.00  0.00     0.012 A 
ATOM      4  C   UNL     1       9.788   2.989   3.660  1.00  0.00     0.047 A 
ATOM      5  C   UNL     1       7.815   4.186   4.386  1.00  0.00     0.047 A 
ATOM      6  C   UNL     1       9.163   4.190   4.009  1.00  0.00     0.115 A 
ENDROOT
BRANCH   1   7
ATOM      7  C   UNL     1       6.907   0.529   4.100  1.00  0.00     0.010 C 
ATOM      8  C   UNL     1       6.889  -0.301   5.151  1.00  0.00     0.025 C 
BRANCH   8   9
ATOM      9  C   UNL     1       6.086  -1.535   5.153  1.00  0.00     0.064 C 
ATOM     10  O   UNL     1       5.102  -1.636   4.374  1.00  0.00    -0.545 OA
ATOM     11  O   UNL     1       6.396  -2.592   6.001  1.00  0.00    -0.545 OA
ENDBRANCH   8   9
ENDBRANCH   1   7
BRANCH   6  12
ATOM     12  O   UNL     1       9.890   5.377   3.980  1.00  0.00    -0.508 OA
ATOM     13  H   UNL     1       9.527   6.209   3.527  1.00  0.00     0.293 HD
ENDBRANCH   6  12
TORSDOF 3
ENDMDL
MODEL 7
REMARK VINA RESULT:    -3.918      9.353     11.011
REMARK INTER + INTRA:          -4.635
REMARK INTER:                  -4.483
REMARK INTRA:                  -0.152
REMARK UNBOUND:                -0.145
REMARK SMILES O=C([O-])C=Cc1ccc(O)cc1
REMARK SMILES IDX 6 1 7 2 12 3 8 4 11 5 9 6 5 7 4 8 2 9 1 10 3 11 10 12
REMARK H PARENT 10 13
REMARK Flexibility Score: inf
ROOT
ATOM      1  C   UNL     1       8.660   1.047   4.112  1.00  0.00    -0.025 A 
ATOM      2  C   UNL     1       8.825   2.093   3.181  1.00  0.00     0.012 A 
ATOM      3  C   UNL     1       9.796   0.524   4.752  1.00  0.00     0.012 A 
ATOM      4  C   UNL     1      10.097   2.614   2.921  1.00  0.00     0.047 A 
ATOM      5  C   UNL     1      11.066   1.049   4.490  1.00  0.00     0.047 A 
ATOM      6  C   UNL     1      11.219   2.097   3.575  1.00  0.00     0.115 A 
ENDROOT
BRANCH   1   7
ATOM      7  C   UNL     1       7.336   0.450   4.415  1.00  0.00     0.010 C 
ATOM      8  C   UNL     1       7.166  -0.636   5.182  1.00  0.00     0.025 C 
BRANCH   8   9
ATOM      9  C   UNL     1       5.833  -1.200   5.446  1.00  0.00     0.064 C 
ATOM     10  O   UNL     1       5.151  -1.655   4.491  1.00  0.00    -0.545 OA
ATOM     11  O   UNL     1       5.313  -1.240   6.734  1.00  0.00    -0.545 OA
ENDBRANCH   8   9
ENDBRANCH   1   7
BRANCH   6  12
ATOM     12  O   UNL     1      12.477   2.628   3.306  1.00  0.00    -0.508 OA
ATOM     13  H   UNL     1      13.169   2.747   4.038  1.00  0.00     0.293 HD
ENDBRANCH   6  12
TORSDOF 3
ENDMDL
MODEL 8
REMARK VINA RESULT:    -3.890      2.861      6.766
REMARK INTER + INTRA:          -4.604
REMARK INTER:                  -4.460
REMARK INTRA:                  -0.144
REMARK UNBOUND:                -0.145
REMARK SMILES O=C([O-])C=Cc1ccc(O)cc1
REMARK SMILES IDX 6 1 7 2 12 3 8 4 11 5 9 6 5 7 4 8 2 9 1 10 3 11 10 12
REMARK H PARENT 10 13
REMARK Flexibility Score: inf
ROOT
ATOM      1  C   UNL     1       5.705  -6.869   6.683  1.00  0.00    -0.025 A 
ATOM      2  C   UNL     1       5.686  -7.874   5.693  1.00  0.00     0.012 A 
ATOM      3  C   UNL     1       4.507  -6.539   7.336  1.00  0.00     0.012 A 
ATOM      4  C   UNL     1       4.496  -8.543   5.389  1.00  0.00     0.047 A 
ATOM      5  C   UNL     1       3.319  -7.211   7.030  1.00  0.00     0.047 A 
ATOM      6  C   UNL     1       3.311  -8.216   6.056  1.00  0.00     0.115 A 
ENDROOT
BRANCH   1   7
ATOM      7  C   UNL     1       6.937  -6.121   7.036  1.00  0.00     0.010 C 
ATOM      8  C   UNL     1       7.011  -4.784   7.077  1.00  0.00     0.025 C 
BRANCH   8   9
ATOM      9  C   UNL     1       8.259  -4.084   7.422  1.00  0.00     0.064 C 
ATOM     10  O   UNL     1       8.224  -2.861   7.715  1.00  0.00    -0.545 OA
ATOM     11  O   UNL     1       9.478  -4.753   7.430  1.00  0.00    -0.545 OA
ENDBRANCH   8   9
ENDBRANCH   1   7
BRANCH   6  12
ATOM     12  O   UNL     1       2.136  -8.893   5.742  1.00  0.00    -0.508 OA
ATOM     13  H   UNL     1       1.496  -8.543   5.036  1.00  0.00     0.293 HD
ENDBRANCH   6  12
TORSDOF 3
ENDMDL
MODEL 9
REMARK VINA RESULT:    -3.843      8.674     10.864
REMARK INTER + INTRA:          -4.550
REMARK INTER:                  -4.399
REMARK INTRA:                  -0.151
REMARK UNBOUND:                -0.145
REMARK SMILES O=C([O-])C=Cc1ccc(O)cc1
REMARK SMILES IDX 6 1 7 2 12 3 8 4 11 5 9 6 5 7 4 8 2 9 1 10 3 11 10 12
REMARK H PARENT 10 13
REMARK Flexibility Score: inf
ROOT
ATOM      1  C   UNL     1       8.210  -0.208   5.227  1.00  0.00    -0.025 A 
ATOM      2  C   UNL     1       8.620  -1.158   6.186  1.00  0.00     0.012 A 
ATOM      3  C   UNL     1       6.906  -0.284   4.713  1.00  0.00     0.012 A 
ATOM      4  C   UNL     1       7.731  -2.141   6.631  1.00  0.00     0.047 A 
ATOM      5  C   UNL     1       6.019  -1.268   5.161  1.00  0.00     0.047 A 
ATOM      6  C   UNL     1       6.430  -2.199   6.123  1.00  0.00     0.115 A 
ENDROOT
BRANCH   1   7
ATOM      7  C   UNL     1       9.117   0.848   4.712  1.00  0.00     0.010 C 
ATOM      8  C   UNL     1       8.833   1.625   3.658  1.00  0.00     0.025 C 
BRANCH   8   9
ATOM      9  C   UNL     1       9.769   2.653   3.175  1.00  0.00     0.064 C 
ATOM     10  O   UNL     1      10.679   2.333   2.367  1.00  0.00    -0.545 OA
ATOM     11  O   UNL     1       9.664   3.973   3.596  1.00  0.00    -0.545 OA
ENDBRANCH   8   9
ENDBRANCH   1   7
BRANCH   6  12
ATOM     12  O   UNL     1       5.557  -3.184   6.578  1.00  0.00    -0.508 OA
ATOM     13  H   UNL     1       4.680  -2.946   7.029  1.00  0.00     0.293 HD
ENDBRANCH   6  12
TORSDOF 3
ENDMDL
