MODEL 1
REMARK VINA RESULT:     5.872      0.000      0.000
REMARK INTER + INTRA:          15.411
REMARK INTER:                   8.618
REMARK INTRA:                   6.793
REMARK UNBOUND:                 6.793
REMARK SMILES O=c1c(O[C@H]2O[C@H](CO)[C@@H](O)[C@@H](O)[C@H]2O)c(-c2ccc(O)c(O)c2)oc2cc(O)cc(O)c12
REMARK SMILES IDX 4 1 3 2 16 3 25 4 2 5 26 6 1 7 33 8 27 9 31 10 28 11 30 12
REMARK SMILES IDX 17 13 18 14 19 15 20 16 24 17 22 18 21 19 23 21 32 23 29 25
REMARK SMILES IDX 5 27 14 28 6 29 12 30 7 31 10 32 15 33 13 35 8 37 9 38 11 40
REMARK H PARENT 21 20 23 22 32 24 29 26 15 34 13 36 9 39 11 41
REMARK Flexibility Score: inf
ROOT
ATOM      1  O   UNL     1       5.495  11.520   9.489  1.00  0.00    -0.454 OA
ENDROOT
BRANCH   1   2
ATOM      2  C   UNL     1       5.967  11.700   8.174  1.00  0.00     0.214 A 
ATOM      3  C   UNL     1       5.020  11.794   7.135  1.00  0.00     0.180 A 
ATOM      4  O   UNL     1       5.412  12.049   5.892  1.00  0.00    -0.452 OA
ATOM      5  C   UNL     1       7.335  11.824   7.845  1.00  0.00     0.239 A 
ATOM      6  C   UNL     1       6.682  12.204   5.546  1.00  0.00     0.146 A 
ATOM      7  O   UNL     1       8.217  11.682   8.734  1.00  0.00    -0.285 OA
ATOM      8  C   UNL     1       7.708  12.093   6.511  1.00  0.00     0.111 A 
ATOM      9  C   UNL     1       6.995  12.471   4.211  1.00  0.00     0.094 A 
ATOM     10  C   UNL     1       9.056  12.255   6.103  1.00  0.00     0.134 A 
ATOM     11  C   UNL     1       8.326  12.633   3.816  1.00  0.00     0.123 A 
ATOM     12  C   UNL     1       9.348  12.523   4.758  1.00  0.00     0.093 A 
BRANCH   3  13
ATOM     13  C   UNL     1       3.570  11.656   7.395  1.00  0.00     0.025 A 
ATOM     14  C   UNL     1       2.765  10.819   6.603  1.00  0.00     0.016 A 
ATOM     15  C   UNL     1       1.398  10.700   6.869  1.00  0.00     0.051 A 
ATOM     16  C   UNL     1       0.815  11.428   7.913  1.00  0.00     0.157 A 
ATOM     17  C   UNL     1       2.977  12.404   8.424  1.00  0.00     0.062 A 
ATOM     18  C   UNL     1       1.605  12.285   8.689  1.00  0.00     0.158 A 
BRANCH  16  19
ATOM     19  O   UNL     1      -0.549  11.309   8.183  1.00  0.00    -0.504 OA
ATOM     20  H   UNL     1      -1.126  12.120   8.366  1.00  0.00     0.293 HD
ENDBRANCH  16  19
BRANCH  18  21
ATOM     21  O   UNL     1       1.021  13.015   9.723  1.00  0.00    -0.504 OA
ATOM     22  H   UNL     1       0.699  13.964   9.585  1.00  0.00     0.293 HD
ENDBRANCH  18  21
ENDBRANCH   3  13
BRANCH  10  23
ATOM     23  O   UNL     1      10.103  12.153   7.021  1.00  0.00    -0.507 OA
ATOM     24  H   UNL     1      10.397  11.259   7.400  1.00  0.00     0.293 HD
ENDBRANCH  10  23
BRANCH  11  25
ATOM     25  O   UNL     1       8.642  12.901   2.486  1.00  0.00    -0.508 OA
ATOM     26  H   UNL     1       8.966  13.816   2.194  1.00  0.00     0.293 HD
ENDBRANCH  11  25
ENDBRANCH   1   2
BRANCH   1  27
ATOM     27  C   UNL     1       5.638  10.353  10.303  1.00  0.00     0.339 C 
ATOM     28  C   UNL     1       6.123   9.152   9.462  1.00  0.00     0.214 C 
ATOM     29  O   UNL     1       4.425  10.035  10.969  1.00  0.00    -0.332 OA
ATOM     30  C   UNL     1       5.043   8.696   8.465  1.00  0.00     0.180 C 
ATOM     31  C   UNL     1       3.379   9.750  10.052  1.00  0.00     0.179 C 
ATOM     32  C   UNL     1       3.712   8.494   9.212  1.00  0.00     0.177 C 
BRANCH  28  33
ATOM     33  O   UNL     1       7.345   9.420   8.819  1.00  0.00    -0.384 OA
ATOM     34  H   UNL     1       7.394  10.394   8.640  1.00  0.00     0.211 HD
ENDBRANCH  28  33
BRANCH  30  35
ATOM     35  O   UNL     1       4.873   9.656   7.447  1.00  0.00    -0.387 OA
ATOM     36  H   UNL     1       4.590  10.505   7.880  1.00  0.00     0.211 HD
ENDBRANCH  30  35
BRANCH  31  37
ATOM     37  C   UNL     1       2.086   9.547  10.848  1.00  0.00     0.191 C 
BRANCH  37  38
ATOM     38  O   UNL     1       1.832   8.177  10.994  1.00  0.00    -0.394 OA
ATOM     39  H   UNL     1       2.556   7.707  10.505  1.00  0.00     0.210 HD
ENDBRANCH  37  38
ENDBRANCH  31  37
BRANCH  32  40
ATOM     40  O   UNL     1       2.680   8.243   8.292  1.00  0.00    -0.387 OA
ATOM     41  H   UNL     1       2.683   9.004   7.653  1.00  0.00     0.211 HD
ENDBRANCH  32  40
ENDBRANCH   1  27
TORSDOF 12
ENDMDL
