MODEL 1
REMARK VINA RESULT:    -3.082      0.000      0.000
REMARK INTER + INTRA:          -5.074
REMARK INTER:                  -4.704
REMARK INTRA:                  -0.370
REMARK UNBOUND:                -0.370
REMARK SMILES CC1=CCC[C@@H](C)C(=O)C[C@@H](C(C)C)C(=O)C1
REMARK SMILES IDX 8 1 9 2 6 3 7 4 5 5 4 6 3 7 2 8 1 9 10 11 11 12 15 13 16 14
REMARK SMILES IDX 17 15 12 17 13 18 14 19
REMARK H PARENT
REMARK Flexibility Score: 70.00
ROOT
ATOM      1  C   UNL     1      57.261 -18.100   1.029  1.00  0.00     0.136 C 
ATOM      2  O   UNL     1      56.941 -17.744   2.154  1.00  0.00    -0.299 OA
ENDROOT
BRANCH   1   3
ATOM      3  C   UNL     1      57.922 -19.456   0.853  1.00  0.00     0.053 C 
ATOM      4  C   UNL     1      57.055 -20.566   1.459  1.00  0.00     0.016 C 
BRANCH   3   5
ATOM      5  C   UNL     1      59.343 -19.476   1.447  1.00  0.00     0.015 C 
BRANCH   5   6
ATOM      6  C   UNL     1      60.426 -19.440   0.355  1.00  0.00     0.028 C 
BRANCH   6   7
ATOM      7  C   UNL     1      60.786 -18.018   0.010  1.00  0.00    -0.028 C 
ATOM      8  C   UNL     1      60.365 -17.368  -1.101  1.00  0.00    -0.070 CG0
ATOM      9  C   UNL     1      60.758 -15.922  -1.266  1.00  0.00     0.039 C 
ATOM     10  G   UNL     1      59.534 -18.037  -2.186  1.00  0.00     0.000 G0
ENDBRANCH   6   7
ENDBRANCH   5   6
ENDBRANCH   3   5
ENDBRANCH   1   3
BRANCH   1  11
ATOM     11  C   UNL     1      57.011 -17.160  -0.129  1.00  0.00     0.087 C 
BRANCH  11  12
ATOM     12  C   UNL     1      57.013 -17.897  -1.496  1.00  0.00     0.066 C 
BRANCH  12  13
ATOM     13  C   UNL     1      58.173 -17.442  -2.372  1.00  0.00     0.140 C 
ATOM     14  O   UNL     1      57.981 -16.627  -3.262  1.00  0.00    -0.299 OA
BRANCH  13  15
ATOM     15  C   UNL     1      59.553 -18.033  -2.204  1.00  0.00     0.106 CG0
ATOM     16  G   UNL     1      60.340 -17.350  -1.095  1.00  0.00     0.000 G0
ENDBRANCH  13  15
ENDBRANCH  12  13
BRANCH  12  17
ATOM     17  C   UNL     1      55.639 -17.774  -2.224  1.00  0.00    -0.006 C 
ATOM     18  C   UNL     1      54.782 -19.051  -2.164  1.00  0.00     0.008 C 
ATOM     19  C   UNL     1      54.833 -16.571  -1.711  1.00  0.00     0.008 C 
ENDBRANCH  12  17
ENDBRANCH  11  12
ENDBRANCH   1  11
TORSDOF 1
ENDMDL
MODEL 2
REMARK VINA RESULT:    -3.005      1.991      4.931
REMARK INTER + INTRA:          -4.956
REMARK INTER:                  -5.168
REMARK INTRA:                   0.212
REMARK UNBOUND:                -0.370
REMARK SMILES CC1=CCC[C@@H](C)C(=O)C[C@@H](C(C)C)C(=O)C1
REMARK SMILES IDX 8 1 9 2 6 3 7 4 5 5 4 6 3 7 2 8 1 9 10 11 11 12 15 13 16 14
REMARK SMILES IDX 17 15 12 17 13 18 14 19
REMARK H PARENT
REMARK Flexibility Score: 70.00
ROOT
ATOM      1  C   UNL     1      61.073 -18.482  -0.459  1.00  0.00     0.136 C 
ATOM      2  O   UNL     1      61.875 -19.396  -0.340  1.00  0.00    -0.299 OA
ENDROOT
BRANCH   1   3
ATOM      3  C   UNL     1      61.048 -17.698  -1.760  1.00  0.00     0.053 C 
ATOM      4  C   UNL     1      61.287 -16.206  -1.500  1.00  0.00     0.016 C 
BRANCH   3   5
ATOM      5  C   UNL     1      59.735 -17.923  -2.532  1.00  0.00     0.015 C 
BRANCH   5   6
ATOM      6  C   UNL     1      58.781 -16.723  -2.412  1.00  0.00     0.028 C 
BRANCH   6   7
ATOM      7  C   UNL     1      57.349 -17.187  -2.343  1.00  0.00    -0.028 C 
ATOM      8  C   UNL     1      56.710 -17.536  -1.201  1.00  0.00    -0.070 CG0
ATOM      9  C   UNL     1      55.253 -17.913  -1.293  1.00  0.00     0.039 C 
ATOM     10  G   UNL     1      57.401 -17.578   0.153  1.00  0.00     0.000 G0
ENDBRANCH   6   7
ENDBRANCH   5   6
ENDBRANCH   3   5
ENDBRANCH   1   3
BRANCH   1  11
ATOM     11  C   UNL     1      60.165 -18.154   0.706  1.00  0.00     0.087 C 
BRANCH  11  12
ATOM     12  C   UNL     1      59.182 -19.312   1.029  1.00  0.00     0.066 C 
BRANCH  12  13
ATOM     13  C   UNL     1      57.754 -18.955   0.640  1.00  0.00     0.140 C 
ATOM     14  O   UNL     1      56.888 -19.818   0.645  1.00  0.00    -0.299 OA
BRANCH  13  15
ATOM     15  C   UNL     1      57.397 -17.561   0.180  1.00  0.00     0.106 CG0
ATOM     16  G   UNL     1      56.712 -17.562  -1.178  1.00  0.00     0.000 G0
ENDBRANCH  13  15
ENDBRANCH  12  13
BRANCH  12  17
ATOM     17  C   UNL     1      59.294 -19.771   2.516  1.00  0.00    -0.006 C 
ATOM     18  C   UNL     1      60.729 -19.760   3.070  1.00  0.00     0.008 C 
ATOM     19  C   UNL     1      58.367 -18.955   3.430  1.00  0.00     0.008 C 
ENDBRANCH  12  17
ENDBRANCH  11  12
ENDBRANCH   1  11
TORSDOF 1
ENDMDL
MODEL 3
REMARK VINA RESULT:    -2.982      3.421      6.345
REMARK INTER + INTRA:          -4.922
REMARK INTER:                  -4.463
REMARK INTRA:                  -0.459
REMARK UNBOUND:                -0.370
REMARK SMILES CC1=CCC[C@@H](C)C(=O)C[C@@H](C(C)C)C(=O)C1
REMARK SMILES IDX 8 1 9 2 6 3 7 4 5 5 4 6 3 7 2 8 1 9 10 11 11 12 15 13 16 14
REMARK SMILES IDX 17 15 12 17 13 18 14 19
REMARK H PARENT
REMARK Flexibility Score: 70.00
ROOT
ATOM      1  C   UNL     1      60.496 -17.980   1.700  1.00  0.00     0.136 C 
ATOM      2  O   UNL     1      60.688 -17.014   0.977  1.00  0.00    -0.299 OA
ENDROOT
BRANCH   1   3
ATOM      3  C   UNL     1      60.287 -19.341   1.059  1.00  0.00     0.053 C 
ATOM      4  C   UNL     1      61.518 -19.751   0.241  1.00  0.00     0.016 C 
BRANCH   3   5
ATOM      5  C   UNL     1      59.012 -19.373   0.196  1.00  0.00     0.015 C 
BRANCH   5   6
ATOM      6  C   UNL     1      57.874 -20.155   0.874  1.00  0.00     0.028 C 
BRANCH   6   7
ATOM      7  C   UNL     1      56.861 -19.212   1.469  1.00  0.00    -0.028 C 
ATOM      8  C   UNL     1      56.702 -18.995   2.796  1.00  0.00    -0.070 CG0
ATOM      9  C   UNL     1      55.688 -17.966   3.228  1.00  0.00     0.039 C 
ATOM     10  G   UNL     1      57.484 -19.753   3.858  1.00  0.00     0.000 G0
ENDBRANCH   6   7
ENDBRANCH   5   6
ENDBRANCH   3   5
ENDBRANCH   1   3
BRANCH   1  11
ATOM     11  C   UNL     1      60.444 -17.769   3.197  1.00  0.00     0.087 C 
BRANCH  11  12
ATOM     12  C   UNL     1      60.022 -19.054   3.958  1.00  0.00     0.066 C 
BRANCH  12  13
ATOM     13  C   UNL     1      58.598 -18.946   4.489  1.00  0.00     0.140 C 
ATOM     14  O   UNL     1      58.361 -18.231   5.453  1.00  0.00    -0.299 OA
BRANCH  13  15
ATOM     15  C   UNL     1      57.478 -19.760   3.887  1.00  0.00     0.106 CG0
ATOM     16  G   UNL     1      56.726 -18.994   2.809  1.00  0.00     0.000 G0
ENDBRANCH  13  15
ENDBRANCH  12  13
BRANCH  12  17
ATOM     17  C   UNL     1      61.043 -19.429   5.076  1.00  0.00    -0.006 C 
ATOM     18  C   UNL     1      61.504 -20.897   5.039  1.00  0.00     0.008 C 
ATOM     19  C   UNL     1      62.261 -18.492   5.066  1.00  0.00     0.008 C 
ENDBRANCH  12  17
ENDBRANCH  11  12
ENDBRANCH   1  11
TORSDOF 1
ENDMDL
MODEL 4
REMARK VINA RESULT:    -2.933      2.334      4.689
REMARK INTER + INTRA:          -4.847
REMARK INTER:                  -4.486
REMARK INTRA:                  -0.361
REMARK UNBOUND:                -0.370
REMARK SMILES CC1=CCC[C@@H](C)C(=O)C[C@@H](C(C)C)C(=O)C1
REMARK SMILES IDX 8 1 9 2 6 3 7 4 5 5 4 6 3 7 2 8 1 9 10 11 11 12 15 13 16 14
REMARK SMILES IDX 17 15 12 17 13 18 14 19
REMARK H PARENT
REMARK Flexibility Score: 70.00
ROOT
ATOM      1  C   UNL     1      54.667 -16.250  -3.284  1.00  0.00     0.136 C 
ATOM      2  O   UNL     1      53.679 -15.552  -3.457  1.00  0.00    -0.299 OA
ENDROOT
BRANCH   1   3
ATOM      3  C   UNL     1      54.612 -17.709  -3.699  1.00  0.00     0.053 C 
ATOM      4  C   UNL     1      53.745 -17.886  -4.952  1.00  0.00     0.016 C 
BRANCH   3   5
ATOM      5  C   UNL     1      54.115 -18.608  -2.551  1.00  0.00     0.015 C 
BRANCH   5   6
ATOM      6  C   UNL     1      55.260 -19.412  -1.910  1.00  0.00     0.028 C 
BRANCH   6   7
ATOM      7  C   UNL     1      55.607 -18.854  -0.554  1.00  0.00    -0.028 C 
ATOM      8  C   UNL     1      56.779 -18.247  -0.251  1.00  0.00    -0.070 CG0
ATOM      9  C   UNL     1      56.944 -17.680   1.136  1.00  0.00     0.039 C 
ATOM     10  G   UNL     1      57.930 -18.131  -1.239  1.00  0.00     0.000 G0
ENDBRANCH   6   7
ENDBRANCH   5   6
ENDBRANCH   3   5
ENDBRANCH   1   3
BRANCH   1  11
ATOM     11  C   UNL     1      55.887 -15.633  -2.636  1.00  0.00     0.087 C 
BRANCH  11  12
ATOM     12  C   UNL     1      57.202 -16.336  -3.070  1.00  0.00     0.066 C 
BRANCH  12  13
ATOM     13  C   UNL     1      58.038 -16.746  -1.865  1.00  0.00     0.140 C 
ATOM     14  O   UNL     1      58.856 -15.966  -1.398  1.00  0.00    -0.299 OA
BRANCH  13  15
ATOM     15  C   UNL     1      57.924 -18.130  -1.272  1.00  0.00     0.106 CG0
ATOM     16  G   UNL     1      56.785 -18.234  -0.270  1.00  0.00     0.000 G0
ENDBRANCH  13  15
ENDBRANCH  12  13
BRANCH  12  17
ATOM     17  C   UNL     1      58.012 -15.475  -4.087  1.00  0.00    -0.006 C 
ATOM     18  C   UNL     1      57.749 -15.832  -5.561  1.00  0.00     0.008 C 
ATOM     19  C   UNL     1      57.790 -13.972  -3.858  1.00  0.00     0.008 C 
ENDBRANCH  12  17
ENDBRANCH  11  12
ENDBRANCH   1  11
TORSDOF 1
ENDMDL
MODEL 5
REMARK VINA RESULT:    -2.891      2.394      4.530
REMARK INTER + INTRA:          -4.783
REMARK INTER:                  -4.565
REMARK INTRA:                  -0.218
REMARK UNBOUND:                -0.370
REMARK SMILES CC1=CCC[C@@H](C)C(=O)C[C@@H](C(C)C)C(=O)C1
REMARK SMILES IDX 8 1 9 2 6 3 7 4 5 5 4 6 3 7 2 8 1 9 10 11 11 12 15 13 16 14
REMARK SMILES IDX 17 15 12 17 13 18 14 19
REMARK H PARENT
REMARK Flexibility Score: 70.00
ROOT
ATOM      1  C   UNL     1      59.249 -19.527   2.559  1.00  0.00     0.136 C 
ATOM      2  O   UNL     1      60.121 -20.063   3.226  1.00  0.00    -0.299 OA
ENDROOT
BRANCH   1   3
ATOM      3  C   UNL     1      58.306 -18.550   3.239  1.00  0.00     0.053 C 
ATOM      4  C   UNL     1      59.051 -17.718   4.290  1.00  0.00     0.016 C 
BRANCH   3   5
ATOM      5  C   UNL     1      57.093 -19.270   3.859  1.00  0.00     0.015 C 
BRANCH   5   6
ATOM      6  C   UNL     1      56.098 -19.751   2.789  1.00  0.00     0.028 C 
BRANCH   6   7
ATOM      7  C   UNL     1      55.534 -18.582   2.024  1.00  0.00    -0.028 C 
ATOM      8  C   UNL     1      55.672 -18.400   0.689  1.00  0.00    -0.070 CG0
ATOM      9  C   UNL     1      54.988 -17.212   0.062  1.00  0.00     0.039 C 
ATOM     10  G   UNL     1      56.496 -19.328  -0.191  1.00  0.00     0.000 G0
ENDBRANCH   6   7
ENDBRANCH   5   6
ENDBRANCH   3   5
ENDBRANCH   1   3
BRANCH   1  11
ATOM     11  C   UNL     1      59.131 -19.887   1.094  1.00  0.00     0.087 C 
BRANCH  11  12
ATOM     12  C   UNL     1      58.993 -18.633   0.190  1.00  0.00     0.066 C 
BRANCH  12  13
ATOM     13  C   UNL     1      57.763 -18.723  -0.704  1.00  0.00     0.140 C 
ATOM     14  O   UNL     1      57.790 -18.237  -1.826  1.00  0.00    -0.299 OA
BRANCH  13  15
ATOM     15  C   UNL     1      56.482 -19.345  -0.204  1.00  0.00     0.106 CG0
ATOM     16  G   UNL     1      55.681 -18.389   0.667  1.00  0.00     0.000 G0
ENDBRANCH  13  15
ENDBRANCH  12  13
BRANCH  12  17
ATOM     17  C   UNL     1      60.296 -18.357  -0.623  1.00  0.00    -0.006 C 
ATOM     18  C   UNL     1      60.835 -16.923  -0.477  1.00  0.00     0.008 C 
ATOM     19  C   UNL     1      61.398 -19.373  -0.285  1.00  0.00     0.008 C 
ENDBRANCH  12  17
ENDBRANCH  11  12
ENDBRANCH   1  11
TORSDOF 1
ENDMDL
MODEL 6
REMARK VINA RESULT:    -2.730      2.061      4.142
REMARK INTER + INTRA:          -4.537
REMARK INTER:                  -4.538
REMARK INTRA:                   0.002
REMARK UNBOUND:                -0.370
REMARK SMILES CC1=CCC[C@@H](C)C(=O)C[C@@H](C(C)C)C(=O)C1
REMARK SMILES IDX 8 1 9 2 6 3 7 4 5 5 4 6 3 7 2 8 1 9 10 11 11 12 15 13 16 14
REMARK SMILES IDX 17 15 12 17 13 18 14 19
REMARK H PARENT
REMARK Flexibility Score: 70.00
ROOT
ATOM      1  C   UNL     1      60.675 -18.852  -0.334  1.00  0.00     0.136 C 
ATOM      2  O   UNL     1      61.774 -19.378  -0.427  1.00  0.00    -0.299 OA
ENDROOT
BRANCH   1   3
ATOM      3  C   UNL     1      59.861 -19.080   0.927  1.00  0.00     0.053 C 
ATOM      4  C   UNL     1      60.743 -19.640   2.049  1.00  0.00     0.016 C 
BRANCH   3   5
ATOM      5  C   UNL     1      58.651 -19.996   0.663  1.00  0.00     0.015 C 
BRANCH   5   6
ATOM      6  C   UNL     1      57.317 -19.291   0.962  1.00  0.00     0.028 C 
BRANCH   6   7
ATOM      7  C   UNL     1      56.308 -19.583  -0.118  1.00  0.00    -0.028 C 
ATOM      8  C   UNL     1      55.943 -18.708  -1.085  1.00  0.00    -0.070 CG0
ATOM      9  C   UNL     1      54.970 -19.180  -2.136  1.00  0.00     0.039 C 
ATOM     10  G   UNL     1      56.458 -17.278  -1.143  1.00  0.00     0.000 G0
ENDBRANCH   6   7
ENDBRANCH   5   6
ENDBRANCH   3   5
ENDBRANCH   1   3
BRANCH   1  11
ATOM     11  C   UNL     1      60.165 -18.024  -1.493  1.00  0.00     0.087 C 
BRANCH  11  12
ATOM     12  C   UNL     1      59.083 -17.001  -1.054  1.00  0.00     0.066 C 
BRANCH  12  13
ATOM     13  C   UNL     1      57.800 -17.168  -1.858  1.00  0.00     0.140 C 
ATOM     14  O   UNL     1      57.842 -17.168  -3.079  1.00  0.00    -0.299 OA
BRANCH  13  15
ATOM     15  C   UNL     1      56.459 -17.268  -1.171  1.00  0.00     0.106 CG0
ATOM     16  G   UNL     1      55.952 -18.701  -1.103  1.00  0.00     0.000 G0
ENDBRANCH  13  15
ENDBRANCH  12  13
BRANCH  12  17
ATOM     17  C   UNL     1      59.619 -15.536  -1.093  1.00  0.00    -0.006 C 
ATOM     18  C   UNL     1      58.534 -14.466  -0.880  1.00  0.00     0.008 C 
ATOM     19  C   UNL     1      60.769 -15.329  -0.096  1.00  0.00     0.008 C 
ENDBRANCH  12  17
ENDBRANCH  11  12
ENDBRANCH   1  11
TORSDOF 1
ENDMDL
MODEL 7
REMARK VINA RESULT:    -2.711      1.982      3.889
REMARK INTER + INTRA:          -4.508
REMARK INTER:                  -4.638
REMARK INTRA:                   0.131
REMARK UNBOUND:                -0.370
REMARK SMILES CC1=CCC[C@@H](C)C(=O)C[C@@H](C(C)C)C(=O)C1
REMARK SMILES IDX 8 1 9 2 6 3 7 4 5 5 4 6 3 7 2 8 1 9 10 11 11 12 15 13 16 14
REMARK SMILES IDX 17 15 12 17 13 18 14 19
REMARK H PARENT
REMARK Flexibility Score: 70.00
ROOT
ATOM      1  C   UNL     1      57.961 -18.274  -1.534  1.00  0.00     0.136 C 
ATOM      2  O   UNL     1      56.923 -18.591  -2.094  1.00  0.00    -0.299 OA
ENDROOT
BRANCH   1   3
ATOM      3  C   UNL     1      58.863 -17.246  -2.195  1.00  0.00     0.053 C 
ATOM      4  C   UNL     1      58.135 -16.547  -3.350  1.00  0.00     0.016 C 
BRANCH   3   5
ATOM      5  C   UNL     1      60.185 -17.875  -2.673  1.00  0.00     0.015 C 
BRANCH   5   6
ATOM      6  C   UNL     1      61.317 -17.689  -1.648  1.00  0.00     0.028 C 
BRANCH   6   7
ATOM      7  C   UNL     1      61.131 -16.409  -0.878  1.00  0.00    -0.028 C 
ATOM      8  C   UNL     1      60.759 -16.343   0.423  1.00  0.00    -0.070 CG0
ATOM      9  C   UNL     1      60.684 -14.983   1.069  1.00  0.00     0.039 C 
ATOM     10  G   UNL     1      60.400 -17.572   1.244  1.00  0.00     0.000 G0
ENDBRANCH   6   7
ENDBRANCH   5   6
ENDBRANCH   3   5
ENDBRANCH   1   3
BRANCH   1  11
ATOM     11  C   UNL     1      58.314 -18.943  -0.224  1.00  0.00     0.087 C 
BRANCH  11  12
ATOM     12  C   UNL     1      57.812 -18.135   1.003  1.00  0.00     0.066 C 
BRANCH  12  13
ATOM     13  C   UNL     1      58.969 -17.515   1.775  1.00  0.00     0.140 C 
ATOM     14  O   UNL     1      58.754 -16.914   2.817  1.00  0.00    -0.299 OA
BRANCH  13  15
ATOM     15  C   UNL     1      60.380 -17.570   1.238  1.00  0.00     0.106 CG0
ATOM     16  G   UNL     1      60.740 -16.327   0.439  1.00  0.00     0.000 G0
ENDBRANCH  13  15
ENDBRANCH  12  13
BRANCH  12  17
ATOM     17  C   UNL     1      56.881 -18.989   1.919  1.00  0.00    -0.006 C 
ATOM     18  C   UNL     1      55.414 -18.525   1.930  1.00  0.00     0.008 C 
ATOM     19  C   UNL     1      56.961 -20.483   1.569  1.00  0.00     0.008 C 
ENDBRANCH  12  17
ENDBRANCH  11  12
ENDBRANCH   1  11
TORSDOF 1
ENDMDL
MODEL 8
REMARK VINA RESULT:    -2.689      2.519      4.085
REMARK INTER + INTRA:          -4.474
REMARK INTER:                  -4.624
REMARK INTRA:                   0.151
REMARK UNBOUND:                -0.370
REMARK SMILES CC1=CCC[C@@H](C)C(=O)C[C@@H](C(C)C)C(=O)C1
REMARK SMILES IDX 8 1 9 2 6 3 7 4 5 5 4 6 3 7 2 8 1 9 10 11 11 12 15 13 16 14
REMARK SMILES IDX 17 15 12 17 13 18 14 19
REMARK H PARENT
REMARK Flexibility Score: 70.00
ROOT
ATOM      1  C   UNL     1      58.115 -18.430  -1.329  1.00  0.00     0.136 C 
ATOM      2  O   UNL     1      58.944 -18.140  -2.179  1.00  0.00    -0.299 OA
ENDROOT
BRANCH   1   3
ATOM      3  C   UNL     1      58.582 -18.663   0.097  1.00  0.00     0.053 C 
ATOM      4  C   UNL     1      60.077 -18.353   0.237  1.00  0.00     0.016 C 
BRANCH   3   5
ATOM      5  C   UNL     1      58.266 -20.095   0.570  1.00  0.00     0.015 C 
BRANCH   5   6
ATOM      6  C   UNL     1      56.874 -20.196   1.215  1.00  0.00     0.028 C 
BRANCH   6   7
ATOM      7  C   UNL     1      56.527 -18.918   1.933  1.00  0.00    -0.028 C 
ATOM      8  C   UNL     1      55.538 -18.072   1.560  1.00  0.00    -0.070 CG0
ATOM      9  C   UNL     1      55.273 -16.867   2.426  1.00  0.00     0.039 C 
ATOM     10  G   UNL     1      54.706 -18.276   0.303  1.00  0.00     0.000 G0
ENDBRANCH   6   7
ENDBRANCH   5   6
ENDBRANCH   3   5
ENDBRANCH   1   3
BRANCH   1  11
ATOM     11  C   UNL     1      56.668 -18.571  -1.745  1.00  0.00     0.087 C 
BRANCH  11  12
ATOM     12  C   UNL     1      55.924 -17.208  -1.760  1.00  0.00     0.066 C 
BRANCH  12  13
ATOM     13  C   UNL     1      54.841 -17.153  -0.691  1.00  0.00     0.140 C 
ATOM     14  O   UNL     1      54.122 -16.168  -0.603  1.00  0.00    -0.299 OA
BRANCH  13  15
ATOM     15  C   UNL     1      54.679 -18.271   0.312  1.00  0.00     0.106 CG0
ATOM     16  G   UNL     1      55.551 -18.069   1.542  1.00  0.00     0.000 G0
ENDBRANCH  13  15
ENDBRANCH  12  13
BRANCH  12  17
ATOM     17  C   UNL     1      55.374 -16.862  -3.179  1.00  0.00    -0.006 C 
ATOM     18  C   UNL     1      56.397 -16.172  -4.097  1.00  0.00     0.008 C 
ATOM     19  C   UNL     1      54.788 -18.100  -3.875  1.00  0.00     0.008 C 
ENDBRANCH  12  17
ENDBRANCH  11  12
ENDBRANCH   1  11
TORSDOF 1
ENDMDL
MODEL 9
REMARK VINA RESULT:    -2.564      3.028      5.365
REMARK INTER + INTRA:          -4.284
REMARK INTER:                  -4.083
REMARK INTRA:                  -0.201
REMARK UNBOUND:                -0.370
REMARK SMILES CC1=CCC[C@@H](C)C(=O)C[C@@H](C(C)C)C(=O)C1
REMARK SMILES IDX 8 1 9 2 6 3 7 4 5 5 4 6 3 7 2 8 1 9 10 11 11 12 15 13 16 14
REMARK SMILES IDX 17 15 12 17 13 18 14 19
REMARK H PARENT
REMARK Flexibility Score: 70.00
ROOT
ATOM      1  C   UNL     1      57.152 -15.562  -5.405  1.00  0.00     0.136 C 
ATOM      2  O   UNL     1      58.133 -16.118  -5.874  1.00  0.00    -0.299 OA
ENDROOT
BRANCH   1   3
ATOM      3  C   UNL     1      57.082 -14.045  -5.452  1.00  0.00     0.053 C 
ATOM      4  C   UNL     1      56.906 -13.553  -6.893  1.00  0.00     0.016 C 
BRANCH   3   5
ATOM      5  C   UNL     1      58.315 -13.400  -4.792  1.00  0.00     0.015 C 
BRANCH   5   6
ATOM      6  C   UNL     1      58.282 -13.524  -3.260  1.00  0.00     0.028 C 
BRANCH   6   7
ATOM      7  C   UNL     1      59.359 -14.461  -2.779  1.00  0.00    -0.028 C 
ATOM      8  C   UNL     1      59.140 -15.546  -1.999  1.00  0.00    -0.070 CG0
ATOM      9  C   UNL     1      60.318 -16.424  -1.661  1.00  0.00     0.039 C 
ATOM     10  G   UNL     1      57.770 -15.901  -1.441  1.00  0.00     0.000 G0
ENDBRANCH   6   7
ENDBRANCH   5   6
ENDBRANCH   3   5
ENDBRANCH   1   3
BRANCH   1  11
ATOM     11  C   UNL     1      56.069 -16.407  -4.774  1.00  0.00     0.087 C 
BRANCH  11  12
ATOM     12  C   UNL     1      55.872 -16.083  -3.268  1.00  0.00     0.066 C 
BRANCH  12  13
ATOM     13  C   UNL     1      56.955 -16.728  -2.413  1.00  0.00     0.140 C 
ATOM     14  O   UNL     1      57.135 -17.936  -2.469  1.00  0.00    -0.299 OA
BRANCH  13  15
ATOM     15  C   UNL     1      57.770 -15.909  -1.441  1.00  0.00     0.106 CG0
ATOM     16  G   UNL     1      59.136 -15.543  -2.002  1.00  0.00     0.000 G0
ENDBRANCH  13  15
ENDBRANCH  12  13
BRANCH  12  17
ATOM     17  C   UNL     1      54.436 -16.446  -2.778  1.00  0.00    -0.006 C 
ATOM     18  C   UNL     1      53.472 -15.248  -2.715  1.00  0.00     0.008 C 
ATOM     19  C   UNL     1      53.822 -17.577  -3.618  1.00  0.00     0.008 C 
ENDBRANCH  12  17
ENDBRANCH  11  12
ENDBRANCH   1  11
TORSDOF 1
ENDMDL
