MODEL 1
REMARK VINA RESULT:    -6.554      0.000      0.000
REMARK INTER + INTRA:         -10.921
REMARK INTER:                 -10.003
REMARK INTRA:                  -0.918
REMARK UNBOUND:                -0.918
REMARK SMILES CC(=O)CCC=C(C)CCC=C(C)CCC=C(C)C
REMARK SMILES IDX 10 1 11 2 12 3 13 4 14 5 15 6 16 7 18 8 17 9 19 10 9 11 7 12
REMARK SMILES IDX 6 13 8 14 5 15 4 16 2 17 3 18 1 19
REMARK H PARENT
REMARK Flexibility Score: inf
ROOT
ATOM      1  C   UNL     1      -3.705  27.945 -19.791  1.00  0.00     0.032 C 
ENDROOT
BRANCH   1   2
ATOM      2  C   UNL     1      -4.762  28.273 -18.761  1.00  0.00    -0.028 C 
ATOM      3  C   UNL     1      -5.226  27.415 -17.826  1.00  0.00    -0.077 C 
ATOM      4  C   UNL     1      -6.344  27.877 -16.927  1.00  0.00     0.039 C 
BRANCH   3   5
ATOM      5  C   UNL     1      -4.649  26.025 -17.619  1.00  0.00     0.034 C 
BRANCH   5   6
ATOM      6  C   UNL     1      -4.312  25.761 -16.144  1.00  0.00     0.032 C 
BRANCH   6   7
ATOM      7  C   UNL     1      -2.821  25.752 -15.900  1.00  0.00    -0.028 C 
ATOM      8  C   UNL     1      -0.729  26.085 -14.659  1.00  0.00     0.039 C 
ATOM      9  C   UNL     1      -2.233  26.093 -14.733  1.00  0.00    -0.080 C 
ATOM     10  C   UNL     1      -3.037  26.461 -13.508  1.00  0.00     0.039 C 
ENDBRANCH   6   7
ENDBRANCH   5   6
ENDBRANCH   3   5
ENDBRANCH   1   2
BRANCH   1  11
ATOM     11  C   UNL     1      -3.215  29.206 -20.516  1.00  0.00     0.034 C 
BRANCH  11  12
ATOM     12  C   UNL     1      -3.527  29.164 -21.998  1.00  0.00    -0.077 C 
ATOM     13  C   UNL     1      -4.762  28.795 -22.404  1.00  0.00    -0.028 C 
ATOM     14  C   UNL     1      -2.450  29.534 -22.990  1.00  0.00     0.039 C 
BRANCH  13  15
ATOM     15  C   UNL     1      -5.163  28.716 -23.858  1.00  0.00     0.035 C 
BRANCH  15  16
ATOM     16  C   UNL     1      -5.905  29.976 -24.321  1.00  0.00     0.079 C 
BRANCH  16  17
ATOM     17  C   UNL     1      -5.381  30.478 -25.644  1.00  0.00     0.130 C 
ATOM     18  O   UNL     1      -4.193  30.360 -25.904  1.00  0.00    -0.300 OA
ATOM     19  C   UNL     1      -6.290  31.113 -26.655  1.00  0.00     0.087 C 
ENDBRANCH  16  17
ENDBRANCH  15  16
ENDBRANCH  13  15
ENDBRANCH  11  12
ENDBRANCH   1  11
TORSDOF 9
ENDMDL
MODEL 2
REMARK VINA RESULT:    -6.439      2.215      3.726
REMARK INTER + INTRA:         -10.746
REMARK INTER:                 -10.030
REMARK INTRA:                  -0.716
REMARK UNBOUND:                -0.918
REMARK SMILES CC(=O)CCC=C(C)CCC=C(C)CCC=C(C)C
REMARK SMILES IDX 10 1 11 2 12 3 13 4 14 5 15 6 16 7 18 8 17 9 19 10 9 11 7 12
REMARK SMILES IDX 6 13 8 14 5 15 4 16 2 17 3 18 1 19
REMARK H PARENT
REMARK Flexibility Score: inf
ROOT
ATOM      1  C   UNL     1      -3.684  28.486 -20.123  1.00  0.00     0.032 C 
ENDROOT
BRANCH   1   2
ATOM      2  C   UNL     1      -4.668  28.527 -18.977  1.00  0.00    -0.028 C 
ATOM      3  C   UNL     1      -4.956  27.486 -18.164  1.00  0.00    -0.077 C 
ATOM      4  C   UNL     1      -6.027  27.673 -17.120  1.00  0.00     0.039 C 
BRANCH   3   5
ATOM      5  C   UNL     1      -4.227  26.156 -18.233  1.00  0.00     0.034 C 
BRANCH   5   6
ATOM      6  C   UNL     1      -3.052  26.096 -17.246  1.00  0.00     0.032 C 
BRANCH   6   7
ATOM      7  C   UNL     1      -3.506  25.729 -15.853  1.00  0.00    -0.028 C 
ATOM      8  C   UNL     1      -3.284  25.223 -13.460  1.00  0.00     0.039 C 
ATOM      9  C   UNL     1      -2.693  25.656 -14.776  1.00  0.00    -0.080 C 
ATOM     10  C   UNL     1      -1.226  26.009 -14.854  1.00  0.00     0.039 C 
ENDBRANCH   6   7
ENDBRANCH   5   6
ENDBRANCH   3   5
ENDBRANCH   1   2
BRANCH   1  11
ATOM     11  C   UNL     1      -4.373  28.765 -21.467  1.00  0.00     0.034 C 
BRANCH  11  12
ATOM     12  C   UNL     1      -3.382  29.188 -22.532  1.00  0.00    -0.077 C 
ATOM     13  C   UNL     1      -2.188  29.699 -22.160  1.00  0.00    -0.028 C 
ATOM     14  C   UNL     1      -3.751  29.029 -23.988  1.00  0.00     0.039 C 
BRANCH  13  15
ATOM     15  C   UNL     1      -1.140  30.154 -23.150  1.00  0.00     0.035 C 
BRANCH  15  16
ATOM     16  C   UNL     1       0.239  29.555 -22.847  1.00  0.00     0.079 C 
BRANCH  16  17
ATOM     17  C   UNL     1       1.341  30.310 -23.548  1.00  0.00     0.130 C 
ATOM     18  O   UNL     1       1.372  30.333 -24.768  1.00  0.00    -0.300 OA
ATOM     19  C   UNL     1       2.399  31.043 -22.776  1.00  0.00     0.087 C 
ENDBRANCH  16  17
ENDBRANCH  15  16
ENDBRANCH  13  15
ENDBRANCH  11  12
ENDBRANCH   1  11
TORSDOF 9
ENDMDL
MODEL 3
REMARK VINA RESULT:    -6.249      3.314      8.551
REMARK INTER + INTRA:         -10.455
REMARK INTER:                  -9.594
REMARK INTRA:                  -0.861
REMARK UNBOUND:                -0.918
REMARK SMILES CC(=O)CCC=C(C)CCC=C(C)CCC=C(C)C
REMARK SMILES IDX 10 1 11 2 12 3 13 4 14 5 15 6 16 7 18 8 17 9 19 10 9 11 7 12
REMARK SMILES IDX 6 13 8 14 5 15 4 16 2 17 3 18 1 19
REMARK H PARENT
REMARK Flexibility Score: inf
ROOT
ATOM      1  C   UNL     1      -3.784  28.537 -20.598  1.00  0.00     0.032 C 
ENDROOT
BRANCH   1   2
ATOM      2  C   UNL     1      -4.474  28.782 -21.920  1.00  0.00    -0.028 C 
ATOM      3  C   UNL     1      -3.844  29.041 -23.087  1.00  0.00    -0.077 C 
ATOM      4  C   UNL     1      -4.686  29.346 -24.299  1.00  0.00     0.039 C 
BRANCH   3   5
ATOM      5  C   UNL     1      -2.333  29.003 -23.238  1.00  0.00     0.034 C 
BRANCH   5   6
ATOM      6  C   UNL     1      -1.685  30.337 -22.841  1.00  0.00     0.032 C 
BRANCH   6   7
ATOM      7  C   UNL     1      -0.613  30.755 -23.820  1.00  0.00    -0.028 C 
ATOM      8  C   UNL     1       1.652  30.959 -24.745  1.00  0.00     0.039 C 
ATOM      9  C   UNL     1       0.691  30.421 -23.718  1.00  0.00    -0.080 C 
ATOM     10  C   UNL     1       1.203  29.515 -22.622  1.00  0.00     0.039 C 
ENDBRANCH   6   7
ENDBRANCH   5   6
ENDBRANCH   3   5
ENDBRANCH   1   2
BRANCH   1  11
ATOM     11  C   UNL     1      -4.683  28.921 -19.413  1.00  0.00     0.034 C 
BRANCH  11  12
ATOM     12  C   UNL     1      -4.792  27.800 -18.400  1.00  0.00    -0.077 C 
ATOM     13  C   UNL     1      -3.806  26.879 -18.323  1.00  0.00    -0.028 C 
ATOM     14  C   UNL     1      -6.002  27.736 -17.499  1.00  0.00     0.039 C 
BRANCH  13  15
ATOM     15  C   UNL     1      -3.832  25.723 -17.350  1.00  0.00     0.035 C 
BRANCH  15  16
ATOM     16  C   UNL     1      -3.000  26.008 -16.093  1.00  0.00     0.079 C 
BRANCH  16  17
ATOM     17  C   UNL     1      -3.817  25.847 -14.835  1.00  0.00     0.130 C 
ATOM     18  O   UNL     1      -4.984  25.498 -14.917  1.00  0.00    -0.300 OA
ATOM     19  C   UNL     1      -3.222  26.097 -13.481  1.00  0.00     0.087 C 
ENDBRANCH  16  17
ENDBRANCH  15  16
ENDBRANCH  13  15
ENDBRANCH  11  12
ENDBRANCH   1  11
TORSDOF 9
ENDMDL
MODEL 4
REMARK VINA RESULT:    -6.045      3.795      6.295
REMARK INTER + INTRA:         -10.144
REMARK INTER:                  -9.375
REMARK INTRA:                  -0.770
REMARK UNBOUND:                -0.918
REMARK SMILES CC(=O)CCC=C(C)CCC=C(C)CCC=C(C)C
REMARK SMILES IDX 10 1 11 2 12 3 13 4 14 5 15 6 16 7 18 8 17 9 19 10 9 11 7 12
REMARK SMILES IDX 6 13 8 14 5 15 4 16 2 17 3 18 1 19
REMARK H PARENT
REMARK Flexibility Score: inf
ROOT
ATOM      1  C   UNL     1      -1.624  30.376 -23.236  1.00  0.00     0.032 C 
ENDROOT
BRANCH   1   2
ATOM      2  C   UNL     1      -2.990  29.766 -23.449  1.00  0.00    -0.028 C 
ATOM      3  C   UNL     1      -3.719  29.145 -22.495  1.00  0.00    -0.077 C 
ATOM      4  C   UNL     1      -5.029  28.516 -22.897  1.00  0.00     0.039 C 
BRANCH   3   5
ATOM      5  C   UNL     1      -3.297  29.086 -21.038  1.00  0.00     0.034 C 
BRANCH   5   6
ATOM      6  C   UNL     1      -4.377  28.444 -20.155  1.00  0.00     0.032 C 
BRANCH   6   7
ATOM      7  C   UNL     1      -3.797  27.416 -19.212  1.00  0.00    -0.028 C 
ATOM      8  C   UNL     1      -3.620  26.059 -17.173  1.00  0.00     0.039 C 
ATOM      9  C   UNL     1      -4.346  27.063 -18.030  1.00  0.00    -0.080 C 
ATOM     10  C   UNL     1      -5.665  27.630 -17.558  1.00  0.00     0.039 C 
ENDBRANCH   6   7
ENDBRANCH   5   6
ENDBRANCH   3   5
ENDBRANCH   1   2
BRANCH   1  11
ATOM     11  C   UNL     1      -1.473  31.701 -23.997  1.00  0.00     0.034 C 
BRANCH  11  12
ATOM     12  C   UNL     1      -0.280  31.684 -24.930  1.00  0.00    -0.077 C 
ATOM     13  C   UNL     1       0.822  30.984 -24.582  1.00  0.00    -0.028 C 
ATOM     14  C   UNL     1      -0.348  32.450 -26.229  1.00  0.00     0.039 C 
BRANCH  13  15
ATOM     15  C   UNL     1       2.062  30.915 -25.444  1.00  0.00     0.035 C 
BRANCH  15  16
ATOM     16  C   UNL     1       3.328  31.292 -24.665  1.00  0.00     0.079 C 
BRANCH  16  17
ATOM     17  C   UNL     1       3.411  30.562 -23.347  1.00  0.00     0.130 C 
ATOM     18  O   UNL     1       3.512  29.345 -23.340  1.00  0.00    -0.300 OA
ATOM     19  C   UNL     1       3.382  31.301 -22.041  1.00  0.00     0.087 C 
ENDBRANCH  16  17
ENDBRANCH  15  16
ENDBRANCH  13  15
ENDBRANCH  11  12
ENDBRANCH   1  11
TORSDOF 9
ENDMDL
MODEL 5
REMARK VINA RESULT:    -5.932      3.961      7.457
REMARK INTER + INTRA:          -9.972
REMARK INTER:                  -7.991
REMARK INTRA:                  -1.981
REMARK UNBOUND:                -0.918
REMARK SMILES CC(=O)CCC=C(C)CCC=C(C)CCC=C(C)C
REMARK SMILES IDX 10 1 11 2 12 3 13 4 14 5 15 6 16 7 18 8 17 9 19 10 9 11 7 12
REMARK SMILES IDX 6 13 8 14 5 15 4 16 2 17 3 18 1 19
REMARK H PARENT
REMARK Flexibility Score: inf
ROOT
ATOM      1  C   UNL     1      -0.247  25.974 -13.423  1.00  0.00     0.032 C 
ENDROOT
BRANCH   1   2
ATOM      2  C   UNL     1       0.458  24.685 -13.068  1.00  0.00    -0.028 C 
ATOM      3  C   UNL     1      -0.138  23.599 -12.526  1.00  0.00    -0.077 C 
ATOM      4  C   UNL     1       0.728  22.423 -12.155  1.00  0.00     0.039 C 
BRANCH   3   5
ATOM      5  C   UNL     1      -1.638  23.500 -12.310  1.00  0.00     0.034 C 
BRANCH   5   6
ATOM      6  C   UNL     1      -2.264  22.381 -13.155  1.00  0.00     0.032 C 
BRANCH   6   7
ATOM      7  C   UNL     1      -3.544  22.828 -13.821  1.00  0.00    -0.028 C 
ATOM      8  C   UNL     1      -5.951  23.264 -14.037  1.00  0.00     0.039 C 
ATOM      9  C   UNL     1      -4.755  22.842 -13.224  1.00  0.00    -0.080 C 
ATOM     10  C   UNL     1      -4.937  22.465 -11.772  1.00  0.00     0.039 C 
ENDBRANCH   6   7
ENDBRANCH   5   6
ENDBRANCH   3   5
ENDBRANCH   1   2
BRANCH   1  11
ATOM     11  C   UNL     1      -0.809  25.935 -14.850  1.00  0.00     0.034 C 
BRANCH  11  12
ATOM     12  C   UNL     1      -2.314  26.105 -14.869  1.00  0.00    -0.077 C 
ATOM     13  C   UNL     1      -3.004  25.781 -15.986  1.00  0.00    -0.028 C 
ATOM     14  C   UNL     1      -3.013  26.635 -13.640  1.00  0.00     0.039 C 
BRANCH  13  15
ATOM     15  C   UNL     1      -4.503  25.924 -16.100  1.00  0.00     0.035 C 
BRANCH  15  16
ATOM     16  C   UNL     1      -4.903  27.092 -17.010  1.00  0.00     0.079 C 
BRANCH  16  17
ATOM     17  C   UNL     1      -4.556  26.820 -18.452  1.00  0.00     0.130 C 
ATOM     18  O   UNL     1      -4.874  25.755 -18.957  1.00  0.00    -0.300 OA
ATOM     19  C   UNL     1      -3.836  27.838 -19.288  1.00  0.00     0.087 C 
ENDBRANCH  16  17
ENDBRANCH  15  16
ENDBRANCH  13  15
ENDBRANCH  11  12
ENDBRANCH   1  11
TORSDOF 9
ENDMDL
MODEL 6
REMARK VINA RESULT:    -5.873     12.739     16.186
REMARK INTER + INTRA:          -9.881
REMARK INTER:                  -9.012
REMARK INTRA:                  -0.869
REMARK UNBOUND:                -0.918
REMARK SMILES CC(=O)CCC=C(C)CCC=C(C)CCC=C(C)C
REMARK SMILES IDX 10 1 11 2 12 3 13 4 14 5 15 6 16 7 18 8 17 9 19 10 9 11 7 12
REMARK SMILES IDX 6 13 8 14 5 15 4 16 2 17 3 18 1 19
REMARK H PARENT
REMARK Flexibility Score: inf
ROOT
ATOM      1  C   UNL     1       7.362  30.933  -8.888  1.00  0.00     0.032 C 
ENDROOT
BRANCH   1   2
ATOM      2  C   UNL     1       8.851  30.879  -9.143  1.00  0.00    -0.028 C 
ATOM      3  C   UNL     1       9.543  31.771  -9.885  1.00  0.00    -0.077 C 
ATOM      4  C   UNL     1      11.013  31.523 -10.110  1.00  0.00     0.039 C 
BRANCH   3   5
ATOM      5  C   UNL     1       8.917  33.025 -10.470  1.00  0.00     0.034 C 
BRANCH   5   6
ATOM      6  C   UNL     1       9.978  34.055 -10.884  1.00  0.00     0.032 C 
BRANCH   6   7
ATOM      7  C   UNL     1       9.408  35.116 -11.796  1.00  0.00    -0.028 C 
ATOM      8  C   UNL     1       8.880  36.229 -13.920  1.00  0.00     0.039 C 
ATOM      9  C   UNL     1       9.444  35.068 -13.145  1.00  0.00    -0.080 C 
ATOM     10  C   UNL     1      10.015  33.883 -13.890  1.00  0.00     0.039 C 
ENDBRANCH   6   7
ENDBRANCH   5   6
ENDBRANCH   3   5
ENDBRANCH   1   2
BRANCH   1  11
ATOM     11  C   UNL     1       6.661  29.656  -9.371  1.00  0.00     0.034 C 
BRANCH  11  12
ATOM     12  C   UNL     1       5.345  29.959 -10.057  1.00  0.00    -0.077 C 
ATOM     13  C   UNL     1       4.375  30.606  -9.373  1.00  0.00    -0.028 C 
ATOM     14  C   UNL     1       5.145  29.530 -11.491  1.00  0.00     0.039 C 
BRANCH  13  15
ATOM     15  C   UNL     1       3.029  30.944  -9.971  1.00  0.00     0.035 C 
BRANCH  15  16
ATOM     16  C   UNL     1       2.546  32.338  -9.552  1.00  0.00     0.079 C 
BRANCH  16  17
ATOM     17  C   UNL     1       1.470  32.856 -10.474  1.00  0.00     0.130 C 
ATOM     18  O   UNL     1       1.699  32.952 -11.670  1.00  0.00    -0.300 OA
ATOM     19  C   UNL     1       0.118  33.248  -9.955  1.00  0.00     0.087 C 
ENDBRANCH  16  17
ENDBRANCH  15  16
ENDBRANCH  13  15
ENDBRANCH  11  12
ENDBRANCH   1  11
TORSDOF 9
ENDMDL
MODEL 7
REMARK VINA RESULT:    -5.812     11.569     16.001
REMARK INTER + INTRA:          -9.788
REMARK INTER:                  -8.443
REMARK INTRA:                  -1.345
REMARK UNBOUND:                -0.918
REMARK SMILES CC(=O)CCC=C(C)CCC=C(C)CCC=C(C)C
REMARK SMILES IDX 10 1 11 2 12 3 13 4 14 5 15 6 16 7 18 8 17 9 19 10 9 11 7 12
REMARK SMILES IDX 6 13 8 14 5 15 4 16 2 17 3 18 1 19
REMARK H PARENT
REMARK Flexibility Score: inf
ROOT
ATOM      1  C   UNL     1       7.265  30.538  -8.972  1.00  0.00     0.032 C 
ENDROOT
BRANCH   1   2
ATOM      2  C   UNL     1       7.952  30.279 -10.293  1.00  0.00    -0.028 C 
ATOM      3  C   UNL     1       9.192  30.707 -10.618  1.00  0.00    -0.077 C 
ATOM      4  C   UNL     1       9.697  30.435 -12.012  1.00  0.00     0.039 C 
BRANCH   3   5
ATOM      5  C   UNL     1      10.108  31.416  -9.635  1.00  0.00     0.034 C 
BRANCH   5   6
ATOM      6  C   UNL     1      10.774  32.649 -10.262  1.00  0.00     0.032 C 
BRANCH   6   7
ATOM      7  C   UNL     1       9.775  33.748 -10.541  1.00  0.00    -0.028 C 
ATOM      8  C   UNL     1       8.623  35.482 -11.842  1.00  0.00     0.039 C 
ATOM      9  C   UNL     1       9.627  34.365 -11.733  1.00  0.00    -0.080 C 
ATOM     10  C   UNL     1      10.423  33.957 -12.951  1.00  0.00     0.039 C 
ENDBRANCH   6   7
ENDBRANCH   5   6
ENDBRANCH   3   5
ENDBRANCH   1   2
BRANCH   1  11
ATOM     11  C   UNL     1       6.294  31.724  -9.065  1.00  0.00     0.034 C 
BRANCH  11  12
ATOM     12  C   UNL     1       4.855  31.267  -9.191  1.00  0.00    -0.077 C 
ATOM     13  C   UNL     1       3.858  32.126  -8.883  1.00  0.00    -0.028 C 
ATOM     14  C   UNL     1       4.566  29.860  -9.657  1.00  0.00     0.039 C 
BRANCH  13  15
ATOM     15  C   UNL     1       2.395  31.758  -8.970  1.00  0.00     0.035 C 
BRANCH  15  16
ATOM     16  C   UNL     1       1.563  32.858  -9.640  1.00  0.00     0.079 C 
BRANCH  16  17
ATOM     17  C   UNL     1       1.431  32.631 -11.126  1.00  0.00     0.130 C 
ATOM     18  O   UNL     1       1.109  33.560 -11.850  1.00  0.00    -0.300 OA
ATOM     19  C   UNL     1       1.695  31.287 -11.737  1.00  0.00     0.087 C 
ENDBRANCH  16  17
ENDBRANCH  15  16
ENDBRANCH  13  15
ENDBRANCH  11  12
ENDBRANCH   1  11
TORSDOF 9
ENDMDL
MODEL 8
REMARK VINA RESULT:    -5.776     16.453     18.553
REMARK INTER + INTRA:          -9.734
REMARK INTER:                  -6.908
REMARK INTRA:                  -2.826
REMARK UNBOUND:                -0.918
REMARK SMILES CC(=O)CCC=C(C)CCC=C(C)CCC=C(C)C
REMARK SMILES IDX 10 1 11 2 12 3 13 4 14 5 15 6 16 7 18 8 17 9 19 10 9 11 7 12
REMARK SMILES IDX 6 13 8 14 5 15 4 16 2 17 3 18 1 19
REMARK H PARENT
REMARK Flexibility Score: inf
ROOT
ATOM      1  C   UNL     1       9.122  34.528 -10.366  1.00  0.00     0.032 C 
ENDROOT
BRANCH   1   2
ATOM      2  C   UNL     1       8.627  35.245 -11.601  1.00  0.00    -0.028 C 
ATOM      3  C   UNL     1       9.368  35.488 -12.706  1.00  0.00    -0.077 C 
ATOM      4  C   UNL     1       8.746  36.293 -13.818  1.00  0.00     0.039 C 
BRANCH   3   5
ATOM      5  C   UNL     1      10.780  34.959 -12.888  1.00  0.00     0.034 C 
BRANCH   5   6
ATOM      6  C   UNL     1      10.871  33.965 -14.055  1.00  0.00     0.032 C 
BRANCH   6   7
ATOM      7  C   UNL     1      10.068  32.713 -13.792  1.00  0.00    -0.028 C 
ATOM      8  C   UNL     1       9.671  30.339 -13.304  1.00  0.00     0.039 C 
ATOM      9  C   UNL     1      10.601  31.510 -13.487  1.00  0.00    -0.080 C 
ATOM     10  C   UNL     1      12.089  31.314 -13.309  1.00  0.00     0.039 C 
ENDBRANCH   6   7
ENDBRANCH   5   6
ENDBRANCH   3   5
ENDBRANCH   1   2
BRANCH   1  11
ATOM     11  C   UNL     1       8.639  33.071 -10.329  1.00  0.00     0.034 C 
BRANCH  11  12
ATOM     12  C   UNL     1       9.745  32.119  -9.925  1.00  0.00    -0.077 C 
ATOM     13  C   UNL     1       9.429  30.863  -9.538  1.00  0.00    -0.028 C 
ATOM     14  C   UNL     1      11.178  32.594  -9.963  1.00  0.00     0.039 C 
BRANCH  13  15
ATOM     15  C   UNL     1      10.463  29.847  -9.111  1.00  0.00     0.035 C 
BRANCH  15  16
ATOM     16  C   UNL     1      10.636  28.730 -10.147  1.00  0.00     0.079 C 
BRANCH  16  17
ATOM     17  C   UNL     1      12.036  28.700 -10.707  1.00  0.00     0.130 C 
ATOM     18  O   UNL     1      12.869  29.489 -10.287  1.00  0.00    -0.300 OA
ATOM     19  C   UNL     1      12.434  27.714 -11.766  1.00  0.00     0.087 C 
ENDBRANCH  16  17
ENDBRANCH  15  16
ENDBRANCH  13  15
ENDBRANCH  11  12
ENDBRANCH   1  11
TORSDOF 9
ENDMDL
MODEL 9
REMARK VINA RESULT:    -5.772     12.232     16.043
REMARK INTER + INTRA:          -9.727
REMARK INTER:                  -8.376
REMARK INTRA:                  -1.351
REMARK UNBOUND:                -0.918
REMARK SMILES CC(=O)CCC=C(C)CCC=C(C)CCC=C(C)C
REMARK SMILES IDX 10 1 11 2 12 3 13 4 14 5 15 6 16 7 18 8 17 9 19 10 9 11 7 12
REMARK SMILES IDX 6 13 8 14 5 15 4 16 2 17 3 18 1 19
REMARK H PARENT
REMARK Flexibility Score: inf
ROOT
ATOM      1  C   UNL     1       7.927  30.615  -9.281  1.00  0.00     0.032 C 
ENDROOT
BRANCH   1   2
ATOM      2  C   UNL     1       6.930  29.946 -10.199  1.00  0.00    -0.028 C 
ATOM      3  C   UNL     1       5.592  30.135 -10.160  1.00  0.00    -0.077 C 
ATOM      4  C   UNL     1       4.731  29.322 -11.093  1.00  0.00     0.039 C 
BRANCH   3   5
ATOM      5  C   UNL     1       4.926  31.150  -9.248  1.00  0.00     0.034 C 
BRANCH   5   6
ATOM      6  C   UNL     1       3.442  30.825  -9.020  1.00  0.00     0.032 C 
BRANCH   6   7
ATOM      7  C   UNL     1       2.566  32.043  -9.198  1.00  0.00    -0.028 C 
ATOM      8  C   UNL     1       1.064  33.601 -10.359  1.00  0.00     0.039 C 
ATOM      9  C   UNL     1       1.851  32.318 -10.311  1.00  0.00    -0.080 C 
ATOM     10  C   UNL     1       1.807  31.372 -11.488  1.00  0.00     0.039 C 
ENDBRANCH   6   7
ENDBRANCH   5   6
ENDBRANCH   3   5
ENDBRANCH   1   2
BRANCH   1  11
ATOM     11  C   UNL     1       9.285  30.810  -9.970  1.00  0.00     0.034 C 
BRANCH  11  12
ATOM     12  C   UNL     1       9.659  32.273 -10.079  1.00  0.00    -0.077 C 
ATOM     13  C   UNL     1       8.687  33.193 -10.268  1.00  0.00    -0.028 C 
ATOM     14  C   UNL     1      11.111  32.674  -9.973  1.00  0.00     0.039 C 
BRANCH  13  15
ATOM     15  C   UNL     1       8.965  34.673 -10.396  1.00  0.00     0.035 C 
BRANCH  15  16
ATOM     16  C   UNL     1       8.672  35.195 -11.808  1.00  0.00     0.079 C 
BRANCH  16  17
ATOM     17  C   UNL     1       9.931  35.315 -12.631  1.00  0.00     0.130 C 
ATOM     18  O   UNL     1      10.552  36.366 -12.629  1.00  0.00    -0.300 OA
ATOM     19  C   UNL     1      10.443  34.165 -13.446  1.00  0.00     0.087 C 
ENDBRANCH  16  17
ENDBRANCH  15  16
ENDBRANCH  13  15
ENDBRANCH  11  12
ENDBRANCH   1  11
TORSDOF 9
ENDMDL
