MODEL 1
REMARK VINA RESULT:    -3.409      0.000      0.000
REMARK INTER + INTRA:         -13.029
REMARK INTER:                  -8.591
REMARK INTRA:                  -4.438
REMARK UNBOUND:                -4.438
REMARK SMILES CCCCCCCCCCCCCCCCCCCCCCCCCCCC(=O)[O-]
REMARK SMILES IDX 15 1 16 2 17 3 18 4 19 5 20 6 21 7 22 8 23 9 24 10 25 11
REMARK SMILES IDX 26 12 27 13 28 14 29 15 30 16 14 17 13 18 12 19 11 20 10 21
REMARK SMILES IDX 9 22 8 23 7 24 6 25 5 26 4 27 3 28 2 29 1 30
REMARK H PARENT
REMARK Flexibility Score: inf
ROOT
ATOM      1  C   UNL     1      58.611  28.502  53.623  1.00  0.00     0.000 C 
ENDROOT
BRANCH   1   2
ATOM      2  C   UNL     1      59.930  28.058  54.275  1.00  0.00     0.000 C 
BRANCH   2   3
ATOM      3  C   UNL     1      60.951  27.544  53.250  1.00  0.00     0.000 C 
BRANCH   3   4
ATOM      4  C   UNL     1      61.104  26.021  53.344  1.00  0.00     0.000 C 
BRANCH   4   5
ATOM      5  C   UNL     1      62.468  25.569  52.801  1.00  0.00     0.000 C 
BRANCH   5   6
ATOM      6  C   UNL     1      62.365  24.933  51.406  1.00  0.00     0.000 C 
BRANCH   6   7
ATOM      7  C   UNL     1      62.903  23.491  51.371  1.00  0.00     0.000 C 
BRANCH   7   8
ATOM      8  C   UNL     1      61.793  22.447  51.613  1.00  0.00     0.000 C 
BRANCH   8   9
ATOM      9  C   UNL     1      60.620  22.546  50.617  1.00  0.00     0.000 C 
BRANCH   9  10
ATOM     10  C   UNL     1      60.995  22.293  49.146  1.00  0.00     0.000 C 
BRANCH  10  11
ATOM     11  C   UNL     1      61.195  20.811  48.775  1.00  0.00     0.000 C 
BRANCH  11  12
ATOM     12  C   UNL     1      59.894  20.098  48.346  1.00  0.00     0.006 C 
BRANCH  12  13
ATOM     13  C   UNL     1      59.714  18.745  49.045  1.00  0.00     0.053 C 
BRANCH  13  14
ATOM     14  C   UNL     1      58.563  18.796  49.998  1.00  0.00     0.041 C 
ATOM     15  O   UNL     1      58.593  19.577  50.986  1.00  0.00    -0.550 OA
ATOM     16  O   UNL     1      57.474  17.954  49.819  1.00  0.00    -0.550 OA
ENDBRANCH  13  14
ENDBRANCH  12  13
ENDBRANCH  11  12
ENDBRANCH  10  11
ENDBRANCH   9  10
ENDBRANCH   8   9
ENDBRANCH   7   8
ENDBRANCH   6   7
ENDBRANCH   5   6
ENDBRANCH   4   5
ENDBRANCH   3   4
ENDBRANCH   2   3
ENDBRANCH   1   2
BRANCH   1  17
ATOM     17  C   UNL     1      58.823  29.552  52.523  1.00  0.00     0.000 C 
BRANCH  17  18
ATOM     18  C   UNL     1      57.513  29.838  51.779  1.00  0.00     0.000 C 
BRANCH  18  19
ATOM     19  C   UNL     1      57.648  29.523  50.282  1.00  0.00     0.000 C 
BRANCH  19  20
ATOM     20  C   UNL     1      59.093  29.658  49.770  1.00  0.00     0.000 C 
BRANCH  20  21
ATOM     21  C   UNL     1      59.584  28.493  48.887  1.00  0.00     0.000 C 
BRANCH  21  22
ATOM     22  C   UNL     1      60.268  27.342  49.652  1.00  0.00    -0.000 C 
BRANCH  22  23
ATOM     23  C   UNL     1      59.508  26.001  49.627  1.00  0.00    -0.000 C 
BRANCH  23  24
ATOM     24  C   UNL     1      58.523  25.782  50.791  1.00  0.00    -0.000 C 
BRANCH  24  25
ATOM     25  C   UNL     1      57.070  26.117  50.415  1.00  0.00    -0.000 C 
BRANCH  25  26
ATOM     26  C   UNL     1      56.122  26.123  51.629  1.00  0.00    -0.000 C 
BRANCH  26  27
ATOM     27  C   UNL     1      54.837  26.953  51.455  1.00  0.00    -0.000 C 
BRANCH  27  28
ATOM     28  C   UNL     1      54.546  27.419  50.016  1.00  0.00    -0.000 C 
BRANCH  28  29
ATOM     29  C   UNL     1      53.471  28.521  49.920  1.00  0.00    -0.003 C 
ATOM     30  C   UNL     1      53.924  29.848  50.528  1.00  0.00     0.004 C 
ENDBRANCH  28  29
ENDBRANCH  27  28
ENDBRANCH  26  27
ENDBRANCH  25  26
ENDBRANCH  24  25
ENDBRANCH  23  24
ENDBRANCH  22  23
ENDBRANCH  21  22
ENDBRANCH  20  21
ENDBRANCH  19  20
ENDBRANCH  18  19
ENDBRANCH  17  18
ENDBRANCH   1  17
TORSDOF 26
ENDMDL
MODEL 2
REMARK VINA RESULT:    -3.350      2.660      8.296
REMARK INTER + INTRA:         -12.880
REMARK INTER:                  -9.215
REMARK INTRA:                  -3.664
REMARK UNBOUND:                -4.438
REMARK SMILES CCCCCCCCCCCCCCCCCCCCCCCCCCCC(=O)[O-]
REMARK SMILES IDX 15 1 16 2 17 3 18 4 19 5 20 6 21 7 22 8 23 9 24 10 25 11
REMARK SMILES IDX 26 12 27 13 28 14 29 15 30 16 14 17 13 18 12 19 11 20 10 21
REMARK SMILES IDX 9 22 8 23 7 24 6 25 5 26 4 27 3 28 2 29 1 30
REMARK H PARENT
REMARK Flexibility Score: inf
ROOT
ATOM      1  C   UNL     1      58.114  22.955  53.723  1.00  0.00     0.000 C 
ENDROOT
BRANCH   1   2
ATOM      2  C   UNL     1      57.718  24.335  53.174  1.00  0.00     0.000 C 
BRANCH   2   3
ATOM      3  C   UNL     1      58.531  24.731  51.933  1.00  0.00     0.000 C 
BRANCH   3   4
ATOM      4  C   UNL     1      57.795  25.796  51.111  1.00  0.00     0.000 C 
BRANCH   4   5
ATOM      5  C   UNL     1      58.491  26.033  49.763  1.00  0.00     0.000 C 
BRANCH   5   6
ATOM      6  C   UNL     1      59.779  26.859  49.902  1.00  0.00     0.000 C 
BRANCH   6   7
ATOM      7  C   UNL     1      59.675  28.237  49.225  1.00  0.00     0.000 C 
BRANCH   7   8
ATOM      8  C   UNL     1      58.402  29.002  49.645  1.00  0.00     0.000 C 
BRANCH   8   9
ATOM      9  C   UNL     1      58.382  29.403  51.133  1.00  0.00     0.000 C 
BRANCH   9  10
ATOM     10  C   UNL     1      56.986  29.707  51.704  1.00  0.00     0.000 C 
BRANCH  10  11
ATOM     11  C   UNL     1      55.815  29.379  50.758  1.00  0.00     0.000 C 
BRANCH  11  12
ATOM     12  C   UNL     1      55.093  28.058  51.100  1.00  0.00     0.006 C 
BRANCH  12  13
ATOM     13  C   UNL     1      54.633  27.305  49.846  1.00  0.00     0.053 C 
BRANCH  13  14
ATOM     14  C   UNL     1      54.162  25.931  50.203  1.00  0.00     0.041 C 
ATOM     15  O   UNL     1      53.811  25.126  49.299  1.00  0.00    -0.550 OA
ATOM     16  O   UNL     1      54.074  25.551  51.535  1.00  0.00    -0.550 OA
ENDBRANCH  13  14
ENDBRANCH  12  13
ENDBRANCH  11  12
ENDBRANCH  10  11
ENDBRANCH   9  10
ENDBRANCH   8   9
ENDBRANCH   7   8
ENDBRANCH   6   7
ENDBRANCH   5   6
ENDBRANCH   4   5
ENDBRANCH   3   4
ENDBRANCH   2   3
ENDBRANCH   1   2
BRANCH   1  17
ATOM     17  C   UNL     1      58.985  22.158  52.739  1.00  0.00     0.000 C 
BRANCH  17  18
ATOM     18  C   UNL     1      59.219  20.731  53.249  1.00  0.00     0.000 C 
BRANCH  18  19
ATOM     19  C   UNL     1      57.889  19.995  53.462  1.00  0.00     0.000 C 
BRANCH  19  20
ATOM     20  C   UNL     1      57.714  18.789  52.522  1.00  0.00     0.000 C 
BRANCH  20  21
ATOM     21  C   UNL     1      56.818  19.044  51.293  1.00  0.00     0.000 C 
BRANCH  21  22
ATOM     22  C   UNL     1      56.878  17.952  50.207  1.00  0.00    -0.000 C 
BRANCH  22  23
ATOM     23  C   UNL     1      58.141  17.067  50.242  1.00  0.00    -0.000 C 
BRANCH  23  24
ATOM     24  C   UNL     1      59.144  17.308  49.098  1.00  0.00    -0.000 C 
BRANCH  24  25
ATOM     25  C   UNL     1      60.406  18.058  49.556  1.00  0.00    -0.000 C 
BRANCH  25  26
ATOM     26  C   UNL     1      60.163  19.563  49.778  1.00  0.00    -0.000 C 
BRANCH  26  27
ATOM     27  C   UNL     1      60.187  20.427  48.503  1.00  0.00    -0.000 C 
BRANCH  27  28
ATOM     28  C   UNL     1      61.114  21.656  48.560  1.00  0.00    -0.000 C 
BRANCH  28  29
ATOM     29  C   UNL     1      60.644  22.749  49.543  1.00  0.00    -0.003 C 
ATOM     30  C   UNL     1      61.750  23.213  50.489  1.00  0.00     0.004 C 
ENDBRANCH  28  29
ENDBRANCH  27  28
ENDBRANCH  26  27
ENDBRANCH  25  26
ENDBRANCH  24  25
ENDBRANCH  23  24
ENDBRANCH  22  23
ENDBRANCH  21  22
ENDBRANCH  20  21
ENDBRANCH  19  20
ENDBRANCH  18  19
ENDBRANCH  17  18
ENDBRANCH   1  17
TORSDOF 26
ENDMDL
MODEL 3
REMARK VINA RESULT:    -3.299      5.094      9.989
REMARK INTER + INTRA:         -12.751
REMARK INTER:                  -7.863
REMARK INTRA:                  -4.888
REMARK UNBOUND:                -4.438
REMARK SMILES CCCCCCCCCCCCCCCCCCCCCCCCCCCC(=O)[O-]
REMARK SMILES IDX 15 1 16 2 17 3 18 4 19 5 20 6 21 7 22 8 23 9 24 10 25 11
REMARK SMILES IDX 26 12 27 13 28 14 29 15 30 16 14 17 13 18 12 19 11 20 10 21
REMARK SMILES IDX 9 22 8 23 7 24 6 25 5 26 4 27 3 28 2 29 1 30
REMARK H PARENT
REMARK Flexibility Score: inf
ROOT
ATOM      1  C   UNL     1      56.687  25.924  51.316  1.00  0.00     0.000 C 
ENDROOT
BRANCH   1   2
ATOM      2  C   UNL     1      55.998  26.296  49.994  1.00  0.00     0.000 C 
BRANCH   2   3
ATOM      3  C   UNL     1      54.528  25.853  49.950  1.00  0.00     0.000 C 
BRANCH   3   4
ATOM      4  C   UNL     1      53.609  27.034  49.612  1.00  0.00     0.000 C 
BRANCH   4   5
ATOM      5  C   UNL     1      54.256  28.369  50.012  1.00  0.00     0.000 C 
BRANCH   5   6
ATOM      6  C   UNL     1      53.219  29.478  50.244  1.00  0.00     0.000 C 
BRANCH   6   7
ATOM      7  C   UNL     1      53.726  30.572  51.200  1.00  0.00     0.000 C 
BRANCH   7   8
ATOM      8  C   UNL     1      53.557  30.179  52.683  1.00  0.00     0.000 C 
BRANCH   8   9
ATOM      9  C   UNL     1      54.137  31.212  53.669  1.00  0.00     0.000 C 
BRANCH   9  10
ATOM     10  C   UNL     1      54.844  32.411  53.011  1.00  0.00     0.000 C 
BRANCH  10  11
ATOM     11  C   UNL     1      56.158  32.840  53.690  1.00  0.00     0.000 C 
BRANCH  11  12
ATOM     12  C   UNL     1      55.998  34.040  54.648  1.00  0.00     0.006 C 
BRANCH  12  13
ATOM     13  C   UNL     1      56.628  35.321  54.086  1.00  0.00     0.053 C 
BRANCH  13  14
ATOM     14  C   UNL     1      55.686  35.997  53.141  1.00  0.00     0.041 C 
ATOM     15  O   UNL     1      55.887  35.941  51.899  1.00  0.00    -0.550 OA
ATOM     16  O   UNL     1      54.610  36.724  53.633  1.00  0.00    -0.550 OA
ENDBRANCH  13  14
ENDBRANCH  12  13
ENDBRANCH  11  12
ENDBRANCH  10  11
ENDBRANCH   9  10
ENDBRANCH   8   9
ENDBRANCH   7   8
ENDBRANCH   6   7
ENDBRANCH   5   6
ENDBRANCH   4   5
ENDBRANCH   3   4
ENDBRANCH   2   3
ENDBRANCH   1   2
BRANCH   1  17
ATOM     17  C   UNL     1      55.732  25.996  52.518  1.00  0.00     0.000 C 
BRANCH  17  18
ATOM     18  C   UNL     1      55.845  27.352  53.226  1.00  0.00     0.000 C 
BRANCH  18  19
ATOM     19  C   UNL     1      57.247  27.952  53.048  1.00  0.00     0.000 C 
BRANCH  19  20
ATOM     20  C   UNL     1      57.216  29.420  52.584  1.00  0.00     0.000 C 
BRANCH  20  21
ATOM     21  C   UNL     1      58.251  29.784  51.501  1.00  0.00     0.000 C 
BRANCH  21  22
ATOM     22  C   UNL     1      57.809  29.486  50.054  1.00  0.00    -0.000 C 
BRANCH  22  23
ATOM     23  C   UNL     1      58.936  29.011  49.114  1.00  0.00    -0.000 C 
BRANCH  23  24
ATOM     24  C   UNL     1      59.511  27.617  49.430  1.00  0.00    -0.000 C 
BRANCH  24  25
ATOM     25  C   UNL     1      61.013  27.649  49.755  1.00  0.00    -0.000 C 
BRANCH  25  26
ATOM     26  C   UNL     1      61.306  27.487  51.259  1.00  0.00    -0.000 C 
BRANCH  26  27
ATOM     27  C   UNL     1      60.320  26.588  52.026  1.00  0.00    -0.000 C 
BRANCH  27  28
ATOM     28  C   UNL     1      60.730  25.107  52.136  1.00  0.00    -0.000 C 
BRANCH  28  29
ATOM     29  C   UNL     1      59.946  24.169  51.194  1.00  0.00    -0.003 C 
ATOM     30  C   UNL     1      60.712  23.835  49.915  1.00  0.00     0.004 C 
ENDBRANCH  28  29
ENDBRANCH  27  28
ENDBRANCH  26  27
ENDBRANCH  25  26
ENDBRANCH  24  25
ENDBRANCH  23  24
ENDBRANCH  22  23
ENDBRANCH  21  22
ENDBRANCH  20  21
ENDBRANCH  19  20
ENDBRANCH  18  19
ENDBRANCH  17  18
ENDBRANCH   1  17
TORSDOF 26
ENDMDL
MODEL 4
REMARK VINA RESULT:    -3.272      1.969      5.502
REMARK INTER + INTRA:         -12.683
REMARK INTER:                  -7.653
REMARK INTRA:                  -5.030
REMARK UNBOUND:                -4.438
REMARK SMILES CCCCCCCCCCCCCCCCCCCCCCCCCCCC(=O)[O-]
REMARK SMILES IDX 15 1 16 2 17 3 18 4 19 5 20 6 21 7 22 8 23 9 24 10 25 11
REMARK SMILES IDX 26 12 27 13 28 14 29 15 30 16 14 17 13 18 12 19 11 20 10 21
REMARK SMILES IDX 9 22 8 23 7 24 6 25 5 26 4 27 3 28 2 29 1 30
REMARK H PARENT
REMARK Flexibility Score: inf
ROOT
ATOM      1  C   UNL     1      54.300  27.464  50.680  1.00  0.00     0.000 C 
ENDROOT
BRANCH   1   2
ATOM      2  C   UNL     1      55.152  26.627  49.713  1.00  0.00     0.000 C 
BRANCH   2   3
ATOM      3  C   UNL     1      56.489  26.194  50.330  1.00  0.00     0.000 C 
BRANCH   3   4
ATOM      4  C   UNL     1      56.479  26.382  51.852  1.00  0.00     0.000 C 
BRANCH   4   5
ATOM      5  C   UNL     1      56.996  25.124  52.567  1.00  0.00     0.000 C 
BRANCH   5   6
ATOM      6  C   UNL     1      58.386  25.329  53.187  1.00  0.00     0.000 C 
BRANCH   6   7
ATOM      7  C   UNL     1      58.913  26.763  53.000  1.00  0.00     0.000 C 
BRANCH   7   8
ATOM      8  C   UNL     1      60.422  26.795  52.680  1.00  0.00     0.000 C 
BRANCH   8   9
ATOM      9  C   UNL     1      61.150  25.470  52.988  1.00  0.00     0.000 C 
BRANCH   9  10
ATOM     10  C   UNL     1      62.093  24.975  51.876  1.00  0.00     0.000 C 
BRANCH  10  11
ATOM     11  C   UNL     1      61.509  25.049  50.452  1.00  0.00     0.000 C 
BRANCH  11  12
ATOM     12  C   UNL     1      60.371  24.038  50.196  1.00  0.00     0.006 C 
BRANCH  12  13
ATOM     13  C   UNL     1      60.750  22.614  50.620  1.00  0.00     0.053 C 
BRANCH  13  14
ATOM     14  C   UNL     1      61.434  21.898  49.499  1.00  0.00     0.041 C 
ATOM     15  O   UNL     1      60.844  21.738  48.397  1.00  0.00    -0.550 OA
ATOM     16  O   UNL     1      62.705  21.371  49.683  1.00  0.00    -0.550 OA
ENDBRANCH  13  14
ENDBRANCH  12  13
ENDBRANCH  11  12
ENDBRANCH  10  11
ENDBRANCH   9  10
ENDBRANCH   8   9
ENDBRANCH   7   8
ENDBRANCH   6   7
ENDBRANCH   5   6
ENDBRANCH   4   5
ENDBRANCH   3   4
ENDBRANCH   2   3
ENDBRANCH   1   2
BRANCH   1  17
ATOM     17  C   UNL     1      53.674  28.692  50.001  1.00  0.00     0.000 C 
BRANCH  17  18
ATOM     18  C   UNL     1      54.062  29.981  50.736  1.00  0.00     0.000 C 
BRANCH  18  19
ATOM     19  C   UNL     1      54.621  29.674  52.132  1.00  0.00     0.000 C 
BRANCH  19  20
ATOM     20  C   UNL     1      55.790  30.596  52.526  1.00  0.00     0.000 C 
BRANCH  20  21
ATOM     21  C   UNL     1      57.147  29.886  52.710  1.00  0.00     0.000 C 
BRANCH  21  22
ATOM     22  C   UNL     1      58.157  30.112  51.568  1.00  0.00    -0.000 C 
BRANCH  22  23
ATOM     23  C   UNL     1      57.759  29.492  50.213  1.00  0.00    -0.000 C 
BRANCH  23  24
ATOM     24  C   UNL     1      58.897  29.382  49.180  1.00  0.00    -0.000 C 
BRANCH  24  25
ATOM     25  C   UNL     1      59.701  28.079  49.313  1.00  0.00    -0.000 C 
BRANCH  25  26
ATOM     26  C   UNL     1      61.225  28.307  49.280  1.00  0.00    -0.000 C 
BRANCH  26  27
ATOM     27  C   UNL     1      61.768  29.264  50.357  1.00  0.00    -0.000 C 
BRANCH  27  28
ATOM     28  C   UNL     1      62.973  28.733  51.159  1.00  0.00    -0.000 C 
BRANCH  28  29
ATOM     29  C   UNL     1      63.664  29.803  52.030  1.00  0.00    -0.003 C 
ATOM     30  C   UNL     1      62.678  30.793  52.649  1.00  0.00     0.004 C 
ENDBRANCH  28  29
ENDBRANCH  27  28
ENDBRANCH  26  27
ENDBRANCH  25  26
ENDBRANCH  24  25
ENDBRANCH  23  24
ENDBRANCH  22  23
ENDBRANCH  21  22
ENDBRANCH  20  21
ENDBRANCH  19  20
ENDBRANCH  18  19
ENDBRANCH  17  18
ENDBRANCH   1  17
TORSDOF 26
ENDMDL
MODEL 5
REMARK VINA RESULT:    -3.230      5.250      8.799
REMARK INTER + INTRA:         -12.578
REMARK INTER:                  -6.891
REMARK INTRA:                  -5.687
REMARK UNBOUND:                -4.438
REMARK SMILES CCCCCCCCCCCCCCCCCCCCCCCCCCCC(=O)[O-]
REMARK SMILES IDX 15 1 16 2 17 3 18 4 19 5 20 6 21 7 22 8 23 9 24 10 25 11
REMARK SMILES IDX 26 12 27 13 28 14 29 15 30 16 14 17 13 18 12 19 11 20 10 21
REMARK SMILES IDX 9 22 8 23 7 24 6 25 5 26 4 27 3 28 2 29 1 30
REMARK H PARENT
REMARK Flexibility Score: inf
ROOT
ATOM      1  C   UNL     1      60.017  27.209  49.607  1.00  0.00     0.000 C 
ENDROOT
BRANCH   1   2
ATOM      2  C   UNL     1      59.385  26.486  50.807  1.00  0.00     0.000 C 
BRANCH   2   3
ATOM      3  C   UNL     1      58.106  25.726  50.430  1.00  0.00     0.000 C 
BRANCH   3   4
ATOM      4  C   UNL     1      56.879  26.342  51.114  1.00  0.00     0.000 C 
BRANCH   4   5
ATOM      5  C   UNL     1      55.762  26.622  50.097  1.00  0.00     0.000 C 
BRANCH   5   6
ATOM      6  C   UNL     1      55.155  28.024  50.261  1.00  0.00     0.000 C 
BRANCH   6   7
ATOM      7  C   UNL     1      53.677  28.082  49.838  1.00  0.00     0.000 C 
BRANCH   7   8
ATOM      8  C   UNL     1      53.031  29.448  50.152  1.00  0.00     0.000 C 
BRANCH   8   9
ATOM      9  C   UNL     1      53.907  30.360  51.035  1.00  0.00     0.000 C 
BRANCH   9  10
ATOM     10  C   UNL     1      53.129  31.241  52.028  1.00  0.00     0.000 C 
BRANCH  10  11
ATOM     11  C   UNL     1      53.982  31.847  53.160  1.00  0.00     0.000 C 
BRANCH  11  12
ATOM     12  C   UNL     1      55.499  31.814  52.879  1.00  0.00     0.006 C 
BRANCH  12  13
ATOM     13  C   UNL     1      56.295  32.665  53.876  1.00  0.00     0.053 C 
BRANCH  13  14
ATOM     14  C   UNL     1      56.683  33.970  53.258  1.00  0.00     0.041 C 
ATOM     15  O   UNL     1      55.816  34.682  52.684  1.00  0.00    -0.550 OA
ATOM     16  O   UNL     1      58.008  34.383  53.281  1.00  0.00    -0.550 OA
ENDBRANCH  13  14
ENDBRANCH  12  13
ENDBRANCH  11  12
ENDBRANCH  10  11
ENDBRANCH   9  10
ENDBRANCH   8   9
ENDBRANCH   7   8
ENDBRANCH   6   7
ENDBRANCH   5   6
ENDBRANCH   4   5
ENDBRANCH   3   4
ENDBRANCH   2   3
ENDBRANCH   1   2
BRANCH   1  17
ATOM     17  C   UNL     1      60.050  28.734  49.790  1.00  0.00     0.000 C 
BRANCH  17  18
ATOM     18  C   UNL     1      58.664  29.344  49.547  1.00  0.00     0.000 C 
BRANCH  18  19
ATOM     19  C   UNL     1      58.081  29.922  50.845  1.00  0.00     0.000 C 
BRANCH  19  20
ATOM     20  C   UNL     1      59.165  30.386  51.834  1.00  0.00     0.000 C 
BRANCH  20  21
ATOM     21  C   UNL     1      58.862  30.096  53.318  1.00  0.00     0.000 C 
BRANCH  21  22
ATOM     22  C   UNL     1      58.278  28.697  53.600  1.00  0.00    -0.000 C 
BRANCH  22  23
ATOM     23  C   UNL     1      57.033  28.682  54.509  1.00  0.00    -0.000 C 
BRANCH  23  24
ATOM     24  C   UNL     1      55.691  28.476  53.782  1.00  0.00    -0.000 C 
BRANCH  24  25
ATOM     25  C   UNL     1      54.481  28.545  54.729  1.00  0.00    -0.000 C 
BRANCH  25  26
ATOM     26  C   UNL     1      53.180  28.034  54.080  1.00  0.00    -0.000 C 
BRANCH  26  27
ATOM     27  C   UNL     1      53.333  26.773  53.209  1.00  0.00    -0.000 C 
BRANCH  27  28
ATOM     28  C   UNL     1      53.694  25.486  53.975  1.00  0.00    -0.000 C 
BRANCH  28  29
ATOM     29  C   UNL     1      54.240  24.356  53.077  1.00  0.00    -0.003 C 
ATOM     30  C   UNL     1      53.142  23.631  52.300  1.00  0.00     0.004 C 
ENDBRANCH  28  29
ENDBRANCH  27  28
ENDBRANCH  26  27
ENDBRANCH  25  26
ENDBRANCH  24  25
ENDBRANCH  23  24
ENDBRANCH  22  23
ENDBRANCH  21  22
ENDBRANCH  20  21
ENDBRANCH  19  20
ENDBRANCH  18  19
ENDBRANCH  17  18
ENDBRANCH   1  17
TORSDOF 26
ENDMDL
MODEL 6
REMARK VINA RESULT:    -3.229      4.663      9.099
REMARK INTER + INTRA:         -12.576
REMARK INTER:                  -7.288
REMARK INTRA:                  -5.288
REMARK UNBOUND:                -4.438
REMARK SMILES CCCCCCCCCCCCCCCCCCCCCCCCCCCC(=O)[O-]
REMARK SMILES IDX 15 1 16 2 17 3 18 4 19 5 20 6 21 7 22 8 23 9 24 10 25 11
REMARK SMILES IDX 26 12 27 13 28 14 29 15 30 16 14 17 13 18 12 19 11 20 10 21
REMARK SMILES IDX 9 22 8 23 7 24 6 25 5 26 4 27 3 28 2 29 1 30
REMARK H PARENT
REMARK Flexibility Score: inf
ROOT
ATOM      1  C   UNL     1      56.836  25.886  51.187  1.00  0.00     0.000 C 
ENDROOT
BRANCH   1   2
ATOM      2  C   UNL     1      56.077  26.269  49.907  1.00  0.00     0.000 C 
BRANCH   2   3
ATOM      3  C   UNL     1      54.577  25.953  49.994  1.00  0.00     0.000 C 
BRANCH   3   4
ATOM      4  C   UNL     1      53.735  27.193  49.669  1.00  0.00     0.000 C 
BRANCH   4   5
ATOM      5  C   UNL     1      54.398  28.468  50.210  1.00  0.00     0.000 C 
BRANCH   5   6
ATOM      6  C   UNL     1      53.412  29.640  50.329  1.00  0.00     0.000 C 
BRANCH   6   7
ATOM      7  C   UNL     1      53.920  30.750  51.265  1.00  0.00     0.000 C 
BRANCH   7   8
ATOM      8  C   UNL     1      53.683  30.416  52.753  1.00  0.00     0.000 C 
BRANCH   8   9
ATOM      9  C   UNL     1      54.280  31.454  53.725  1.00  0.00     0.000 C 
BRANCH   9  10
ATOM     10  C   UNL     1      55.028  32.617  53.051  1.00  0.00     0.000 C 
BRANCH  10  11
ATOM     11  C   UNL     1      56.430  32.904  53.623  1.00  0.00     0.000 C 
BRANCH  11  12
ATOM     12  C   UNL     1      56.538  32.668  55.145  1.00  0.00     0.006 C 
BRANCH  12  13
ATOM     13  C   UNL     1      57.572  31.590  55.495  1.00  0.00     0.053 C 
BRANCH  13  14
ATOM     14  C   UNL     1      57.009  30.629  56.493  1.00  0.00     0.041 C 
ATOM     15  O   UNL     1      56.455  29.565  56.106  1.00  0.00    -0.550 OA
ATOM     16  O   UNL     1      57.059  30.924  57.849  1.00  0.00    -0.550 OA
ENDBRANCH  13  14
ENDBRANCH  12  13
ENDBRANCH  11  12
ENDBRANCH  10  11
ENDBRANCH   9  10
ENDBRANCH   8   9
ENDBRANCH   7   8
ENDBRANCH   6   7
ENDBRANCH   5   6
ENDBRANCH   4   5
ENDBRANCH   3   4
ENDBRANCH   2   3
ENDBRANCH   1   2
BRANCH   1  17
ATOM     17  C   UNL     1      55.934  25.896  52.431  1.00  0.00     0.000 C 
BRANCH  17  18
ATOM     18  C   UNL     1      56.171  27.158  53.268  1.00  0.00     0.000 C 
BRANCH  18  19
ATOM     19  C   UNL     1      57.449  27.884  52.824  1.00  0.00     0.000 C 
BRANCH  19  20
ATOM     20  C   UNL     1      57.232  29.391  52.591  1.00  0.00     0.000 C 
BRANCH  20  21
ATOM     21  C   UNL     1      58.131  30.020  51.508  1.00  0.00     0.000 C 
BRANCH  21  22
ATOM     22  C   UNL     1      57.788  29.611  50.062  1.00  0.00    -0.000 C 
BRANCH  22  23
ATOM     23  C   UNL     1      58.990  29.145  49.214  1.00  0.00    -0.000 C 
BRANCH  23  24
ATOM     24  C   UNL     1      59.472  27.709  49.492  1.00  0.00    -0.000 C 
BRANCH  24  25
ATOM     25  C   UNL     1      60.999  27.609  49.645  1.00  0.00    -0.000 C 
BRANCH  25  26
ATOM     26  C   UNL     1      61.430  27.035  51.008  1.00  0.00    -0.000 C 
BRANCH  26  27
ATOM     27  C   UNL     1      62.184  28.015  51.924  1.00  0.00    -0.000 C 
BRANCH  27  28
ATOM     28  C   UNL     1      61.577  29.429  52.015  1.00  0.00    -0.000 C 
BRANCH  28  29
ATOM     29  C   UNL     1      62.481  30.536  51.433  1.00  0.00    -0.003 C 
ATOM     30  C   UNL     1      61.871  31.221  50.211  1.00  0.00     0.004 C 
ENDBRANCH  28  29
ENDBRANCH  27  28
ENDBRANCH  26  27
ENDBRANCH  25  26
ENDBRANCH  24  25
ENDBRANCH  23  24
ENDBRANCH  22  23
ENDBRANCH  21  22
ENDBRANCH  20  21
ENDBRANCH  19  20
ENDBRANCH  18  19
ENDBRANCH  17  18
ENDBRANCH   1  17
TORSDOF 26
ENDMDL
MODEL 7
REMARK VINA RESULT:    -3.224      1.822      4.110
REMARK INTER + INTRA:         -12.562
REMARK INTER:                  -9.442
REMARK INTRA:                  -3.120
REMARK UNBOUND:                -4.438
REMARK SMILES CCCCCCCCCCCCCCCCCCCCCCCCCCCC(=O)[O-]
REMARK SMILES IDX 15 1 16 2 17 3 18 4 19 5 20 6 21 7 22 8 23 9 24 10 25 11
REMARK SMILES IDX 26 12 27 13 28 14 29 15 30 16 14 17 13 18 12 19 11 20 10 21
REMARK SMILES IDX 9 22 8 23 7 24 6 25 5 26 4 27 3 28 2 29 1 30
REMARK H PARENT
REMARK Flexibility Score: inf
ROOT
ATOM      1  C   UNL     1      59.222  25.161  51.367  1.00  0.00     0.000 C 
ENDROOT
BRANCH   1   2
ATOM      2  C   UNL     1      59.877  24.453  50.171  1.00  0.00     0.000 C 
BRANCH   2   3
ATOM      3  C   UNL     1      61.377  24.202  50.383  1.00  0.00     0.000 C 
BRANCH   3   4
ATOM      4  C   UNL     1      61.630  22.774  50.881  1.00  0.00     0.000 C 
BRANCH   4   5
ATOM      5  C   UNL     1      60.581  21.801  50.324  1.00  0.00     0.000 C 
BRANCH   5   6
ATOM      6  C   UNL     1      60.988  21.211  48.965  1.00  0.00     0.000 C 
BRANCH   6   7
ATOM      7  C   UNL     1      60.875  19.677  48.926  1.00  0.00     0.000 C 
BRANCH   7   8
ATOM      8  C   UNL     1      59.483  19.203  48.460  1.00  0.00     0.000 C 
BRANCH   8   9
ATOM      9  C   UNL     1      59.340  17.669  48.391  1.00  0.00     0.000 C 
BRANCH   9  10
ATOM     10  C   UNL     1      58.154  17.092  49.182  1.00  0.00     0.000 C 
BRANCH  10  11
ATOM     11  C   UNL     1      57.398  18.115  50.052  1.00  0.00     0.000 C 
BRANCH  11  12
ATOM     12  C   UNL     1      57.799  18.078  51.542  1.00  0.00     0.006 C 
BRANCH  12  13
ATOM     13  C   UNL     1      58.700  16.881  51.873  1.00  0.00     0.053 C 
BRANCH  13  14
ATOM     14  C   UNL     1      59.951  17.340  52.553  1.00  0.00     0.041 C 
ATOM     15  O   UNL     1      60.926  17.756  51.873  1.00  0.00    -0.550 OA
ATOM     16  O   UNL     1      60.056  17.270  53.936  1.00  0.00    -0.550 OA
ENDBRANCH  13  14
ENDBRANCH  12  13
ENDBRANCH  11  12
ENDBRANCH  10  11
ENDBRANCH   9  10
ENDBRANCH   8   9
ENDBRANCH   7   8
ENDBRANCH   6   7
ENDBRANCH   5   6
ENDBRANCH   4   5
ENDBRANCH   3   4
ENDBRANCH   2   3
ENDBRANCH   1   2
BRANCH   1  17
ATOM     17  C   UNL     1      58.945  26.647  51.092  1.00  0.00     0.000 C 
BRANCH  17  18
ATOM     18  C   UNL     1      58.869  26.919  49.584  1.00  0.00     0.000 C 
BRANCH  18  19
ATOM     19  C   UNL     1      59.622  28.206  49.217  1.00  0.00     0.000 C 
BRANCH  19  20
ATOM     20  C   UNL     1      61.028  28.276  49.841  1.00  0.00     0.000 C 
BRANCH  20  21
ATOM     21  C   UNL     1      61.311  29.545  50.669  1.00  0.00     0.000 C 
BRANCH  21  22
ATOM     22  C   UNL     1      60.065  30.379  51.028  1.00  0.00    -0.000 C 
BRANCH  22  23
ATOM     23  C   UNL     1      59.450  30.069  52.409  1.00  0.00    -0.000 C 
BRANCH  23  24
ATOM     24  C   UNL     1      58.008  30.569  52.613  1.00  0.00    -0.000 C 
BRANCH  24  25
ATOM     25  C   UNL     1      56.956  29.470  52.388  1.00  0.00    -0.000 C 
BRANCH  25  26
ATOM     26  C   UNL     1      56.514  29.354  50.916  1.00  0.00    -0.000 C 
BRANCH  26  27
ATOM     27  C   UNL     1      54.999  29.485  50.673  1.00  0.00    -0.000 C 
BRANCH  27  28
ATOM     28  C   UNL     1      54.249  28.154  50.473  1.00  0.00    -0.000 C 
BRANCH  28  29
ATOM     29  C   UNL     1      55.133  27.014  49.926  1.00  0.00    -0.003 C 
ATOM     30  C   UNL     1      54.331  25.942  49.188  1.00  0.00     0.004 C 
ENDBRANCH  28  29
ENDBRANCH  27  28
ENDBRANCH  26  27
ENDBRANCH  25  26
ENDBRANCH  24  25
ENDBRANCH  23  24
ENDBRANCH  22  23
ENDBRANCH  21  22
ENDBRANCH  20  21
ENDBRANCH  19  20
ENDBRANCH  18  19
ENDBRANCH  17  18
ENDBRANCH   1  17
TORSDOF 26
ENDMDL
MODEL 8
REMARK VINA RESULT:    -3.183      4.857      9.157
REMARK INTER + INTRA:         -12.460
REMARK INTER:                  -6.750
REMARK INTRA:                  -5.710
REMARK UNBOUND:                -4.438
REMARK SMILES CCCCCCCCCCCCCCCCCCCCCCCCCCCC(=O)[O-]
REMARK SMILES IDX 15 1 16 2 17 3 18 4 19 5 20 6 21 7 22 8 23 9 24 10 25 11
REMARK SMILES IDX 26 12 27 13 28 14 29 15 30 16 14 17 13 18 12 19 11 20 10 21
REMARK SMILES IDX 9 22 8 23 7 24 6 25 5 26 4 27 3 28 2 29 1 30
REMARK H PARENT
REMARK Flexibility Score: inf
ROOT
ATOM      1  C   UNL     1      57.006  26.394  52.559  1.00  0.00     0.000 C 
ENDROOT
BRANCH   1   2
ATOM      2  C   UNL     1      56.070  25.859  51.463  1.00  0.00     0.000 C 
BRANCH   2   3
ATOM      3  C   UNL     1      55.773  26.905  50.380  1.00  0.00     0.000 C 
BRANCH   3   4
ATOM      4  C   UNL     1      54.321  26.798  49.897  1.00  0.00     0.000 C 
BRANCH   4   5
ATOM      5  C   UNL     1      53.650  28.180  49.855  1.00  0.00     0.000 C 
BRANCH   5   6
ATOM      6  C   UNL     1      54.567  29.296  50.378  1.00  0.00     0.000 C 
BRANCH   6   7
ATOM      7  C   UNL     1      53.789  30.426  51.072  1.00  0.00     0.000 C 
BRANCH   7   8
ATOM      8  C   UNL     1      53.655  30.198  52.593  1.00  0.00     0.000 C 
BRANCH   8   9
ATOM      9  C   UNL     1      54.699  29.218  53.167  1.00  0.00     0.000 C 
BRANCH   9  10
ATOM     10  C   UNL     1      55.074  29.461  54.639  1.00  0.00     0.000 C 
BRANCH  10  11
ATOM     11  C   UNL     1      56.373  30.261  54.853  1.00  0.00     0.000 C 
BRANCH  11  12
ATOM     12  C   UNL     1      56.149  31.781  54.995  1.00  0.00     0.006 C 
BRANCH  12  13
ATOM     13  C   UNL     1      56.812  32.577  53.864  1.00  0.00     0.053 C 
BRANCH  13  14
ATOM     14  C   UNL     1      55.961  33.743  53.475  1.00  0.00     0.041 C 
ATOM     15  O   UNL     1      56.296  34.911  53.807  1.00  0.00    -0.550 OA
ATOM     16  O   UNL     1      54.777  33.538  52.779  1.00  0.00    -0.550 OA
ENDBRANCH  13  14
ENDBRANCH  12  13
ENDBRANCH  11  12
ENDBRANCH  10  11
ENDBRANCH   9  10
ENDBRANCH   8   9
ENDBRANCH   7   8
ENDBRANCH   6   7
ENDBRANCH   5   6
ENDBRANCH   4   5
ENDBRANCH   3   4
ENDBRANCH   2   3
ENDBRANCH   1   2
BRANCH   1  17
ATOM     17  C   UNL     1      58.456  26.545  52.073  1.00  0.00     0.000 C 
BRANCH  17  18
ATOM     18  C   UNL     1      58.907  25.299  51.302  1.00  0.00     0.000 C 
BRANCH  18  19
ATOM     19  C   UNL     1      59.714  25.685  50.054  1.00  0.00     0.000 C 
BRANCH  19  20
ATOM     20  C   UNL     1      59.147  26.921  49.332  1.00  0.00     0.000 C 
BRANCH  20  21
ATOM     21  C   UNL     1      60.115  28.117  49.229  1.00  0.00     0.000 C 
BRANCH  21  22
ATOM     22  C   UNL     1      59.451  29.503  49.348  1.00  0.00    -0.000 C 
BRANCH  22  23
ATOM     23  C   UNL     1      58.068  29.506  50.030  1.00  0.00    -0.000 C 
BRANCH  23  24
ATOM     24  C   UNL     1      58.041  30.084  51.457  1.00  0.00    -0.000 C 
BRANCH  24  25
ATOM     25  C   UNL     1      59.446  30.351  52.021  1.00  0.00    -0.000 C 
BRANCH  25  26
ATOM     26  C   UNL     1      59.626  29.830  53.460  1.00  0.00    -0.000 C 
BRANCH  26  27
ATOM     27  C   UNL     1      60.833  28.900  53.676  1.00  0.00    -0.000 C 
BRANCH  27  28
ATOM     28  C   UNL     1      61.684  28.626  52.421  1.00  0.00    -0.000 C 
BRANCH  28  29
ATOM     29  C   UNL     1      62.213  27.180  52.326  1.00  0.00    -0.003 C 
ATOM     30  C   UNL     1      63.075  26.942  51.088  1.00  0.00     0.004 C 
ENDBRANCH  28  29
ENDBRANCH  27  28
ENDBRANCH  26  27
ENDBRANCH  25  26
ENDBRANCH  24  25
ENDBRANCH  23  24
ENDBRANCH  22  23
ENDBRANCH  21  22
ENDBRANCH  20  21
ENDBRANCH  19  20
ENDBRANCH  18  19
ENDBRANCH  17  18
ENDBRANCH   1  17
TORSDOF 26
ENDMDL
MODEL 9
REMARK VINA RESULT:    -3.172      4.814      9.557
REMARK INTER + INTRA:         -12.431
REMARK INTER:                  -6.819
REMARK INTRA:                  -5.611
REMARK UNBOUND:                -4.438
REMARK SMILES CCCCCCCCCCCCCCCCCCCCCCCCCCCC(=O)[O-]
REMARK SMILES IDX 15 1 16 2 17 3 18 4 19 5 20 6 21 7 22 8 23 9 24 10 25 11
REMARK SMILES IDX 26 12 27 13 28 14 29 15 30 16 14 17 13 18 12 19 11 20 10 21
REMARK SMILES IDX 9 22 8 23 7 24 6 25 5 26 4 27 3 28 2 29 1 30
REMARK H PARENT
REMARK Flexibility Score: inf
ROOT
ATOM      1  C   UNL     1      54.023  29.703  50.480  1.00  0.00     0.000 C 
ENDROOT
BRANCH   1   2
ATOM      2  C   UNL     1      53.485  30.128  51.855  1.00  0.00     0.000 C 
BRANCH   2   3
ATOM      3  C   UNL     1      54.338  31.225  52.509  1.00  0.00     0.000 C 
BRANCH   3   4
ATOM      4  C   UNL     1      54.096  31.280  54.022  1.00  0.00     0.000 C 
BRANCH   4   5
ATOM      5  C   UNL     1      54.431  29.934  54.684  1.00  0.00     0.000 C 
BRANCH   5   6
ATOM      6  C   UNL     1      54.964  30.099  56.115  1.00  0.00     0.000 C 
BRANCH   6   7
ATOM      7  C   UNL     1      56.482  30.345  56.158  1.00  0.00     0.000 C 
BRANCH   7   8
ATOM      8  C   UNL     1      56.861  31.509  57.098  1.00  0.00     0.000 C 
BRANCH   8   9
ATOM      9  C   UNL     1      56.117  32.824  56.788  1.00  0.00     0.000 C 
BRANCH   9  10
ATOM     10  C   UNL     1      56.924  33.848  55.971  1.00  0.00     0.000 C 
BRANCH  10  11
ATOM     11  C   UNL     1      56.330  34.187  54.590  1.00  0.00     0.000 C 
BRANCH  11  12
ATOM     12  C   UNL     1      57.065  33.506  53.415  1.00  0.00     0.006 C 
BRANCH  12  13
ATOM     13  C   UNL     1      58.325  32.760  53.871  1.00  0.00     0.053 C 
BRANCH  13  14
ATOM     14  C   UNL     1      59.514  33.207  53.080  1.00  0.00     0.041 C 
ATOM     15  O   UNL     1      60.379  32.370  52.708  1.00  0.00    -0.550 OA
ATOM     16  O   UNL     1      59.688  34.553  52.787  1.00  0.00    -0.550 OA
ENDBRANCH  13  14
ENDBRANCH  12  13
ENDBRANCH  11  12
ENDBRANCH  10  11
ENDBRANCH   9  10
ENDBRANCH   8   9
ENDBRANCH   7   8
ENDBRANCH   6   7
ENDBRANCH   5   6
ENDBRANCH   4   5
ENDBRANCH   3   4
ENDBRANCH   2   3
ENDBRANCH   1   2
BRANCH   1  17
ATOM     17  C   UNL     1      53.306  28.463  49.924  1.00  0.00     0.000 C 
BRANCH  17  18
ATOM     18  C   UNL     1      53.789  27.190  50.630  1.00  0.00     0.000 C 
BRANCH  18  19
ATOM     19  C   UNL     1      54.738  26.386  49.730  1.00  0.00     0.000 C 
BRANCH  19  20
ATOM     20  C   UNL     1      56.221  26.717  49.977  1.00  0.00     0.000 C 
BRANCH  20  21
ATOM     21  C   UNL     1      56.907  25.865  51.064  1.00  0.00     0.000 C 
BRANCH  21  22
ATOM     22  C   UNL     1      57.601  26.672  52.180  1.00  0.00    -0.000 C 
BRANCH  22  23
ATOM     23  C   UNL     1      56.813  27.899  52.683  1.00  0.00    -0.000 C 
BRANCH  23  24
ATOM     24  C   UNL     1      57.605  29.220  52.713  1.00  0.00    -0.000 C 
BRANCH  24  25
ATOM     25  C   UNL     1      57.574  29.967  51.368  1.00  0.00    -0.000 C 
BRANCH  25  26
ATOM     26  C   UNL     1      58.921  29.917  50.623  1.00  0.00    -0.000 C 
BRANCH  26  27
ATOM     27  C   UNL     1      58.889  29.210  49.256  1.00  0.00    -0.000 C 
BRANCH  27  28
ATOM     28  C   UNL     1      59.621  27.855  49.200  1.00  0.00    -0.000 C 
BRANCH  28  29
ATOM     29  C   UNL     1      60.649  27.653  50.333  1.00  0.00    -0.003 C 
ATOM     30  C   UNL     1      60.967  26.181  50.591  1.00  0.00     0.004 C 
ENDBRANCH  28  29
ENDBRANCH  27  28
ENDBRANCH  26  27
ENDBRANCH  25  26
ENDBRANCH  24  25
ENDBRANCH  23  24
ENDBRANCH  22  23
ENDBRANCH  21  22
ENDBRANCH  20  21
ENDBRANCH  19  20
ENDBRANCH  18  19
ENDBRANCH  17  18
ENDBRANCH   1  17
TORSDOF 26
ENDMDL
