MODEL 1
REMARK VINA RESULT:    -8.108      0.000      0.000
REMARK INTER + INTRA:         -10.104
REMARK INTER:                 -10.004
REMARK INTRA:                  -0.100
REMARK UNBOUND:                -0.100
REMARK SMILES Oc1cc(O)c2cc(O)c(-c3cc(O)c(O)c(O)c3)[o+]c2c1
REMARK SMILES IDX 10 1 20 2 21 3 22 4 2 5 3 6 4 7 6 8 7 9 8 10 11 11 12 12
REMARK SMILES IDX 13 13 19 14 15 15 17 16 14 17 16 19 18 21 9 23 1 25 5 27
REMARK H PARENT 14 18 16 20 18 22 9 24 1 26 5 28
REMARK Flexibility Score: inf
ROOT
ATOM      1  C   UNL     1      78.561 -26.388  85.735  1.00  0.00     0.402 A 
ATOM      2  O   UNL     1      79.247 -25.705  86.650  1.00  0.00    -0.202 OA
ATOM      3  C   UNL     1      80.563 -25.811  86.800  1.00  0.00     0.368 A 
ATOM      4  C   UNL     1      81.210 -25.056  87.783  1.00  0.00     0.162 A 
ATOM      5  C   UNL     1      82.597 -25.156  87.949  1.00  0.00     0.128 A 
ATOM      6  C   UNL     1      83.338 -26.013  87.129  1.00  0.00     0.093 A 
ATOM      7  C   UNL     1      82.703 -26.778  86.139  1.00  0.00     0.136 A 
ATOM      8  C   UNL     1      81.309 -26.678  85.973  1.00  0.00     0.125 A 
ATOM      9  C   UNL     1      80.621 -27.422  85.008  1.00  0.00     0.078 A 
ATOM     10  C   UNL     1      79.234 -27.291  84.886  1.00  0.00     0.223 A 
ENDROOT
BRANCH   1  11
ATOM     11  C   UNL     1      77.097 -26.179  85.657  1.00  0.00     0.091 A 
ATOM     12  C   UNL     1      76.333 -26.208  86.833  1.00  0.00     0.068 A 
ATOM     13  C   UNL     1      74.948 -25.994  86.791  1.00  0.00     0.162 A 
ATOM     14  C   UNL     1      76.461 -25.895  84.436  1.00  0.00     0.068 A 
ATOM     15  C   UNL     1      74.316 -25.731  85.563  1.00  0.00     0.200 A 
ATOM     16  C   UNL     1      75.081 -25.678  84.385  1.00  0.00     0.162 A 
BRANCH  13  17
ATOM     17  O   UNL     1      74.198 -26.039  87.965  1.00  0.00    -0.504 OA
ATOM     18  H   UNL     1      74.339 -26.765  88.658  1.00  0.00     0.293 HD
ENDBRANCH  13  17
BRANCH  15  19
ATOM     19  O   UNL     1      72.939 -25.517  85.502  1.00  0.00    -0.502 OA
ATOM     20  H   UNL     1      72.535 -24.732  85.005  1.00  0.00     0.293 HD
ENDBRANCH  15  19
BRANCH  16  21
ATOM     21  O   UNL     1      74.485 -25.405  83.152  1.00  0.00    -0.504 OA
ATOM     22  H   UNL     1      73.708 -24.764  83.060  1.00  0.00     0.293 HD
ENDBRANCH  16  21
ENDBRANCH   1  11
BRANCH  10  23
ATOM     23  O   UNL     1      78.536 -28.067  83.961  1.00  0.00    -0.500 OA
ATOM     24  H   UNL     1      78.735 -28.017  82.969  1.00  0.00     0.294 HD
ENDBRANCH  10  23
BRANCH   5  25
ATOM     25  O   UNL     1      83.250 -24.407  88.926  1.00  0.00    -0.507 OA
ATOM     26  H   UNL     1      83.986 -24.806  89.497  1.00  0.00     0.293 HD
ENDBRANCH   5  25
BRANCH   7  27
ATOM     27  O   UNL     1      83.454 -27.631  85.330  1.00  0.00    -0.507 OA
ATOM     28  H   UNL     1      84.082 -28.321  85.723  1.00  0.00     0.293 HD
ENDBRANCH   7  27
TORSDOF 7
ENDMDL
MODEL 2
REMARK VINA RESULT:    -8.037      3.247      4.520
REMARK INTER + INTRA:         -10.016
REMARK INTER:                  -9.730
REMARK INTRA:                  -0.286
REMARK UNBOUND:                -0.100
REMARK SMILES Oc1cc(O)c2cc(O)c(-c3cc(O)c(O)c(O)c3)[o+]c2c1
REMARK SMILES IDX 10 1 20 2 21 3 22 4 2 5 3 6 4 7 6 8 7 9 8 10 11 11 12 12
REMARK SMILES IDX 13 13 19 14 15 15 17 16 14 17 16 19 18 21 9 23 1 25 5 27
REMARK H PARENT 14 18 16 20 18 22 9 24 1 26 5 28
REMARK Flexibility Score: inf
ROOT
ATOM      1  C   UNL     1      80.427 -26.617  84.617  1.00  0.00     0.402 A 
ATOM      2  O   UNL     1      79.857 -25.626  85.300  1.00  0.00    -0.202 OA
ATOM      3  C   UNL     1      80.468 -24.979  86.287  1.00  0.00     0.368 A 
ATOM      4  C   UNL     1      79.801 -23.945  86.953  1.00  0.00     0.162 A 
ATOM      5  C   UNL     1      80.435 -23.253  87.993  1.00  0.00     0.128 A 
ATOM      6  C   UNL     1      81.739 -23.594  88.365  1.00  0.00     0.093 A 
ATOM      7  C   UNL     1      82.421 -24.629  87.706  1.00  0.00     0.136 A 
ATOM      8  C   UNL     1      81.783 -25.325  86.663  1.00  0.00     0.125 A 
ATOM      9  C   UNL     1      82.410 -26.371  85.975  1.00  0.00     0.078 A 
ATOM     10  C   UNL     1      81.732 -27.035  84.949  1.00  0.00     0.223 A 
ENDROOT
BRANCH   1  11
ATOM     11  C   UNL     1      79.648 -27.257  83.532  1.00  0.00     0.091 A 
ATOM     12  C   UNL     1      80.038 -27.068  82.198  1.00  0.00     0.068 A 
ATOM     13  C   UNL     1      79.332 -27.678  81.153  1.00  0.00     0.162 A 
ATOM     14  C   UNL     1      78.558 -28.099  83.812  1.00  0.00     0.068 A 
ATOM     15  C   UNL     1      78.229 -28.502  81.440  1.00  0.00     0.200 A 
ATOM     16  C   UNL     1      77.848 -28.714  82.776  1.00  0.00     0.162 A 
BRANCH  13  17
ATOM     17  O   UNL     1      79.721 -27.470  79.831  1.00  0.00    -0.504 OA
ATOM     18  H   UNL     1      79.042 -27.347  79.090  1.00  0.00     0.293 HD
ENDBRANCH  13  17
BRANCH  15  19
ATOM     19  O   UNL     1      77.513 -29.116  80.412  1.00  0.00    -0.502 OA
ATOM     20  H   UNL     1      76.822 -28.619  79.862  1.00  0.00     0.293 HD
ENDBRANCH  15  19
BRANCH  16  21
ATOM     21  O   UNL     1      76.767 -29.538  83.094  1.00  0.00    -0.504 OA
ATOM     22  H   UNL     1      75.819 -29.188  83.140  1.00  0.00     0.293 HD
ENDBRANCH  16  21
ENDBRANCH   1  11
BRANCH  10  23
ATOM     23  O   UNL     1      82.332 -28.110  84.295  1.00  0.00    -0.500 OA
ATOM     24  H   UNL     1      82.525 -28.982  84.772  1.00  0.00     0.294 HD
ENDBRANCH  10  23
BRANCH   5  25
ATOM     25  O   UNL     1      79.778 -22.222  88.662  1.00  0.00    -0.507 OA
ATOM     26  H   UNL     1      79.447 -21.399  88.173  1.00  0.00     0.293 HD
ENDBRANCH   5  25
BRANCH   7  27
ATOM     27  O   UNL     1      83.721 -24.961  88.089  1.00  0.00    -0.507 OA
ATOM     28  H   UNL     1      83.923 -25.809  88.605  1.00  0.00     0.293 HD
ENDBRANCH   7  27
TORSDOF 7
ENDMDL
MODEL 3
REMARK VINA RESULT:    -8.030      1.136      2.582
REMARK INTER + INTRA:         -10.008
REMARK INTER:                  -9.716
REMARK INTRA:                  -0.292
REMARK UNBOUND:                -0.100
REMARK SMILES Oc1cc(O)c2cc(O)c(-c3cc(O)c(O)c(O)c3)[o+]c2c1
REMARK SMILES IDX 10 1 20 2 21 3 22 4 2 5 3 6 4 7 6 8 7 9 8 10 11 11 12 12
REMARK SMILES IDX 13 13 19 14 15 15 17 16 14 17 16 19 18 21 9 23 1 25 5 27
REMARK H PARENT 14 18 16 20 18 22 9 24 1 26 5 28
REMARK Flexibility Score: inf
ROOT
ATOM      1  C   UNL     1      78.996 -25.846  86.285  1.00  0.00     0.402 A 
ATOM      2  O   UNL     1      79.749 -26.798  85.736  1.00  0.00    -0.202 OA
ATOM      3  C   UNL     1      81.071 -26.846  85.869  1.00  0.00     0.368 A 
ATOM      4  C   UNL     1      81.790 -27.882  85.264  1.00  0.00     0.162 A 
ATOM      5  C   UNL     1      83.183 -27.946  85.400  1.00  0.00     0.128 A 
ATOM      6  C   UNL     1      83.857 -26.972  86.144  1.00  0.00     0.093 A 
ATOM      7  C   UNL     1      83.149 -25.926  86.756  1.00  0.00     0.136 A 
ATOM      8  C   UNL     1      81.750 -25.862  86.619  1.00  0.00     0.125 A 
ATOM      9  C   UNL     1      80.993 -24.838  87.200  1.00  0.00     0.078 A 
ATOM     10  C   UNL     1      79.605 -24.815  87.030  1.00  0.00     0.223 A 
ENDROOT
BRANCH   1  11
ATOM     11  C   UNL     1      77.532 -25.903  86.073  1.00  0.00     0.091 A 
ATOM     12  C   UNL     1      76.690 -26.213  87.151  1.00  0.00     0.068 A 
ATOM     13  C   UNL     1      75.299 -26.253  86.983  1.00  0.00     0.162 A 
ATOM     14  C   UNL     1      76.960 -25.598  84.825  1.00  0.00     0.068 A 
ATOM     15  C   UNL     1      74.736 -25.968  85.727  1.00  0.00     0.200 A 
ATOM     16  C   UNL     1      75.574 -25.634  84.649  1.00  0.00     0.162 A 
BRANCH  13  17
ATOM     17  O   UNL     1      74.475 -26.576  88.060  1.00  0.00    -0.504 OA
ATOM     18  H   UNL     1      74.142 -25.869  88.705  1.00  0.00     0.293 HD
ENDBRANCH  13  17
BRANCH  15  19
ATOM     19  O   UNL     1      73.353 -26.006  85.542  1.00  0.00    -0.502 OA
ATOM     20  H   UNL     1      72.706 -26.065  86.318  1.00  0.00     0.293 HD
ENDBRANCH  15  19
BRANCH  16  21
ATOM     21  O   UNL     1      75.044 -25.331  83.394  1.00  0.00    -0.504 OA
ATOM     22  H   UNL     1      75.084 -24.398  83.003  1.00  0.00     0.293 HD
ENDBRANCH  16  21
ENDBRANCH   1  11
BRANCH  10  23
ATOM     23  O   UNL     1      78.852 -23.771  87.564  1.00  0.00    -0.500 OA
ATOM     24  H   UNL     1      78.498 -23.019  86.984  1.00  0.00     0.294 HD
ENDBRANCH  10  23
BRANCH   5  25
ATOM     25  O   UNL     1      83.906 -28.975  84.801  1.00  0.00    -0.507 OA
ATOM     26  H   UNL     1      84.637 -29.469  85.299  1.00  0.00     0.293 HD
ENDBRANCH   5  25
BRANCH   7  27
ATOM     27  O   UNL     1      83.834 -24.960  87.494  1.00  0.00    -0.507 OA
ATOM     28  H   UNL     1      83.394 -24.089  87.767  1.00  0.00     0.293 HD
ENDBRANCH   7  27
TORSDOF 7
ENDMDL
MODEL 4
REMARK VINA RESULT:    -7.958      1.173      3.155
REMARK INTER + INTRA:          -9.919
REMARK INTER:                  -9.584
REMARK INTRA:                  -0.336
REMARK UNBOUND:                -0.100
REMARK SMILES Oc1cc(O)c2cc(O)c(-c3cc(O)c(O)c(O)c3)[o+]c2c1
REMARK SMILES IDX 10 1 20 2 21 3 22 4 2 5 3 6 4 7 6 8 7 9 8 10 11 11 12 12
REMARK SMILES IDX 13 13 19 14 15 15 17 16 14 17 16 19 18 21 9 23 1 25 5 27
REMARK H PARENT 14 18 16 20 18 22 9 24 1 26 5 28
REMARK Flexibility Score: inf
ROOT
ATOM      1  C   UNL     1      79.034 -25.762  86.343  1.00  0.00     0.402 A 
ATOM      2  O   UNL     1      79.761 -26.733  85.794  1.00  0.00    -0.202 OA
ATOM      3  C   UNL     1      81.084 -26.804  85.910  1.00  0.00     0.368 A 
ATOM      4  C   UNL     1      81.775 -27.860  85.306  1.00  0.00     0.162 A 
ATOM      5  C   UNL     1      83.168 -27.948  85.424  1.00  0.00     0.128 A 
ATOM      6  C   UNL     1      83.870 -26.979  86.148  1.00  0.00     0.093 A 
ATOM      7  C   UNL     1      83.190 -25.913  86.758  1.00  0.00     0.136 A 
ATOM      8  C   UNL     1      81.791 -25.824  86.639  1.00  0.00     0.125 A 
ATOM      9  C   UNL     1      81.061 -24.781  87.220  1.00  0.00     0.078 A 
ATOM     10  C   UNL     1      79.672 -24.734  87.068  1.00  0.00     0.223 A 
ENDROOT
BRANCH   1  11
ATOM     11  C   UNL     1      77.566 -25.794  86.151  1.00  0.00     0.091 A 
ATOM     12  C   UNL     1      77.028 -25.511  84.887  1.00  0.00     0.068 A 
ATOM     13  C   UNL     1      75.644 -25.554  84.673  1.00  0.00     0.162 A 
ATOM     14  C   UNL     1      76.699 -26.157  87.197  1.00  0.00     0.068 A 
ATOM     15  C   UNL     1      74.782 -25.897  85.729  1.00  0.00     0.200 A 
ATOM     16  C   UNL     1      75.316 -26.204  86.992  1.00  0.00     0.162 A 
BRANCH  13  17
ATOM     17  O   UNL     1      75.122 -25.257  83.415  1.00  0.00    -0.504 OA
ATOM     18  H   UNL     1      74.816 -24.322  83.173  1.00  0.00     0.293 HD
ENDBRANCH  13  17
BRANCH  15  19
ATOM     19  O   UNL     1      73.400 -25.943  85.534  1.00  0.00    -0.502 OA
ATOM     20  H   UNL     1      72.759 -26.203  86.274  1.00  0.00     0.293 HD
ENDBRANCH  15  19
BRANCH  16  21
ATOM     21  O   UNL     1      74.488 -26.563  88.056  1.00  0.00    -0.504 OA
ATOM     22  H   UNL     1      74.229 -27.524  88.237  1.00  0.00     0.293 HD
ENDBRANCH  16  21
ENDBRANCH   1  11
BRANCH  10  23
ATOM     23  O   UNL     1      78.945 -23.670  87.600  1.00  0.00    -0.500 OA
ATOM     24  H   UNL     1      78.017 -23.799  87.983  1.00  0.00     0.294 HD
ENDBRANCH  10  23
BRANCH   5  25
ATOM     25  O   UNL     1      83.865 -28.996  84.826  1.00  0.00    -0.507 OA
ATOM     26  H   UNL     1      84.812 -28.878  84.487  1.00  0.00     0.293 HD
ENDBRANCH   5  25
BRANCH   7  27
ATOM     27  O   UNL     1      83.903 -24.953  87.475  1.00  0.00    -0.507 OA
ATOM     28  H   UNL     1      83.738 -23.961  87.346  1.00  0.00     0.293 HD
ENDBRANCH   7  27
TORSDOF 7
ENDMDL
MODEL 5
REMARK VINA RESULT:    -7.951      2.640      4.644
REMARK INTER + INTRA:          -9.910
REMARK INTER:                  -9.810
REMARK INTRA:                  -0.100
REMARK UNBOUND:                -0.100
REMARK SMILES Oc1cc(O)c2cc(O)c(-c3cc(O)c(O)c(O)c3)[o+]c2c1
REMARK SMILES IDX 10 1 20 2 21 3 22 4 2 5 3 6 4 7 6 8 7 9 8 10 11 11 12 12
REMARK SMILES IDX 13 13 19 14 15 15 17 16 14 17 16 19 18 21 9 23 1 25 5 27
REMARK H PARENT 14 18 16 20 18 22 9 24 1 26 5 28
REMARK Flexibility Score: inf
ROOT
ATOM      1  C   UNL     1      79.408 -26.329  84.384  1.00  0.00     0.402 A 
ATOM      2  O   UNL     1      80.711 -26.320  84.661  1.00  0.00    -0.202 OA
ATOM      3  C   UNL     1      81.244 -25.576  85.626  1.00  0.00     0.368 A 
ATOM      4  C   UNL     1      82.622 -25.628  85.857  1.00  0.00     0.162 A 
ATOM      5  C   UNL     1      83.196 -24.851  86.872  1.00  0.00     0.128 A 
ATOM      6  C   UNL     1      82.388 -24.024  87.659  1.00  0.00     0.093 A 
ATOM      7  C   UNL     1      81.003 -23.962  87.438  1.00  0.00     0.136 A 
ATOM      8  C   UNL     1      80.427 -24.741  86.417  1.00  0.00     0.125 A 
ATOM      9  C   UNL     1      79.055 -24.713  86.147  1.00  0.00     0.078 A 
ATOM     10  C   UNL     1      78.532 -25.502  85.117  1.00  0.00     0.223 A 
ENDROOT
BRANCH   1  11
ATOM     11  C   UNL     1      78.931 -27.206  83.290  1.00  0.00     0.091 A 
ATOM     12  C   UNL     1      79.605 -27.203  82.060  1.00  0.00     0.068 A 
ATOM     13  C   UNL     1      79.187 -28.038  81.015  1.00  0.00     0.162 A 
ATOM     14  C   UNL     1      77.850 -28.085  83.476  1.00  0.00     0.068 A 
ATOM     15  C   UNL     1      78.091 -28.899  81.201  1.00  0.00     0.200 A 
ATOM     16  C   UNL     1      77.427 -28.923  82.440  1.00  0.00     0.162 A 
BRANCH  13  17
ATOM     17  O   UNL     1      79.856 -28.015  79.792  1.00  0.00    -0.504 OA
ATOM     18  H   UNL     1      79.386 -28.247  78.925  1.00  0.00     0.293 HD
ENDBRANCH  13  17
BRANCH  15  19
ATOM     19  O   UNL     1      77.660 -29.736  80.170  1.00  0.00    -0.502 OA
ATOM     20  H   UNL     1      78.082 -29.720  79.250  1.00  0.00     0.293 HD
ENDBRANCH  15  19
BRANCH  16  21
ATOM     21  O   UNL     1      76.347 -29.777  82.660  1.00  0.00    -0.504 OA
ATOM     22  H   UNL     1      75.539 -29.794  82.049  1.00  0.00     0.293 HD
ENDBRANCH  16  21
ENDBRANCH   1  11
BRANCH  10  23
ATOM     23  O   UNL     1      77.173 -25.441  84.810  1.00  0.00    -0.500 OA
ATOM     24  H   UNL     1      76.652 -24.575  84.874  1.00  0.00     0.294 HD
ENDBRANCH  10  23
BRANCH   5  25
ATOM     25  O   UNL     1      84.568 -24.897  87.109  1.00  0.00    -0.507 OA
ATOM     26  H   UNL     1      84.990 -25.651  87.638  1.00  0.00     0.293 HD
ENDBRANCH   5  25
BRANCH   7  27
ATOM     27  O   UNL     1      80.209 -23.131  88.229  1.00  0.00    -0.507 OA
ATOM     28  H   UNL     1      80.169 -22.130  88.075  1.00  0.00     0.293 HD
ENDBRANCH   7  27
TORSDOF 7
ENDMDL
MODEL 6
REMARK VINA RESULT:    -7.894      2.660      4.405
REMARK INTER + INTRA:          -9.840
REMARK INTER:                  -9.798
REMARK INTRA:                  -0.042
REMARK UNBOUND:                -0.100
REMARK SMILES Oc1cc(O)c2cc(O)c(-c3cc(O)c(O)c(O)c3)[o+]c2c1
REMARK SMILES IDX 10 1 20 2 21 3 22 4 2 5 3 6 4 7 6 8 7 9 8 10 11 11 12 12
REMARK SMILES IDX 13 13 19 14 15 15 17 16 14 17 16 19 18 21 9 23 1 25 5 27
REMARK H PARENT 14 18 16 20 18 22 9 24 1 26 5 28
REMARK Flexibility Score: inf
ROOT
ATOM      1  C   UNL     1      79.486 -26.362  84.399  1.00  0.00     0.402 A 
ATOM      2  O   UNL     1      80.784 -26.337  84.697  1.00  0.00    -0.202 OA
ATOM      3  C   UNL     1      81.293 -25.582  85.665  1.00  0.00     0.368 A 
ATOM      4  C   UNL     1      82.668 -25.616  85.918  1.00  0.00     0.162 A 
ATOM      5  C   UNL     1      83.217 -24.827  86.938  1.00  0.00     0.128 A 
ATOM      6  C   UNL     1      82.387 -24.004  87.706  1.00  0.00     0.093 A 
ATOM      7  C   UNL     1      81.006 -23.959  87.463  1.00  0.00     0.136 A 
ATOM      8  C   UNL     1      80.455 -24.750  86.438  1.00  0.00     0.125 A 
ATOM      9  C   UNL     1      79.087 -24.740  86.146  1.00  0.00     0.078 A 
ATOM     10  C   UNL     1      78.590 -25.540  85.113  1.00  0.00     0.223 A 
ENDROOT
BRANCH   1  11
ATOM     11  C   UNL     1      79.037 -27.251  83.303  1.00  0.00     0.091 A 
ATOM     12  C   UNL     1      77.937 -28.097  83.509  1.00  0.00     0.068 A 
ATOM     13  C   UNL     1      77.478 -28.934  82.483  1.00  0.00     0.162 A 
ATOM     14  C   UNL     1      79.652 -27.224  82.040  1.00  0.00     0.068 A 
ATOM     15  C   UNL     1      78.112 -28.918  81.228  1.00  0.00     0.200 A 
ATOM     16  C   UNL     1      79.200 -28.055  81.009  1.00  0.00     0.162 A 
BRANCH  13  17
ATOM     17  O   UNL     1      76.393 -29.781  82.705  1.00  0.00    -0.504 OA
ATOM     18  H   UNL     1      75.973 -30.315  81.953  1.00  0.00     0.293 HD
ENDBRANCH  13  17
BRANCH  15  19
ATOM     19  O   UNL     1      77.670 -29.746  80.196  1.00  0.00    -0.502 OA
ATOM     20  H   UNL     1      77.939 -30.721  80.132  1.00  0.00     0.293 HD
ENDBRANCH  15  19
BRANCH  16  21
ATOM     21  O   UNL     1      79.841 -28.005  79.771  1.00  0.00    -0.504 OA
ATOM     22  H   UNL     1      80.082 -27.130  79.324  1.00  0.00     0.293 HD
ENDBRANCH  16  21
ENDBRANCH   1  11
BRANCH  10  23
ATOM     23  O   UNL     1      77.235 -25.496  84.783  1.00  0.00    -0.500 OA
ATOM     24  H   UNL     1      76.671 -26.336  84.740  1.00  0.00     0.294 HD
ENDBRANCH  10  23
BRANCH   5  25
ATOM     25  O   UNL     1      84.585 -24.856  87.197  1.00  0.00    -0.507 OA
ATOM     26  H   UNL     1      85.207 -24.136  86.847  1.00  0.00     0.293 HD
ENDBRANCH   5  25
BRANCH   7  27
ATOM     27  O   UNL     1      80.190 -23.131  88.235  1.00  0.00    -0.507 OA
ATOM     28  H   UNL     1      80.560 -22.320  88.717  1.00  0.00     0.293 HD
ENDBRANCH   7  27
TORSDOF 7
ENDMDL
MODEL 7
REMARK VINA RESULT:    -7.353      2.603      6.549
REMARK INTER + INTRA:          -9.172
REMARK INTER:                  -8.833
REMARK INTRA:                  -0.339
REMARK UNBOUND:                -0.100
REMARK SMILES Oc1cc(O)c2cc(O)c(-c3cc(O)c(O)c(O)c3)[o+]c2c1
REMARK SMILES IDX 10 1 20 2 21 3 22 4 2 5 3 6 4 7 6 8 7 9 8 10 11 11 12 12
REMARK SMILES IDX 13 13 19 14 15 15 17 16 14 17 16 19 18 21 9 23 1 25 5 27
REMARK H PARENT 14 18 16 20 18 22 9 24 1 26 5 28
REMARK Flexibility Score: inf
ROOT
ATOM      1  C   UNL     1      79.284 -26.348  85.018  1.00  0.00     0.402 A 
ATOM      2  O   UNL     1      79.867 -26.564  83.840  1.00  0.00    -0.202 OA
ATOM      3  C   UNL     1      79.272 -27.210  82.842  1.00  0.00     0.368 A 
ATOM      4  C   UNL     1      79.952 -27.391  81.633  1.00  0.00     0.162 A 
ATOM      5  C   UNL     1      79.334 -28.067  80.572  1.00  0.00     0.128 A 
ATOM      6  C   UNL     1      78.034 -28.560  80.721  1.00  0.00     0.093 A 
ATOM      7  C   UNL     1      77.340 -28.386  81.929  1.00  0.00     0.136 A 
ATOM      8  C   UNL     1      77.960 -27.708  82.994  1.00  0.00     0.125 A 
ATOM      9  C   UNL     1      77.320 -27.512  84.223  1.00  0.00     0.078 A 
ATOM     10  C   UNL     1      77.982 -26.836  85.253  1.00  0.00     0.223 A 
ENDROOT
BRANCH   1  11
ATOM     11  C   UNL     1      80.045 -25.609  86.050  1.00  0.00     0.091 A 
ATOM     12  C   UNL     1      81.129 -26.231  86.686  1.00  0.00     0.068 A 
ATOM     13  C   UNL     1      81.879 -25.547  87.653  1.00  0.00     0.162 A 
ATOM     14  C   UNL     1      79.740 -24.274  86.368  1.00  0.00     0.068 A 
ATOM     15  C   UNL     1      81.555 -24.220  87.982  1.00  0.00     0.200 A 
ATOM     16  C   UNL     1      80.484 -23.583  87.330  1.00  0.00     0.162 A 
BRANCH  13  17
ATOM     17  O   UNL     1      82.945 -26.183  88.288  1.00  0.00    -0.504 OA
ATOM     18  H   UNL     1      83.633 -26.715  87.768  1.00  0.00     0.293 HD
ENDBRANCH  13  17
BRANCH  15  19
ATOM     19  O   UNL     1      82.290 -23.524  88.943  1.00  0.00    -0.502 OA
ATOM     20  H   UNL     1      81.972 -23.427  89.900  1.00  0.00     0.293 HD
ENDBRANCH  15  19
BRANCH  16  21
ATOM     21  O   UNL     1      80.147 -22.261  87.623  1.00  0.00    -0.504 OA
ATOM     22  H   UNL     1      80.474 -21.485  87.062  1.00  0.00     0.293 HD
ENDBRANCH  16  21
ENDBRANCH   1  11
BRANCH  10  23
ATOM     23  O   UNL     1      77.368 -26.682  86.496  1.00  0.00    -0.500 OA
ATOM     24  H   UNL     1      76.591 -26.047  86.629  1.00  0.00     0.294 HD
ENDBRANCH  10  23
BRANCH   5  25
ATOM     25  O   UNL     1      80.004 -28.253  79.365  1.00  0.00    -0.507 OA
ATOM     26  H   UNL     1      79.819 -27.666  78.560  1.00  0.00     0.293 HD
ENDBRANCH   5  25
BRANCH   7  27
ATOM     27  O   UNL     1      76.044 -28.885  82.064  1.00  0.00    -0.507 OA
ATOM     28  H   UNL     1      75.756 -29.746  81.614  1.00  0.00     0.293 HD
ENDBRANCH   7  27
TORSDOF 7
ENDMDL
MODEL 8
REMARK VINA RESULT:    -7.331      2.612      6.494
REMARK INTER + INTRA:          -9.146
REMARK INTER:                  -9.072
REMARK INTRA:                  -0.074
REMARK UNBOUND:                -0.100
REMARK SMILES Oc1cc(O)c2cc(O)c(-c3cc(O)c(O)c(O)c3)[o+]c2c1
REMARK SMILES IDX 10 1 20 2 21 3 22 4 2 5 3 6 4 7 6 8 7 9 8 10 11 11 12 12
REMARK SMILES IDX 13 13 19 14 15 15 17 16 14 17 16 19 18 21 9 23 1 25 5 27
REMARK H PARENT 14 18 16 20 18 22 9 24 1 26 5 28
REMARK Flexibility Score: inf
ROOT
ATOM      1  C   UNL     1      79.257 -26.291  84.982  1.00  0.00     0.402 A 
ATOM      2  O   UNL     1      79.845 -26.493  83.804  1.00  0.00    -0.202 OA
ATOM      3  C   UNL     1      79.278 -27.180  82.818  1.00  0.00     0.368 A 
ATOM      4  C   UNL     1      79.960 -27.344  81.608  1.00  0.00     0.162 A 
ATOM      5  C   UNL     1      79.372 -28.063  80.559  1.00  0.00     0.128 A 
ATOM      6  C   UNL     1      78.099 -28.617  80.721  1.00  0.00     0.093 A 
ATOM      7  C   UNL     1      77.402 -28.462  81.929  1.00  0.00     0.136 A 
ATOM      8  C   UNL     1      77.993 -27.741  82.983  1.00  0.00     0.125 A 
ATOM      9  C   UNL     1      77.349 -27.560  84.212  1.00  0.00     0.078 A 
ATOM     10  C   UNL     1      77.982 -26.840  85.231  1.00  0.00     0.223 A 
ENDROOT
BRANCH   1  11
ATOM     11  C   UNL     1      79.985 -25.502  86.002  1.00  0.00     0.091 A 
ATOM     12  C   UNL     1      79.340 -24.429  86.634  1.00  0.00     0.068 A 
ATOM     13  C   UNL     1      79.999 -23.678  87.616  1.00  0.00     0.162 A 
ATOM     14  C   UNL     1      81.293 -25.840  86.393  1.00  0.00     0.068 A 
ATOM     15  C   UNL     1      81.314 -24.008  87.987  1.00  0.00     0.200 A 
ATOM     16  C   UNL     1      81.957 -25.097  87.374  1.00  0.00     0.162 A 
BRANCH  13  17
ATOM     17  O   UNL     1      79.352 -22.604  88.226  1.00  0.00    -0.504 OA
ATOM     18  H   UNL     1      78.926 -21.862  87.683  1.00  0.00     0.293 HD
ENDBRANCH  13  17
BRANCH  15  19
ATOM     19  O   UNL     1      81.986 -23.270  88.962  1.00  0.00    -0.502 OA
ATOM     20  H   UNL     1      82.533 -23.711  89.692  1.00  0.00     0.293 HD
ENDBRANCH  15  19
BRANCH  16  21
ATOM     21  O   UNL     1      83.257 -25.460  87.730  1.00  0.00    -0.504 OA
ATOM     22  H   UNL     1      83.930 -24.785  88.072  1.00  0.00     0.293 HD
ENDBRANCH  16  21
ENDBRANCH   1  11
BRANCH  10  23
ATOM     23  O   UNL     1      77.367 -26.700  86.474  1.00  0.00    -0.500 OA
ATOM     24  H   UNL     1      77.899 -26.723  87.336  1.00  0.00     0.294 HD
ENDBRANCH  10  23
BRANCH   5  25
ATOM     25  O   UNL     1      80.045 -28.231  79.351  1.00  0.00    -0.507 OA
ATOM     26  H   UNL     1      80.286 -27.441  78.764  1.00  0.00     0.293 HD
ENDBRANCH   5  25
BRANCH   7  27
ATOM     27  O   UNL     1      76.133 -29.022  82.078  1.00  0.00    -0.507 OA
ATOM     28  H   UNL     1      75.876 -29.543  82.909  1.00  0.00     0.293 HD
ENDBRANCH   7  27
TORSDOF 7
ENDMDL
MODEL 9
REMARK VINA RESULT:    -7.225      1.172      6.927
REMARK INTER + INTRA:          -9.015
REMARK INTER:                  -8.934
REMARK INTRA:                  -0.080
REMARK UNBOUND:                -0.100
REMARK SMILES Oc1cc(O)c2cc(O)c(-c3cc(O)c(O)c(O)c3)[o+]c2c1
REMARK SMILES IDX 10 1 20 2 21 3 22 4 2 5 3 6 4 7 6 8 7 9 8 10 11 11 12 12
REMARK SMILES IDX 13 13 19 14 15 15 17 16 14 17 16 19 18 21 9 23 1 25 5 27
REMARK H PARENT 14 18 16 20 18 22 9 24 1 26 5 28
REMARK Flexibility Score: inf
ROOT
ATOM      1  C   UNL     1      79.046 -26.600  85.132  1.00  0.00     0.402 A 
ATOM      2  O   UNL     1      78.260 -26.489  86.201  1.00  0.00    -0.202 OA
ATOM      3  C   UNL     1      76.943 -26.325  86.121  1.00  0.00     0.368 A 
ATOM      4  C   UNL     1      76.186 -26.220  87.292  1.00  0.00     0.162 A 
ATOM      5  C   UNL     1      74.798 -26.050  87.221  1.00  0.00     0.128 A 
ATOM      6  C   UNL     1      74.165 -25.987  85.976  1.00  0.00     0.093 A 
ATOM      7  C   UNL     1      74.912 -26.089  84.792  1.00  0.00     0.136 A 
ATOM      8  C   UNL     1      76.306 -26.259  84.863  1.00  0.00     0.125 A 
ATOM      9  C   UNL     1      77.102 -26.360  83.716  1.00  0.00     0.078 A 
ATOM     10  C   UNL     1      78.485 -26.522  83.841  1.00  0.00     0.223 A 
ENDROOT
BRANCH   1  11
ATOM     11  C   UNL     1      80.499 -26.789  85.348  1.00  0.00     0.091 A 
ATOM     12  C   UNL     1      81.167 -25.986  86.285  1.00  0.00     0.068 A 
ATOM     13  C   UNL     1      82.537 -26.156  86.523  1.00  0.00     0.162 A 
ATOM     14  C   UNL     1      81.215 -27.795  84.676  1.00  0.00     0.068 A 
ATOM     15  C   UNL     1      83.251 -27.150  85.832  1.00  0.00     0.200 A 
ATOM     16  C   UNL     1      82.582 -27.973  84.910  1.00  0.00     0.162 A 
BRANCH  13  17
ATOM     17  O   UNL     1      83.192 -25.342  87.447  1.00  0.00    -0.504 OA
ATOM     18  H   UNL     1      83.473 -25.689  88.356  1.00  0.00     0.293 HD
ENDBRANCH  13  17
BRANCH  15  19
ATOM     19  O   UNL     1      84.617 -27.332  86.056  1.00  0.00    -0.502 OA
ATOM     20  H   UNL     1      85.261 -27.559  85.308  1.00  0.00     0.293 HD
ENDBRANCH  15  19
BRANCH  16  21
ATOM     21  O   UNL     1      83.260 -28.978  84.218  1.00  0.00    -0.504 OA
ATOM     22  H   UNL     1      84.070 -29.446  84.605  1.00  0.00     0.293 HD
ENDBRANCH  16  21
ENDBRANCH   1  11
BRANCH  10  23
ATOM     23  O   UNL     1      79.289 -26.572  82.702  1.00  0.00    -0.500 OA
ATOM     24  H   UNL     1      79.799 -27.409  82.448  1.00  0.00     0.294 HD
ENDBRANCH  10  23
BRANCH   5  25
ATOM     25  O   UNL     1      74.036 -25.945  88.384  1.00  0.00    -0.507 OA
ATOM     26  H   UNL     1      73.807 -25.045  88.788  1.00  0.00     0.293 HD
ENDBRANCH   5  25
BRANCH   7  27
ATOM     27  O   UNL     1      74.268 -26.022  83.555  1.00  0.00    -0.507 OA
ATOM     28  H   UNL     1      73.492 -26.632  83.326  1.00  0.00     0.293 HD
ENDBRANCH   7  27
TORSDOF 7
ENDMDL
