MODEL 1
REMARK VINA RESULT:    -3.187      0.000      0.000
REMARK INTER + INTRA:          -8.551
REMARK INTER:                  -5.795
REMARK INTRA:                  -2.756
REMARK UNBOUND:                -2.756
REMARK SMILES CCCCCCCCCCCCCC[C@@H](C)C(=O)[O-]
REMARK SMILES IDX 9 1 10 2 11 3 12 4 13 5 14 6 15 7 16 8 17 9 18 10 19 11 8 12
REMARK SMILES IDX 7 13 6 14 5 15 4 16 3 17 2 18 1 19
REMARK H PARENT
REMARK Flexibility Score: inf
ROOT
ATOM      1  C   UNL     1      -8.511  -1.294 -23.704  1.00  0.00     0.000 C 
ENDROOT
BRANCH   1   2
ATOM      2  C   UNL     1      -7.106  -1.176 -23.084  1.00  0.00     0.000 C 
BRANCH   2   3
ATOM      3  C   UNL     1      -6.206  -2.412 -23.277  1.00  0.00     0.000 C 
BRANCH   3   4
ATOM      4  C   UNL     1      -5.273  -2.355 -24.504  1.00  0.00     0.000 C 
BRANCH   4   5
ATOM      5  C   UNL     1      -5.793  -3.092 -25.751  1.00  0.00     0.001 C 
BRANCH   5   6
ATOM      6  C   UNL     1      -6.256  -4.530 -25.444  1.00  0.00     0.009 C 
BRANCH   6   7
ATOM      7  C   UNL     1      -7.762  -4.776 -25.690  1.00  0.00     0.032 C 
ATOM      8  C   UNL     1      -8.289  -4.023 -26.921  1.00  0.00     0.014 C 
BRANCH   7   9
ATOM      9  C   UNL     1      -8.082  -6.247 -25.759  1.00  0.00     0.044 C 
ATOM     10  O   UNL     1      -7.147  -7.090 -25.773  1.00  0.00    -0.550 OA
ATOM     11  O   UNL     1      -9.397  -6.687 -25.855  1.00  0.00    -0.550 OA
ENDBRANCH   7   9
ENDBRANCH   6   7
ENDBRANCH   5   6
ENDBRANCH   4   5
ENDBRANCH   3   4
ENDBRANCH   2   3
ENDBRANCH   1   2
BRANCH   1  12
ATOM     12  C   UNL     1      -8.890  -0.165 -24.685  1.00  0.00     0.000 C 
BRANCH  12  13
ATOM     13  C   UNL     1      -8.695  -0.501 -26.175  1.00  0.00    -0.000 C 
BRANCH  13  14
ATOM     14  C   UNL     1      -7.353   0.003 -26.731  1.00  0.00    -0.000 C 
BRANCH  14  15
ATOM     15  C   UNL     1      -6.854   1.268 -26.013  1.00  0.00    -0.000 C 
BRANCH  15  16
ATOM     16  C   UNL     1      -5.365   1.190 -25.633  1.00  0.00    -0.000 C 
BRANCH  16  17
ATOM     17  C   UNL     1      -5.097   1.750 -24.220  1.00  0.00    -0.000 C 
BRANCH  17  18
ATOM     18  C   UNL     1      -6.339   2.367 -23.555  1.00  0.00    -0.003 C 
ATOM     19  C   UNL     1      -6.132   2.681 -22.075  1.00  0.00     0.004 C 
ENDBRANCH  17  18
ENDBRANCH  16  17
ENDBRANCH  15  16
ENDBRANCH  14  15
ENDBRANCH  13  14
ENDBRANCH  12  13
ENDBRANCH   1  12
TORSDOF 14
ENDMDL
MODEL 2
REMARK VINA RESULT:    -3.144      1.662      3.588
REMARK INTER + INTRA:          -8.473
REMARK INTER:                  -6.050
REMARK INTRA:                  -2.423
REMARK UNBOUND:                -2.756
REMARK SMILES CCCCCCCCCCCCCC[C@@H](C)C(=O)[O-]
REMARK SMILES IDX 9 1 10 2 11 3 12 4 13 5 14 6 15 7 16 8 17 9 18 10 19 11 8 12
REMARK SMILES IDX 7 13 6 14 5 15 4 16 3 17 2 18 1 19
REMARK H PARENT
REMARK Flexibility Score: inf
ROOT
ATOM      1  C   UNL     1      -5.812   1.328 -22.112  1.00  0.00     0.000 C 
ENDROOT
BRANCH   1   2
ATOM      2  C   UNL     1      -4.992   0.451 -23.078  1.00  0.00     0.000 C 
BRANCH   2   3
ATOM      3  C   UNL     1      -5.561  -0.961 -23.314  1.00  0.00     0.000 C 
BRANCH   3   4
ATOM      4  C   UNL     1      -7.033  -1.151 -22.894  1.00  0.00     0.000 C 
BRANCH   4   5
ATOM      5  C   UNL     1      -8.059  -0.989 -24.030  1.00  0.00     0.001 C 
BRANCH   5   6
ATOM      6  C   UNL     1      -7.579  -1.607 -25.359  1.00  0.00     0.009 C 
BRANCH   6   7
ATOM      7  C   UNL     1      -8.454  -2.774 -25.868  1.00  0.00     0.032 C 
ATOM      8  C   UNL     1      -8.707  -2.704 -27.381  1.00  0.00     0.014 C 
BRANCH   7   9
ATOM      9  C   UNL     1      -7.893  -4.111 -25.459  1.00  0.00     0.044 C 
ATOM     10  O   UNL     1      -6.691  -4.198 -25.092  1.00  0.00    -0.550 OA
ATOM     11  O   UNL     1      -8.669  -5.261 -25.527  1.00  0.00    -0.550 OA
ENDBRANCH   7   9
ENDBRANCH   6   7
ENDBRANCH   5   6
ENDBRANCH   4   5
ENDBRANCH   3   4
ENDBRANCH   2   3
ENDBRANCH   1   2
BRANCH   1  12
ATOM     12  C   UNL     1      -6.271   2.682 -22.688  1.00  0.00     0.000 C 
BRANCH  12  13
ATOM     13  C   UNL     1      -7.229   2.592 -23.890  1.00  0.00    -0.000 C 
BRANCH  13  14
ATOM     14  C   UNL     1      -6.531   2.865 -25.233  1.00  0.00    -0.000 C 
BRANCH  14  15
ATOM     15  C   UNL     1      -6.964   1.882 -26.333  1.00  0.00    -0.000 C 
BRANCH  15  16
ATOM     16  C   UNL     1      -8.361   2.194 -26.896  1.00  0.00    -0.000 C 
BRANCH  16  17
ATOM     17  C   UNL     1      -8.992   0.972 -27.596  1.00  0.00    -0.000 C 
BRANCH  17  18
ATOM     18  C   UNL     1     -10.503   0.831 -27.347  1.00  0.00    -0.003 C 
ATOM     19  C   UNL     1     -10.830   0.064 -26.067  1.00  0.00     0.004 C 
ENDBRANCH  17  18
ENDBRANCH  16  17
ENDBRANCH  15  16
ENDBRANCH  14  15
ENDBRANCH  13  14
ENDBRANCH  12  13
ENDBRANCH   1  12
TORSDOF 14
ENDMDL
MODEL 3
REMARK VINA RESULT:    -3.108      3.586      6.073
REMARK INTER + INTRA:          -8.408
REMARK INTER:                  -6.213
REMARK INTRA:                  -2.195
REMARK UNBOUND:                -2.756
REMARK SMILES CCCCCCCCCCCCCC[C@@H](C)C(=O)[O-]
REMARK SMILES IDX 9 1 10 2 11 3 12 4 13 5 14 6 15 7 16 8 17 9 18 10 19 11 8 12
REMARK SMILES IDX 7 13 6 14 5 15 4 16 3 17 2 18 1 19
REMARK H PARENT
REMARK Flexibility Score: inf
ROOT
ATOM      1  C   UNL     1      -9.976  -0.116 -24.864  1.00  0.00     0.000 C 
ENDROOT
BRANCH   1   2
ATOM      2  C   UNL     1      -8.487  -0.484 -24.725  1.00  0.00     0.000 C 
BRANCH   2   3
ATOM      3  C   UNL     1      -8.085  -1.058 -23.353  1.00  0.00     0.000 C 
BRANCH   3   4
ATOM      4  C   UNL     1      -6.706  -1.748 -23.311  1.00  0.00     0.000 C 
BRANCH   4   5
ATOM      5  C   UNL     1      -5.536  -0.895 -23.832  1.00  0.00     0.001 C 
BRANCH   5   6
ATOM      6  C   UNL     1      -5.264   0.343 -22.953  1.00  0.00     0.009 C 
BRANCH   6   7
ATOM      7  C   UNL     1      -5.383   1.689 -23.701  1.00  0.00     0.032 C 
ATOM      8  C   UNL     1      -5.484   1.511 -25.223  1.00  0.00     0.014 C 
BRANCH   7   9
ATOM      9  C   UNL     1      -6.514   2.527 -23.163  1.00  0.00     0.044 C 
ATOM     10  O   UNL     1      -6.481   2.930 -21.971  1.00  0.00    -0.550 OA
ATOM     11  O   UNL     1      -7.620   2.823 -23.951  1.00  0.00    -0.550 OA
ENDBRANCH   7   9
ENDBRANCH   6   7
ENDBRANCH   5   6
ENDBRANCH   4   5
ENDBRANCH   3   4
ENDBRANCH   2   3
ENDBRANCH   1   2
BRANCH   1  12
ATOM     12  C   UNL     1     -10.435   0.230 -26.295  1.00  0.00     0.000 C 
BRANCH  12  13
ATOM     13  C   UNL     1      -9.740  -0.565 -27.415  1.00  0.00    -0.000 C 
BRANCH  13  14
ATOM     14  C   UNL     1     -10.413  -1.920 -27.693  1.00  0.00    -0.000 C 
BRANCH  14  15
ATOM     15  C   UNL     1      -9.398  -3.035 -27.993  1.00  0.00    -0.000 C 
BRANCH  15  16
ATOM     16  C   UNL     1      -7.941  -2.590 -27.774  1.00  0.00    -0.000 C 
BRANCH  16  17
ATOM     17  C   UNL     1      -7.278  -3.333 -26.595  1.00  0.00    -0.000 C 
BRANCH  17  18
ATOM     18  C   UNL     1      -8.266  -4.158 -25.753  1.00  0.00    -0.003 C 
ATOM     19  C   UNL     1      -8.000  -5.661 -25.820  1.00  0.00     0.004 C 
ENDBRANCH  17  18
ENDBRANCH  16  17
ENDBRANCH  15  16
ENDBRANCH  14  15
ENDBRANCH  13  14
ENDBRANCH  12  13
ENDBRANCH   1  12
TORSDOF 14
ENDMDL
MODEL 4
REMARK VINA RESULT:    -3.042      5.257     10.250
REMARK INTER + INTRA:          -8.288
REMARK INTER:                  -7.772
REMARK INTRA:                  -0.516
REMARK UNBOUND:                -2.756
REMARK SMILES CCCCCCCCCCCCCC[C@@H](C)C(=O)[O-]
REMARK SMILES IDX 9 1 10 2 11 3 12 4 13 5 14 6 15 7 16 8 17 9 18 10 19 11 8 12
REMARK SMILES IDX 7 13 6 14 5 15 4 16 3 17 2 18 1 19
REMARK H PARENT
REMARK Flexibility Score: inf
ROOT
ATOM      1  C   UNL     1      -9.544  -7.599 -26.728  1.00  0.00     0.000 C 
ENDROOT
BRANCH   1   2
ATOM      2  C   UNL     1      -8.371  -7.546 -25.731  1.00  0.00     0.000 C 
BRANCH   2   3
ATOM      3  C   UNL     1      -7.295  -6.489 -26.051  1.00  0.00     0.000 C 
BRANCH   3   4
ATOM      4  C   UNL     1      -7.825  -5.052 -26.230  1.00  0.00     0.000 C 
BRANCH   4   5
ATOM      5  C   UNL     1      -7.021  -3.966 -25.493  1.00  0.00     0.001 C 
BRANCH   5   6
ATOM      6  C   UNL     1      -7.856  -3.230 -24.425  1.00  0.00     0.009 C 
BRANCH   6   7
ATOM      7  C   UNL     1      -7.429  -1.765 -24.187  1.00  0.00     0.032 C 
ATOM      8  C   UNL     1      -8.625  -0.802 -24.142  1.00  0.00     0.014 C 
BRANCH   7   9
ATOM      9  C   UNL     1      -6.560  -1.629 -22.963  1.00  0.00     0.044 C 
ATOM     10  O   UNL     1      -5.845  -2.598 -22.595  1.00  0.00    -0.550 OA
ATOM     11  O   UNL     1      -6.572  -0.464 -22.205  1.00  0.00    -0.550 OA
ENDBRANCH   7   9
ENDBRANCH   6   7
ENDBRANCH   5   6
ENDBRANCH   4   5
ENDBRANCH   3   4
ENDBRANCH   2   3
ENDBRANCH   1   2
BRANCH   1  12
ATOM     12  C   UNL     1     -10.051  -9.016 -27.066  1.00  0.00     0.000 C 
BRANCH  12  13
ATOM     13  C   UNL     1     -11.290  -9.067 -27.980  1.00  0.00    -0.000 C 
BRANCH  13  14
ATOM     14  C   UNL     1     -12.082 -10.378 -27.841  1.00  0.00    -0.000 C 
BRANCH  14  15
ATOM     15  C   UNL     1     -11.351 -11.421 -26.980  1.00  0.00    -0.000 C 
BRANCH  15  16
ATOM     16  C   UNL     1     -11.170 -12.769 -27.700  1.00  0.00    -0.000 C 
BRANCH  16  17
ATOM     17  C   UNL     1     -11.149 -13.956 -26.714  1.00  0.00    -0.000 C 
BRANCH  17  18
ATOM     18  C   UNL     1     -12.465 -14.751 -26.678  1.00  0.00    -0.003 C 
ATOM     19  C   UNL     1     -13.661 -13.908 -26.241  1.00  0.00     0.004 C 
ENDBRANCH  17  18
ENDBRANCH  16  17
ENDBRANCH  15  16
ENDBRANCH  14  15
ENDBRANCH  13  14
ENDBRANCH  12  13
ENDBRANCH   1  12
TORSDOF 14
ENDMDL
MODEL 5
REMARK VINA RESULT:    -3.028     12.859     15.173
REMARK INTER + INTRA:          -8.262
REMARK INTER:                  -5.928
REMARK INTRA:                  -2.334
REMARK UNBOUND:                -2.756
REMARK SMILES CCCCCCCCCCCCCC[C@@H](C)C(=O)[O-]
REMARK SMILES IDX 9 1 10 2 11 3 12 4 13 5 14 6 15 7 16 8 17 9 18 10 19 11 8 12
REMARK SMILES IDX 7 13 6 14 5 15 4 16 3 17 2 18 1 19
REMARK H PARENT
REMARK Flexibility Score: inf
ROOT
ATOM      1  C   UNL     1     -19.383   0.252 -25.733  1.00  0.00     0.000 C 
ENDROOT
BRANCH   1   2
ATOM      2  C   UNL     1     -20.239   0.515 -24.480  1.00  0.00     0.000 C 
BRANCH   2   3
ATOM      3  C   UNL     1     -20.192   1.963 -23.955  1.00  0.00     0.000 C 
BRANCH   3   4
ATOM      4  C   UNL     1     -21.422   2.825 -24.306  1.00  0.00     0.000 C 
BRANCH   4   5
ATOM      5  C   UNL     1     -21.402   4.252 -23.730  1.00  0.00     0.001 C 
BRANCH   5   6
ATOM      6  C   UNL     1     -20.586   4.356 -22.425  1.00  0.00     0.009 C 
BRANCH   6   7
ATOM      7  C   UNL     1     -21.358   4.984 -21.244  1.00  0.00     0.032 C 
ATOM      8  C   UNL     1     -22.876   5.010 -21.478  1.00  0.00     0.014 C 
BRANCH   7   9
ATOM      9  C   UNL     1     -21.009   4.323 -19.935  1.00  0.00     0.044 C 
ATOM     10  O   UNL     1     -21.786   4.435 -18.951  1.00  0.00    -0.550 OA
ATOM     11  O   UNL     1     -19.813   3.630 -19.784  1.00  0.00    -0.550 OA
ENDBRANCH   7   9
ENDBRANCH   6   7
ENDBRANCH   5   6
ENDBRANCH   4   5
ENDBRANCH   3   4
ENDBRANCH   2   3
ENDBRANCH   1   2
BRANCH   1  12
ATOM     12  C   UNL     1     -20.158  -0.281 -26.955  1.00  0.00     0.000 C 
BRANCH  12  13
ATOM     13  C   UNL     1     -20.351   0.730 -28.100  1.00  0.00    -0.000 C 
BRANCH  13  14
ATOM     14  C   UNL     1     -21.391   1.815 -27.770  1.00  0.00    -0.000 C 
BRANCH  14  15
ATOM     15  C   UNL     1     -20.901   3.229 -28.125  1.00  0.00    -0.000 C 
BRANCH  15  16
ATOM     16  C   UNL     1     -19.434   3.470 -27.728  1.00  0.00    -0.000 C 
BRANCH  16  17
ATOM     17  C   UNL     1     -19.286   4.646 -26.741  1.00  0.00    -0.000 C 
BRANCH  17  18
ATOM     18  C   UNL     1     -18.238   4.400 -25.641  1.00  0.00    -0.003 C 
ATOM     19  C   UNL     1     -17.173   3.383 -26.047  1.00  0.00     0.004 C 
ENDBRANCH  17  18
ENDBRANCH  16  17
ENDBRANCH  15  16
ENDBRANCH  14  15
ENDBRANCH  13  14
ENDBRANCH  12  13
ENDBRANCH   1  12
TORSDOF 14
ENDMDL
MODEL 6
REMARK VINA RESULT:    -2.991     12.424     14.492
REMARK INTER + INTRA:          -8.194
REMARK INTER:                  -6.501
REMARK INTRA:                  -1.693
REMARK UNBOUND:                -2.756
REMARK SMILES CCCCCCCCCCCCCC[C@@H](C)C(=O)[O-]
REMARK SMILES IDX 9 1 10 2 11 3 12 4 13 5 14 6 15 7 16 8 17 9 18 10 19 11 8 12
REMARK SMILES IDX 7 13 6 14 5 15 4 16 3 17 2 18 1 19
REMARK H PARENT
REMARK Flexibility Score: inf
ROOT
ATOM      1  C   UNL     1     -22.818   4.578 -22.153  1.00  0.00     0.000 C 
ENDROOT
BRANCH   1   2
ATOM      2  C   UNL     1     -23.619   3.766 -23.190  1.00  0.00     0.000 C 
BRANCH   2   3
ATOM      3  C   UNL     1     -23.315   4.113 -24.660  1.00  0.00     0.000 C 
BRANCH   3   4
ATOM      4  C   UNL     1     -23.828   3.088 -25.692  1.00  0.00     0.000 C 
BRANCH   4   5
ATOM      5  C   UNL     1     -22.729   2.365 -26.492  1.00  0.00     0.001 C 
BRANCH   5   6
ATOM      6  C   UNL     1     -21.721   1.628 -25.586  1.00  0.00     0.009 C 
BRANCH   6   7
ATOM      7  C   UNL     1     -20.944   0.496 -26.294  1.00  0.00     0.032 C 
ATOM      8  C   UNL     1     -20.607   0.835 -27.753  1.00  0.00     0.014 C 
BRANCH   7   9
ATOM      9  C   UNL     1     -19.716   0.094 -25.518  1.00  0.00     0.044 C 
ATOM     10  O   UNL     1     -18.636  -0.125 -26.128  1.00  0.00    -0.550 OA
ATOM     11  O   UNL     1     -19.770  -0.087 -24.141  1.00  0.00    -0.550 OA
ENDBRANCH   7   9
ENDBRANCH   6   7
ENDBRANCH   5   6
ENDBRANCH   4   5
ENDBRANCH   3   4
ENDBRANCH   2   3
ENDBRANCH   1   2
BRANCH   1  12
ATOM     12  C   UNL     1     -21.413   4.027 -21.835  1.00  0.00     0.000 C 
BRANCH  12  13
ATOM     13  C   UNL     1     -20.265   4.655 -22.646  1.00  0.00    -0.000 C 
BRANCH  13  14
ATOM     14  C   UNL     1     -19.656   3.683 -23.670  1.00  0.00    -0.000 C 
BRANCH  14  15
ATOM     15  C   UNL     1     -19.349   4.359 -25.017  1.00  0.00    -0.000 C 
BRANCH  15  16
ATOM     16  C   UNL     1     -18.428   3.513 -25.914  1.00  0.00    -0.000 C 
BRANCH  16  17
ATOM     17  C   UNL     1     -16.957   3.972 -25.832  1.00  0.00    -0.000 C 
BRANCH  17  18
ATOM     18  C   UNL     1     -16.538   4.904 -26.982  1.00  0.00    -0.003 C 
ATOM     19  C   UNL     1     -15.105   4.666 -27.453  1.00  0.00     0.004 C 
ENDBRANCH  17  18
ENDBRANCH  16  17
ENDBRANCH  15  16
ENDBRANCH  14  15
ENDBRANCH  13  14
ENDBRANCH  12  13
ENDBRANCH   1  12
TORSDOF 14
ENDMDL
MODEL 7
REMARK VINA RESULT:    -2.970     12.361     14.428
REMARK INTER + INTRA:          -8.157
REMARK INTER:                  -6.198
REMARK INTRA:                  -1.959
REMARK UNBOUND:                -2.756
REMARK SMILES CCCCCCCCCCCCCC[C@@H](C)C(=O)[O-]
REMARK SMILES IDX 9 1 10 2 11 3 12 4 13 5 14 6 15 7 16 8 17 9 18 10 19 11 8 12
REMARK SMILES IDX 7 13 6 14 5 15 4 16 3 17 2 18 1 19
REMARK H PARENT
REMARK Flexibility Score: inf
ROOT
ATOM      1  C   UNL     1     -19.266   4.346 -24.494  1.00  0.00     0.000 C 
ENDROOT
BRANCH   1   2
ATOM      2  C   UNL     1     -18.102   4.544 -25.484  1.00  0.00     0.000 C 
BRANCH   2   3
ATOM      3  C   UNL     1     -17.732   3.296 -26.309  1.00  0.00     0.000 C 
BRANCH   3   4
ATOM      4  C   UNL     1     -18.257   3.293 -27.759  1.00  0.00     0.000 C 
BRANCH   4   5
ATOM      5  C   UNL     1     -19.739   2.908 -27.914  1.00  0.00     0.001 C 
BRANCH   5   6
ATOM      6  C   UNL     1     -19.995   1.410 -27.652  1.00  0.00     0.009 C 
BRANCH   6   7
ATOM      7  C   UNL     1     -20.449   1.088 -26.211  1.00  0.00     0.032 C 
ATOM      8  C   UNL     1     -21.922   0.658 -26.140  1.00  0.00     0.014 C 
BRANCH   7   9
ATOM      9  C   UNL     1     -19.543   0.080 -25.554  1.00  0.00     0.044 C 
ATOM     10  O   UNL     1     -19.606  -0.099 -24.309  1.00  0.00    -0.550 OA
ATOM     11  O   UNL     1     -18.600  -0.622 -26.296  1.00  0.00    -0.550 OA
ENDBRANCH   7   9
ENDBRANCH   6   7
ENDBRANCH   5   6
ENDBRANCH   4   5
ENDBRANCH   3   4
ENDBRANCH   2   3
ENDBRANCH   1   2
BRANCH   1  12
ATOM     12  C   UNL     1     -20.553   5.124 -24.835  1.00  0.00     0.000 C 
BRANCH  12  13
ATOM     13  C   UNL     1     -21.758   4.253 -25.236  1.00  0.00    -0.000 C 
BRANCH  13  14
ATOM     14  C   UNL     1     -22.671   3.910 -24.047  1.00  0.00    -0.000 C 
BRANCH  14  15
ATOM     15  C   UNL     1     -22.896   5.109 -23.111  1.00  0.00    -0.000 C 
BRANCH  15  16
ATOM     16  C   UNL     1     -22.609   4.777 -21.636  1.00  0.00    -0.000 C 
BRANCH  16  17
ATOM     17  C   UNL     1     -21.096   4.666 -21.350  1.00  0.00    -0.000 C 
BRANCH  17  18
ATOM     18  C   UNL     1     -20.615   3.221 -21.132  1.00  0.00    -0.003 C 
ATOM     19  C   UNL     1     -19.712   3.069 -19.909  1.00  0.00     0.004 C 
ENDBRANCH  17  18
ENDBRANCH  16  17
ENDBRANCH  15  16
ENDBRANCH  14  15
ENDBRANCH  13  14
ENDBRANCH  12  13
ENDBRANCH   1  12
TORSDOF 14
ENDMDL
MODEL 8
REMARK VINA RESULT:    -2.909      2.658      6.815
REMARK INTER + INTRA:          -8.045
REMARK INTER:                  -6.470
REMARK INTRA:                  -1.574
REMARK UNBOUND:                -2.756
REMARK SMILES CCCCCCCCCCCCCC[C@@H](C)C(=O)[O-]
REMARK SMILES IDX 9 1 10 2 11 3 12 4 13 5 14 6 15 7 16 8 17 9 18 10 19 11 8 12
REMARK SMILES IDX 7 13 6 14 5 15 4 16 3 17 2 18 1 19
REMARK H PARENT
REMARK Flexibility Score: inf
ROOT
ATOM      1  C   UNL     1      -8.909  -1.815 -27.429  1.00  0.00     0.000 C 
ENDROOT
BRANCH   1   2
ATOM      2  C   UNL     1     -10.216  -1.131 -26.982  1.00  0.00     0.000 C 
BRANCH   2   3
ATOM      3  C   UNL     1     -10.029   0.230 -26.283  1.00  0.00     0.000 C 
BRANCH   3   4
ATOM      4  C   UNL     1      -9.090   0.213 -25.059  1.00  0.00     0.000 C 
BRANCH   4   5
ATOM      5  C   UNL     1      -7.780   1.000 -25.234  1.00  0.00     0.001 C 
BRANCH   5   6
ATOM      6  C   UNL     1      -6.537   0.088 -25.265  1.00  0.00     0.009 C 
BRANCH   6   7
ATOM      7  C   UNL     1      -5.621   0.222 -24.029  1.00  0.00     0.032 C 
ATOM      8  C   UNL     1      -5.630   1.640 -23.439  1.00  0.00     0.014 C 
BRANCH   7   9
ATOM      9  C   UNL     1      -5.938  -0.817 -22.985  1.00  0.00     0.044 C 
ATOM     10  O   UNL     1      -6.862  -0.608 -22.155  1.00  0.00    -0.550 OA
ATOM     11  O   UNL     1      -5.191  -1.986 -22.892  1.00  0.00    -0.550 OA
ENDBRANCH   7   9
ENDBRANCH   6   7
ENDBRANCH   5   6
ENDBRANCH   4   5
ENDBRANCH   3   4
ENDBRANCH   2   3
ENDBRANCH   1   2
BRANCH   1  12
ATOM     12  C   UNL     1      -8.666  -3.215 -26.830  1.00  0.00     0.000 C 
BRANCH  12  13
ATOM     13  C   UNL     1      -8.113  -3.225 -25.393  1.00  0.00    -0.000 C 
BRANCH  13  14
ATOM     14  C   UNL     1      -6.824  -4.052 -25.254  1.00  0.00    -0.000 C 
BRANCH  14  15
ATOM     15  C   UNL     1      -6.649  -5.070 -26.394  1.00  0.00    -0.000 C 
BRANCH  15  16
ATOM     16  C   UNL     1      -6.906  -6.519 -25.944  1.00  0.00    -0.000 C 
BRANCH  16  17
ATOM     17  C   UNL     1      -8.403  -6.889 -26.005  1.00  0.00    -0.000 C 
BRANCH  17  18
ATOM     18  C   UNL     1      -8.659  -8.396 -26.174  1.00  0.00    -0.003 C 
ATOM     19  C   UNL     1      -9.915  -8.875 -25.449  1.00  0.00     0.004 C 
ENDBRANCH  17  18
ENDBRANCH  16  17
ENDBRANCH  15  16
ENDBRANCH  14  15
ENDBRANCH  13  14
ENDBRANCH  12  13
ENDBRANCH   1  12
TORSDOF 14
ENDMDL
MODEL 9
REMARK VINA RESULT:    -2.866      1.385      2.962
REMARK INTER + INTRA:          -7.967
REMARK INTER:                  -5.779
REMARK INTRA:                  -2.187
REMARK UNBOUND:                -2.756
REMARK SMILES CCCCCCCCCCCCCC[C@@H](C)C(=O)[O-]
REMARK SMILES IDX 9 1 10 2 11 3 12 4 13 5 14 6 15 7 16 8 17 9 18 10 19 11 8 12
REMARK SMILES IDX 7 13 6 14 5 15 4 16 3 17 2 18 1 19
REMARK H PARENT
REMARK Flexibility Score: inf
ROOT
ATOM      1  C   UNL     1      -6.021   0.200 -22.882  1.00  0.00     0.000 C 
ENDROOT
BRANCH   1   2
ATOM      2  C   UNL     1      -7.132  -0.860 -22.751  1.00  0.00     0.000 C 
BRANCH   2   3
ATOM      3  C   UNL     1      -6.932  -2.119 -23.617  1.00  0.00     0.000 C 
BRANCH   3   4
ATOM      4  C   UNL     1      -5.544  -2.781 -23.497  1.00  0.00     0.000 C 
BRANCH   4   5
ATOM      5  C   UNL     1      -5.148  -3.682 -24.680  1.00  0.00     0.001 C 
BRANCH   5   6
ATOM      6  C   UNL     1      -6.028  -3.451 -25.925  1.00  0.00     0.009 C 
BRANCH   6   7
ATOM      7  C   UNL     1      -6.749  -4.718 -26.435  1.00  0.00     0.032 C 
ATOM      8  C   UNL     1      -6.141  -6.010 -25.871  1.00  0.00     0.014 C 
BRANCH   7   9
ATOM      9  C   UNL     1      -8.235  -4.650 -26.192  1.00  0.00     0.044 C 
ATOM     10  O   UNL     1      -8.883  -3.635 -26.560  1.00  0.00    -0.550 OA
ATOM     11  O   UNL     1      -8.895  -5.673 -25.522  1.00  0.00    -0.550 OA
ENDBRANCH   7   9
ENDBRANCH   6   7
ENDBRANCH   5   6
ENDBRANCH   4   5
ENDBRANCH   3   4
ENDBRANCH   2   3
ENDBRANCH   1   2
BRANCH   1  12
ATOM     12  C   UNL     1      -6.416   1.466 -23.668  1.00  0.00     0.000 C 
BRANCH  12  13
ATOM     13  C   UNL     1      -5.542   1.772 -24.899  1.00  0.00    -0.000 C 
BRANCH  13  14
ATOM     14  C   UNL     1      -5.367   0.556 -25.824  1.00  0.00    -0.000 C 
BRANCH  14  15
ATOM     15  C   UNL     1      -6.691   0.103 -26.462  1.00  0.00    -0.000 C 
BRANCH  15  16
ATOM     16  C   UNL     1      -7.449   1.255 -27.145  1.00  0.00    -0.000 C 
BRANCH  16  17
ATOM     17  C   UNL     1      -8.824   1.513 -26.494  1.00  0.00    -0.000 C 
BRANCH  17  18
ATOM     18  C   UNL     1      -9.339   0.332 -25.654  1.00  0.00    -0.003 C 
ATOM     19  C   UNL     1     -10.769  -0.074 -26.005  1.00  0.00     0.004 C 
ENDBRANCH  17  18
ENDBRANCH  16  17
ENDBRANCH  15  16
ENDBRANCH  14  15
ENDBRANCH  13  14
ENDBRANCH  12  13
ENDBRANCH   1  12
TORSDOF 14
ENDMDL
