MODEL 1
REMARK VINA RESULT:    -3.639      0.000      0.000
REMARK INTER + INTRA:          -4.620
REMARK INTER:                  -4.383
REMARK INTRA:                  -0.237
REMARK UNBOUND:                -0.237
REMARK SMILES C=CCc1ccc(O)c(OC)c1
REMARK SMILES IDX 9 1 7 2 6 3 5 4 4 5 12 6 10 7 11 8 8 9 3 11 2 12 1 13
REMARK H PARENT 8 10
REMARK Flexibility Score: inf
ROOT
ATOM      1  C   UNL     1      -3.206   4.568  -2.578  1.00  0.00     0.160 A 
ATOM      2  C   UNL     1      -2.143   3.693  -2.315  1.00  0.00     0.157 A 
ATOM      3  C   UNL     1      -1.147   4.051  -1.396  1.00  0.00     0.050 A 
ATOM      4  C   UNL     1      -1.205   5.281  -0.739  1.00  0.00     0.008 A 
ATOM      5  C   UNL     1      -2.256   6.172  -0.999  1.00  0.00    -0.040 A 
ATOM      6  C   UNL     1      -3.259   5.809  -1.912  1.00  0.00     0.054 A 
ENDROOT
BRANCH   1   7
ATOM      7  O   UNL     1      -4.187   4.172  -3.500  1.00  0.00    -0.493 OA
ATOM      8  C   UNL     1      -5.405   3.522  -3.151  1.00  0.00     0.278 C 
ENDBRANCH   1   7
BRANCH   2   9
ATOM      9  O   UNL     1      -2.083   2.464  -2.971  1.00  0.00    -0.504 OA
ATOM     10  H   UNL     1      -1.208   2.089  -3.316  1.00  0.00     0.293 HD
ENDBRANCH   2   9
BRANCH   5  11
ATOM     11  C   UNL     1      -2.331   7.485  -0.265  1.00  0.00     0.062 C 
BRANCH  11  12
ATOM     12  C   UNL     1      -1.338   7.523   0.863  1.00  0.00    -0.030 C 
ATOM     13  C   UNL     1      -1.697   7.858   2.104  1.00  0.00     0.004 C 
ENDBRANCH  11  12
ENDBRANCH   5  11
TORSDOF 4
ENDMDL
MODEL 2
REMARK VINA RESULT:    -3.565     11.784     13.333
REMARK INTER + INTRA:          -4.532
REMARK INTER:                  -4.285
REMARK INTRA:                  -0.246
REMARK UNBOUND:                -0.237
REMARK SMILES C=CCc1ccc(O)c(OC)c1
REMARK SMILES IDX 9 1 7 2 6 3 5 4 4 5 12 6 10 7 11 8 8 9 3 11 2 12 1 13
REMARK H PARENT 8 10
REMARK Flexibility Score: inf
ROOT
ATOM      1  C   UNL     1      -2.916  -4.307   5.825  1.00  0.00     0.160 A 
ATOM      2  C   UNL     1      -3.836  -3.497   5.144  1.00  0.00     0.157 A 
ATOM      3  C   UNL     1      -4.473  -3.972   3.990  1.00  0.00     0.050 A 
ATOM      4  C   UNL     1      -4.196  -5.253   3.509  1.00  0.00     0.008 A 
ATOM      5  C   UNL     1      -3.271  -6.072   4.172  1.00  0.00    -0.040 A 
ATOM      6  C   UNL     1      -2.639  -5.599   5.334  1.00  0.00     0.054 A 
ENDROOT
BRANCH   1   7
ATOM      7  O   UNL     1      -2.303  -3.798   6.980  1.00  0.00    -0.493 OA
ATOM      8  C   UNL     1      -1.929  -4.584   8.107  1.00  0.00     0.278 C 
ENDBRANCH   1   7
BRANCH   2   9
ATOM      9  O   UNL     1      -4.113  -2.217   5.622  1.00  0.00    -0.504 OA
ATOM     10  H   UNL     1      -5.040  -1.959   5.941  1.00  0.00     0.293 HD
ENDBRANCH   2   9
BRANCH   5  11
ATOM     11  C   UNL     1      -2.997  -7.464   3.668  1.00  0.00     0.062 C 
BRANCH  11  12
ATOM     12  C   UNL     1      -4.189  -8.007   2.929  1.00  0.00    -0.030 C 
ATOM     13  C   UNL     1      -4.933  -8.997   3.428  1.00  0.00     0.004 C 
ENDBRANCH  11  12
ENDBRANCH   5  11
TORSDOF 4
ENDMDL
MODEL 3
REMARK VINA RESULT:    -3.494      9.033     10.720
REMARK INTER + INTRA:          -4.445
REMARK INTER:                  -4.192
REMARK INTRA:                  -0.254
REMARK UNBOUND:                -0.237
REMARK SMILES C=CCc1ccc(O)c(OC)c1
REMARK SMILES IDX 9 1 7 2 6 3 5 4 4 5 12 6 10 7 11 8 8 9 3 11 2 12 1 13
REMARK H PARENT 8 10
REMARK Flexibility Score: inf
ROOT
ATOM      1  C   UNL     1       8.148   2.335  -0.341  1.00  0.00     0.160 A 
ATOM      2  C   UNL     1       7.211   2.562   0.676  1.00  0.00     0.157 A 
ATOM      3  C   UNL     1       5.986   3.175   0.381  1.00  0.00     0.050 A 
ATOM      4  C   UNL     1       5.690   3.564  -0.927  1.00  0.00     0.008 A 
ATOM      5  C   UNL     1       6.621   3.353  -1.954  1.00  0.00    -0.040 A 
ATOM      6  C   UNL     1       7.845   2.731  -1.660  1.00  0.00     0.054 A 
ENDROOT
BRANCH   1   7
ATOM      7  O   UNL     1       9.362   1.713  -0.007  1.00  0.00    -0.493 OA
ATOM      8  C   UNL     1       9.671   0.350  -0.277  1.00  0.00     0.278 C 
ENDBRANCH   1   7
BRANCH   2   9
ATOM      9  O   UNL     1       7.505   2.175   1.983  1.00  0.00    -0.504 OA
ATOM     10  H   UNL     1       6.947   1.483   2.470  1.00  0.00     0.293 HD
ENDBRANCH   2   9
BRANCH   5  11
ATOM     11  C   UNL     1       6.287   3.747  -3.368  1.00  0.00     0.062 C 
BRANCH  11  12
ATOM     12  C   UNL     1       5.162   4.744  -3.391  1.00  0.00    -0.030 C 
ATOM     13  C   UNL     1       5.370   6.031  -3.678  1.00  0.00     0.004 C 
ENDBRANCH  11  12
ENDBRANCH   5  11
TORSDOF 4
ENDMDL
MODEL 4
REMARK VINA RESULT:    -3.471      8.540      9.208
REMARK INTER + INTRA:          -4.418
REMARK INTER:                  -4.197
REMARK INTRA:                  -0.221
REMARK UNBOUND:                -0.237
REMARK SMILES C=CCc1ccc(O)c(OC)c1
REMARK SMILES IDX 9 1 7 2 6 3 5 4 4 5 12 6 10 7 11 8 8 9 3 11 2 12 1 13
REMARK H PARENT 8 10
REMARK Flexibility Score: inf
ROOT
ATOM      1  C   UNL     1       5.958   1.078  -1.842  1.00  0.00     0.160 A 
ATOM      2  C   UNL     1       5.581   1.353  -0.520  1.00  0.00     0.157 A 
ATOM      3  C   UNL     1       5.466   2.680  -0.083  1.00  0.00     0.050 A 
ATOM      4  C   UNL     1       5.726   3.735  -0.959  1.00  0.00     0.008 A 
ATOM      5  C   UNL     1       6.114   3.476  -2.281  1.00  0.00    -0.040 A 
ATOM      6  C   UNL     1       6.221   2.147  -2.722  1.00  0.00     0.054 A 
ENDROOT
BRANCH   1   7
ATOM      7  O   UNL     1       6.057  -0.263  -2.244  1.00  0.00    -0.493 OA
ATOM      8  C   UNL     1       5.238  -0.869  -3.239  1.00  0.00     0.278 C 
ENDBRANCH   1   7
BRANCH   2   9
ATOM      9  O   UNL     1       5.321   0.300   0.356  1.00  0.00    -0.504 OA
ATOM     10  H   UNL     1       6.027  -0.391   0.580  1.00  0.00     0.293 HD
ENDBRANCH   2   9
BRANCH   5  11
ATOM     11  C   UNL     1       6.365   4.617  -3.231  1.00  0.00     0.062 C 
BRANCH  11  12
ATOM     12  C   UNL     1       5.218   5.589  -3.211  1.00  0.00    -0.030 C 
ATOM     13  C   UNL     1       4.866   6.283  -4.296  1.00  0.00     0.004 C 
ENDBRANCH  11  12
ENDBRANCH   5  11
TORSDOF 4
ENDMDL
MODEL 5
REMARK VINA RESULT:    -3.453      8.795     10.063
REMARK INTER + INTRA:          -4.397
REMARK INTER:                  -4.226
REMARK INTRA:                  -0.171
REMARK UNBOUND:                -0.237
REMARK SMILES C=CCc1ccc(O)c(OC)c1
REMARK SMILES IDX 9 1 7 2 6 3 5 4 4 5 12 6 10 7 11 8 8 9 3 11 2 12 1 13
REMARK H PARENT 8 10
REMARK Flexibility Score: inf
ROOT
ATOM      1  C   UNL     1       6.218   0.094   0.040  1.00  0.00     0.160 A 
ATOM      2  C   UNL     1       7.237   0.236   0.993  1.00  0.00     0.157 A 
ATOM      3  C   UNL     1       7.676   1.513   1.368  1.00  0.00     0.050 A 
ATOM      4  C   UNL     1       7.103   2.650   0.797  1.00  0.00     0.008 A 
ATOM      5  C   UNL     1       6.091   2.525  -0.164  1.00  0.00    -0.040 A 
ATOM      6  C   UNL     1       5.644   1.246  -0.534  1.00  0.00     0.054 A 
ENDROOT
BRANCH   1   7
ATOM      7  O   UNL     1       5.801  -1.201  -0.306  1.00  0.00    -0.493 OA
ATOM      8  C   UNL     1       4.650  -1.495  -1.091  1.00  0.00     0.278 C 
ENDBRANCH   1   7
BRANCH   2   9
ATOM      9  O   UNL     1       7.810  -0.900   1.563  1.00  0.00    -0.504 OA
ATOM     10  H   UNL     1       7.286  -1.502   2.187  1.00  0.00     0.293 HD
ENDBRANCH   2   9
BRANCH   5  11
ATOM     11  C   UNL     1       5.455   3.755  -0.756  1.00  0.00     0.062 C 
BRANCH  11  12
ATOM     12  C   UNL     1       5.711   3.828  -2.235  1.00  0.00    -0.030 C 
ATOM     13  C   UNL     1       5.518   4.953  -2.928  1.00  0.00     0.004 C 
ENDBRANCH  11  12
ENDBRANCH   5  11
TORSDOF 4
ENDMDL
MODEL 6
REMARK VINA RESULT:    -3.342     10.208     12.107
REMARK INTER + INTRA:          -4.263
REMARK INTER:                  -4.058
REMARK INTRA:                  -0.206
REMARK UNBOUND:                -0.237
REMARK SMILES C=CCc1ccc(O)c(OC)c1
REMARK SMILES IDX 9 1 7 2 6 3 5 4 4 5 12 6 10 7 11 8 8 9 3 11 2 12 1 13
REMARK H PARENT 8 10
REMARK Flexibility Score: inf
ROOT
ATOM      1  C   UNL     1      -2.038  -6.811  -6.715  1.00  0.00     0.160 A 
ATOM      2  C   UNL     1      -1.015  -7.574  -6.135  1.00  0.00     0.157 A 
ATOM      3  C   UNL     1      -0.109  -6.977  -5.248  1.00  0.00     0.050 A 
ATOM      4  C   UNL     1      -0.218  -5.621  -4.936  1.00  0.00     0.008 A 
ATOM      5  C   UNL     1      -1.229  -4.842  -5.517  1.00  0.00    -0.040 A 
ATOM      6  C   UNL     1      -2.142  -5.441  -6.399  1.00  0.00     0.054 A 
ENDROOT
BRANCH   1   7
ATOM      7  O   UNL     1      -2.930  -7.445  -7.594  1.00  0.00    -0.493 OA
ATOM      8  C   UNL     1      -3.050  -7.140  -8.980  1.00  0.00     0.278 C 
ENDBRANCH   1   7
BRANCH   2   9
ATOM      9  O   UNL     1      -0.905  -8.929  -6.445  1.00  0.00    -0.504 OA
ATOM     10  H   UNL     1      -0.962  -9.261  -7.401  1.00  0.00     0.293 HD
ENDBRANCH   2   9
BRANCH   5  11
ATOM     11  C   UNL     1      -1.361  -3.386  -5.155  1.00  0.00     0.062 C 
BRANCH  11  12
ATOM     12  C   UNL     1      -2.807  -2.973  -5.129  1.00  0.00    -0.030 C 
ATOM     13  C   UNL     1      -3.254  -1.935  -5.840  1.00  0.00     0.004 C 
ENDBRANCH  11  12
ENDBRANCH   5  11
TORSDOF 4
ENDMDL
MODEL 7
REMARK VINA RESULT:    -3.274     11.672     12.981
REMARK INTER + INTRA:          -4.181
REMARK INTER:                  -3.997
REMARK INTRA:                  -0.184
REMARK UNBOUND:                -0.237
REMARK SMILES C=CCc1ccc(O)c(OC)c1
REMARK SMILES IDX 9 1 7 2 6 3 5 4 4 5 12 6 10 7 11 8 8 9 3 11 2 12 1 13
REMARK H PARENT 8 10
REMARK Flexibility Score: inf
ROOT
ATOM      1  C   UNL     1      -0.697  -7.728  -5.755  1.00  0.00     0.160 A 
ATOM      2  C   UNL     1      -1.858  -6.995  -6.044  1.00  0.00     0.157 A 
ATOM      3  C   UNL     1      -1.902  -5.618  -5.789  1.00  0.00     0.050 A 
ATOM      4  C   UNL     1      -0.794  -4.966  -5.246  1.00  0.00     0.008 A 
ATOM      5  C   UNL     1       0.370  -5.686  -4.941  1.00  0.00    -0.040 A 
ATOM      6  C   UNL     1       0.418  -7.065  -5.205  1.00  0.00     0.054 A 
ENDROOT
BRANCH   1   7
ATOM      7  O   UNL     1      -0.689  -9.104  -6.030  1.00  0.00    -0.493 OA
ATOM      8  C   UNL     1       0.014 -10.075  -5.262  1.00  0.00     0.278 C 
ENDBRANCH   1   7
BRANCH   2   9
ATOM      9  O   UNL     1      -2.965  -7.645  -6.587  1.00  0.00    -0.504 OA
ATOM     10  H   UNL     1      -2.903  -8.590  -6.947  1.00  0.00     0.293 HD
ENDBRANCH   2   9
BRANCH   5  11
ATOM     11  C   UNL     1       1.574  -4.975  -4.383  1.00  0.00     0.062 C 
BRANCH  11  12
ATOM     12  C   UNL     1       2.209  -5.784  -3.286  1.00  0.00    -0.030 C 
ATOM     13  C   UNL     1       2.854  -5.205  -2.269  1.00  0.00     0.004 C 
ENDBRANCH  11  12
ENDBRANCH   5  11
TORSDOF 4
ENDMDL
MODEL 8
REMARK VINA RESULT:    -3.270      8.514      9.590
REMARK INTER + INTRA:          -4.176
REMARK INTER:                  -3.957
REMARK INTRA:                  -0.219
REMARK UNBOUND:                -0.237
REMARK SMILES C=CCc1ccc(O)c(OC)c1
REMARK SMILES IDX 9 1 7 2 6 3 5 4 4 5 12 6 10 7 11 8 8 9 3 11 2 12 1 13
REMARK H PARENT 8 10
REMARK Flexibility Score: inf
ROOT
ATOM      1  C   UNL     1       5.762   2.783  -2.769  1.00  0.00     0.160 A 
ATOM      2  C   UNL     1       5.740   3.831  -1.838  1.00  0.00     0.157 A 
ATOM      3  C   UNL     1       5.719   3.553  -0.464  1.00  0.00     0.050 A 
ATOM      4  C   UNL     1       5.718   2.232  -0.014  1.00  0.00     0.008 A 
ATOM      5  C   UNL     1       5.728   1.172  -0.932  1.00  0.00    -0.040 A 
ATOM      6  C   UNL     1       5.759   1.451  -2.308  1.00  0.00     0.054 A 
ENDROOT
BRANCH   1   7
ATOM      7  O   UNL     1       5.788   3.102  -4.135  1.00  0.00    -0.493 OA
ATOM      8  C   UNL     1       4.657   3.049  -4.997  1.00  0.00     0.278 C 
ENDBRANCH   1   7
BRANCH   2   9
ATOM      9  O   UNL     1       5.742   5.151  -2.286  1.00  0.00    -0.504 OA
ATOM     10  H   UNL     1       6.493   5.790  -2.055  1.00  0.00     0.293 HD
ENDBRANCH   2   9
BRANCH   5  11
ATOM     11  C   UNL     1       5.757  -0.251  -0.442  1.00  0.00     0.062 C 
BRANCH  11  12
ATOM     12  C   UNL     1       5.094  -1.169  -1.432  1.00  0.00    -0.030 C 
ATOM     13  C   UNL     1       4.081  -1.965  -1.083  1.00  0.00     0.004 C 
ENDBRANCH  11  12
ENDBRANCH   5  11
TORSDOF 4
ENDMDL
MODEL 9
REMARK VINA RESULT:    -3.231     10.232     11.775
REMARK INTER + INTRA:          -4.129
REMARK INTER:                  -3.890
REMARK INTRA:                  -0.238
REMARK UNBOUND:                -0.237
REMARK SMILES C=CCc1ccc(O)c(OC)c1
REMARK SMILES IDX 9 1 7 2 6 3 5 4 4 5 12 6 10 7 11 8 8 9 3 11 2 12 1 13
REMARK H PARENT 8 10
REMARK Flexibility Score: inf
ROOT
ATOM      1  C   UNL     1      -1.502  -5.347  -5.706  1.00  0.00     0.160 A 
ATOM      2  C   UNL     1      -1.501  -6.748  -5.674  1.00  0.00     0.157 A 
ATOM      3  C   UNL     1      -0.402  -7.440  -5.149  1.00  0.00     0.050 A 
ATOM      4  C   UNL     1       0.700  -6.739  -4.655  1.00  0.00     0.008 A 
ATOM      5  C   UNL     1       0.720  -5.338  -4.690  1.00  0.00    -0.040 A 
ATOM      6  C   UNL     1      -0.386  -4.644  -5.208  1.00  0.00     0.054 A 
ENDROOT
BRANCH   1   7
ATOM      7  O   UNL     1      -2.624  -4.690  -6.234  1.00  0.00    -0.493 OA
ATOM      8  C   UNL     1      -3.064  -3.396  -5.834  1.00  0.00     0.278 C 
ENDBRANCH   1   7
BRANCH   2   9
ATOM      9  O   UNL     1      -2.601  -7.449  -6.167  1.00  0.00    -0.504 OA
ATOM     10  H   UNL     1      -2.491  -8.240  -6.791  1.00  0.00     0.293 HD
ENDBRANCH   2   9
BRANCH   5  11
ATOM     11  C   UNL     1       1.897  -4.585  -4.130  1.00  0.00     0.062 C 
BRANCH  11  12
ATOM     12  C   UNL     1       2.646  -5.430  -3.137  1.00  0.00    -0.030 C 
ATOM     13  C   UNL     1       2.761  -5.073  -1.855  1.00  0.00     0.004 C 
ENDBRANCH  11  12
ENDBRANCH   5  11
TORSDOF 4
ENDMDL
