MODEL 1
REMARK VINA RESULT:    -3.546      0.000      0.000
REMARK INTER + INTRA:          -5.142
REMARK INTER:                  -4.789
REMARK INTRA:                  -0.352
REMARK UNBOUND:                -0.352
REMARK SMILES CCCCCCC=CC(=O)[O-]
REMARK SMILES IDX 5 1 6 2 7 3 8 4 9 5 10 6 11 7 4 8 3 9 2 10 1 11
REMARK H PARENT
REMARK Flexibility Score: inf
ROOT
ATOM      1  C   UNL     1     171.621 185.863  33.321  1.00  0.00     0.004 C 
ENDROOT
BRANCH   1   2
ATOM      2  C   UNL     1     171.307 185.831  31.820  1.00  0.00     0.027 C 
BRANCH   2   3
ATOM      3  C   UNL     1     169.828 185.905  31.572  1.00  0.00    -0.025 C 
ATOM      4  C   UNL     1     169.313 185.697  30.355  1.00  0.00     0.020 C 
BRANCH   4   5
ATOM      5  C   UNL     1     167.869 185.778  30.086  1.00  0.00     0.064 C 
ATOM      6  O   UNL     1     167.430 186.314  29.032  1.00  0.00    -0.545 OA
ATOM      7  O   UNL     1     166.972 185.253  31.007  1.00  0.00    -0.545 OA
ENDBRANCH   4   5
ENDBRANCH   2   3
ENDBRANCH   1   2
BRANCH   1   8
ATOM      8  C   UNL     1     171.993 184.464  33.835  1.00  0.00     0.000 C 
BRANCH   8   9
ATOM      9  C   UNL     1     172.331 183.479  32.701  1.00  0.00    -0.000 C 
BRANCH   9  10
ATOM     10  C   UNL     1     173.811 183.066  32.624  1.00  0.00    -0.003 C 
ATOM     11  C   UNL     1     174.475 182.957  33.997  1.00  0.00     0.004 C 
ENDBRANCH   9  10
ENDBRANCH   8   9
ENDBRANCH   1   8
TORSDOF 6
ENDMDL
MODEL 2
REMARK VINA RESULT:    -3.447      0.906      1.229
REMARK INTER + INTRA:          -5.008
REMARK INTER:                  -4.541
REMARK INTRA:                  -0.468
REMARK UNBOUND:                -0.352
REMARK SMILES CCCCCCC=CC(=O)[O-]
REMARK SMILES IDX 5 1 6 2 7 3 8 4 9 5 10 6 11 7 4 8 3 9 2 10 1 11
REMARK H PARENT
REMARK Flexibility Score: inf
ROOT
ATOM      1  C   UNL     1     171.536 186.267  32.705  1.00  0.00     0.004 C 
ENDROOT
BRANCH   1   2
ATOM      2  C   UNL     1     170.496 187.394  32.745  1.00  0.00     0.027 C 
BRANCH   2   3
ATOM      3  C   UNL     1     169.177 186.938  32.191  1.00  0.00    -0.025 C 
ATOM      4  C   UNL     1     169.108 186.144  31.117  1.00  0.00     0.020 C 
BRANCH   4   5
ATOM      5  C   UNL     1     167.827 185.696  30.549  1.00  0.00     0.064 C 
ATOM      6  O   UNL     1     167.504 185.978  29.363  1.00  0.00    -0.545 OA
ATOM      7  O   UNL     1     166.957 184.949  31.332  1.00  0.00    -0.545 OA
ENDBRANCH   4   5
ENDBRANCH   2   3
ENDBRANCH   1   2
BRANCH   1   8
ATOM      8  C   UNL     1     171.515 185.453  34.007  1.00  0.00     0.000 C 
BRANCH   8   9
ATOM      9  C   UNL     1     171.581 183.934  33.766  1.00  0.00    -0.000 C 
BRANCH   9  10
ATOM     10  C   UNL     1     172.205 183.520  32.422  1.00  0.00    -0.003 C 
ATOM     11  C   UNL     1     173.685 183.156  32.535  1.00  0.00     0.004 C 
ENDBRANCH   9  10
ENDBRANCH   8   9
ENDBRANCH   1   8
TORSDOF 6
ENDMDL
MODEL 3
REMARK VINA RESULT:    -3.345      3.143      5.183
REMARK INTER + INTRA:          -4.871
REMARK INTER:                  -4.208
REMARK INTRA:                  -0.663
REMARK UNBOUND:                -0.352
REMARK SMILES CCCCCCC=CC(=O)[O-]
REMARK SMILES IDX 5 1 6 2 7 3 8 4 9 5 10 6 11 7 4 8 3 9 2 10 1 11
REMARK H PARENT
REMARK Flexibility Score: inf
ROOT
ATOM      1  C   UNL     1     169.902 187.303  33.684  1.00  0.00     0.004 C 
ENDROOT
BRANCH   1   2
ATOM      2  C   UNL     1     171.105 186.956  32.798  1.00  0.00     0.027 C 
BRANCH   2   3
ATOM      3  C   UNL     1     171.646 185.594  33.123  1.00  0.00    -0.025 C 
ATOM      4  C   UNL     1     171.967 184.722  32.161  1.00  0.00     0.020 C 
BRANCH   4   5
ATOM      5  C   UNL     1     172.486 183.378  32.457  1.00  0.00     0.064 C 
ATOM      6  O   UNL     1     171.719 182.449  32.828  1.00  0.00    -0.545 OA
ATOM      7  O   UNL     1     173.846 183.127  32.325  1.00  0.00    -0.545 OA
ENDBRANCH   4   5
ENDBRANCH   2   3
ENDBRANCH   1   2
BRANCH   1   8
ATOM      8  C   UNL     1     168.841 186.194  33.630  1.00  0.00     0.000 C 
BRANCH   8   9
ATOM      9  C   UNL     1     167.821 186.395  32.494  1.00  0.00    -0.000 C 
BRANCH   9  10
ATOM     10  C   UNL     1     167.864 185.324  31.390  1.00  0.00    -0.003 C 
ATOM     11  C   UNL     1     168.832 185.670  30.258  1.00  0.00     0.004 C 
ENDBRANCH   9  10
ENDBRANCH   8   9
ENDBRANCH   1   8
TORSDOF 6
ENDMDL
MODEL 4
REMARK VINA RESULT:    -3.334     20.062     21.522
REMARK INTER + INTRA:          -4.855
REMARK INTER:                  -4.480
REMARK INTRA:                  -0.375
REMARK UNBOUND:                -0.352
REMARK SMILES CCCCCCC=CC(=O)[O-]
REMARK SMILES IDX 5 1 6 2 7 3 8 4 9 5 10 6 11 7 4 8 3 9 2 10 1 11
REMARK H PARENT
REMARK Flexibility Score: inf
ROOT
ATOM      1  C   UNL     1     163.282 169.036  18.708  1.00  0.00     0.004 C 
ENDROOT
BRANCH   1   2
ATOM      2  C   UNL     1     162.080 169.933  18.389  1.00  0.00     0.027 C 
BRANCH   2   3
ATOM      3  C   UNL     1     161.725 170.805  19.558  1.00  0.00    -0.025 C 
ATOM      4  C   UNL     1     160.452 171.061  19.878  1.00  0.00     0.020 C 
BRANCH   4   5
ATOM      5  C   UNL     1     160.082 171.923  21.012  1.00  0.00     0.064 C 
ATOM      6  O   UNL     1     159.765 171.432  22.129  1.00  0.00    -0.545 OA
ATOM      7  O   UNL     1     160.081 173.302  20.849  1.00  0.00    -0.545 OA
ENDBRANCH   4   5
ENDBRANCH   2   3
ENDBRANCH   1   2
BRANCH   1   8
ATOM      8  C   UNL     1     164.212 168.910  17.492  1.00  0.00     0.000 C 
BRANCH   8   9
ATOM      9  C   UNL     1     164.785 170.262  17.032  1.00  0.00    -0.000 C 
BRANCH   9  10
ATOM     10  C   UNL     1     164.812 170.468  15.507  1.00  0.00    -0.003 C 
ATOM     11  C   UNL     1     163.434 170.773  14.920  1.00  0.00     0.004 C 
ENDBRANCH   9  10
ENDBRANCH   8   9
ENDBRANCH   1   8
TORSDOF 6
ENDMDL
MODEL 5
REMARK VINA RESULT:    -3.317     21.367     22.506
REMARK INTER + INTRA:          -4.832
REMARK INTER:                  -4.072
REMARK INTRA:                  -0.760
REMARK UNBOUND:                -0.352
REMARK SMILES CCCCCCC=CC(=O)[O-]
REMARK SMILES IDX 5 1 6 2 7 3 8 4 9 5 10 6 11 7 4 8 3 9 2 10 1 11
REMARK H PARENT
REMARK Flexibility Score: inf
ROOT
ATOM      1  C   UNL     1     164.536 170.375  17.120  1.00  0.00     0.004 C 
ENDROOT
BRANCH   1   2
ATOM      2  C   UNL     1     164.020 168.987  17.519  1.00  0.00     0.027 C 
BRANCH   2   3
ATOM      3  C   UNL     1     162.785 169.089  18.367  1.00  0.00    -0.025 C 
ATOM      4  C   UNL     1     162.316 170.273  18.778  1.00  0.00     0.020 C 
BRANCH   4   5
ATOM      5  C   UNL     1     161.115 170.395  19.620  1.00  0.00     0.064 C 
ATOM      6  O   UNL     1     159.970 170.527  19.108  1.00  0.00    -0.545 OA
ATOM      7  O   UNL     1     161.244 170.365  21.002  1.00  0.00    -0.545 OA
ENDBRANCH   4   5
ENDBRANCH   2   3
ENDBRANCH   1   2
BRANCH   1   8
ATOM      8  C   UNL     1     164.653 170.500  15.593  1.00  0.00     0.000 C 
BRANCH   8   9
ATOM      9  C   UNL     1     163.299 170.363  14.875  1.00  0.00    -0.000 C 
BRANCH   9  10
ATOM     10  C   UNL     1     162.288 171.482  15.182  1.00  0.00    -0.003 C 
ATOM     11  C   UNL     1     160.860 170.967  15.360  1.00  0.00     0.004 C 
ENDBRANCH   9  10
ENDBRANCH   8   9
ENDBRANCH   1   8
TORSDOF 6
ENDMDL
MODEL 6
REMARK VINA RESULT:    -3.304      3.229      5.279
REMARK INTER + INTRA:          -4.815
REMARK INTER:                  -4.090
REMARK INTRA:                  -0.726
REMARK UNBOUND:                -0.352
REMARK SMILES CCCCCCC=CC(=O)[O-]
REMARK SMILES IDX 5 1 6 2 7 3 8 4 9 5 10 6 11 7 4 8 3 9 2 10 1 11
REMARK H PARENT
REMARK Flexibility Score: inf
ROOT
ATOM      1  C   UNL     1     170.046 185.276  30.461  1.00  0.00     0.004 C 
ENDROOT
BRANCH   1   2
ATOM      2  C   UNL     1     171.109 185.791  31.439  1.00  0.00     0.027 C 
BRANCH   2   3
ATOM      3  C   UNL     1     171.545 184.712  32.388  1.00  0.00    -0.025 C 
ATOM      4  C   UNL     1     171.379 183.417  32.096  1.00  0.00     0.020 C 
BRANCH   4   5
ATOM      5  C   UNL     1     171.786 182.343  33.015  1.00  0.00     0.064 C 
ATOM      6  O   UNL     1     172.886 182.393  33.629  1.00  0.00    -0.545 OA
ATOM      7  O   UNL     1     170.945 181.256  33.211  1.00  0.00    -0.545 OA
ENDBRANCH   4   5
ENDBRANCH   2   3
ENDBRANCH   1   2
BRANCH   1   8
ATOM      8  C   UNL     1     168.753 186.097  30.572  1.00  0.00     0.000 C 
BRANCH   8   9
ATOM      9  C   UNL     1     167.603 185.318  31.237  1.00  0.00    -0.000 C 
BRANCH   9  10
ATOM     10  C   UNL     1     167.620 185.331  32.776  1.00  0.00    -0.003 C 
ATOM     11  C   UNL     1     167.949 183.967  33.383  1.00  0.00     0.004 C 
ENDBRANCH   9  10
ENDBRANCH   8   9
ENDBRANCH   1   8
TORSDOF 6
ENDMDL
MODEL 7
REMARK VINA RESULT:    -3.303      1.887      3.146
REMARK INTER + INTRA:          -4.814
REMARK INTER:                  -4.080
REMARK INTRA:                  -0.734
REMARK UNBOUND:                -0.352
REMARK SMILES CCCCCCC=CC(=O)[O-]
REMARK SMILES IDX 5 1 6 2 7 3 8 4 9 5 10 6 11 7 4 8 3 9 2 10 1 11
REMARK H PARENT
REMARK Flexibility Score: inf
ROOT
ATOM      1  C   UNL     1     170.882 184.277  31.774  1.00  0.00     0.004 C 
ENDROOT
BRANCH   1   2
ATOM      2  C   UNL     1     170.397 185.329  30.768  1.00  0.00     0.027 C 
BRANCH   2   3
ATOM      3  C   UNL     1     168.901 185.459  30.795  1.00  0.00    -0.025 C 
ATOM      4  C   UNL     1     168.179 185.004  31.826  1.00  0.00     0.020 C 
BRANCH   4   5
ATOM      5  C   UNL     1     166.712 185.108  31.868  1.00  0.00     0.064 C 
ATOM      6  O   UNL     1     165.986 184.401  31.118  1.00  0.00    -0.545 OA
ATOM      7  O   UNL     1     166.116 186.001  32.748  1.00  0.00    -0.545 OA
ENDBRANCH   4   5
ENDBRANCH   2   3
ENDBRANCH   1   2
BRANCH   1   8
ATOM      8  C   UNL     1     171.973 184.854  32.688  1.00  0.00     0.000 C 
BRANCH   8   9
ATOM      9  C   UNL     1     171.640 186.266  33.203  1.00  0.00    -0.000 C 
BRANCH   9  10
ATOM     10  C   UNL     1     170.727 186.303  34.441  1.00  0.00    -0.003 C 
ATOM     11  C   UNL     1     169.620 187.352  34.338  1.00  0.00     0.004 C 
ENDBRANCH   9  10
ENDBRANCH   8   9
ENDBRANCH   1   8
TORSDOF 6
ENDMDL
MODEL 8
REMARK VINA RESULT:    -3.295      1.545      3.212
REMARK INTER + INTRA:          -4.803
REMARK INTER:                  -4.203
REMARK INTRA:                  -0.601
REMARK UNBOUND:                -0.352
REMARK SMILES CCCCCCC=CC(=O)[O-]
REMARK SMILES IDX 5 1 6 2 7 3 8 4 9 5 10 6 11 7 4 8 3 9 2 10 1 11
REMARK H PARENT
REMARK Flexibility Score: inf
ROOT
ATOM      1  C   UNL     1     171.970 184.846  33.188  1.00  0.00     0.004 C 
ENDROOT
BRANCH   1   2
ATOM      2  C   UNL     1     171.386 184.384  31.847  1.00  0.00     0.027 C 
BRANCH   2   3
ATOM      3  C   UNL     1     169.994 184.910  31.649  1.00  0.00    -0.025 C 
ATOM      4  C   UNL     1     169.591 185.395  30.469  1.00  0.00     0.020 C 
BRANCH   4   5
ATOM      5  C   UNL     1     168.236 185.927  30.256  1.00  0.00     0.064 C 
ATOM      6  O   UNL     1     168.052 187.021  29.657  1.00  0.00    -0.545 OA
ATOM      7  O   UNL     1     167.141 185.212  30.723  1.00  0.00    -0.545 OA
ENDBRANCH   4   5
ENDBRANCH   2   3
ENDBRANCH   1   2
BRANCH   1   8
ATOM      8  C   UNL     1     170.860 185.055  34.228  1.00  0.00     0.000 C 
BRANCH   8   9
ATOM      9  C   UNL     1     170.828 186.487  34.792  1.00  0.00    -0.000 C 
BRANCH   9  10
ATOM     10  C   UNL     1     169.556 187.285  34.455  1.00  0.00    -0.003 C 
ATOM     11  C   UNL     1     169.737 188.225  33.263  1.00  0.00     0.004 C 
ENDBRANCH   9  10
ENDBRANCH   8   9
ENDBRANCH   1   8
TORSDOF 6
ENDMDL
MODEL 9
REMARK VINA RESULT:    -3.273     19.876     21.494
REMARK INTER + INTRA:          -4.773
REMARK INTER:                  -4.421
REMARK INTRA:                  -0.352
REMARK UNBOUND:                -0.352
REMARK SMILES CCCCCCC=CC(=O)[O-]
REMARK SMILES IDX 5 1 6 2 7 3 8 4 9 5 10 6 11 7 4 8 3 9 2 10 1 11
REMARK H PARENT
REMARK Flexibility Score: inf
ROOT
ATOM      1  C   UNL     1     162.170 170.037  18.661  1.00  0.00     0.004 C 
ENDROOT
BRANCH   1   2
ATOM      2  C   UNL     1     162.961 168.896  19.313  1.00  0.00     0.027 C 
BRANCH   2   3
ATOM      3  C   UNL     1     162.931 168.998  20.811  1.00  0.00    -0.025 C 
ATOM      4  C   UNL     1     161.925 169.605  21.449  1.00  0.00     0.020 C 
BRANCH   4   5
ATOM      5  C   UNL     1     161.881 169.729  22.914  1.00  0.00     0.064 C 
ATOM      6  O   UNL     1     160.794 169.936  23.519  1.00  0.00    -0.545 OA
ATOM      7  O   UNL     1     163.056 169.616  23.645  1.00  0.00    -0.545 OA
ENDBRANCH   4   5
ENDBRANCH   2   3
ENDBRANCH   1   2
BRANCH   1   8
ATOM      8  C   UNL     1     163.044 170.813  17.665  1.00  0.00     0.000 C 
BRANCH   8   9
ATOM      9  C   UNL     1     164.292 170.027  17.223  1.00  0.00    -0.000 C 
BRANCH   9  10
ATOM     10  C   UNL     1     164.771 170.327  15.792  1.00  0.00    -0.003 C 
ATOM     11  C   UNL     1     163.650 170.820  14.876  1.00  0.00     0.004 C 
ENDBRANCH   9  10
ENDBRANCH   8   9
ENDBRANCH   1   8
TORSDOF 6
ENDMDL
