MODEL 1
REMARK VINA RESULT:    -5.134      0.000      0.000
REMARK INTER + INTRA:         -10.198
REMARK INTER:                  -9.335
REMARK INTRA:                  -0.862
REMARK UNBOUND:                -0.862
REMARK SMILES CCCCCCCCCCCCCC[C@H](C)C(=O)[O-]
REMARK SMILES IDX 9 1 10 2 11 3 12 4 13 5 14 6 15 7 16 8 17 9 18 10 19 11 8 12
REMARK SMILES IDX 7 13 6 14 5 15 4 16 3 17 2 18 1 19
REMARK H PARENT
REMARK Flexibility Score: inf
ROOT
ATOM      1  C   UNL     1      41.360  66.088  25.547  1.00  0.00     0.000 C 
ENDROOT
BRANCH   1   2
ATOM      2  C   UNL     1      41.537  65.263  24.260  1.00  0.00     0.000 C 
BRANCH   2   3
ATOM      3  C   UNL     1      41.748  63.764  24.537  1.00  0.00     0.000 C 
BRANCH   3   4
ATOM      4  C   UNL     1      42.497  63.442  25.846  1.00  0.00     0.000 C 
BRANCH   4   5
ATOM      5  C   UNL     1      42.861  61.960  26.047  1.00  0.00     0.001 C 
BRANCH   5   6
ATOM      6  C   UNL     1      44.346  61.673  26.361  1.00  0.00     0.009 C 
BRANCH   6   7
ATOM      7  C   UNL     1      45.400  62.344  25.441  1.00  0.00     0.032 C 
ATOM      8  C   UNL     1      45.939  61.401  24.355  1.00  0.00     0.014 C 
BRANCH   7   9
ATOM      9  C   UNL     1      46.507  63.008  26.220  1.00  0.00     0.044 C 
ATOM     10  O   UNL     1      47.528  63.430  25.616  1.00  0.00    -0.550 OA
ATOM     11  O   UNL     1      46.432  63.147  27.603  1.00  0.00    -0.550 OA
ENDBRANCH   7   9
ENDBRANCH   6   7
ENDBRANCH   5   6
ENDBRANCH   4   5
ENDBRANCH   3   4
ENDBRANCH   2   3
ENDBRANCH   1   2
BRANCH   1  12
ATOM     12  C   UNL     1      40.082  66.939  25.529  1.00  0.00     0.000 C 
BRANCH  12  13
ATOM     13  C   UNL     1      39.256  66.733  24.247  1.00  0.00    -0.000 C 
BRANCH  13  14
ATOM     14  C   UNL     1      37.903  67.468  24.283  1.00  0.00    -0.000 C 
BRANCH  14  15
ATOM     15  C   UNL     1      37.196  67.452  25.650  1.00  0.00    -0.000 C 
BRANCH  15  16
ATOM     16  C   UNL     1      35.664  67.528  25.531  1.00  0.00    -0.000 C 
BRANCH  16  17
ATOM     17  C   UNL     1      34.947  66.679  26.592  1.00  0.00    -0.000 C 
BRANCH  17  18
ATOM     18  C   UNL     1      34.620  65.264  26.092  1.00  0.00    -0.003 C 
ATOM     19  C   UNL     1      34.930  64.220  27.160  1.00  0.00     0.004 C 
ENDBRANCH  17  18
ENDBRANCH  16  17
ENDBRANCH  15  16
ENDBRANCH  14  15
ENDBRANCH  13  14
ENDBRANCH  12  13
ENDBRANCH   1  12
TORSDOF 14
ENDMDL
MODEL 2
REMARK VINA RESULT:    -4.988      5.490      7.323
REMARK INTER + INTRA:          -9.933
REMARK INTER:                  -9.168
REMARK INTRA:                  -0.764
REMARK UNBOUND:                -0.862
REMARK SMILES CCCCCCCCCCCCCC[C@H](C)C(=O)[O-]
REMARK SMILES IDX 9 1 10 2 11 3 12 4 13 5 14 6 15 7 16 8 17 9 18 10 19 11 8 12
REMARK SMILES IDX 7 13 6 14 5 15 4 16 3 17 2 18 1 19
REMARK H PARENT
REMARK Flexibility Score: inf
ROOT
ATOM      1  C   UNL     1      41.360  67.163  22.917  1.00  0.00     0.000 C 
ENDROOT
BRANCH   1   2
ATOM      2  C   UNL     1      41.864  67.882  24.180  1.00  0.00     0.000 C 
BRANCH   2   3
ATOM      3  C   UNL     1      42.900  68.976  23.871  1.00  0.00     0.000 C 
BRANCH   3   4
ATOM      4  C   UNL     1      43.367  69.795  25.092  1.00  0.00     0.000 C 
BRANCH   4   5
ATOM      5  C   UNL     1      44.332  70.952  24.777  1.00  0.00     0.001 C 
BRANCH   5   6
ATOM      6  C   UNL     1      43.818  72.366  25.128  1.00  0.00     0.009 C 
BRANCH   6   7
ATOM      7  C   UNL     1      42.577  72.876  24.350  1.00  0.00     0.032 C 
ATOM      8  C   UNL     1      42.941  73.631  23.063  1.00  0.00     0.014 C 
BRANCH   7   9
ATOM      9  C   UNL     1      41.630  73.659  25.222  1.00  0.00     0.044 C 
ATOM     10  O   UNL     1      41.665  73.509  26.472  1.00  0.00    -0.550 OA
ATOM     11  O   UNL     1      40.699  74.533  24.671  1.00  0.00    -0.550 OA
ENDBRANCH   7   9
ENDBRANCH   6   7
ENDBRANCH   5   6
ENDBRANCH   4   5
ENDBRANCH   3   4
ENDBRANCH   2   3
ENDBRANCH   1   2
BRANCH   1  12
ATOM     12  C   UNL     1      40.032  66.427  23.149  1.00  0.00     0.000 C 
BRANCH  12  13
ATOM     13  C   UNL     1      39.391  66.784  24.502  1.00  0.00    -0.000 C 
BRANCH  13  14
ATOM     14  C   UNL     1      37.929  67.250  24.366  1.00  0.00    -0.000 C 
BRANCH  14  15
ATOM     15  C   UNL     1      37.215  67.530  25.700  1.00  0.00    -0.000 C 
BRANCH  15  16
ATOM     16  C   UNL     1      35.683  67.580  25.560  1.00  0.00    -0.000 C 
BRANCH  16  17
ATOM     17  C   UNL     1      34.967  66.705  26.599  1.00  0.00    -0.000 C 
BRANCH  17  18
ATOM     18  C   UNL     1      34.596  65.320  26.049  1.00  0.00    -0.003 C 
ATOM     19  C   UNL     1      34.928  64.223  27.056  1.00  0.00     0.004 C 
ENDBRANCH  17  18
ENDBRANCH  16  17
ENDBRANCH  15  16
ENDBRANCH  14  15
ENDBRANCH  13  14
ENDBRANCH  12  13
ENDBRANCH   1  12
TORSDOF 14
ENDMDL
MODEL 3
REMARK VINA RESULT:    -4.965      3.948      8.995
REMARK INTER + INTRA:          -9.890
REMARK INTER:                  -8.995
REMARK INTRA:                  -0.895
REMARK UNBOUND:                -0.862
REMARK SMILES CCCCCCCCCCCCCC[C@H](C)C(=O)[O-]
REMARK SMILES IDX 9 1 10 2 11 3 12 4 13 5 14 6 15 7 16 8 17 9 18 10 19 11 8 12
REMARK SMILES IDX 7 13 6 14 5 15 4 16 3 17 2 18 1 19
REMARK H PARENT
REMARK Flexibility Score: inf
ROOT
ATOM      1  C   UNL     1      40.078  66.976  25.559  1.00  0.00     0.000 C 
ENDROOT
BRANCH   1   2
ATOM      2  C   UNL     1      39.312  66.809  24.235  1.00  0.00     0.000 C 
BRANCH   2   3
ATOM      3  C   UNL     1      37.902  67.422  24.280  1.00  0.00     0.000 C 
BRANCH   3   4
ATOM      4  C   UNL     1      37.256  67.467  25.680  1.00  0.00     0.000 C 
BRANCH   4   5
ATOM      5  C   UNL     1      35.723  67.612  25.691  1.00  0.00     0.001 C 
BRANCH   5   6
ATOM      6  C   UNL     1      34.963  66.600  26.579  1.00  0.00     0.009 C 
BRANCH   6   7
ATOM      7  C   UNL     1      34.943  65.124  26.103  1.00  0.00     0.032 C 
ATOM      8  C   UNL     1      33.879  64.852  25.029  1.00  0.00     0.014 C 
BRANCH   7   9
ATOM      9  C   UNL     1      34.859  64.149  27.249  1.00  0.00     0.044 C 
ATOM     10  O   UNL     1      35.127  64.535  28.418  1.00  0.00    -0.550 OA
ATOM     11  O   UNL     1      34.511  62.818  27.039  1.00  0.00    -0.550 OA
ENDBRANCH   7   9
ENDBRANCH   6   7
ENDBRANCH   5   6
ENDBRANCH   4   5
ENDBRANCH   3   4
ENDBRANCH   2   3
ENDBRANCH   1   2
BRANCH   1  12
ATOM     12  C   UNL     1      41.337  66.099  25.624  1.00  0.00     0.000 C 
BRANCH  12  13
ATOM     13  C   UNL     1      41.580  65.320  24.320  1.00  0.00    -0.000 C 
BRANCH  13  14
ATOM     14  C   UNL     1      41.688  63.800  24.542  1.00  0.00    -0.000 C 
BRANCH  14  15
ATOM     15  C   UNL     1      42.460  63.387  25.808  1.00  0.00    -0.000 C 
BRANCH  15  16
ATOM     16  C   UNL     1      42.967  61.935  25.752  1.00  0.00    -0.000 C 
BRANCH  16  17
ATOM     17  C   UNL     1      44.334  61.761  26.431  1.00  0.00    -0.000 C 
BRANCH  17  18
ATOM     18  C   UNL     1      45.490  62.292  25.571  1.00  0.00    -0.003 C 
ATOM     19  C   UNL     1      46.486  63.079  26.418  1.00  0.00     0.004 C 
ENDBRANCH  17  18
ENDBRANCH  16  17
ENDBRANCH  15  16
ENDBRANCH  14  15
ENDBRANCH  13  14
ENDBRANCH  12  13
ENDBRANCH   1  12
TORSDOF 14
ENDMDL
MODEL 4
REMARK VINA RESULT:    -4.949      3.330      5.371
REMARK INTER + INTRA:          -9.862
REMARK INTER:                  -8.915
REMARK INTRA:                  -0.946
REMARK UNBOUND:                -0.862
REMARK SMILES CCCCCCCCCCCCCC[C@H](C)C(=O)[O-]
REMARK SMILES IDX 9 1 10 2 11 3 12 4 13 5 14 6 15 7 16 8 17 9 18 10 19 11 8 12
REMARK SMILES IDX 7 13 6 14 5 15 4 16 3 17 2 18 1 19
REMARK H PARENT
REMARK Flexibility Score: inf
ROOT
ATOM      1  C   UNL     1      41.350  66.064  25.606  1.00  0.00     0.000 C 
ENDROOT
BRANCH   1   2
ATOM      2  C   UNL     1      41.241  65.289  24.282  1.00  0.00     0.000 C 
BRANCH   2   3
ATOM      3  C   UNL     1      41.740  63.838  24.396  1.00  0.00     0.000 C 
BRANCH   3   4
ATOM      4  C   UNL     1      42.292  63.447  25.783  1.00  0.00     0.000 C 
BRANCH   4   5
ATOM      5  C   UNL     1      42.844  62.013  25.889  1.00  0.00     0.001 C 
BRANCH   5   6
ATOM      6  C   UNL     1      44.295  61.892  26.404  1.00  0.00     0.009 C 
BRANCH   6   7
ATOM      7  C   UNL     1      45.416  62.447  25.486  1.00  0.00     0.032 C 
ATOM      8  C   UNL     1      45.900  61.429  24.443  1.00  0.00     0.014 C 
BRANCH   7   9
ATOM      9  C   UNL     1      46.556  63.050  26.266  1.00  0.00     0.044 C 
ATOM     10  O   UNL     1      47.600  63.414  25.664  1.00  0.00    -0.550 OA
ATOM     11  O   UNL     1      46.486  63.195  27.648  1.00  0.00    -0.550 OA
ENDBRANCH   7   9
ENDBRANCH   6   7
ENDBRANCH   5   6
ENDBRANCH   4   5
ENDBRANCH   3   4
ENDBRANCH   2   3
ENDBRANCH   1   2
BRANCH   1  12
ATOM     12  C   UNL     1      41.485  67.578  25.392  1.00  0.00     0.000 C 
BRANCH  12  13
ATOM     13  C   UNL     1      41.723  67.945  23.917  1.00  0.00    -0.000 C 
BRANCH  13  14
ATOM     14  C   UNL     1      42.870  68.956  23.729  1.00  0.00    -0.000 C 
BRANCH  14  15
ATOM     15  C   UNL     1      43.195  69.800  24.974  1.00  0.00    -0.000 C 
BRANCH  15  16
ATOM     16  C   UNL     1      44.351  70.788  24.740  1.00  0.00    -0.000 C 
BRANCH  16  17
ATOM     17  C   UNL     1      44.021  72.208  25.224  1.00  0.00    -0.000 C 
BRANCH  17  18
ATOM     18  C   UNL     1      42.887  72.857  24.416  1.00  0.00    -0.003 C 
ATOM     19  C   UNL     1      41.873  73.530  25.336  1.00  0.00     0.004 C 
ENDBRANCH  17  18
ENDBRANCH  16  17
ENDBRANCH  15  16
ENDBRANCH  14  15
ENDBRANCH  13  14
ENDBRANCH  12  13
ENDBRANCH   1  12
TORSDOF 14
ENDMDL
MODEL 5
REMARK VINA RESULT:    -4.923      5.569      9.157
REMARK INTER + INTRA:          -9.815
REMARK INTER:                  -9.120
REMARK INTRA:                  -0.695
REMARK UNBOUND:                -0.862
REMARK SMILES CCCCCCCCCCCCCC[C@H](C)C(=O)[O-]
REMARK SMILES IDX 9 1 10 2 11 3 12 4 13 5 14 6 15 7 16 8 17 9 18 10 19 11 8 12
REMARK SMILES IDX 7 13 6 14 5 15 4 16 3 17 2 18 1 19
REMARK H PARENT
REMARK Flexibility Score: inf
ROOT
ATOM      1  C   UNL     1      41.321  67.434  22.979  1.00  0.00     0.000 C 
ENDROOT
BRANCH   1   2
ATOM      2  C   UNL     1      41.941  68.078  24.231  1.00  0.00     0.000 C 
BRANCH   2   3
ATOM      3  C   UNL     1      43.073  69.065  23.896  1.00  0.00     0.000 C 
BRANCH   3   4
ATOM      4  C   UNL     1      43.555  69.929  25.080  1.00  0.00     0.000 C 
BRANCH   4   5
ATOM      5  C   UNL     1      44.306  71.215  24.691  1.00  0.00     0.001 C 
BRANCH   5   6
ATOM      6  C   UNL     1      43.630  72.538  25.116  1.00  0.00     0.009 C 
BRANCH   6   7
ATOM      7  C   UNL     1      42.379  72.978  24.312  1.00  0.00     0.032 C 
ATOM      8  C   UNL     1      42.727  73.710  23.008  1.00  0.00     0.014 C 
BRANCH   7   9
ATOM      9  C   UNL     1      41.394  73.749  25.153  1.00  0.00     0.044 C 
ATOM     10  O   UNL     1      40.425  74.334  24.600  1.00  0.00    -0.550 OA
ATOM     11  O   UNL     1      41.545  73.846  26.533  1.00  0.00    -0.550 OA
ENDBRANCH   7   9
ENDBRANCH   6   7
ENDBRANCH   5   6
ENDBRANCH   4   5
ENDBRANCH   3   4
ENDBRANCH   2   3
ENDBRANCH   1   2
BRANCH   1  12
ATOM     12  C   UNL     1      41.018  65.941  23.175  1.00  0.00     0.000 C 
BRANCH  12  13
ATOM     13  C   UNL     1      41.507  65.415  24.536  1.00  0.00    -0.000 C 
BRANCH  13  14
ATOM     14  C   UNL     1      41.723  63.890  24.545  1.00  0.00    -0.000 C 
BRANCH  14  15
ATOM     15  C   UNL     1      42.399  63.343  25.815  1.00  0.00    -0.000 C 
BRANCH  15  16
ATOM     16  C   UNL     1      43.096  61.990  25.585  1.00  0.00    -0.000 C 
BRANCH  16  17
ATOM     17  C   UNL     1      44.406  61.860  26.376  1.00  0.00    -0.000 C 
BRANCH  17  18
ATOM     18  C   UNL     1      45.637  62.253  25.546  1.00  0.00    -0.003 C 
ATOM     19  C   UNL     1      46.601  63.107  26.364  1.00  0.00     0.004 C 
ENDBRANCH  17  18
ENDBRANCH  16  17
ENDBRANCH  15  16
ENDBRANCH  14  15
ENDBRANCH  13  14
ENDBRANCH  12  13
ENDBRANCH   1  12
TORSDOF 14
ENDMDL
MODEL 6
REMARK VINA RESULT:    -4.848      5.390      9.008
REMARK INTER + INTRA:          -9.678
REMARK INTER:                  -8.794
REMARK INTRA:                  -0.884
REMARK UNBOUND:                -0.862
REMARK SMILES CCCCCCCCCCCCCC[C@H](C)C(=O)[O-]
REMARK SMILES IDX 9 1 10 2 11 3 12 4 13 5 14 6 15 7 16 8 17 9 18 10 19 11 8 12
REMARK SMILES IDX 7 13 6 14 5 15 4 16 3 17 2 18 1 19
REMARK H PARENT
REMARK Flexibility Score: inf
ROOT
ATOM      1  C   UNL     1      40.173  66.770  25.500  1.00  0.00     0.000 C 
ENDROOT
BRANCH   1   2
ATOM      2  C   UNL     1      39.340  66.734  24.206  1.00  0.00     0.000 C 
BRANCH   2   3
ATOM      3  C   UNL     1      38.005  67.488  24.335  1.00  0.00     0.000 C 
BRANCH   3   4
ATOM      4  C   UNL     1      37.315  67.360  25.709  1.00  0.00     0.000 C 
BRANCH   4   5
ATOM      5  C   UNL     1      35.814  67.703  25.723  1.00  0.00     0.001 C 
BRANCH   5   6
ATOM      6  C   UNL     1      34.911  66.719  26.501  1.00  0.00     0.009 C 
BRANCH   6   7
ATOM      7  C   UNL     1      34.924  65.239  26.039  1.00  0.00     0.032 C 
ATOM      8  C   UNL     1      33.842  64.925  24.994  1.00  0.00     0.014 C 
BRANCH   7   9
ATOM      9  C   UNL     1      34.897  64.272  27.195  1.00  0.00     0.044 C 
ATOM     10  O   UNL     1      34.939  64.710  28.375  1.00  0.00    -0.550 OA
ATOM     11  O   UNL     1      34.849  62.898  26.984  1.00  0.00    -0.550 OA
ENDBRANCH   7   9
ENDBRANCH   6   7
ENDBRANCH   5   6
ENDBRANCH   4   5
ENDBRANCH   3   4
ENDBRANCH   2   3
ENDBRANCH   1   2
BRANCH   1  12
ATOM     12  C   UNL     1      41.524  67.475  25.311  1.00  0.00     0.000 C 
BRANCH  12  13
ATOM     13  C   UNL     1      41.730  67.974  23.870  1.00  0.00    -0.000 C 
BRANCH  13  14
ATOM     14  C   UNL     1      42.962  68.886  23.724  1.00  0.00    -0.000 C 
BRANCH  14  15
ATOM     15  C   UNL     1      43.205  69.837  24.910  1.00  0.00    -0.000 C 
BRANCH  15  16
ATOM     16  C   UNL     1      44.297  70.883  24.623  1.00  0.00    -0.000 C 
BRANCH  16  17
ATOM     17  C   UNL     1      43.938  72.274  25.168  1.00  0.00    -0.000 C 
BRANCH  17  18
ATOM     18  C   UNL     1      42.836  72.962  24.349  1.00  0.00    -0.003 C 
ATOM     19  C   UNL     1      41.760  73.546  25.259  1.00  0.00     0.004 C 
ENDBRANCH  17  18
ENDBRANCH  16  17
ENDBRANCH  15  16
ENDBRANCH  14  15
ENDBRANCH  13  14
ENDBRANCH  12  13
ENDBRANCH   1  12
TORSDOF 14
ENDMDL
MODEL 7
REMARK VINA RESULT:    -4.846      1.052      2.572
REMARK INTER + INTRA:          -9.675
REMARK INTER:                  -9.009
REMARK INTRA:                  -0.666
REMARK UNBOUND:                -0.862
REMARK SMILES CCCCCCCCCCCCCC[C@H](C)C(=O)[O-]
REMARK SMILES IDX 9 1 10 2 11 3 12 4 13 5 14 6 15 7 16 8 17 9 18 10 19 11 8 12
REMARK SMILES IDX 7 13 6 14 5 15 4 16 3 17 2 18 1 19
REMARK H PARENT
REMARK Flexibility Score: inf
ROOT
ATOM      1  C   UNL     1      39.157  67.043  24.583  1.00  0.00     0.000 C 
ENDROOT
BRANCH   1   2
ATOM      2  C   UNL     1      39.752  66.701  23.206  1.00  0.00     0.000 C 
BRANCH   2   3
ATOM      3  C   UNL     1      41.087  65.944  23.303  1.00  0.00     0.000 C 
BRANCH   3   4
ATOM      4  C   UNL     1      41.382  65.317  24.682  1.00  0.00     0.000 C 
BRANCH   4   5
ATOM      5  C   UNL     1      41.914  63.873  24.647  1.00  0.00     0.001 C 
BRANCH   5   6
ATOM      6  C   UNL     1      42.755  63.441  25.869  1.00  0.00     0.009 C 
BRANCH   6   7
ATOM      7  C   UNL     1      43.469  62.067  25.779  1.00  0.00     0.032 C 
ATOM      8  C   UNL     1      42.949  61.050  26.807  1.00  0.00     0.014 C 
BRANCH   7   9
ATOM      9  C   UNL     1      44.970  62.193  25.811  1.00  0.00     0.044 C 
ATOM     10  O   UNL     1      45.642  61.908  24.784  1.00  0.00    -0.550 OA
ATOM     11  O   UNL     1      45.635  62.599  26.963  1.00  0.00    -0.550 OA
ENDBRANCH   7   9
ENDBRANCH   6   7
ENDBRANCH   5   6
ENDBRANCH   4   5
ENDBRANCH   3   4
ENDBRANCH   2   3
ENDBRANCH   1   2
BRANCH   1  12
ATOM     12  C   UNL     1      37.675  67.436  24.503  1.00  0.00     0.000 C 
BRANCH  12  13
ATOM     13  C   UNL     1      36.995  67.449  25.883  1.00  0.00    -0.000 C 
BRANCH  13  14
ATOM     14  C   UNL     1      35.457  67.435  25.792  1.00  0.00    -0.000 C 
BRANCH  14  15
ATOM     15  C   UNL     1      34.778  66.266  26.527  1.00  0.00    -0.000 C 
BRANCH  15  16
ATOM     16  C   UNL     1      34.371  65.121  25.583  1.00  0.00    -0.000 C 
BRANCH  16  17
ATOM     17  C   UNL     1      34.698  63.736  26.160  1.00  0.00    -0.000 C 
BRANCH  17  18
ATOM     18  C   UNL     1      34.967  63.775  27.672  1.00  0.00    -0.003 C 
ATOM     19  C   UNL     1      34.159  62.706  28.401  1.00  0.00     0.004 C 
ENDBRANCH  17  18
ENDBRANCH  16  17
ENDBRANCH  15  16
ENDBRANCH  14  15
ENDBRANCH  13  14
ENDBRANCH  12  13
ENDBRANCH   1  12
TORSDOF 14
ENDMDL
MODEL 8
REMARK VINA RESULT:    -4.808      4.064      5.952
REMARK INTER + INTRA:          -9.604
REMARK INTER:                  -8.769
REMARK INTRA:                  -0.835
REMARK UNBOUND:                -0.862
REMARK SMILES CCCCCCCCCCCCCC[C@H](C)C(=O)[O-]
REMARK SMILES IDX 9 1 10 2 11 3 12 4 13 5 14 6 15 7 16 8 17 9 18 10 19 11 8 12
REMARK SMILES IDX 7 13 6 14 5 15 4 16 3 17 2 18 1 19
REMARK H PARENT
REMARK Flexibility Score: inf
ROOT
ATOM      1  C   UNL     1      41.652  67.791  23.769  1.00  0.00     0.000 C 
ENDROOT
BRANCH   1   2
ATOM      2  C   UNL     1      41.377  67.486  25.252  1.00  0.00     0.000 C 
BRANCH   2   3
ATOM      3  C   UNL     1      41.264  65.979  25.541  1.00  0.00     0.000 C 
BRANCH   3   4
ATOM      4  C   UNL     1      41.484  65.063  24.318  1.00  0.00     0.000 C 
BRANCH   4   5
ATOM      5  C   UNL     1      41.830  63.600  24.648  1.00  0.00     0.001 C 
BRANCH   5   6
ATOM      6  C   UNL     1      42.898  63.397  25.745  1.00  0.00     0.009 C 
BRANCH   6   7
ATOM      7  C   UNL     1      43.638  62.034  25.761  1.00  0.00     0.032 C 
ATOM      8  C   UNL     1      43.112  61.075  26.840  1.00  0.00     0.014 C 
BRANCH   7   9
ATOM      9  C   UNL     1      45.136  62.190  25.820  1.00  0.00     0.044 C 
ATOM     10  O   UNL     1      45.678  62.617  26.873  1.00  0.00    -0.550 OA
ATOM     11  O   UNL     1      45.935  61.890  24.721  1.00  0.00    -0.550 OA
ENDBRANCH   7   9
ENDBRANCH   6   7
ENDBRANCH   5   6
ENDBRANCH   4   5
ENDBRANCH   3   4
ENDBRANCH   2   3
ENDBRANCH   1   2
BRANCH   1  12
ATOM     12  C   UNL     1      42.806  68.785  23.577  1.00  0.00     0.000 C 
BRANCH  12  13
ATOM     13  C   UNL     1      43.011  69.692  24.803  1.00  0.00    -0.000 C 
BRANCH  13  14
ATOM     14  C   UNL     1      44.375  70.406  24.798  1.00  0.00    -0.000 C 
BRANCH  14  15
ATOM     15  C   UNL     1      44.300  71.941  24.710  1.00  0.00    -0.000 C 
BRANCH  15  16
ATOM     16  C   UNL     1      42.933  72.498  25.145  1.00  0.00    -0.000 C 
BRANCH  16  17
ATOM     17  C   UNL     1      42.309  73.421  24.088  1.00  0.00    -0.000 C 
BRANCH  17  18
ATOM     18  C   UNL     1      41.021  74.097  24.581  1.00  0.00    -0.003 C 
ATOM     19  C   UNL     1      40.988  74.167  26.104  1.00  0.00     0.004 C 
ENDBRANCH  17  18
ENDBRANCH  16  17
ENDBRANCH  15  16
ENDBRANCH  14  15
ENDBRANCH  13  14
ENDBRANCH  12  13
ENDBRANCH   1  12
TORSDOF 14
ENDMDL
MODEL 9
REMARK VINA RESULT:    -4.758      4.009      9.250
REMARK INTER + INTRA:          -9.515
REMARK INTER:                  -8.637
REMARK INTRA:                  -0.878
REMARK UNBOUND:                -0.862
REMARK SMILES CCCCCCCCCCCCCC[C@H](C)C(=O)[O-]
REMARK SMILES IDX 9 1 10 2 11 3 12 4 13 5 14 6 15 7 16 8 17 9 18 10 19 11 8 12
REMARK SMILES IDX 7 13 6 14 5 15 4 16 3 17 2 18 1 19
REMARK H PARENT
REMARK Flexibility Score: inf
ROOT
ATOM      1  C   UNL     1      41.392  65.592  25.686  1.00  0.00     0.000 C 
ENDROOT
BRANCH   1   2
ATOM      2  C   UNL     1      40.934  67.032  25.393  1.00  0.00     0.000 C 
BRANCH   2   3
ATOM      3  C   UNL     1      40.367  67.201  23.973  1.00  0.00     0.000 C 
BRANCH   3   4
ATOM      4  C   UNL     1      38.891  66.784  23.807  1.00  0.00     0.000 C 
BRANCH   4   5
ATOM      5  C   UNL     1      37.880  67.607  24.625  1.00  0.00     0.001 C 
BRANCH   5   6
ATOM      6  C   UNL     1      37.090  66.823  25.697  1.00  0.00     0.009 C 
BRANCH   6   7
ATOM      7  C   UNL     1      35.546  66.970  25.679  1.00  0.00     0.032 C 
ATOM      8  C   UNL     1      35.044  68.150  26.525  1.00  0.00     0.014 C 
BRANCH   7   9
ATOM      9  C   UNL     1      34.839  65.683  26.019  1.00  0.00     0.044 C 
ATOM     10  O   UNL     1      33.931  65.251  25.261  1.00  0.00    -0.550 OA
ATOM     11  O   UNL     1      35.157  64.969  27.170  1.00  0.00    -0.550 OA
ENDBRANCH   7   9
ENDBRANCH   6   7
ENDBRANCH   5   6
ENDBRANCH   4   5
ENDBRANCH   3   4
ENDBRANCH   2   3
ENDBRANCH   1   2
BRANCH   1  12
ATOM     12  C   UNL     1      41.717  64.807  24.407  1.00  0.00     0.000 C 
BRANCH  12  13
ATOM     13  C   UNL     1      41.926  63.306  24.675  1.00  0.00    -0.000 C 
BRANCH  13  14
ATOM     14  C   UNL     1      42.590  63.029  26.037  1.00  0.00    -0.000 C 
BRANCH  14  15
ATOM     15  C   UNL     1      43.248  61.643  26.164  1.00  0.00    -0.000 C 
BRANCH  15  16
ATOM     16  C   UNL     1      44.760  61.722  26.438  1.00  0.00    -0.000 C 
BRANCH  16  17
ATOM     17  C   UNL     1      45.549  62.269  25.238  1.00  0.00    -0.000 C 
BRANCH  17  18
ATOM     18  C   UNL     1      46.841  62.985  25.660  1.00  0.00    -0.003 C 
ATOM     19  C   UNL     1      46.792  63.383  27.132  1.00  0.00     0.004 C 
ENDBRANCH  17  18
ENDBRANCH  16  17
ENDBRANCH  15  16
ENDBRANCH  14  15
ENDBRANCH  13  14
ENDBRANCH  12  13
ENDBRANCH   1  12
TORSDOF 14
ENDMDL
