MODEL 1
REMARK VINA RESULT:    -7.817      0.000      0.000
REMARK INTER + INTRA:          -9.876
REMARK INTER:                  -9.646
REMARK INTRA:                  -0.230
REMARK UNBOUND:                -0.230
REMARK SMILES O=c1c(O)c(-c2cc(O)c(O)c(O)c2)oc2cc(O)cc(O)c12
REMARK SMILES IDX 5 1 3 2 2 3 1 4 23 5 21 6 20 7 18 8 17 9 16 10 15 11 6 12
REMARK SMILES IDX 7 13 8 14 14 15 10 16 12 17 9 18 11 20 13 22 4 24 22 26
REMARK SMILES IDX 19 28
REMARK H PARENT 9 19 11 21 13 23 4 25 22 27 19 29
REMARK Flexibility Score: inf
ROOT
ATOM      1  C   UNL     1      17.133 184.643  14.646  1.00  0.00     0.180 A 
ATOM      2  C   UNL     1      17.909 185.795  14.439  1.00  0.00     0.208 A 
ATOM      3  C   UNL     1      18.285 186.136  13.129  1.00  0.00     0.238 A 
ATOM      4  O   UNL     1      18.935 187.199  12.945  1.00  0.00    -0.285 OA
ATOM      5  C   UNL     1      17.895 185.312  12.046  1.00  0.00     0.111 A 
ATOM      6  C   UNL     1      18.255 185.540  10.684  1.00  0.00     0.134 A 
ATOM      7  C   UNL     1      17.703 184.733   9.681  1.00  0.00     0.093 A 
ATOM      8  C   UNL     1      16.860 183.668   9.995  1.00  0.00     0.123 A 
ATOM      9  C   UNL     1      16.550 183.399  11.328  1.00  0.00     0.094 A 
ATOM     10  C   UNL     1      17.055 184.210  12.349  1.00  0.00     0.146 A 
ATOM     11  O   UNL     1      16.727 183.926  13.604  1.00  0.00    -0.452 OA
ENDROOT
BRANCH   1  12
ATOM     12  C   UNL     1      16.719 184.205  15.999  1.00  0.00     0.029 A 
ATOM     13  C   UNL     1      15.353 184.154  16.319  1.00  0.00     0.062 A 
ATOM     14  C   UNL     1      14.934 183.723  17.586  1.00  0.00     0.162 A 
ATOM     15  C   UNL     1      17.662 183.784  16.952  1.00  0.00     0.062 A 
ATOM     16  C   UNL     1      15.880 183.325  18.539  1.00  0.00     0.200 A 
ATOM     17  C   UNL     1      17.248 183.351  18.220  1.00  0.00     0.162 A 
BRANCH  14  18
ATOM     18  O   UNL     1      13.578 183.687  17.905  1.00  0.00    -0.504 OA
ATOM     19  H   UNL     1      13.184 182.941  18.466  1.00  0.00     0.293 HD
ENDBRANCH  14  18
BRANCH  16  20
ATOM     20  O   UNL     1      15.445 182.902  19.795  1.00  0.00    -0.502 OA
ATOM     21  H   UNL     1      16.090 182.595  20.514  1.00  0.00     0.293 HD
ENDBRANCH  16  20
BRANCH  17  22
ATOM     22  O   UNL     1      18.192 182.942  19.160  1.00  0.00    -0.504 OA
ATOM     23  H   UNL     1      19.182 182.918  18.944  1.00  0.00     0.293 HD
ENDBRANCH  17  22
ENDBRANCH   1  12
BRANCH   2  24
ATOM     24  O   UNL     1      18.265 186.607  15.518  1.00  0.00    -0.502 OA
ATOM     25  H   UNL     1      17.672 186.724  16.331  1.00  0.00     0.293 HD
ENDBRANCH   2  24
BRANCH   6  26
ATOM     26  O   UNL     1      19.162 186.520  10.269  1.00  0.00    -0.507 OA
ATOM     27  H   UNL     1      19.129 187.488  10.551  1.00  0.00     0.293 HD
ENDBRANCH   6  26
BRANCH   8  28
ATOM     28  O   UNL     1      16.343 182.876   8.971  1.00  0.00    -0.508 OA
ATOM     29  H   UNL     1      16.351 183.186   8.006  1.00  0.00     0.293 HD
ENDBRANCH   8  28
TORSDOF 7
ENDMDL
MODEL 2
REMARK VINA RESULT:    -7.754      0.095      1.751
REMARK INTER + INTRA:          -9.797
REMARK INTER:                  -9.614
REMARK INTRA:                  -0.182
REMARK UNBOUND:                -0.230
REMARK SMILES O=c1c(O)c(-c2cc(O)c(O)c(O)c2)oc2cc(O)cc(O)c12
REMARK SMILES IDX 5 1 3 2 2 3 1 4 23 5 21 6 20 7 18 8 17 9 16 10 15 11 6 12
REMARK SMILES IDX 7 13 8 14 14 15 10 16 12 17 9 18 11 20 13 22 4 24 22 26
REMARK SMILES IDX 19 28
REMARK H PARENT 9 19 11 21 13 23 4 25 22 27 19 29
REMARK Flexibility Score: inf
ROOT
ATOM      1  C   UNL     1      17.140 184.593  14.691  1.00  0.00     0.180 A 
ATOM      2  C   UNL     1      17.913 185.752  14.510  1.00  0.00     0.208 A 
ATOM      3  C   UNL     1      18.299 186.117  13.209  1.00  0.00     0.238 A 
ATOM      4  O   UNL     1      18.946 187.185  13.048  1.00  0.00    -0.285 OA
ATOM      5  C   UNL     1      17.920 185.309  12.109  1.00  0.00     0.111 A 
ATOM      6  C   UNL     1      18.290 185.562  10.754  1.00  0.00     0.134 A 
ATOM      7  C   UNL     1      17.749 184.770   9.733  1.00  0.00     0.093 A 
ATOM      8  C   UNL     1      16.908 183.698  10.022  1.00  0.00     0.123 A 
ATOM      9  C   UNL     1      16.589 183.405  11.348  1.00  0.00     0.094 A 
ATOM     10  C   UNL     1      17.082 184.199  12.386  1.00  0.00     0.146 A 
ATOM     11  O   UNL     1      16.745 183.893  13.634  1.00  0.00    -0.452 OA
ENDROOT
BRANCH   1  12
ATOM     12  C   UNL     1      16.717 184.131  16.033  1.00  0.00     0.029 A 
ATOM     13  C   UNL     1      17.689 183.752  16.971  1.00  0.00     0.062 A 
ATOM     14  C   UNL     1      17.316 183.330  18.255  1.00  0.00     0.162 A 
ATOM     15  C   UNL     1      15.363 184.118  16.408  1.00  0.00     0.062 A 
ATOM     16  C   UNL     1      15.963 183.300  18.616  1.00  0.00     0.200 A 
ATOM     17  C   UNL     1      14.983 183.699  17.692  1.00  0.00     0.162 A 
BRANCH  14  18
ATOM     18  O   UNL     1      18.285 182.941  19.178  1.00  0.00    -0.504 OA
ATOM     19  H   UNL     1      18.735 183.613  19.790  1.00  0.00     0.293 HD
ENDBRANCH  14  18
BRANCH  16  20
ATOM     20  O   UNL     1      15.610 182.875  19.897  1.00  0.00    -0.502 OA
ATOM     21  H   UNL     1      15.968 182.016  20.298  1.00  0.00     0.293 HD
ENDBRANCH  16  20
BRANCH  17  22
ATOM     22  O   UNL     1      13.637 183.684  18.052  1.00  0.00    -0.504 OA
ATOM     23  H   UNL     1      13.278 184.273  18.794  1.00  0.00     0.293 HD
ENDBRANCH  17  22
ENDBRANCH   1  12
BRANCH   2  24
ATOM     24  O   UNL     1      18.258 186.546  15.606  1.00  0.00    -0.502 OA
ATOM     25  H   UNL     1      18.765 186.183  16.404  1.00  0.00     0.293 HD
ENDBRANCH   2  24
BRANCH   6  26
ATOM     26  O   UNL     1      19.196 186.552  10.363  1.00  0.00    -0.507 OA
ATOM     27  H   UNL     1      19.113 187.108   9.525  1.00  0.00     0.293 HD
ENDBRANCH   6  26
BRANCH   8  28
ATOM     28  O   UNL     1      16.401 182.921   8.981  1.00  0.00    -0.508 OA
ATOM     29  H   UNL     1      15.625 183.239   8.412  1.00  0.00     0.293 HD
ENDBRANCH   8  28
TORSDOF 7
ENDMDL
MODEL 3
REMARK VINA RESULT:    -6.165      1.359      7.412
REMARK INTER + INTRA:          -7.837
REMARK INTER:                  -7.568
REMARK INTRA:                  -0.270
REMARK UNBOUND:                -0.230
REMARK SMILES O=c1c(O)c(-c2cc(O)c(O)c(O)c2)oc2cc(O)cc(O)c12
REMARK SMILES IDX 5 1 3 2 2 3 1 4 23 5 21 6 20 7 18 8 17 9 16 10 15 11 6 12
REMARK SMILES IDX 7 13 8 14 14 15 10 16 12 17 9 18 11 20 13 22 4 24 22 26
REMARK SMILES IDX 19 28
REMARK H PARENT 9 19 11 21 13 23 4 25 22 27 19 29
REMARK Flexibility Score: inf
ROOT
ATOM      1  C   UNL     1      16.784 184.146  15.398  1.00  0.00     0.180 A 
ATOM      2  C   UNL     1      15.437 184.192  15.795  1.00  0.00     0.208 A 
ATOM      3  C   UNL     1      15.112 183.905  17.131  1.00  0.00     0.238 A 
ATOM      4  O   UNL     1      13.910 184.000  17.493  1.00  0.00    -0.285 OA
ATOM      5  C   UNL     1      16.134 183.560  18.048  1.00  0.00     0.111 A 
ATOM      6  C   UNL     1      15.913 183.212  19.414  1.00  0.00     0.134 A 
ATOM      7  C   UNL     1      17.011 183.016  20.262  1.00  0.00     0.093 A 
ATOM      8  C   UNL     1      18.317 183.093  19.779  1.00  0.00     0.123 A 
ATOM      9  C   UNL     1      18.542 183.373  18.431  1.00  0.00     0.094 A 
ATOM     10  C   UNL     1      17.469 183.610  17.569  1.00  0.00     0.146 A 
ATOM     11  O   UNL     1      17.727 183.885  16.296  1.00  0.00    -0.452 OA
ENDROOT
BRANCH   1  12
ATOM     12  C   UNL     1      17.203 184.412  14.002  1.00  0.00     0.029 A 
ATOM     13  C   UNL     1      17.967 185.554  13.716  1.00  0.00     0.062 A 
ATOM     14  C   UNL     1      18.393 185.817  12.407  1.00  0.00     0.162 A 
ATOM     15  C   UNL     1      16.900 183.514  12.965  1.00  0.00     0.062 A 
ATOM     16  C   UNL     1      18.071 184.928  11.374  1.00  0.00     0.200 A 
ATOM     17  C   UNL     1      17.326 183.771  11.653  1.00  0.00     0.162 A 
BRANCH  14  18
ATOM     18  O   UNL     1      19.140 186.960  12.125  1.00  0.00    -0.504 OA
ATOM     19  H   UNL     1      20.152 186.936  12.086  1.00  0.00     0.293 HD
ENDBRANCH  14  18
BRANCH  16  20
ATOM     20  O   UNL     1      18.502 185.208  10.076  1.00  0.00    -0.502 OA
ATOM     21  H   UNL     1      17.869 185.544   9.359  1.00  0.00     0.293 HD
ENDBRANCH  16  20
BRANCH  17  22
ATOM     22  O   UNL     1      17.014 182.877  10.630  1.00  0.00    -0.504 OA
ATOM     23  H   UNL     1      17.131 181.877  10.744  1.00  0.00     0.293 HD
ENDBRANCH  17  22
ENDBRANCH   1  12
BRANCH   2  24
ATOM     24  O   UNL     1      14.446 184.556  14.880  1.00  0.00    -0.502 OA
ATOM     25  H   UNL     1      13.474 184.665  15.145  1.00  0.00     0.293 HD
ENDBRANCH   2  24
BRANCH   6  26
ATOM     26  O   UNL     1      14.648 183.020  19.977  1.00  0.00    -0.507 OA
ATOM     27  H   UNL     1      14.014 183.763  20.229  1.00  0.00     0.293 HD
ENDBRANCH   6  26
BRANCH   8  28
ATOM     28  O   UNL     1      19.385 182.876  20.649  1.00  0.00    -0.508 OA
ATOM     29  H   UNL     1      19.719 183.606  21.268  1.00  0.00     0.293 HD
ENDBRANCH   8  28
TORSDOF 7
ENDMDL
MODEL 4
REMARK VINA RESULT:    -5.504      2.729      8.172
REMARK INTER + INTRA:          -7.021
REMARK INTER:                  -7.302
REMARK INTRA:                   0.281
REMARK UNBOUND:                -0.230
REMARK SMILES O=c1c(O)c(-c2cc(O)c(O)c(O)c2)oc2cc(O)cc(O)c12
REMARK SMILES IDX 5 1 3 2 2 3 1 4 23 5 21 6 20 7 18 8 17 9 16 10 15 11 6 12
REMARK SMILES IDX 7 13 8 14 14 15 10 16 12 17 9 18 11 20 13 22 4 24 22 26
REMARK SMILES IDX 19 28
REMARK H PARENT 9 19 11 21 13 23 4 25 22 27 19 29
REMARK Flexibility Score: inf
ROOT
ATOM      1  C   UNL     1      16.667 183.472  18.377  1.00  0.00     0.180 A 
ATOM      2  C   UNL     1      17.892 183.283  19.038  1.00  0.00     0.208 A 
ATOM      3  C   UNL     1      17.893 183.097  20.430  1.00  0.00     0.238 A 
ATOM      4  O   UNL     1      18.989 182.875  21.009  1.00  0.00    -0.285 OA
ATOM      5  C   UNL     1      16.671 183.120  21.145  1.00  0.00     0.111 A 
ATOM      6  C   UNL     1      16.559 182.983  22.561  1.00  0.00     0.134 A 
ATOM      7  C   UNL     1      15.290 182.889  23.146  1.00  0.00     0.093 A 
ATOM      8  C   UNL     1      14.132 182.992  22.377  1.00  0.00     0.123 A 
ATOM      9  C   UNL     1      14.231 183.187  20.999  1.00  0.00     0.094 A 
ATOM     10  C   UNL     1      15.483 183.248  20.381  1.00  0.00     0.146 A 
ATOM     11  O   UNL     1      15.532 183.423  19.065  1.00  0.00    -0.452 OA
ENDROOT
BRANCH   1  12
ATOM     12  C   UNL     1      16.587 183.699  16.915  1.00  0.00     0.029 A 
ATOM     13  C   UNL     1      15.548 184.485  16.395  1.00  0.00     0.062 A 
ATOM     14  C   UNL     1      15.462 184.733  15.017  1.00  0.00     0.162 A 
ATOM     15  C   UNL     1      17.565 183.192  16.042  1.00  0.00     0.062 A 
ATOM     16  C   UNL     1      16.428 184.206  14.150  1.00  0.00     0.200 A 
ATOM     17  C   UNL     1      17.485 183.437  14.664  1.00  0.00     0.162 A 
BRANCH  14  18
ATOM     18  O   UNL     1      14.420 185.502  14.503  1.00  0.00    -0.504 OA
ATOM     19  H   UNL     1      14.403 185.791  13.532  1.00  0.00     0.293 HD
ENDBRANCH  14  18
BRANCH  16  20
ATOM     20  O   UNL     1      16.325 184.460  12.781  1.00  0.00    -0.502 OA
ATOM     21  H   UNL     1      17.080 184.257  12.138  1.00  0.00     0.293 HD
ENDBRANCH  16  20
BRANCH  17  22
ATOM     22  O   UNL     1      18.455 182.923  13.805  1.00  0.00    -0.504 OA
ATOM     23  H   UNL     1      18.969 182.078  14.029  1.00  0.00     0.293 HD
ENDBRANCH  17  22
ENDBRANCH   1  12
BRANCH   2  24
ATOM     24  O   UNL     1      19.085 183.243  18.311  1.00  0.00    -0.502 OA
ATOM     25  H   UNL     1      19.717 184.032  18.257  1.00  0.00     0.293 HD
ENDBRANCH   2  24
BRANCH   6  26
ATOM     26  O   UNL     1      17.652 182.962  23.433  1.00  0.00    -0.507 OA
ATOM     27  H   UNL     1      18.470 183.544  23.341  1.00  0.00     0.293 HD
ENDBRANCH   6  26
BRANCH   8  28
ATOM     28  O   UNL     1      12.886 182.911  22.996  1.00  0.00    -0.508 OA
ATOM     29  H   UNL     1      12.099 183.464  22.676  1.00  0.00     0.293 HD
ENDBRANCH   8  28
TORSDOF 7
ENDMDL
MODEL 5
REMARK VINA RESULT:    -5.492      6.101      9.444
REMARK INTER + INTRA:          -7.007
REMARK INTER:                  -6.650
REMARK INTRA:                  -0.356
REMARK UNBOUND:                -0.230
REMARK SMILES O=c1c(O)c(-c2cc(O)c(O)c(O)c2)oc2cc(O)cc(O)c12
REMARK SMILES IDX 5 1 3 2 2 3 1 4 23 5 21 6 20 7 18 8 17 9 16 10 15 11 6 12
REMARK SMILES IDX 7 13 8 14 14 15 10 16 12 17 9 18 11 20 13 22 4 24 22 26
REMARK SMILES IDX 19 28
REMARK H PARENT 9 19 11 21 13 23 4 25 22 27 19 29
REMARK Flexibility Score: inf
ROOT
ATOM      1  C   UNL     1      15.741 184.341  23.336  1.00  0.00     0.180 A 
ATOM      2  C   UNL     1      14.822 183.769  22.440  1.00  0.00     0.208 A 
ATOM      3  C   UNL     1      15.250 183.436  21.145  1.00  0.00     0.238 A 
ATOM      4  O   UNL     1      14.437 182.875  20.365  1.00  0.00    -0.285 OA
ATOM      5  C   UNL     1      16.587 183.695  20.757  1.00  0.00     0.111 A 
ATOM      6  C   UNL     1      17.117 183.435  19.457  1.00  0.00     0.134 A 
ATOM      7  C   UNL     1      18.488 183.608  19.225  1.00  0.00     0.093 A 
ATOM      8  C   UNL     1      19.333 184.092  20.222  1.00  0.00     0.123 A 
ATOM      9  C   UNL     1      18.813 184.407  21.478  1.00  0.00     0.094 A 
ATOM     10  C   UNL     1      17.457 184.209  21.752  1.00  0.00     0.146 A 
ATOM     11  O   UNL     1      17.005 184.511  22.964  1.00  0.00    -0.452 OA
ENDROOT
BRANCH   1  12
ATOM     12  C   UNL     1      15.358 184.742  24.709  1.00  0.00     0.029 A 
ATOM     13  C   UNL     1      14.867 186.036  24.938  1.00  0.00     0.062 A 
ATOM     14  C   UNL     1      14.477 186.434  26.226  1.00  0.00     0.162 A 
ATOM     15  C   UNL     1      15.421 183.834  25.780  1.00  0.00     0.062 A 
ATOM     16  C   UNL     1      14.562 185.531  27.293  1.00  0.00     0.200 A 
ATOM     17  C   UNL     1      15.031 184.226  27.069  1.00  0.00     0.162 A 
BRANCH  14  18
ATOM     18  O   UNL     1      14.004 187.725  26.451  1.00  0.00    -0.504 OA
ATOM     19  H   UNL     1      13.164 188.068  25.999  1.00  0.00     0.293 HD
ENDBRANCH  14  18
BRANCH  16  20
ATOM     20  O   UNL     1      14.173 185.944  28.567  1.00  0.00    -0.502 OA
ATOM     21  H   UNL     1      13.268 186.364  28.744  1.00  0.00     0.293 HD
ENDBRANCH  16  20
BRANCH  17  22
ATOM     22  O   UNL     1      15.104 183.320  28.126  1.00  0.00    -0.504 OA
ATOM     23  H   UNL     1      14.281 183.046  28.650  1.00  0.00     0.293 HD
ENDBRANCH  17  22
ENDBRANCH   1  12
BRANCH   2  24
ATOM     24  O   UNL     1      13.513 183.503  22.851  1.00  0.00    -0.502 OA
ATOM     25  H   UNL     1      12.831 183.063  22.245  1.00  0.00     0.293 HD
ENDBRANCH   2  24
BRANCH   6  26
ATOM     26  O   UNL     1      16.344 183.035  18.363  1.00  0.00    -0.507 OA
ATOM     27  H   UNL     1      16.103 183.628  17.584  1.00  0.00     0.293 HD
ENDBRANCH   6  26
BRANCH   8  28
ATOM     28  O   UNL     1      20.688 184.267  19.949  1.00  0.00    -0.508 OA
ATOM     29  H   UNL     1      21.338 183.490  19.974  1.00  0.00     0.293 HD
ENDBRANCH   8  28
TORSDOF 7
ENDMDL
MODEL 6
REMARK VINA RESULT:    -5.385      2.645      8.272
REMARK INTER + INTRA:          -6.874
REMARK INTER:                  -7.119
REMARK INTRA:                   0.244
REMARK UNBOUND:                -0.230
REMARK SMILES O=c1c(O)c(-c2cc(O)c(O)c(O)c2)oc2cc(O)cc(O)c12
REMARK SMILES IDX 5 1 3 2 2 3 1 4 23 5 21 6 20 7 18 8 17 9 16 10 15 11 6 12
REMARK SMILES IDX 7 13 8 14 14 15 10 16 12 17 9 18 11 20 13 22 4 24 22 26
REMARK SMILES IDX 19 28
REMARK H PARENT 9 19 11 21 13 23 4 25 22 27 19 29
REMARK Flexibility Score: inf
ROOT
ATOM      1  C   UNL     1      16.749 183.608  18.309  1.00  0.00     0.180 A 
ATOM      2  C   UNL     1      17.963 183.386  18.980  1.00  0.00     0.208 A 
ATOM      3  C   UNL     1      17.942 183.152  20.365  1.00  0.00     0.238 A 
ATOM      4  O   UNL     1      19.027 182.901  20.951  1.00  0.00    -0.285 OA
ATOM      5  C   UNL     1      16.710 183.162  21.063  1.00  0.00     0.111 A 
ATOM      6  C   UNL     1      16.576 182.978  22.471  1.00  0.00     0.134 A 
ATOM      7  C   UNL     1      15.297 182.875  23.035  1.00  0.00     0.093 A 
ATOM      8  C   UNL     1      14.152 183.015  22.253  1.00  0.00     0.123 A 
ATOM      9  C   UNL     1      14.273 183.256  20.884  1.00  0.00     0.094 A 
ATOM     10  C   UNL     1      15.534 183.326  20.286  1.00  0.00     0.146 A 
ATOM     11  O   UNL     1      15.604 183.545  18.978  1.00  0.00    -0.452 OA
ENDROOT
BRANCH   1  12
ATOM     12  C   UNL     1      16.693 183.885  16.854  1.00  0.00     0.029 A 
ATOM     13  C   UNL     1      17.610 183.259  15.997  1.00  0.00     0.062 A 
ATOM     14  C   UNL     1      17.565 183.488  14.614  1.00  0.00     0.162 A 
ATOM     15  C   UNL     1      15.703 184.719  16.307  1.00  0.00     0.062 A 
ATOM     16  C   UNL     1      16.589 184.337  14.077  1.00  0.00     0.200 A 
ATOM     17  C   UNL     1      15.652 184.951  14.925  1.00  0.00     0.162 A 
BRANCH  14  18
ATOM     18  O   UNL     1      18.487 182.875  13.768  1.00  0.00    -0.504 OA
ATOM     19  H   UNL     1      18.270 182.010  13.285  1.00  0.00     0.293 HD
ENDBRANCH  14  18
BRANCH  16  20
ATOM     20  O   UNL     1      16.561 184.556  12.699  1.00  0.00    -0.502 OA
ATOM     21  H   UNL     1      15.693 184.597  12.178  1.00  0.00     0.293 HD
ENDBRANCH  16  20
BRANCH  17  22
ATOM     22  O   UNL     1      14.670 185.785  14.392  1.00  0.00    -0.504 OA
ATOM     23  H   UNL     1      14.343 185.680  13.439  1.00  0.00     0.293 HD
ENDBRANCH  17  22
ENDBRANCH   1  12
BRANCH   2  24
ATOM     24  O   UNL     1      19.166 183.359  18.269  1.00  0.00    -0.502 OA
ATOM     25  H   UNL     1      19.738 184.184  18.135  1.00  0.00     0.293 HD
ENDBRANCH   2  24
BRANCH   6  26
ATOM     26  O   UNL     1      17.655 182.917  23.358  1.00  0.00    -0.507 OA
ATOM     27  H   UNL     1      17.720 182.284  24.141  1.00  0.00     0.293 HD
ENDBRANCH   6  26
BRANCH   8  28
ATOM     28  O   UNL     1      12.896 182.923  22.850  1.00  0.00    -0.508 OA
ATOM     29  H   UNL     1      12.791 182.877  23.858  1.00  0.00     0.293 HD
ENDBRANCH   8  28
TORSDOF 7
ENDMDL
MODEL 7
REMARK VINA RESULT:    -5.372      2.424      8.021
REMARK INTER + INTRA:          -6.858
REMARK INTER:                  -6.879
REMARK INTRA:                   0.021
REMARK UNBOUND:                -0.230
REMARK SMILES O=c1c(O)c(-c2cc(O)c(O)c(O)c2)oc2cc(O)cc(O)c12
REMARK SMILES IDX 5 1 3 2 2 3 1 4 23 5 21 6 20 7 18 8 17 9 16 10 15 11 6 12
REMARK SMILES IDX 7 13 8 14 14 15 10 16 12 17 9 18 11 20 13 22 4 24 22 26
REMARK SMILES IDX 19 28
REMARK H PARENT 9 19 11 21 13 23 4 25 22 27 19 29
REMARK Flexibility Score: inf
ROOT
ATOM      1  C   UNL     1      16.532 183.889  17.835  1.00  0.00     0.180 A 
ATOM      2  C   UNL     1      15.349 183.646  18.553  1.00  0.00     0.208 A 
ATOM      3  C   UNL     1      15.422 183.465  19.944  1.00  0.00     0.238 A 
ATOM      4  O   UNL     1      14.353 183.301  20.589  1.00  0.00    -0.285 OA
ATOM      5  C   UNL     1      16.678 183.515  20.597  1.00  0.00     0.111 A 
ATOM      6  C   UNL     1      16.873 183.306  21.995  1.00  0.00     0.134 A 
ATOM      7  C   UNL     1      18.142 183.508  22.552  1.00  0.00     0.093 A 
ATOM      8  C   UNL     1      19.234 183.846  21.754  1.00  0.00     0.123 A 
ATOM      9  C   UNL     1      19.066 183.994  20.376  1.00  0.00     0.094 A 
ATOM     10  C   UNL     1      17.805 183.835  19.797  1.00  0.00     0.146 A 
ATOM     11  O   UNL     1      17.686 183.995  18.483  1.00  0.00    -0.452 OA
ENDROOT
BRANCH   1  12
ATOM     12  C   UNL     1      16.538 184.065  16.365  1.00  0.00     0.029 A 
ATOM     13  C   UNL     1      15.652 184.979  15.775  1.00  0.00     0.062 A 
ATOM     14  C   UNL     1      15.652 185.179  14.387  1.00  0.00     0.162 A 
ATOM     15  C   UNL     1      17.453 183.376  15.550  1.00  0.00     0.062 A 
ATOM     16  C   UNL     1      16.553 184.474  13.579  1.00  0.00     0.200 A 
ATOM     17  C   UNL     1      17.459 183.573  14.161  1.00  0.00     0.162 A 
BRANCH  14  18
ATOM     18  O   UNL     1      14.761 186.078  13.805  1.00  0.00    -0.504 OA
ATOM     19  H   UNL     1      14.870 187.080  13.914  1.00  0.00     0.293 HD
ENDBRANCH  14  18
BRANCH  16  20
ATOM     20  O   UNL     1      16.537 184.684  12.199  1.00  0.00    -0.502 OA
ATOM     21  H   UNL     1      15.772 184.366  11.615  1.00  0.00     0.293 HD
ENDBRANCH  16  20
BRANCH  17  22
ATOM     22  O   UNL     1      18.366 182.879  13.362  1.00  0.00    -0.504 OA
ATOM     23  H   UNL     1      19.036 182.230  13.758  1.00  0.00     0.293 HD
ENDBRANCH  17  22
ENDBRANCH   1  12
BRANCH   2  24
ATOM     24  O   UNL     1      14.118 183.622  17.894  1.00  0.00    -0.502 OA
ATOM     25  H   UNL     1      13.663 182.760  17.618  1.00  0.00     0.293 HD
ENDBRANCH   2  24
BRANCH   6  26
ATOM     26  O   UNL     1      15.869 182.877  22.868  1.00  0.00    -0.507 OA
ATOM     27  H   UNL     1      14.881 183.021  22.722  1.00  0.00     0.293 HD
ENDBRANCH   6  26
BRANCH   8  28
ATOM     28  O   UNL     1      20.486 184.024  22.340  1.00  0.00    -0.508 OA
ATOM     29  H   UNL     1      20.794 183.448  23.115  1.00  0.00     0.293 HD
ENDBRANCH   8  28
TORSDOF 7
ENDMDL
MODEL 8
REMARK VINA RESULT:    -5.096      5.942      9.198
REMARK INTER + INTRA:          -6.518
REMARK INTER:                  -6.158
REMARK INTRA:                  -0.360
REMARK UNBOUND:                -0.230
REMARK SMILES O=c1c(O)c(-c2cc(O)c(O)c(O)c2)oc2cc(O)cc(O)c12
REMARK SMILES IDX 5 1 3 2 2 3 1 4 23 5 21 6 20 7 18 8 17 9 16 10 15 11 6 12
REMARK SMILES IDX 7 13 8 14 14 15 10 16 12 17 9 18 11 20 13 22 4 24 22 26
REMARK SMILES IDX 19 28
REMARK H PARENT 9 19 11 21 13 23 4 25 22 27 19 29
REMARK Flexibility Score: inf
ROOT
ATOM      1  C   UNL     1      17.166 184.974  23.619  1.00  0.00     0.180 A 
ATOM      2  C   UNL     1      18.539 185.270  23.572  1.00  0.00     0.208 A 
ATOM      3  C   UNL     1      19.259 184.975  22.403  1.00  0.00     0.238 A 
ATOM      4  O   UNL     1      20.476 185.292  22.347  1.00  0.00    -0.285 OA
ATOM      5  C   UNL     1      18.601 184.371  21.303  1.00  0.00     0.111 A 
ATOM      6  C   UNL     1      19.242 183.992  20.086  1.00  0.00     0.134 A 
ATOM      7  C   UNL     1      18.468 183.523  19.017  1.00  0.00     0.093 A 
ATOM      8  C   UNL     1      17.090 183.359  19.142  1.00  0.00     0.123 A 
ATOM      9  C   UNL     1      16.462 183.670  20.349  1.00  0.00     0.094 A 
ATOM     10  C   UNL     1      17.202 184.175  21.421  1.00  0.00     0.146 A 
ATOM     11  O   UNL     1      16.564 184.469  22.549  1.00  0.00    -0.452 OA
ENDROOT
BRANCH   1  12
ATOM     12  C   UNL     1      16.346 185.233  24.825  1.00  0.00     0.029 A 
ATOM     13  C   UNL     1      15.557 186.392  24.886  1.00  0.00     0.062 A 
ATOM     14  C   UNL     1      14.755 186.650  26.007  1.00  0.00     0.162 A 
ATOM     15  C   UNL     1      16.296 184.314  25.887  1.00  0.00     0.062 A 
ATOM     16  C   UNL     1      14.726 185.740  27.072  1.00  0.00     0.200 A 
ATOM     17  C   UNL     1      15.495 184.566  27.010  1.00  0.00     0.162 A 
BRANCH  14  18
ATOM     18  O   UNL     1      13.984 187.809  26.070  1.00  0.00    -0.504 OA
ATOM     19  H   UNL     1      14.119 188.498  26.801  1.00  0.00     0.293 HD
ENDBRANCH  14  18
BRANCH  16  20
ATOM     20  O   UNL     1      13.924 186.015  28.181  1.00  0.00    -0.502 OA
ATOM     21  H   UNL     1      14.072 186.832  28.762  1.00  0.00     0.293 HD
ENDBRANCH  16  20
BRANCH  17  22
ATOM     22  O   UNL     1      15.458 183.652  28.061  1.00  0.00    -0.504 OA
ATOM     23  H   UNL     1      16.305 183.326  28.513  1.00  0.00     0.293 HD
ENDBRANCH  17  22
ENDBRANCH   1  12
BRANCH   2  24
ATOM     24  O   UNL     1      19.164 185.885  24.659  1.00  0.00    -0.502 OA
ATOM     25  H   UNL     1      19.637 186.778  24.583  1.00  0.00     0.293 HD
ENDBRANCH   2  24
BRANCH   6  26
ATOM     26  O   UNL     1      20.625 184.030  19.885  1.00  0.00    -0.507 OA
ATOM     27  H   UNL     1      21.314 183.900  20.611  1.00  0.00     0.293 HD
ENDBRANCH   6  26
BRANCH   8  28
ATOM     28  O   UNL     1      16.353 182.875  18.062  1.00  0.00    -0.508 OA
ATOM     29  H   UNL     1      16.590 183.120  17.107  1.00  0.00     0.293 HD
ENDBRANCH   8  28
TORSDOF 7
ENDMDL
