MODEL 1
REMARK VINA RESULT:    -4.165      0.000      0.000
REMARK INTER + INTRA:          -5.697
REMARK INTER:                  -5.139
REMARK INTRA:                  -0.558
REMARK UNBOUND:                -0.558
REMARK SMILES C=CC(=C)CCC=C(C)C
REMARK SMILES IDX 5 1 6 2 7 3 9 4 8 5 10 6 3 7 4 8 2 9 1 10
REMARK H PARENT
REMARK Flexibility Score: inf
ROOT
ATOM      1  C   UNL     1      28.749  23.393  13.690  1.00  0.00     0.039 C 
ENDROOT
BRANCH   1   2
ATOM      2  C   UNL     1      28.192  23.800  12.317  1.00  0.00     0.032 C 
BRANCH   2   3
ATOM      3  C   UNL     1      27.899  25.279  12.246  1.00  0.00    -0.028 C 
ATOM      4  C   UNL     1      29.961  25.796  10.922  1.00  0.00     0.039 C 
ATOM      5  C   UNL     1      28.698  26.191  11.649  1.00  0.00    -0.080 C 
ATOM      6  C   UNL     1      28.294  27.643  11.702  1.00  0.00     0.039 C 
ENDBRANCH   2   3
ENDBRANCH   1   2
BRANCH   1   7
ATOM      7  C   UNL     1      30.203  22.971  13.610  1.00  0.00    -0.055 C 
ATOM      8  C   UNL     1      31.156  23.860  13.915  1.00  0.00     0.012 C 
BRANCH   7   9
ATOM      9  C   UNL     1      30.609  21.589  13.242  1.00  0.00    -0.005 C 
ATOM     10  C   UNL     1      30.343  20.512  13.981  1.00  0.00     0.009 C 
ENDBRANCH   7   9
ENDBRANCH   1   7
TORSDOF 4
ENDMDL
MODEL 2
REMARK VINA RESULT:    -4.130      1.363      3.085
REMARK INTER + INTRA:          -5.654
REMARK INTER:                  -5.127
REMARK INTRA:                  -0.527
REMARK UNBOUND:                -0.558
REMARK SMILES C=CC(=C)CCC=C(C)C
REMARK SMILES IDX 5 1 6 2 7 3 9 4 8 5 10 6 3 7 4 8 2 9 1 10
REMARK H PARENT
REMARK Flexibility Score: inf
ROOT
ATOM      1  C   UNL     1      30.353  24.650  11.892  1.00  0.00     0.039 C 
ENDROOT
BRANCH   1   2
ATOM      2  C   UNL     1      29.810  25.650  10.861  1.00  0.00     0.032 C 
BRANCH   2   3
ATOM      3  C   UNL     1      30.289  27.055  11.135  1.00  0.00    -0.028 C 
ATOM      4  C   UNL     1      27.997  27.916  11.659  1.00  0.00     0.039 C 
ATOM      5  C   UNL     1      29.484  28.089  11.465  1.00  0.00    -0.080 C 
ATOM      6  C   UNL     1      30.106  29.449  11.662  1.00  0.00     0.039 C 
ENDBRANCH   2   3
ENDBRANCH   1   2
BRANCH   1   7
ATOM      7  C   UNL     1      29.238  23.925  12.620  1.00  0.00    -0.055 C 
ATOM      8  C   UNL     1      29.535  22.850  13.361  1.00  0.00     0.012 C 
BRANCH   7   9
ATOM      9  C   UNL     1      27.827  24.390  12.574  1.00  0.00    -0.005 C 
ATOM     10  C   UNL     1      26.856  23.764  11.909  1.00  0.00     0.009 C 
ENDBRANCH   7   9
ENDBRANCH   1   7
TORSDOF 4
ENDMDL
MODEL 3
REMARK VINA RESULT:    -4.102      1.473      2.506
REMARK INTER + INTRA:          -5.619
REMARK INTER:                  -5.035
REMARK INTRA:                  -0.584
REMARK UNBOUND:                -0.558
REMARK SMILES C=CC(=C)CCC=C(C)C
REMARK SMILES IDX 5 1 6 2 7 3 9 4 8 5 10 6 3 7 4 8 2 9 1 10
REMARK H PARENT
REMARK Flexibility Score: inf
ROOT
ATOM      1  C   UNL     1      29.137  24.214  11.019  1.00  0.00     0.039 C 
ENDROOT
BRANCH   1   2
ATOM      2  C   UNL     1      30.168  25.343  10.868  1.00  0.00     0.032 C 
BRANCH   2   3
ATOM      3  C   UNL     1      29.616  26.672  11.322  1.00  0.00    -0.028 C 
ATOM      4  C   UNL     1      31.572  27.169  12.805  1.00  0.00     0.039 C 
ATOM      5  C   UNL     1      30.220  27.489  12.214  1.00  0.00    -0.080 C 
ATOM      6  C   UNL     1      29.520  28.766  12.606  1.00  0.00     0.039 C 
ENDBRANCH   2   3
ENDBRANCH   1   2
BRANCH   1   7
ATOM      7  C   UNL     1      28.818  23.928  12.473  1.00  0.00    -0.055 C 
ATOM      8  C   UNL     1      27.578  24.153  12.924  1.00  0.00     0.012 C 
BRANCH   7   9
ATOM      9  C   UNL     1      29.826  23.367  13.411  1.00  0.00    -0.005 C 
ATOM     10  C   UNL     1      30.287  22.118  13.351  1.00  0.00     0.009 C 
ENDBRANCH   7   9
ENDBRANCH   1   7
TORSDOF 4
ENDMDL
MODEL 4
REMARK VINA RESULT:    -4.091      1.453      5.329
REMARK INTER + INTRA:          -5.605
REMARK INTER:                  -5.151
REMARK INTRA:                  -0.455
REMARK UNBOUND:                -0.558
REMARK SMILES C=CC(=C)CCC=C(C)C
REMARK SMILES IDX 5 1 6 2 7 3 9 4 8 5 10 6 3 7 4 8 2 9 1 10
REMARK H PARENT
REMARK Flexibility Score: inf
ROOT
ATOM      1  C   UNL     1      30.310  26.394  11.500  1.00  0.00     0.039 C 
ENDROOT
BRANCH   1   2
ATOM      2  C   UNL     1      29.596  25.104  11.068  1.00  0.00     0.032 C 
BRANCH   2   3
ATOM      3  C   UNL     1      30.025  23.919  11.899  1.00  0.00    -0.028 C 
ATOM      4  C   UNL     1      27.903  23.869  13.228  1.00  0.00     0.039 C 
ATOM      5  C   UNL     1      29.289  23.373  12.892  1.00  0.00    -0.080 C 
ATOM      6  C   UNL     1      29.874  22.219  13.667  1.00  0.00     0.039 C 
ENDBRANCH   2   3
ENDBRANCH   1   2
BRANCH   1   7
ATOM      7  C   UNL     1      29.329  27.495  11.849  1.00  0.00    -0.055 C 
ATOM      8  C   UNL     1      28.016  27.240  11.794  1.00  0.00     0.012 C 
BRANCH   7   9
ATOM      9  C   UNL     1      29.774  28.843  12.291  1.00  0.00    -0.005 C 
ATOM     10  C   UNL     1      30.168  29.809  11.461  1.00  0.00     0.009 C 
ENDBRANCH   7   9
ENDBRANCH   1   7
TORSDOF 4
ENDMDL
MODEL 5
REMARK VINA RESULT:    -4.059      1.597      2.611
REMARK INTER + INTRA:          -5.565
REMARK INTER:                  -4.745
REMARK INTRA:                  -0.821
REMARK UNBOUND:                -0.558
REMARK SMILES C=CC(=C)CCC=C(C)C
REMARK SMILES IDX 5 1 6 2 7 3 9 4 8 5 10 6 3 7 4 8 2 9 1 10
REMARK H PARENT
REMARK Flexibility Score: inf
ROOT
ATOM      1  C   UNL     1      30.402  24.104  11.058  1.00  0.00     0.039 C 
ENDROOT
BRANCH   1   2
ATOM      2  C   UNL     1      30.735  25.562  10.707  1.00  0.00     0.032 C 
BRANCH   2   3
ATOM      3  C   UNL     1      29.520  26.454  10.801  1.00  0.00    -0.028 C 
ATOM      4  C   UNL     1      30.542  27.949  12.531  1.00  0.00     0.039 C 
ATOM      5  C   UNL     1      29.407  27.510  11.636  1.00  0.00    -0.080 C 
ATOM      6  C   UNL     1      28.110  28.279  11.649  1.00  0.00     0.039 C 
ENDBRANCH   2   3
ENDBRANCH   1   2
BRANCH   1   7
ATOM      7  C   UNL     1      30.196  23.912  12.547  1.00  0.00    -0.055 C 
ATOM      8  C   UNL     1      31.198  24.200  13.386  1.00  0.00     0.012 C 
BRANCH   7   9
ATOM      9  C   UNL     1      28.901  23.452  13.115  1.00  0.00    -0.005 C 
ATOM     10  C   UNL     1      27.749  24.108  12.975  1.00  0.00     0.009 C 
ENDBRANCH   7   9
ENDBRANCH   1   7
TORSDOF 4
ENDMDL
MODEL 6
REMARK VINA RESULT:    -4.001      0.955      4.312
REMARK INTER + INTRA:          -5.494
REMARK INTER:                  -4.685
REMARK INTRA:                  -0.808
REMARK UNBOUND:                -0.558
REMARK SMILES C=CC(=C)CCC=C(C)C
REMARK SMILES IDX 5 1 6 2 7 3 9 4 8 5 10 6 3 7 4 8 2 9 1 10
REMARK H PARENT
REMARK Flexibility Score: inf
ROOT
ATOM      1  C   UNL     1      28.069  23.968  12.251  1.00  0.00     0.039 C 
ENDROOT
BRANCH   1   2
ATOM      2  C   UNL     1      28.581  23.587  13.649  1.00  0.00     0.032 C 
BRANCH   2   3
ATOM      3  C   UNL     1      29.524  22.408  13.599  1.00  0.00    -0.028 C 
ATOM      4  C   UNL     1      31.535  23.776  14.195  1.00  0.00     0.039 C 
ATOM      5  C   UNL     1      30.856  22.483  13.812  1.00  0.00    -0.080 C 
ATOM      6  C   UNL     1      31.675  21.224  13.681  1.00  0.00     0.039 C 
ENDBRANCH   2   3
ENDBRANCH   1   2
BRANCH   1   7
ATOM      7  C   UNL     1      28.784  25.185  11.698  1.00  0.00    -0.055 C 
ATOM      8  C   UNL     1      28.254  26.398  11.895  1.00  0.00     0.012 C 
BRANCH   7   9
ATOM      9  C   UNL     1      30.079  25.083  10.975  1.00  0.00    -0.005 C 
ATOM     10  C   UNL     1      30.556  23.953  10.455  1.00  0.00     0.009 C 
ENDBRANCH   7   9
ENDBRANCH   1   7
TORSDOF 4
ENDMDL
MODEL 7
REMARK VINA RESULT:    -4.000      2.482      5.014
REMARK INTER + INTRA:          -5.493
REMARK INTER:                  -4.811
REMARK INTRA:                  -0.682
REMARK UNBOUND:                -0.558
REMARK SMILES C=CC(=C)CCC=C(C)C
REMARK SMILES IDX 5 1 6 2 7 3 9 4 8 5 10 6 3 7 4 8 2 9 1 10
REMARK H PARENT
REMARK Flexibility Score: inf
ROOT
ATOM      1  C   UNL     1      29.286  28.794  12.075  1.00  0.00     0.039 C 
ENDROOT
BRANCH   1   2
ATOM      2  C   UNL     1      28.525  27.797  11.187  1.00  0.00     0.032 C 
BRANCH   2   3
ATOM      3  C   UNL     1      28.011  26.619  11.978  1.00  0.00    -0.028 C 
ATOM      4  C   UNL     1      29.735  25.044  11.075  1.00  0.00     0.039 C 
ATOM      5  C   UNL     1      28.525  25.371  11.916  1.00  0.00    -0.080 C 
ATOM      6  C   UNL     1      27.871  24.284  12.732  1.00  0.00     0.039 C 
ENDBRANCH   2   3
ENDBRANCH   1   2
BRANCH   1   7
ATOM      7  C   UNL     1      30.693  29.044  11.570  1.00  0.00    -0.055 C 
ATOM      8  C   UNL     1      30.930  30.117  10.807  1.00  0.00     0.012 C 
BRANCH   7   9
ATOM      9  C   UNL     1      31.832  28.158  11.928  1.00  0.00    -0.005 C 
ATOM     10  C   UNL     1      31.832  27.326  12.969  1.00  0.00     0.009 C 
ENDBRANCH   7   9
ENDBRANCH   1   7
TORSDOF 4
ENDMDL
MODEL 8
REMARK VINA RESULT:    -3.968      1.638      4.565
REMARK INTER + INTRA:          -5.454
REMARK INTER:                  -4.695
REMARK INTRA:                  -0.759
REMARK UNBOUND:                -0.558
REMARK SMILES C=CC(=C)CCC=C(C)C
REMARK SMILES IDX 5 1 6 2 7 3 9 4 8 5 10 6 3 7 4 8 2 9 1 10
REMARK H PARENT
REMARK Flexibility Score: inf
ROOT
ATOM      1  C   UNL     1      31.045  26.477  10.752  1.00  0.00     0.039 C 
ENDROOT
BRANCH   1   2
ATOM      2  C   UNL     1      30.598  25.009  10.827  1.00  0.00     0.032 C 
BRANCH   2   3
ATOM      3  C   UNL     1      29.194  24.877  11.368  1.00  0.00    -0.028 C 
ATOM      4  C   UNL     1      29.892  23.438  13.296  1.00  0.00     0.039 C 
ATOM      5  C   UNL     1      28.858  24.151  12.457  1.00  0.00    -0.080 C 
ATOM      6  C   UNL     1      27.404  24.075  12.848  1.00  0.00     0.039 C 
ENDBRANCH   2   3
ENDBRANCH   1   2
BRANCH   1   7
ATOM      7  C   UNL     1      31.142  27.112  12.125  1.00  0.00    -0.055 C 
ATOM      8  C   UNL     1      31.974  26.584  13.029  1.00  0.00     0.012 C 
BRANCH   7   9
ATOM      9  C   UNL     1      30.371  28.330  12.491  1.00  0.00    -0.005 C 
ATOM     10  C   UNL     1      29.045  28.429  12.401  1.00  0.00     0.009 C 
ENDBRANCH   7   9
ENDBRANCH   1   7
TORSDOF 4
ENDMDL
MODEL 9
REMARK VINA RESULT:    -3.856      1.264      4.473
REMARK INTER + INTRA:          -5.315
REMARK INTER:                  -4.408
REMARK INTRA:                  -0.907
REMARK UNBOUND:                -0.558
REMARK SMILES C=CC(=C)CCC=C(C)C
REMARK SMILES IDX 5 1 6 2 7 3 9 4 8 5 10 6 3 7 4 8 2 9 1 10
REMARK H PARENT
REMARK Flexibility Score: inf
ROOT
ATOM      1  C   UNL     1      30.206  24.164  10.616  1.00  0.00     0.039 C 
ENDROOT
BRANCH   1   2
ATOM      2  C   UNL     1      31.386  23.549  11.383  1.00  0.00     0.032 C 
BRANCH   2   3
ATOM      3  C   UNL     1      30.978  22.310  12.143  1.00  0.00    -0.028 C 
ATOM      4  C   UNL     1      31.091  23.437  14.376  1.00  0.00     0.039 C 
ATOM      5  C   UNL     1      30.870  22.236  13.487  1.00  0.00    -0.080 C 
ATOM      6  C   UNL     1      30.497  20.912  14.106  1.00  0.00     0.039 C 
ENDBRANCH   2   3
ENDBRANCH   1   2
BRANCH   1   7
ATOM      7  C   UNL     1      29.371  25.075  11.494  1.00  0.00    -0.055 C 
ATOM      8  C   UNL     1      29.875  26.255  11.874  1.00  0.00     0.012 C 
BRANCH   7   9
ATOM      9  C   UNL     1      27.991  24.720  11.918  1.00  0.00    -0.005 C 
ATOM     10  C   UNL     1      27.700  24.070  13.045  1.00  0.00     0.009 C 
ENDBRANCH   7   9
ENDBRANCH   1   7
TORSDOF 4
ENDMDL
