MODEL 1
REMARK VINA RESULT:    -4.620      0.000      0.000
REMARK INTER + INTRA:          -9.977
REMARK INTER:                  -8.671
REMARK INTRA:                  -1.306
REMARK UNBOUND:                -1.306
REMARK SMILES CCCCCCCCC=CCCCCCCCC(=O)[O-]
REMARK SMILES IDX 10 1 9 2 11 3 12 4 13 5 14 6 15 7 16 8 17 9 18 10 19 11
REMARK SMILES IDX 20 12 8 13 7 14 6 15 5 16 4 17 3 18 2 19 1 20
REMARK H PARENT
REMARK Flexibility Score: inf
ROOT
ATOM      1  C   UNL     1       2.812  12.557  19.123  1.00  0.00    -0.031 C 
ATOM      2  C   UNL     1       2.396  13.836  19.057  1.00  0.00    -0.031 C 
ENDROOT
BRANCH   1   3
ATOM      3  C   UNL     1       2.650  11.545  18.016  1.00  0.00     0.027 C 
BRANCH   3   4
ATOM      4  C   UNL     1       2.699  10.119  18.575  1.00  0.00     0.004 C 
BRANCH   4   5
ATOM      5  C   UNL     1       4.145   9.625  18.693  1.00  0.00     0.000 C 
BRANCH   5   6
ATOM      6  C   UNL     1       4.856   9.669  17.336  1.00  0.00     0.000 C 
BRANCH   6   7
ATOM      7  C   UNL     1       6.220  10.367  17.451  1.00  0.00     0.000 C 
BRANCH   7   8
ATOM      8  C   UNL     1       6.408  11.080  18.799  1.00  0.00     0.006 C 
BRANCH   8   9
ATOM      9  C   UNL     1       7.758  10.761  19.453  1.00  0.00     0.053 C 
BRANCH   9  10
ATOM     10  C   UNL     1       7.568  10.372  20.886  1.00  0.00     0.041 C 
ATOM     11  O   UNL     1       8.556  10.010  21.580  1.00  0.00    -0.550 OA
ATOM     12  O   UNL     1       6.294  10.358  21.440  1.00  0.00    -0.550 OA
ENDBRANCH   9  10
ENDBRANCH   8   9
ENDBRANCH   7   8
ENDBRANCH   6   7
ENDBRANCH   5   6
ENDBRANCH   4   5
ENDBRANCH   3   4
ENDBRANCH   1   3
BRANCH   2  13
ATOM     13  C   UNL     1       1.631  14.428  17.900  1.00  0.00     0.027 C 
BRANCH  13  14
ATOM     14  C   UNL     1       0.987  15.764  18.302  1.00  0.00     0.004 C 
BRANCH  14  15
ATOM     15  C   UNL     1      -0.503  15.621  18.648  1.00  0.00     0.000 C 
BRANCH  15  16
ATOM     16  C   UNL     1      -1.239  16.969  18.654  1.00  0.00     0.000 C 
BRANCH  16  17
ATOM     17  C   UNL     1      -0.696  17.889  19.757  1.00  0.00    -0.000 C 
BRANCH  17  18
ATOM     18  C   UNL     1      -0.667  19.367  19.336  1.00  0.00    -0.000 C 
BRANCH  18  19
ATOM     19  C   UNL     1       0.761  19.917  19.208  1.00  0.00    -0.003 C 
ATOM     20  C   UNL     1       1.422  19.434  17.919  1.00  0.00     0.004 C 
ENDBRANCH  18  19
ENDBRANCH  17  18
ENDBRANCH  16  17
ENDBRANCH  15  16
ENDBRANCH  14  15
ENDBRANCH  13  14
ENDBRANCH   2  13
TORSDOF 15
ENDMDL
MODEL 2
REMARK VINA RESULT:    -4.495      1.064      2.170
REMARK INTER + INTRA:          -9.743
REMARK INTER:                  -8.773
REMARK INTRA:                  -0.970
REMARK UNBOUND:                -1.306
REMARK SMILES CCCCCCCCC=CCCCCCCCC(=O)[O-]
REMARK SMILES IDX 10 1 9 2 11 3 12 4 13 5 14 6 15 7 16 8 17 9 18 10 19 11
REMARK SMILES IDX 20 12 8 13 7 14 6 15 5 16 4 17 3 18 2 19 1 20
REMARK H PARENT
REMARK Flexibility Score: inf
ROOT
ATOM      1  C   UNL     1       1.655  14.771  18.052  1.00  0.00    -0.031 C 
ATOM      2  C   UNL     1       0.588  15.588  17.983  1.00  0.00    -0.031 C 
ENDROOT
BRANCH   1   3
ATOM      3  C   UNL     1       1.834  13.680  19.077  1.00  0.00     0.027 C 
BRANCH   3   4
ATOM      4  C   UNL     1       2.948  12.716  18.654  1.00  0.00     0.004 C 
BRANCH   4   5
ATOM      5  C   UNL     1       2.527  11.259  18.877  1.00  0.00     0.000 C 
BRANCH   5   6
ATOM      6  C   UNL     1       3.226  10.324  17.882  1.00  0.00     0.000 C 
BRANCH   6   7
ATOM      7  C   UNL     1       4.652   9.992  18.347  1.00  0.00     0.000 C 
BRANCH   7   8
ATOM      8  C   UNL     1       4.727   9.673  19.848  1.00  0.00     0.006 C 
BRANCH   8   9
ATOM      9  C   UNL     1       5.474  10.750  20.644  1.00  0.00     0.053 C 
BRANCH   9  10
ATOM     10  C   UNL     1       6.942  10.690  20.357  1.00  0.00     0.041 C 
ATOM     11  O   UNL     1       7.392  11.136  19.268  1.00  0.00    -0.550 OA
ATOM     12  O   UNL     1       7.806  10.094  21.267  1.00  0.00    -0.550 OA
ENDBRANCH   9  10
ENDBRANCH   8   9
ENDBRANCH   7   8
ENDBRANCH   6   7
ENDBRANCH   5   6
ENDBRANCH   4   5
ENDBRANCH   3   4
ENDBRANCH   1   3
BRANCH   2  13
ATOM     13  C   UNL     1      -0.552  15.592  18.971  1.00  0.00     0.027 C 
BRANCH  13  14
ATOM     14  C   UNL     1      -1.793  16.264  18.365  1.00  0.00     0.004 C 
BRANCH  14  15
ATOM     15  C   UNL     1      -2.101  17.625  19.007  1.00  0.00     0.000 C 
BRANCH  15  16
ATOM     16  C   UNL     1      -1.205  17.924  20.218  1.00  0.00     0.000 C 
BRANCH  16  17
ATOM     17  C   UNL     1      -0.760  19.395  20.224  1.00  0.00    -0.000 C 
BRANCH  17  18
ATOM     18  C   UNL     1      -0.192  19.848  18.869  1.00  0.00    -0.000 C 
BRANCH  18  19
ATOM     19  C   UNL     1       1.101  19.111  18.494  1.00  0.00    -0.003 C 
ATOM     20  C   UNL     1       1.823  19.818  17.349  1.00  0.00     0.004 C 
ENDBRANCH  18  19
ENDBRANCH  17  18
ENDBRANCH  16  17
ENDBRANCH  15  16
ENDBRANCH  14  15
ENDBRANCH  13  14
ENDBRANCH   2  13
TORSDOF 15
ENDMDL
MODEL 3
REMARK VINA RESULT:    -4.448      1.849      2.564
REMARK INTER + INTRA:          -9.655
REMARK INTER:                  -8.243
REMARK INTRA:                  -1.411
REMARK UNBOUND:                -1.306
REMARK SMILES CCCCCCCCC=CCCCCCCCC(=O)[O-]
REMARK SMILES IDX 10 1 9 2 11 3 12 4 13 5 14 6 15 7 16 8 17 9 18 10 19 11
REMARK SMILES IDX 20 12 8 13 7 14 6 15 5 16 4 17 3 18 2 19 1 20
REMARK H PARENT
REMARK Flexibility Score: inf
ROOT
ATOM      1  C   UNL     1       1.997  14.364  18.044  1.00  0.00    -0.031 C 
ATOM      2  C   UNL     1       1.040  15.308  17.975  1.00  0.00    -0.031 C 
ENDROOT
BRANCH   1   3
ATOM      3  C   UNL     1       2.044  13.263  19.073  1.00  0.00     0.027 C 
BRANCH   3   4
ATOM      4  C   UNL     1       3.276  12.376  18.863  1.00  0.00     0.004 C 
BRANCH   4   5
ATOM      5  C   UNL     1       2.880  10.896  18.789  1.00  0.00     0.000 C 
BRANCH   5   6
ATOM      6  C   UNL     1       3.982  10.001  19.368  1.00  0.00     0.000 C 
BRANCH   6   7
ATOM      7  C   UNL     1       5.057  10.839  20.077  1.00  0.00     0.000 C 
BRANCH   7   8
ATOM      8  C   UNL     1       6.465  10.597  19.511  1.00  0.00     0.006 C 
BRANCH   8   9
ATOM      9  C   UNL     1       6.775  11.486  18.300  1.00  0.00     0.053 C 
BRANCH   9  10
ATOM     10  C   UNL     1       6.942  10.653  17.068  1.00  0.00     0.041 C 
ATOM     11  O   UNL     1       8.023  10.687  16.422  1.00  0.00    -0.550 OA
ATOM     12  O   UNL     1       5.886   9.879  16.603  1.00  0.00    -0.550 OA
ENDBRANCH   9  10
ENDBRANCH   8   9
ENDBRANCH   7   8
ENDBRANCH   6   7
ENDBRANCH   5   6
ENDBRANCH   4   5
ENDBRANCH   3   4
ENDBRANCH   1   3
BRANCH   2  13
ATOM     13  C   UNL     1      -0.086  15.457  18.967  1.00  0.00     0.027 C 
BRANCH  13  14
ATOM     14  C   UNL     1      -1.267  16.210  18.338  1.00  0.00     0.004 C 
BRANCH  14  15
ATOM     15  C   UNL     1      -2.079  17.007  19.370  1.00  0.00     0.000 C 
BRANCH  15  16
ATOM     16  C   UNL     1      -1.195  17.896  20.258  1.00  0.00     0.000 C 
BRANCH  16  17
ATOM     17  C   UNL     1      -1.022  19.291  19.640  1.00  0.00    -0.000 C 
BRANCH  17  18
ATOM     18  C   UNL     1       0.448  19.737  19.584  1.00  0.00    -0.000 C 
BRANCH  18  19
ATOM     19  C   UNL     1       1.225  19.073  18.438  1.00  0.00    -0.003 C 
ATOM     20  C   UNL     1       0.923  19.753  17.105  1.00  0.00     0.004 C 
ENDBRANCH  18  19
ENDBRANCH  17  18
ENDBRANCH  16  17
ENDBRANCH  15  16
ENDBRANCH  14  15
ENDBRANCH  13  14
ENDBRANCH   2  13
TORSDOF 15
ENDMDL
MODEL 4
REMARK VINA RESULT:    -4.202      3.510      9.276
REMARK INTER + INTRA:          -9.192
REMARK INTER:                  -8.039
REMARK INTRA:                  -1.153
REMARK UNBOUND:                -1.306
REMARK SMILES CCCCCCCCC=CCCCCCCCC(=O)[O-]
REMARK SMILES IDX 10 1 9 2 11 3 12 4 13 5 14 6 15 7 16 8 17 9 18 10 19 11
REMARK SMILES IDX 20 12 8 13 7 14 6 15 5 16 4 17 3 18 2 19 1 20
REMARK H PARENT
REMARK Flexibility Score: inf
ROOT
ATOM      1  C   UNL     1       0.983  15.261  17.948  1.00  0.00    -0.031 C 
ATOM      2  C   UNL     1       2.034  14.431  18.087  1.00  0.00    -0.031 C 
ENDROOT
BRANCH   1   3
ATOM      3  C   UNL     1      -0.223  15.276  18.853  1.00  0.00     0.027 C 
BRANCH   3   4
ATOM      4  C   UNL     1      -1.176  16.413  18.467  1.00  0.00     0.004 C 
BRANCH   4   5
ATOM      5  C   UNL     1      -2.125  16.750  19.624  1.00  0.00     0.000 C 
BRANCH   5   6
ATOM      6  C   UNL     1      -1.437  17.646  20.660  1.00  0.00     0.000 C 
BRANCH   6   7
ATOM      7  C   UNL     1      -1.738  19.129  20.391  1.00  0.00     0.000 C 
BRANCH   7   8
ATOM      8  C   UNL     1      -0.482  19.929  20.013  1.00  0.00     0.006 C 
BRANCH   8   9
ATOM      9  C   UNL     1      -0.340  20.123  18.498  1.00  0.00     0.053 C 
BRANCH   9  10
ATOM     10  C   UNL     1       0.912  19.470  18.001  1.00  0.00     0.041 C 
ATOM     11  O   UNL     1       1.521  18.637  18.724  1.00  0.00    -0.550 OA
ATOM     12  O   UNL     1       1.435  19.820  16.762  1.00  0.00    -0.550 OA
ENDBRANCH   9  10
ENDBRANCH   8   9
ENDBRANCH   7   8
ENDBRANCH   6   7
ENDBRANCH   5   6
ENDBRANCH   4   5
ENDBRANCH   3   4
ENDBRANCH   1   3
BRANCH   2  13
ATOM     13  C   UNL     1       2.127  13.335  19.119  1.00  0.00     0.027 C 
BRANCH  13  14
ATOM     14  C   UNL     1       3.246  12.347  18.760  1.00  0.00     0.004 C 
BRANCH  14  15
ATOM     15  C   UNL     1       2.762  10.889  18.734  1.00  0.00     0.000 C 
BRANCH  15  16
ATOM     16  C   UNL     1       3.914   9.881  18.856  1.00  0.00     0.000 C 
BRANCH  16  17
ATOM     17  C   UNL     1       4.970  10.117  17.765  1.00  0.00    -0.000 C 
BRANCH  17  18
ATOM     18  C   UNL     1       6.355  10.450  18.343  1.00  0.00    -0.000 C 
BRANCH  18  19
ATOM     19  C   UNL     1       6.286  10.945  19.795  1.00  0.00    -0.003 C 
ATOM     20  C   UNL     1       7.485  10.450  20.601  1.00  0.00     0.004 C 
ENDBRANCH  18  19
ENDBRANCH  17  18
ENDBRANCH  16  17
ENDBRANCH  15  16
ENDBRANCH  14  15
ENDBRANCH  13  14
ENDBRANCH   2  13
TORSDOF 15
ENDMDL
MODEL 5
REMARK VINA RESULT:    -4.190      4.156      9.357
REMARK INTER + INTRA:          -9.170
REMARK INTER:                  -8.041
REMARK INTRA:                  -1.129
REMARK UNBOUND:                -1.306
REMARK SMILES CCCCCCCCC=CCCCCCCCC(=O)[O-]
REMARK SMILES IDX 10 1 9 2 11 3 12 4 13 5 14 6 15 7 16 8 17 9 18 10 19 11
REMARK SMILES IDX 20 12 8 13 7 14 6 15 5 16 4 17 3 18 2 19 1 20
REMARK H PARENT
REMARK Flexibility Score: inf
ROOT
ATOM      1  C   UNL     1       0.838  15.327  17.933  1.00  0.00    -0.031 C 
ATOM      2  C   UNL     1       1.890  14.523  18.172  1.00  0.00    -0.031 C 
ENDROOT
BRANCH   1   3
ATOM      3  C   UNL     1      -0.354  15.474  18.845  1.00  0.00     0.027 C 
BRANCH   3   4
ATOM      4  C   UNL     1      -1.438  16.336  18.187  1.00  0.00     0.004 C 
BRANCH   4   5
ATOM      5  C   UNL     1      -1.959  17.400  19.160  1.00  0.00     0.000 C 
BRANCH   5   6
ATOM      6  C   UNL     1      -0.859  17.846  20.131  1.00  0.00     0.000 C 
BRANCH   6   7
ATOM      7  C   UNL     1      -0.925  19.361  20.377  1.00  0.00     0.000 C 
BRANCH   7   8
ATOM      8  C   UNL     1       0.213  20.125  19.682  1.00  0.00     0.006 C 
BRANCH   8   9
ATOM      9  C   UNL     1       0.953  19.269  18.646  1.00  0.00     0.053 C 
BRANCH   9  10
ATOM     10  C   UNL     1       0.836  19.877  17.284  1.00  0.00     0.041 C 
ATOM     11  O   UNL     1      -0.300  20.123  16.796  1.00  0.00    -0.550 OA
ATOM     12  O   UNL     1       1.977  20.125  16.531  1.00  0.00    -0.550 OA
ENDBRANCH   9  10
ENDBRANCH   8   9
ENDBRANCH   7   8
ENDBRANCH   6   7
ENDBRANCH   5   6
ENDBRANCH   4   5
ENDBRANCH   3   4
ENDBRANCH   1   3
BRANCH   2  13
ATOM     13  C   UNL     1       2.000  13.585  19.348  1.00  0.00     0.027 C 
BRANCH  13  14
ATOM     14  C   UNL     1       2.731  12.295  18.947  1.00  0.00     0.004 C 
BRANCH  14  15
ATOM     15  C   UNL     1       4.237  12.351  19.250  1.00  0.00     0.000 C 
BRANCH  15  16
ATOM     16  C   UNL     1       4.751  11.071  19.926  1.00  0.00     0.000 C 
BRANCH  16  17
ATOM     17  C   UNL     1       4.066   9.827  19.343  1.00  0.00    -0.000 C 
BRANCH  17  18
ATOM     18  C   UNL     1       4.356   9.636  17.845  1.00  0.00    -0.000 C 
BRANCH  18  19
ATOM     19  C   UNL     1       3.228   8.894  17.114  1.00  0.00    -0.003 C 
ATOM     20  C   UNL     1       1.968   8.825  17.975  1.00  0.00     0.004 C 
ENDBRANCH  18  19
ENDBRANCH  17  18
ENDBRANCH  16  17
ENDBRANCH  15  16
ENDBRANCH  14  15
ENDBRANCH  13  14
ENDBRANCH   2  13
TORSDOF 15
ENDMDL
MODEL 6
REMARK VINA RESULT:    -4.184      3.727      9.182
REMARK INTER + INTRA:          -9.158
REMARK INTER:                  -7.950
REMARK INTRA:                  -1.208
REMARK UNBOUND:                -1.306
REMARK SMILES CCCCCCCCC=CCCCCCCCC(=O)[O-]
REMARK SMILES IDX 10 1 9 2 11 3 12 4 13 5 14 6 15 7 16 8 17 9 18 10 19 11
REMARK SMILES IDX 20 12 8 13 7 14 6 15 5 16 4 17 3 18 2 19 1 20
REMARK H PARENT
REMARK Flexibility Score: inf
ROOT
ATOM      1  C   UNL     1       2.328  13.780  19.099  1.00  0.00    -0.031 C 
ATOM      2  C   UNL     1       2.780  12.512  19.124  1.00  0.00    -0.031 C 
ENDROOT
BRANCH   1   3
ATOM      3  C   UNL     1       1.623  14.415  17.927  1.00  0.00     0.027 C 
BRANCH   3   4
ATOM      4  C   UNL     1       1.019  15.767  18.326  1.00  0.00     0.004 C 
BRANCH   4   5
ATOM      5  C   UNL     1      -0.509  15.679  18.420  1.00  0.00     0.000 C 
BRANCH   5   6
ATOM      6  C   UNL     1      -1.072  16.795  19.308  1.00  0.00     0.000 C 
BRANCH   6   7
ATOM      7  C   UNL     1      -1.936  17.766  18.488  1.00  0.00     0.000 C 
BRANCH   7   8
ATOM      8  C   UNL     1      -1.519  19.233  18.676  1.00  0.00     0.006 C 
BRANCH   8   9
ATOM      9  C   UNL     1      -0.451  19.677  17.669  1.00  0.00     0.053 C 
BRANCH   9  10
ATOM     10  C   UNL     1       0.904  19.670  18.304  1.00  0.00     0.041 C 
ATOM     11  O   UNL     1       1.016  19.566  19.555  1.00  0.00    -0.550 OA
ATOM     12  O   UNL     1       2.041  19.831  17.523  1.00  0.00    -0.550 OA
ENDBRANCH   9  10
ENDBRANCH   8   9
ENDBRANCH   7   8
ENDBRANCH   6   7
ENDBRANCH   5   6
ENDBRANCH   4   5
ENDBRANCH   3   4
ENDBRANCH   1   3
BRANCH   2  13
ATOM     13  C   UNL     1       2.726  11.561  17.955  1.00  0.00     0.027 C 
BRANCH  13  14
ATOM     14  C   UNL     1       2.716  10.104  18.440  1.00  0.00     0.004 C 
BRANCH  14  15
ATOM     15  C   UNL     1       4.123   9.583  18.773  1.00  0.00     0.000 C 
BRANCH  15  16
ATOM     16  C   UNL     1       5.192  10.105  17.802  1.00  0.00     0.000 C 
BRANCH  16  17
ATOM     17  C   UNL     1       6.380  10.711  18.564  1.00  0.00    -0.000 C 
BRANCH  17  18
ATOM     18  C   UNL     1       6.002  11.172  19.981  1.00  0.00    -0.000 C 
BRANCH  18  19
ATOM     19  C   UNL     1       6.685  10.340  21.076  1.00  0.00    -0.003 C 
ATOM     20  C   UNL     1       8.188  10.234  20.827  1.00  0.00     0.004 C 
ENDBRANCH  18  19
ENDBRANCH  17  18
ENDBRANCH  16  17
ENDBRANCH  15  16
ENDBRANCH  14  15
ENDBRANCH  13  14
ENDBRANCH   2  13
TORSDOF 15
ENDMDL
MODEL 7
REMARK VINA RESULT:    -4.118      3.958      9.185
REMARK INTER + INTRA:          -9.035
REMARK INTER:                  -7.994
REMARK INTRA:                  -1.042
REMARK UNBOUND:                -1.306
REMARK SMILES CCCCCCCCC=CCCCCCCCC(=O)[O-]
REMARK SMILES IDX 10 1 9 2 11 3 12 4 13 5 14 6 15 7 16 8 17 9 18 10 19 11
REMARK SMILES IDX 20 12 8 13 7 14 6 15 5 16 4 17 3 18 2 19 1 20
REMARK H PARENT
REMARK Flexibility Score: inf
ROOT
ATOM      1  C   UNL     1       2.056  12.986  18.915  1.00  0.00    -0.031 C 
ATOM      2  C   UNL     1       2.982  12.079  19.275  1.00  0.00    -0.031 C 
ENDROOT
BRANCH   1   3
ATOM      3  C   UNL     1       2.361  14.396  18.475  1.00  0.00     0.027 C 
BRANCH   3   4
ATOM      4  C   UNL     1       1.211  14.964  17.636  1.00  0.00     0.004 C 
BRANCH   4   5
ATOM      5  C   UNL     1       0.559  16.161  18.337  1.00  0.00     0.000 C 
BRANCH   5   6
ATOM      6  C   UNL     1      -0.931  15.906  18.593  1.00  0.00     0.000 C 
BRANCH   6   7
ATOM      7  C   UNL     1      -1.636  17.187  19.062  1.00  0.00     0.000 C 
BRANCH   7   8
ATOM      8  C   UNL     1      -0.734  18.075  19.933  1.00  0.00     0.006 C 
BRANCH   8   9
ATOM      9  C   UNL     1      -0.784  19.552  19.521  1.00  0.00     0.053 C 
BRANCH   9  10
ATOM     10  C   UNL     1       0.034  19.780  18.289  1.00  0.00     0.041 C 
ATOM     11  O   UNL     1      -0.530  20.068  17.199  1.00  0.00    -0.550 OA
ATOM     12  O   UNL     1       1.414  19.624  18.330  1.00  0.00    -0.550 OA
ENDBRANCH   9  10
ENDBRANCH   8   9
ENDBRANCH   7   8
ENDBRANCH   6   7
ENDBRANCH   5   6
ENDBRANCH   4   5
ENDBRANCH   3   4
ENDBRANCH   1   3
BRANCH   2  13
ATOM     13  C   UNL     1       4.461  12.360  19.374  1.00  0.00     0.027 C 
BRANCH  13  14
ATOM     14  C   UNL     1       5.247  11.058  19.591  1.00  0.00     0.004 C 
BRANCH  14  15
ATOM     15  C   UNL     1       4.464   9.814  19.144  1.00  0.00     0.000 C 
BRANCH  15  16
ATOM     16  C   UNL     1       4.447   9.643  17.618  1.00  0.00     0.000 C 
BRANCH  16  17
ATOM     17  C   UNL     1       3.159   8.946  17.157  1.00  0.00    -0.000 C 
BRANCH  17  18
ATOM     18  C   UNL     1       2.091   8.881  18.261  1.00  0.00    -0.000 C 
BRANCH  18  19
ATOM     19  C   UNL     1       0.738   8.368  17.746  1.00  0.00    -0.003 C 
ATOM     20  C   UNL     1      -0.338   8.481  18.823  1.00  0.00     0.004 C 
ENDBRANCH  18  19
ENDBRANCH  17  18
ENDBRANCH  16  17
ENDBRANCH  15  16
ENDBRANCH  14  15
ENDBRANCH  13  14
ENDBRANCH   2  13
TORSDOF 15
ENDMDL
MODEL 8
REMARK VINA RESULT:    -4.017      3.867      8.942
REMARK INTER + INTRA:          -8.845
REMARK INTER:                  -7.640
REMARK INTRA:                  -1.205
REMARK UNBOUND:                -1.306
REMARK SMILES CCCCCCCCC=CCCCCCCCC(=O)[O-]
REMARK SMILES IDX 10 1 9 2 11 3 12 4 13 5 14 6 15 7 16 8 17 9 18 10 19 11
REMARK SMILES IDX 20 12 8 13 7 14 6 15 5 16 4 17 3 18 2 19 1 20
REMARK H PARENT
REMARK Flexibility Score: inf
ROOT
ATOM      1  C   UNL     1       2.382  11.113  18.236  1.00  0.00    -0.031 C 
ATOM      2  C   UNL     1       2.988   9.949  17.936  1.00  0.00    -0.031 C 
ENDROOT
BRANCH   1   3
ATOM      3  C   UNL     1       3.080  12.318  18.815  1.00  0.00     0.027 C 
BRANCH   3   4
ATOM      4  C   UNL     1       2.069  13.423  19.146  1.00  0.00     0.004 C 
BRANCH   4   5
ATOM      5  C   UNL     1       2.036  14.485  18.041  1.00  0.00     0.000 C 
BRANCH   5   6
ATOM      6  C   UNL     1       0.727  15.283  18.081  1.00  0.00     0.000 C 
BRANCH   6   7
ATOM      7  C   UNL     1       0.993  16.759  18.417  1.00  0.00     0.000 C 
BRANCH   7   8
ATOM      8  C   UNL     1      -0.252  17.478  18.956  1.00  0.00     0.006 C 
BRANCH   8   9
ATOM      9  C   UNL     1       0.007  18.957  19.267  1.00  0.00     0.053 C 
BRANCH   9  10
ATOM     10  C   UNL     1       0.541  19.661  18.059  1.00  0.00     0.041 C 
ATOM     11  O   UNL     1       1.773  19.907  17.962  1.00  0.00    -0.550 OA
ATOM     12  O   UNL     1      -0.327  20.092  17.064  1.00  0.00    -0.550 OA
ENDBRANCH   9  10
ENDBRANCH   8   9
ENDBRANCH   7   8
ENDBRANCH   6   7
ENDBRANCH   5   6
ENDBRANCH   4   5
ENDBRANCH   3   4
ENDBRANCH   1   3
BRANCH   2  13
ATOM     13  C   UNL     1       4.439   9.645  18.211  1.00  0.00     0.027 C 
BRANCH  13  14
ATOM     14  C   UNL     1       5.251   9.655  16.907  1.00  0.00     0.004 C 
BRANCH  14  15
ATOM     15  C   UNL     1       6.511  10.529  17.002  1.00  0.00     0.000 C 
BRANCH  15  16
ATOM     16  C   UNL     1       6.608  11.282  18.337  1.00  0.00     0.000 C 
BRANCH  16  17
ATOM     17  C   UNL     1       7.727  10.703  19.216  1.00  0.00    -0.000 C 
BRANCH  17  18
ATOM     18  C   UNL     1       7.263  10.415  20.653  1.00  0.00    -0.000 C 
BRANCH  18  19
ATOM     19  C   UNL     1       5.914  11.070  20.981  1.00  0.00    -0.003 C 
ATOM     20  C   UNL     1       4.884  10.024  21.403  1.00  0.00     0.004 C 
ENDBRANCH  18  19
ENDBRANCH  17  18
ENDBRANCH  16  17
ENDBRANCH  15  16
ENDBRANCH  14  15
ENDBRANCH  13  14
ENDBRANCH   2  13
TORSDOF 15
ENDMDL
MODEL 9
REMARK VINA RESULT:    -3.951      3.933      8.745
REMARK INTER + INTRA:          -8.721
REMARK INTER:                  -7.285
REMARK INTRA:                  -1.436
REMARK UNBOUND:                -1.306
REMARK SMILES CCCCCCCCC=CCCCCCCCC(=O)[O-]
REMARK SMILES IDX 10 1 9 2 11 3 12 4 13 5 14 6 15 7 16 8 17 9 18 10 19 11
REMARK SMILES IDX 20 12 8 13 7 14 6 15 5 16 4 17 3 18 2 19 1 20
REMARK H PARENT
REMARK Flexibility Score: inf
ROOT
ATOM      1  C   UNL     1       4.176  10.815  20.196  1.00  0.00    -0.031 C 
ATOM      2  C   UNL     1       5.304  10.290  20.710  1.00  0.00    -0.031 C 
ENDROOT
BRANCH   1   3
ATOM      3  C   UNL     1       4.074  12.184  19.572  1.00  0.00     0.027 C 
BRANCH   3   4
ATOM      4  C   UNL     1       2.793  12.307  18.740  1.00  0.00     0.004 C 
BRANCH   4   5
ATOM      5  C   UNL     1       1.984  13.540  19.157  1.00  0.00     0.000 C 
BRANCH   5   6
ATOM      6  C   UNL     1       1.888  14.553  18.010  1.00  0.00     0.000 C 
BRANCH   6   7
ATOM      7  C   UNL     1       0.693  15.497  18.207  1.00  0.00     0.000 C 
BRANCH   7   8
ATOM      8  C   UNL     1       1.117  16.966  18.361  1.00  0.00     0.006 C 
BRANCH   8   9
ATOM      9  C   UNL     1       0.009  17.842  18.959  1.00  0.00     0.053 C 
BRANCH   9  10
ATOM     10  C   UNL     1       0.511  19.231  19.199  1.00  0.00     0.041 C 
ATOM     11  O   UNL     1       0.251  19.820  20.282  1.00  0.00    -0.550 OA
ATOM     12  O   UNL     1       1.221  19.896  18.206  1.00  0.00    -0.550 OA
ENDBRANCH   9  10
ENDBRANCH   8   9
ENDBRANCH   7   8
ENDBRANCH   6   7
ENDBRANCH   5   6
ENDBRANCH   4   5
ENDBRANCH   3   4
ENDBRANCH   1   3
BRANCH   2  13
ATOM     13  C   UNL     1       6.618  11.023  20.814  1.00  0.00     0.027 C 
BRANCH  13  14
ATOM     14  C   UNL     1       7.541  10.650  19.644  1.00  0.00     0.004 C 
BRANCH  14  15
ATOM     15  C   UNL     1       7.077  11.254  18.309  1.00  0.00     0.000 C 
BRANCH  15  16
ATOM     16  C   UNL     1       6.806  10.185  17.240  1.00  0.00     0.000 C 
BRANCH  16  17
ATOM     17  C   UNL     1       5.358  10.267  16.735  1.00  0.00    -0.000 C 
BRANCH  17  18
ATOM     18  C   UNL     1       4.471   9.142  17.292  1.00  0.00    -0.000 C 
BRANCH  18  19
ATOM     19  C   UNL     1       3.001   9.283  16.868  1.00  0.00    -0.003 C 
ATOM     20  C   UNL     1       2.063   8.828  17.984  1.00  0.00     0.004 C 
ENDBRANCH  18  19
ENDBRANCH  17  18
ENDBRANCH  16  17
ENDBRANCH  15  16
ENDBRANCH  14  15
ENDBRANCH  13  14
ENDBRANCH   2  13
TORSDOF 15
ENDMDL
