MODEL 1
REMARK VINA RESULT:    -6.559      0.000      0.000
REMARK INTER + INTRA:         -11.366
REMARK INTER:                  -9.626
REMARK INTRA:                  -1.740
REMARK UNBOUND:                -1.740
REMARK SMILES O=c1c(O[C@@H]2O[C@@H](CO)[C@H](O)[C@H](O)[C@H]2O)c(-c2ccc(O)c(O)c2)oc2cc(O)cc(O)c12
REMARK SMILES IDX 4 1 3 2 16 3 25 4 2 5 26 6 1 7 33 8 27 9 31 10 28 11 30 12
REMARK SMILES IDX 17 13 18 14 19 15 20 16 24 17 22 18 21 19 23 21 32 23 29 25
REMARK SMILES IDX 5 27 14 28 6 29 12 30 7 31 10 32 15 33 13 35 8 37 9 38 11 40
REMARK H PARENT 21 20 23 22 32 24 29 26 15 34 13 36 9 39 11 41
REMARK Flexibility Score: inf
ROOT
ATOM      1  O   UNL     1     -37.331   5.394  82.068  1.00  0.00    -0.454 OA
ENDROOT
BRANCH   1   2
ATOM      2  C   UNL     1     -38.091   4.849  81.021  1.00  0.00     0.214 A 
ATOM      3  C   UNL     1     -37.567   4.814  79.720  1.00  0.00     0.180 A 
ATOM      4  O   UNL     1     -38.321   4.396  78.711  1.00  0.00    -0.452 OA
ATOM      5  C   UNL     1     -39.377   4.326  81.246  1.00  0.00     0.239 A 
ATOM      6  C   UNL     1     -39.555   3.933  78.867  1.00  0.00     0.146 A 
ATOM      7  O   UNL     1     -39.828   4.316  82.419  1.00  0.00    -0.285 OA
ATOM      8  C   UNL     1     -40.138   3.829  80.157  1.00  0.00     0.111 A 
ATOM      9  C   UNL     1     -40.269   3.548  77.731  1.00  0.00     0.094 A 
ATOM     10  C   UNL     1     -41.448   3.262  80.269  1.00  0.00     0.134 A 
ATOM     11  C   UNL     1     -41.564   3.045  77.847  1.00  0.00     0.123 A 
ATOM     12  C   UNL     1     -42.145   2.905  79.110  1.00  0.00     0.093 A 
BRANCH   3  13
ATOM     13  C   UNL     1     -36.197   5.271  79.427  1.00  0.00     0.025 A 
ATOM     14  C   UNL     1     -35.105   4.513  79.878  1.00  0.00     0.016 A 
ATOM     15  C   UNL     1     -33.801   4.918  79.588  1.00  0.00     0.051 A 
ATOM     16  C   UNL     1     -33.572   6.095  78.861  1.00  0.00     0.157 A 
ATOM     17  C   UNL     1     -35.966   6.461  78.715  1.00  0.00     0.062 A 
ATOM     18  C   UNL     1     -34.660   6.874  78.429  1.00  0.00     0.158 A 
BRANCH  16  19
ATOM     19  O   UNL     1     -32.268   6.496  78.570  1.00  0.00    -0.504 OA
ATOM     20  H   UNL     1     -31.944   7.439  78.768  1.00  0.00     0.293 HD
ENDBRANCH  16  19
BRANCH  18  21
ATOM     21  O   UNL     1     -34.465   8.056  77.716  1.00  0.00    -0.504 OA
ATOM     22  H   UNL     1     -34.901   8.218  76.819  1.00  0.00     0.293 HD
ENDBRANCH  18  21
ENDBRANCH   3  13
BRANCH  10  23
ATOM     23  O   UNL     1     -42.099   3.008  81.481  1.00  0.00    -0.507 OA
ATOM     24  H   UNL     1     -41.713   3.159  82.398  1.00  0.00     0.293 HD
ENDBRANCH  10  23
BRANCH  11  25
ATOM     25  O   UNL     1     -42.264   2.679  76.702  1.00  0.00    -0.508 OA
ATOM     26  H   UNL     1     -42.307   3.285  75.887  1.00  0.00     0.293 HD
ENDBRANCH  11  25
ENDBRANCH   1   2
BRANCH   1  27
ATOM     27  C   UNL     1     -37.531   6.722  82.575  1.00  0.00     0.339 C 
ATOM     28  C   UNL     1     -37.565   6.711  84.123  1.00  0.00     0.214 C 
ATOM     29  O   UNL     1     -36.548   7.617  82.069  1.00  0.00    -0.332 OA
ATOM     30  C   UNL     1     -36.161   6.496  84.724  1.00  0.00     0.180 C 
ATOM     31  C   UNL     1     -35.242   7.276  82.508  1.00  0.00     0.179 C 
ATOM     32  C   UNL     1     -35.130   7.415  84.045  1.00  0.00     0.177 C 
BRANCH  28  33
ATOM     33  O   UNL     1     -38.146   7.891  84.627  1.00  0.00    -0.384 OA
ATOM     34  H   UNL     1     -39.035   8.010  84.193  1.00  0.00     0.211 HD
ENDBRANCH  28  33
BRANCH  30  35
ATOM     35  O   UNL     1     -35.773   5.155  84.565  1.00  0.00    -0.387 OA
ATOM     36  H   UNL     1     -35.298   5.092  83.697  1.00  0.00     0.211 HD
ENDBRANCH  30  35
BRANCH  31  37
ATOM     37  C   UNL     1     -34.244   8.186  81.779  1.00  0.00     0.191 C 
BRANCH  37  38
ATOM     38  O   UNL     1     -32.943   7.675  81.887  1.00  0.00    -0.394 OA
ATOM     39  H   UNL     1     -32.876   7.278  82.796  1.00  0.00     0.210 HD
ENDBRANCH  37  38
ENDBRANCH  31  37
BRANCH  32  40
ATOM     40  O   UNL     1     -33.843   7.052  84.478  1.00  0.00    -0.387 OA
ATOM     41  H   UNL     1     -33.889   6.880  85.454  1.00  0.00     0.211 HD
ENDBRANCH  32  40
ENDBRANCH   1  27
TORSDOF 12
ENDMDL
MODEL 2
REMARK VINA RESULT:    -6.401      2.210      6.479
REMARK INTER + INTRA:         -11.135
REMARK INTER:                  -9.688
REMARK INTRA:                  -1.446
REMARK UNBOUND:                -1.740
REMARK SMILES O=c1c(O[C@@H]2O[C@@H](CO)[C@H](O)[C@H](O)[C@H]2O)c(-c2ccc(O)c(O)c2)oc2cc(O)cc(O)c12
REMARK SMILES IDX 4 1 3 2 16 3 25 4 2 5 26 6 1 7 33 8 27 9 31 10 28 11 30 12
REMARK SMILES IDX 17 13 18 14 19 15 20 16 24 17 22 18 21 19 23 21 32 23 29 25
REMARK SMILES IDX 5 27 14 28 6 29 12 30 7 31 10 32 15 33 13 35 8 37 9 38 11 40
REMARK H PARENT 21 20 23 22 32 24 29 26 15 34 13 36 9 39 11 41
REMARK Flexibility Score: inf
ROOT
ATOM      1  O   UNL     1     -37.082   5.402  81.868  1.00  0.00    -0.454 OA
ENDROOT
BRANCH   1   2
ATOM      2  C   UNL     1     -36.560   6.192  80.832  1.00  0.00     0.214 A 
ATOM      3  C   UNL     1     -36.966   5.968  79.508  1.00  0.00     0.180 A 
ATOM      4  O   UNL     1     -36.398   6.642  78.516  1.00  0.00    -0.452 OA
ATOM      5  C   UNL     1     -35.632   7.217  81.090  1.00  0.00     0.239 A 
ATOM      6  C   UNL     1     -35.487   7.588  78.706  1.00  0.00     0.146 A 
ATOM      7  O   UNL     1     -35.302   7.446  82.281  1.00  0.00    -0.285 OA
ATOM      8  C   UNL     1     -35.084   7.962  80.015  1.00  0.00     0.111 A 
ATOM      9  C   UNL     1     -34.932   8.212  77.587  1.00  0.00     0.094 A 
ATOM     10  C   UNL     1     -34.147   9.033  80.160  1.00  0.00     0.134 A 
ATOM     11  C   UNL     1     -33.980   9.219  77.738  1.00  0.00     0.123 A 
ATOM     12  C   UNL     1     -33.594   9.624  79.018  1.00  0.00     0.093 A 
BRANCH   3  13
ATOM     13  C   UNL     1     -37.994   4.967  79.174  1.00  0.00     0.025 A 
ATOM     14  C   UNL     1     -39.352   5.298  79.308  1.00  0.00     0.016 A 
ATOM     15  C   UNL     1     -40.339   4.369  78.974  1.00  0.00     0.051 A 
ATOM     16  C   UNL     1     -39.981   3.091  78.519  1.00  0.00     0.157 A 
ATOM     17  C   UNL     1     -37.637   3.679  78.739  1.00  0.00     0.062 A 
ATOM     18  C   UNL     1     -38.623   2.743  78.409  1.00  0.00     0.158 A 
BRANCH  16  19
ATOM     19  O   UNL     1     -40.969   2.167  78.182  1.00  0.00    -0.504 OA
ATOM     20  H   UNL     1     -41.957   2.403  78.231  1.00  0.00     0.293 HD
ENDBRANCH  16  19
BRANCH  18  21
ATOM     21  O   UNL     1     -38.236   1.476  77.973  1.00  0.00    -0.504 OA
ATOM     22  H   UNL     1     -37.548   0.927  78.469  1.00  0.00     0.293 HD
ENDBRANCH  18  21
ENDBRANCH   3  13
BRANCH  10  23
ATOM     23  O   UNL     1     -33.742   9.570  81.387  1.00  0.00    -0.507 OA
ATOM     24  H   UNL     1     -33.266   9.070  82.118  1.00  0.00     0.293 HD
ENDBRANCH  10  23
BRANCH  11  25
ATOM     25  O   UNL     1     -33.430   9.819  76.610  1.00  0.00    -0.508 OA
ATOM     26  H   UNL     1     -33.887  10.599  76.145  1.00  0.00     0.293 HD
ENDBRANCH  11  25
ENDBRANCH   1   2
BRANCH   1  27
ATOM     27  C   UNL     1     -36.571   4.103  82.201  1.00  0.00     0.339 C 
ATOM     28  C   UNL     1     -36.053   4.081  83.659  1.00  0.00     0.214 C 
ATOM     29  O   UNL     1     -37.545   3.093  81.965  1.00  0.00    -0.332 OA
ATOM     30  C   UNL     1     -37.211   4.086  84.677  1.00  0.00     0.180 C 
ATOM     31  C   UNL     1     -38.678   3.241  82.808  1.00  0.00     0.179 C 
ATOM     32  C   UNL     1     -38.282   3.051  84.291  1.00  0.00     0.177 C 
BRANCH  28  33
ATOM     33  O   UNL     1     -35.202   2.981  83.881  1.00  0.00    -0.384 OA
ATOM     34  H   UNL     1     -34.549   2.937  83.130  1.00  0.00     0.211 HD
ENDBRANCH  28  33
BRANCH  30  35
ATOM     35  O   UNL     1     -37.792   5.366  84.735  1.00  0.00    -0.387 OA
ATOM     36  H   UNL     1     -38.751   5.258  84.506  1.00  0.00     0.211 HD
ENDBRANCH  30  35
BRANCH  31  37
ATOM     37  C   UNL     1     -39.734   2.220  82.365  1.00  0.00     0.191 C 
BRANCH  37  38
ATOM     38  O   UNL     1     -39.434   0.949  82.875  1.00  0.00    -0.394 OA
ATOM     39  H   UNL     1     -40.061   0.799  83.631  1.00  0.00     0.210 HD
ENDBRANCH  37  38
ENDBRANCH  31  37
BRANCH  32  40
ATOM     40  O   UNL     1     -39.402   3.223  85.124  1.00  0.00    -0.387 OA
ATOM     41  H   UNL     1     -39.888   2.360  85.160  1.00  0.00     0.211 HD
ENDBRANCH  32  40
ENDBRANCH   1  27
TORSDOF 12
ENDMDL
MODEL 3
REMARK VINA RESULT:    -6.276      1.428      2.940
REMARK INTER + INTRA:         -10.951
REMARK INTER:                 -10.492
REMARK INTRA:                  -0.459
REMARK UNBOUND:                -1.740
REMARK SMILES O=c1c(O[C@@H]2O[C@@H](CO)[C@H](O)[C@H](O)[C@H]2O)c(-c2ccc(O)c(O)c2)oc2cc(O)cc(O)c12
REMARK SMILES IDX 4 1 3 2 16 3 25 4 2 5 26 6 1 7 33 8 27 9 31 10 28 11 30 12
REMARK SMILES IDX 17 13 18 14 19 15 20 16 24 17 22 18 21 19 23 21 32 23 29 25
REMARK SMILES IDX 5 27 14 28 6 29 12 30 7 31 10 32 15 33 13 35 8 37 9 38 11 40
REMARK H PARENT 21 20 23 22 32 24 29 26 15 34 13 36 9 39 11 41
REMARK Flexibility Score: inf
ROOT
ATOM      1  O   UNL     1     -37.942   5.883  81.703  1.00  0.00    -0.454 OA
ENDROOT
BRANCH   1   2
ATOM      2  C   UNL     1     -38.619   5.178  80.697  1.00  0.00     0.214 A 
ATOM      3  C   UNL     1     -37.995   4.946  79.462  1.00  0.00     0.180 A 
ATOM      4  O   UNL     1     -38.670   4.372  78.474  1.00  0.00    -0.452 OA
ATOM      5  C   UNL     1     -39.923   4.688  80.897  1.00  0.00     0.239 A 
ATOM      6  C   UNL     1     -39.915   3.931  78.602  1.00  0.00     0.146 A 
ATOM      7  O   UNL     1     -40.464   4.856  82.019  1.00  0.00    -0.285 OA
ATOM      8  C   UNL     1     -40.599   4.024  79.842  1.00  0.00     0.111 A 
ATOM      9  C   UNL     1     -40.539   3.370  77.486  1.00  0.00     0.094 A 
ATOM     10  C   UNL     1     -41.916   3.473  79.937  1.00  0.00     0.134 A 
ATOM     11  C   UNL     1     -41.843   2.883  77.576  1.00  0.00     0.123 A 
ATOM     12  C   UNL     1     -42.522   2.936  78.796  1.00  0.00     0.093 A 
BRANCH   3  13
ATOM     13  C   UNL     1     -36.604   5.361  79.210  1.00  0.00     0.025 A 
ATOM     14  C   UNL     1     -35.559   4.453  79.445  1.00  0.00     0.016 A 
ATOM     15  C   UNL     1     -34.237   4.821  79.190  1.00  0.00     0.051 A 
ATOM     16  C   UNL     1     -33.941   6.107  78.714  1.00  0.00     0.157 A 
ATOM     17  C   UNL     1     -36.304   6.656  78.753  1.00  0.00     0.062 A 
ATOM     18  C   UNL     1     -34.980   7.031  78.502  1.00  0.00     0.158 A 
BRANCH  16  19
ATOM     19  O   UNL     1     -32.619   6.471  78.456  1.00  0.00    -0.504 OA
ATOM     20  H   UNL     1     -31.914   6.468  79.189  1.00  0.00     0.293 HD
ENDBRANCH  16  19
BRANCH  18  21
ATOM     21  O   UNL     1     -34.716   8.321  78.043  1.00  0.00    -0.504 OA
ATOM     22  H   UNL     1     -35.455   8.991  77.876  1.00  0.00     0.293 HD
ENDBRANCH  18  21
ENDBRANCH   3  13
BRANCH  10  23
ATOM     23  O   UNL     1     -42.662   3.404  81.118  1.00  0.00    -0.507 OA
ATOM     24  H   UNL     1     -42.534   3.987  81.928  1.00  0.00     0.293 HD
ENDBRANCH  10  23
BRANCH  11  25
ATOM     25  O   UNL     1     -42.452   2.340  76.449  1.00  0.00    -0.508 OA
ATOM     26  H   UNL     1     -42.284   1.379  76.165  1.00  0.00     0.293 HD
ENDBRANCH  11  25
ENDBRANCH   1   2
BRANCH   1  27
ATOM     27  C   UNL     1     -36.887   5.311  82.491  1.00  0.00     0.339 C 
ATOM     28  C   UNL     1     -36.939   5.853  83.940  1.00  0.00     0.214 C 
ATOM     29  O   UNL     1     -36.930   3.890  82.450  1.00  0.00    -0.332 OA
ATOM     30  C   UNL     1     -38.110   5.244  84.736  1.00  0.00     0.180 C 
ATOM     31  C   UNL     1     -38.115   3.377  83.041  1.00  0.00     0.179 C 
ATOM     32  C   UNL     1     -38.163   3.718  84.549  1.00  0.00     0.177 C 
BRANCH  28  33
ATOM     33  O   UNL     1     -35.718   5.635  84.609  1.00  0.00    -0.384 OA
ATOM     34  H   UNL     1     -35.039   6.256  84.225  1.00  0.00     0.211 HD
ENDBRANCH  28  33
BRANCH  30  35
ATOM     35  O   UNL     1     -39.324   5.813  84.312  1.00  0.00    -0.387 OA
ATOM     36  H   UNL     1     -40.017   5.108  84.390  1.00  0.00     0.211 HD
ENDBRANCH  30  35
BRANCH  31  37
ATOM     37  C   UNL     1     -38.148   1.862  82.797  1.00  0.00     0.191 C 
BRANCH  37  38
ATOM     38  O   UNL     1     -39.469   1.417  82.648  1.00  0.00    -0.394 OA
ATOM     39  H   UNL     1     -40.030   2.234  82.582  1.00  0.00     0.210 HD
ENDBRANCH  37  38
ENDBRANCH  31  37
BRANCH  32  40
ATOM     40  O   UNL     1     -39.350   3.230  85.124  1.00  0.00    -0.387 OA
ATOM     41  H   UNL     1     -39.968   3.996  85.239  1.00  0.00     0.211 HD
ENDBRANCH  32  40
ENDBRANCH   1  27
TORSDOF 12
ENDMDL
MODEL 4
REMARK VINA RESULT:    -6.275      0.983      1.872
REMARK INTER + INTRA:         -10.949
REMARK INTER:                  -9.603
REMARK INTRA:                  -1.346
REMARK UNBOUND:                -1.740
REMARK SMILES O=c1c(O[C@@H]2O[C@@H](CO)[C@H](O)[C@H](O)[C@H]2O)c(-c2ccc(O)c(O)c2)oc2cc(O)cc(O)c12
REMARK SMILES IDX 4 1 3 2 16 3 25 4 2 5 26 6 1 7 33 8 27 9 31 10 28 11 30 12
REMARK SMILES IDX 17 13 18 14 19 15 20 16 24 17 22 18 21 19 23 21 32 23 29 25
REMARK SMILES IDX 5 27 14 28 6 29 12 30 7 31 10 32 15 33 13 35 8 37 9 38 11 40
REMARK H PARENT 21 20 23 22 32 24 29 26 15 34 13 36 9 39 11 41
REMARK Flexibility Score: inf
ROOT
ATOM      1  O   UNL     1     -37.635   5.846  81.812  1.00  0.00    -0.454 OA
ENDROOT
BRANCH   1   2
ATOM      2  C   UNL     1     -38.342   5.159  80.813  1.00  0.00     0.214 A 
ATOM      3  C   UNL     1     -37.741   4.921  79.567  1.00  0.00     0.180 A 
ATOM      4  O   UNL     1     -38.442   4.365  78.587  1.00  0.00    -0.452 OA
ATOM      5  C   UNL     1     -39.652   4.695  81.030  1.00  0.00     0.239 A 
ATOM      6  C   UNL     1     -39.693   3.949  78.732  1.00  0.00     0.146 A 
ATOM      7  O   UNL     1     -40.173   4.870  82.161  1.00  0.00    -0.285 OA
ATOM      8  C   UNL     1     -40.357   4.050  79.983  1.00  0.00     0.111 A 
ATOM      9  C   UNL     1     -40.346   3.406  77.623  1.00  0.00     0.094 A 
ATOM     10  C   UNL     1     -41.684   3.526  80.095  1.00  0.00     0.134 A 
ATOM     11  C   UNL     1     -41.658   2.946  77.730  1.00  0.00     0.123 A 
ATOM     12  C   UNL     1     -42.318   3.007  78.960  1.00  0.00     0.093 A 
BRANCH   3  13
ATOM     13  C   UNL     1     -36.345   5.307  79.297  1.00  0.00     0.025 A 
ATOM     14  C   UNL     1     -35.305   4.432  79.648  1.00  0.00     0.016 A 
ATOM     15  C   UNL     1     -33.978   4.773  79.378  1.00  0.00     0.051 A 
ATOM     16  C   UNL     1     -33.674   6.000  78.770  1.00  0.00     0.157 A 
ATOM     17  C   UNL     1     -36.037   6.546  78.707  1.00  0.00     0.062 A 
ATOM     18  C   UNL     1     -34.709   6.893  78.440  1.00  0.00     0.158 A 
BRANCH  16  19
ATOM     19  O   UNL     1     -32.348   6.335  78.497  1.00  0.00    -0.504 OA
ATOM     20  H   UNL     1     -31.580   5.957  79.046  1.00  0.00     0.293 HD
ENDBRANCH  16  19
BRANCH  18  21
ATOM     21  O   UNL     1     -34.437   8.126  77.848  1.00  0.00    -0.504 OA
ATOM     22  H   UNL     1     -34.267   8.958  78.397  1.00  0.00     0.293 HD
ENDBRANCH  18  21
ENDBRANCH   3  13
BRANCH  10  23
ATOM     23  O   UNL     1     -42.413   3.467  81.287  1.00  0.00    -0.507 OA
ATOM     24  H   UNL     1     -43.094   2.765  81.525  1.00  0.00     0.293 HD
ENDBRANCH  10  23
BRANCH  11  25
ATOM     25  O   UNL     1     -42.295   2.420  76.611  1.00  0.00    -0.508 OA
ATOM     26  H   UNL     1     -42.591   3.013  75.840  1.00  0.00     0.293 HD
ENDBRANCH  11  25
ENDBRANCH   1   2
BRANCH   1  27
ATOM     27  C   UNL     1     -37.385   5.300  83.115  1.00  0.00     0.339 C 
ATOM     28  C   UNL     1     -35.903   4.874  83.250  1.00  0.00     0.214 C 
ATOM     29  O   UNL     1     -37.773   6.213  84.135  1.00  0.00    -0.332 OA
ATOM     30  C   UNL     1     -34.968   6.093  83.381  1.00  0.00     0.180 C 
ATOM     31  C   UNL     1     -36.998   7.401  84.109  1.00  0.00     0.179 C 
ATOM     32  C   UNL     1     -35.514   7.091  84.417  1.00  0.00     0.177 C 
BRANCH  28  33
ATOM     33  O   UNL     1     -35.723   3.992  84.332  1.00  0.00    -0.384 OA
ATOM     34  H   UNL     1     -36.479   4.122  84.969  1.00  0.00     0.211 HD
ENDBRANCH  28  33
BRANCH  30  35
ATOM     35  O   UNL     1     -34.836   6.732  82.136  1.00  0.00    -0.387 OA
ATOM     36  H   UNL     1     -34.170   6.216  81.615  1.00  0.00     0.211 HD
ENDBRANCH  30  35
BRANCH  31  37
ATOM     37  C   UNL     1     -37.599   8.382  85.124  1.00  0.00     0.191 C 
BRANCH  37  38
ATOM     38  O   UNL     1     -37.295   9.704  84.770  1.00  0.00    -0.394 OA
ATOM     39  H   UNL     1     -37.956   9.963  84.074  1.00  0.00     0.210 HD
ENDBRANCH  37  38
ENDBRANCH  31  37
BRANCH  32  40
ATOM     40  O   UNL     1     -34.745   8.268  84.364  1.00  0.00    -0.387 OA
ATOM     41  H   UNL     1     -33.799   8.005  84.233  1.00  0.00     0.211 HD
ENDBRANCH  32  40
ENDBRANCH   1  27
TORSDOF 12
ENDMDL
MODEL 5
REMARK VINA RESULT:    -6.248      2.884      5.201
REMARK INTER + INTRA:         -10.910
REMARK INTER:                  -9.787
REMARK INTRA:                  -1.123
REMARK UNBOUND:                -1.740
REMARK SMILES O=c1c(O[C@@H]2O[C@@H](CO)[C@H](O)[C@H](O)[C@H]2O)c(-c2ccc(O)c(O)c2)oc2cc(O)cc(O)c12
REMARK SMILES IDX 4 1 3 2 16 3 25 4 2 5 26 6 1 7 33 8 27 9 31 10 28 11 30 12
REMARK SMILES IDX 17 13 18 14 19 15 20 16 24 17 22 18 21 19 23 21 32 23 29 25
REMARK SMILES IDX 5 27 14 28 6 29 12 30 7 31 10 32 15 33 13 35 8 37 9 38 11 40
REMARK H PARENT 21 20 23 22 32 24 29 26 15 34 13 36 9 39 11 41
REMARK Flexibility Score: inf
ROOT
ATOM      1  O   UNL     1     -38.496   5.970  79.036  1.00  0.00    -0.454 OA
ENDROOT
BRANCH   1   2
ATOM      2  C   UNL     1     -38.493   5.042  80.089  1.00  0.00     0.214 A 
ATOM      3  C   UNL     1     -37.275   4.598  80.628  1.00  0.00     0.180 A 
ATOM      4  O   UNL     1     -37.265   3.645  81.550  1.00  0.00    -0.452 OA
ATOM      5  C   UNL     1     -39.692   4.542  80.627  1.00  0.00     0.239 A 
ATOM      6  C   UNL     1     -38.369   3.112  82.059  1.00  0.00     0.146 A 
ATOM      7  O   UNL     1     -40.782   4.973  80.175  1.00  0.00    -0.285 OA
ATOM      8  C   UNL     1     -39.652   3.566  81.655  1.00  0.00     0.111 A 
ATOM      9  C   UNL     1     -38.241   2.092  83.004  1.00  0.00     0.094 A 
ATOM     10  C   UNL     1     -40.805   2.999  82.286  1.00  0.00     0.134 A 
ATOM     11  C   UNL     1     -39.372   1.510  83.573  1.00  0.00     0.123 A 
ATOM     12  C   UNL     1     -40.644   1.964  83.214  1.00  0.00     0.093 A 
BRANCH   3  13
ATOM     13  C   UNL     1     -35.984   5.139  80.167  1.00  0.00     0.025 A 
ATOM     14  C   UNL     1     -35.436   4.685  78.958  1.00  0.00     0.016 A 
ATOM     15  C   UNL     1     -34.226   5.204  78.495  1.00  0.00     0.051 A 
ATOM     16  C   UNL     1     -33.539   6.170  79.245  1.00  0.00     0.157 A 
ATOM     17  C   UNL     1     -35.285   6.092  80.928  1.00  0.00     0.062 A 
ATOM     18  C   UNL     1     -34.069   6.611  80.471  1.00  0.00     0.158 A 
BRANCH  16  19
ATOM     19  O   UNL     1     -32.332   6.690  78.778  1.00  0.00    -0.504 OA
ATOM     20  H   UNL     1     -31.602   6.088  78.406  1.00  0.00     0.293 HD
ENDBRANCH  16  19
BRANCH  18  21
ATOM     21  O   UNL     1     -33.403   7.560  81.246  1.00  0.00    -0.504 OA
ATOM     22  H   UNL     1     -33.784   8.482  81.406  1.00  0.00     0.293 HD
ENDBRANCH  18  21
ENDBRANCH   3  13
BRANCH  10  23
ATOM     23  O   UNL     1     -42.119   3.422  82.061  1.00  0.00    -0.507 OA
ATOM     24  H   UNL     1     -42.584   4.176  82.539  1.00  0.00     0.293 HD
ENDBRANCH  10  23
BRANCH  11  25
ATOM     25  O   UNL     1     -39.224   0.486  84.503  1.00  0.00    -0.508 OA
ATOM     26  H   UNL     1     -39.178   0.675  85.501  1.00  0.00     0.293 HD
ENDBRANCH  11  25
ENDBRANCH   1   2
BRANCH   1  27
ATOM     27  C   UNL     1     -38.016   7.316  79.172  1.00  0.00     0.339 C 
ATOM     28  C   UNL     1     -37.251   7.750  77.898  1.00  0.00     0.214 C 
ATOM     29  O   UNL     1     -39.077   8.209  79.488  1.00  0.00    -0.332 OA
ATOM     30  C   UNL     1     -38.209   8.018  76.720  1.00  0.00     0.180 C 
ATOM     31  C   UNL     1     -40.032   8.291  78.441  1.00  0.00     0.179 C 
ATOM     32  C   UNL     1     -39.393   8.892  77.167  1.00  0.00     0.177 C 
BRANCH  28  33
ATOM     33  O   UNL     1     -36.444   8.877  78.148  1.00  0.00    -0.384 OA
ATOM     34  H   UNL     1     -35.683   8.864  77.505  1.00  0.00     0.211 HD
ENDBRANCH  28  33
BRANCH  30  35
ATOM     35  O   UNL     1     -38.690   6.800  76.208  1.00  0.00    -0.387 OA
ATOM     36  H   UNL     1     -39.204   7.014  75.389  1.00  0.00     0.211 HD
ENDBRANCH  30  35
BRANCH  31  37
ATOM     37  C   UNL     1     -41.211   9.136  78.941  1.00  0.00     0.191 C 
BRANCH  37  38
ATOM     38  O   UNL     1     -42.412   8.690  78.371  1.00  0.00    -0.394 OA
ATOM     39  H   UNL     1     -42.673   7.876  78.877  1.00  0.00     0.210 HD
ENDBRANCH  37  38
ENDBRANCH  31  37
BRANCH  32  40
ATOM     40  O   UNL     1     -40.335   8.948  76.125  1.00  0.00    -0.387 OA
ATOM     41  H   UNL     1     -40.661   9.882  76.061  1.00  0.00     0.211 HD
ENDBRANCH  32  40
ENDBRANCH   1  27
TORSDOF 12
ENDMDL
MODEL 6
REMARK VINA RESULT:    -6.218      2.474      6.897
REMARK INTER + INTRA:         -10.866
REMARK INTER:                  -9.694
REMARK INTRA:                  -1.172
REMARK UNBOUND:                -1.740
REMARK SMILES O=c1c(O[C@@H]2O[C@@H](CO)[C@H](O)[C@H](O)[C@H]2O)c(-c2ccc(O)c(O)c2)oc2cc(O)cc(O)c12
REMARK SMILES IDX 4 1 3 2 16 3 25 4 2 5 26 6 1 7 33 8 27 9 31 10 28 11 30 12
REMARK SMILES IDX 17 13 18 14 19 15 20 16 24 17 22 18 21 19 23 21 32 23 29 25
REMARK SMILES IDX 5 27 14 28 6 29 12 30 7 31 10 32 15 33 13 35 8 37 9 38 11 40
REMARK H PARENT 21 20 23 22 32 24 29 26 15 34 13 36 9 39 11 41
REMARK Flexibility Score: inf
ROOT
ATOM      1  O   UNL     1     -37.398   3.679  82.593  1.00  0.00    -0.454 OA
ENDROOT
BRANCH   1   2
ATOM      2  C   UNL     1     -36.540   4.660  82.073  1.00  0.00     0.214 A 
ATOM      3  C   UNL     1     -36.624   5.016  80.718  1.00  0.00     0.180 A 
ATOM      4  O   UNL     1     -35.746   5.866  80.199  1.00  0.00    -0.452 OA
ATOM      5  C   UNL     1     -35.589   5.305  82.884  1.00  0.00     0.239 A 
ATOM      6  C   UNL     1     -34.805   6.468  80.915  1.00  0.00     0.146 A 
ATOM      7  O   UNL     1     -35.545   5.017  84.106  1.00  0.00    -0.285 OA
ATOM      8  C   UNL     1     -34.703   6.254  82.315  1.00  0.00     0.111 A 
ATOM      9  C   UNL     1     -33.915   7.321  80.259  1.00  0.00     0.094 A 
ATOM     10  C   UNL     1     -33.709   6.981  83.044  1.00  0.00     0.134 A 
ATOM     11  C   UNL     1     -32.916   7.984  80.972  1.00  0.00     0.123 A 
ATOM     12  C   UNL     1     -32.818   7.812  82.355  1.00  0.00     0.093 A 
BRANCH   3  13
ATOM     13  C   UNL     1     -37.648   4.439  79.830  1.00  0.00     0.025 A 
ATOM     14  C   UNL     1     -38.816   5.169  79.557  1.00  0.00     0.016 A 
ATOM     15  C   UNL     1     -39.786   4.648  78.699  1.00  0.00     0.051 A 
ATOM     16  C   UNL     1     -39.609   3.383  78.117  1.00  0.00     0.157 A 
ATOM     17  C   UNL     1     -37.481   3.164  79.263  1.00  0.00     0.062 A 
ATOM     18  C   UNL     1     -38.454   2.635  78.407  1.00  0.00     0.158 A 
BRANCH  16  19
ATOM     19  O   UNL     1     -40.578   2.867  77.257  1.00  0.00    -0.504 OA
ATOM     20  H   UNL     1     -40.762   3.287  76.350  1.00  0.00     0.293 HD
ENDBRANCH  16  19
BRANCH  18  21
ATOM     21  O   UNL     1     -38.256   1.370  77.856  1.00  0.00    -0.504 OA
ATOM     22  H   UNL     1     -38.996   0.683  77.812  1.00  0.00     0.293 HD
ENDBRANCH  18  21
ENDBRANCH   3  13
BRANCH  10  23
ATOM     23  O   UNL     1     -33.564   6.945  84.435  1.00  0.00    -0.507 OA
ATOM     24  H   UNL     1     -33.326   7.728  85.022  1.00  0.00     0.293 HD
ENDBRANCH  10  23
BRANCH  11  25
ATOM     25  O   UNL     1     -32.031   8.819  80.298  1.00  0.00    -0.508 OA
ATOM     26  H   UNL     1     -31.916   9.795  80.560  1.00  0.00     0.293 HD
ENDBRANCH  11  25
ENDBRANCH   1   2
BRANCH   1  27
ATOM     27  C   UNL     1     -38.213   3.883  83.757  1.00  0.00     0.339 C 
ATOM     28  C   UNL     1     -39.677   4.179  83.349  1.00  0.00     0.214 C 
ATOM     29  O   UNL     1     -38.120   2.778  84.648  1.00  0.00    -0.332 OA
ATOM     30  C   UNL     1     -40.396   2.912  82.844  1.00  0.00     0.180 C 
ATOM     31  C   UNL     1     -38.637   1.587  84.074  1.00  0.00     0.179 C 
ATOM     32  C   UNL     1     -40.153   1.729  83.797  1.00  0.00     0.177 C 
BRANCH  28  33
ATOM     33  O   UNL     1     -40.392   4.767  84.410  1.00  0.00    -0.384 OA
ATOM     34  H   UNL     1     -39.757   4.929  85.161  1.00  0.00     0.211 HD
ENDBRANCH  28  33
BRANCH  30  35
ATOM     35  O   UNL     1     -39.937   2.581  81.557  1.00  0.00    -0.387 OA
ATOM     36  H   UNL     1     -40.675   2.102  81.101  1.00  0.00     0.211 HD
ENDBRANCH  30  35
BRANCH  31  37
ATOM     37  C   UNL     1     -38.339   0.429  85.035  1.00  0.00     0.191 C 
BRANCH  37  38
ATOM     38  O   UNL     1     -38.346  -0.793  84.349  1.00  0.00    -0.394 OA
ATOM     39  H   UNL     1     -37.843  -1.434  84.919  1.00  0.00     0.210 HD
ENDBRANCH  37  38
ENDBRANCH  31  37
BRANCH  32  40
ATOM     40  O   UNL     1     -40.656   0.557  83.205  1.00  0.00    -0.387 OA
ATOM     41  H   UNL     1     -40.646  -0.157  83.892  1.00  0.00     0.211 HD
ENDBRANCH  32  40
ENDBRANCH   1  27
TORSDOF 12
ENDMDL
MODEL 7
REMARK VINA RESULT:    -6.122      2.765      4.641
REMARK INTER + INTRA:         -10.725
REMARK INTER:                  -9.307
REMARK INTRA:                  -1.418
REMARK UNBOUND:                -1.740
REMARK SMILES O=c1c(O[C@@H]2O[C@@H](CO)[C@H](O)[C@H](O)[C@H]2O)c(-c2ccc(O)c(O)c2)oc2cc(O)cc(O)c12
REMARK SMILES IDX 4 1 3 2 16 3 25 4 2 5 26 6 1 7 33 8 27 9 31 10 28 11 30 12
REMARK SMILES IDX 17 13 18 14 19 15 20 16 24 17 22 18 21 19 23 21 32 23 29 25
REMARK SMILES IDX 5 27 14 28 6 29 12 30 7 31 10 32 15 33 13 35 8 37 9 38 11 40
REMARK H PARENT 21 20 23 22 32 24 29 26 15 34 13 36 9 39 11 41
REMARK Flexibility Score: inf
ROOT
ATOM      1  O   UNL     1     -36.693   6.033  79.660  1.00  0.00    -0.454 OA
ENDROOT
BRANCH   1   2
ATOM      2  C   UNL     1     -37.779   5.358  80.239  1.00  0.00     0.214 A 
ATOM      3  C   UNL     1     -39.091   5.740  79.920  1.00  0.00     0.180 A 
ATOM      4  O   UNL     1     -40.117   5.175  80.543  1.00  0.00    -0.452 OA
ATOM      5  C   UNL     1     -37.584   4.295  81.138  1.00  0.00     0.239 A 
ATOM      6  C   UNL     1     -39.981   4.197  81.430  1.00  0.00     0.146 A 
ATOM      7  O   UNL     1     -36.410   3.924  81.389  1.00  0.00    -0.285 OA
ATOM      8  C   UNL     1     -38.702   3.668  81.745  1.00  0.00     0.111 A 
ATOM      9  C   UNL     1     -41.129   3.697  82.049  1.00  0.00     0.094 A 
ATOM     10  C   UNL     1     -38.625   2.571  82.660  1.00  0.00     0.134 A 
ATOM     11  C   UNL     1     -41.037   2.662  82.978  1.00  0.00     0.123 A 
ATOM     12  C   UNL     1     -39.791   2.106  83.279  1.00  0.00     0.093 A 
BRANCH   3  13
ATOM     13  C   UNL     1     -39.369   6.791  78.926  1.00  0.00     0.025 A 
ATOM     14  C   UNL     1     -40.110   7.922  79.305  1.00  0.00     0.016 A 
ATOM     15  C   UNL     1     -40.363   8.939  78.382  1.00  0.00     0.051 A 
ATOM     16  C   UNL     1     -39.894   8.829  77.065  1.00  0.00     0.157 A 
ATOM     17  C   UNL     1     -38.918   6.673  77.600  1.00  0.00     0.062 A 
ATOM     18  C   UNL     1     -39.175   7.687  76.671  1.00  0.00     0.158 A 
BRANCH  16  19
ATOM     19  O   UNL     1     -40.145   9.848  76.146  1.00  0.00    -0.504 OA
ATOM     20  H   UNL     1     -40.082  10.829  76.409  1.00  0.00     0.293 HD
ENDBRANCH  16  19
BRANCH  18  21
ATOM     21  O   UNL     1     -38.708   7.543  75.365  1.00  0.00    -0.504 OA
ATOM     22  H   UNL     1     -38.797   6.673  74.857  1.00  0.00     0.293 HD
ENDBRANCH  18  21
ENDBRANCH   3  13
BRANCH  10  23
ATOM     23  O   UNL     1     -37.446   1.889  82.981  1.00  0.00    -0.507 OA
ATOM     24  H   UNL     1     -37.347   0.891  83.058  1.00  0.00     0.293 HD
ENDBRANCH  10  23
BRANCH  11  25
ATOM     25  O   UNL     1     -42.191   2.186  83.593  1.00  0.00    -0.508 OA
ATOM     26  H   UNL     1     -42.558   1.260  83.392  1.00  0.00     0.293 HD
ENDBRANCH  11  25
ENDBRANCH   1   2
BRANCH   1  27
ATOM     27  C   UNL     1     -36.159   7.258  80.183  1.00  0.00     0.339 C 
ATOM     28  C   UNL     1     -35.095   6.966  81.269  1.00  0.00     0.214 C 
ATOM     29  O   UNL     1     -35.646   8.080  79.141  1.00  0.00    -0.332 OA
ATOM     30  C   UNL     1     -33.781   6.443  80.655  1.00  0.00     0.180 C 
ATOM     31  C   UNL     1     -34.541   7.478  78.484  1.00  0.00     0.179 C 
ATOM     32  C   UNL     1     -33.352   7.312  79.460  1.00  0.00     0.177 C 
BRANCH  28  33
ATOM     33  O   UNL     1     -34.853   8.103  82.064  1.00  0.00    -0.384 OA
ATOM     34  H   UNL     1     -34.582   8.851  81.463  1.00  0.00     0.211 HD
ENDBRANCH  28  33
BRANCH  30  35
ATOM     35  O   UNL     1     -33.946   5.112  80.233  1.00  0.00    -0.387 OA
ATOM     36  H   UNL     1     -34.675   4.724  80.781  1.00  0.00     0.211 HD
ENDBRANCH  30  35
BRANCH  31  37
ATOM     37  C   UNL     1     -34.172   8.353  77.279  1.00  0.00     0.191 C 
BRANCH  37  38
ATOM     38  O   UNL     1     -33.397   9.449  77.686  1.00  0.00    -0.394 OA
ATOM     39  H   UNL     1     -33.997  10.240  77.652  1.00  0.00     0.210 HD
ENDBRANCH  37  38
ENDBRANCH  31  37
BRANCH  32  40
ATOM     40  O   UNL     1     -32.268   6.693  78.813  1.00  0.00    -0.387 OA
ATOM     41  H   UNL     1     -32.416   5.713  78.845  1.00  0.00     0.211 HD
ENDBRANCH  32  40
ENDBRANCH   1  27
TORSDOF 12
ENDMDL
MODEL 8
REMARK VINA RESULT:    -6.078      2.045      7.762
REMARK INTER + INTRA:         -10.660
REMARK INTER:                  -8.955
REMARK INTRA:                  -1.705
REMARK UNBOUND:                -1.740
REMARK SMILES O=c1c(O[C@@H]2O[C@@H](CO)[C@H](O)[C@H](O)[C@H]2O)c(-c2ccc(O)c(O)c2)oc2cc(O)cc(O)c12
REMARK SMILES IDX 4 1 3 2 16 3 25 4 2 5 26 6 1 7 33 8 27 9 31 10 28 11 30 12
REMARK SMILES IDX 17 13 18 14 19 15 20 16 24 17 22 18 21 19 23 21 32 23 29 25
REMARK SMILES IDX 5 27 14 28 6 29 12 30 7 31 10 32 15 33 13 35 8 37 9 38 11 40
REMARK H PARENT 21 20 23 22 32 24 29 26 15 34 13 36 9 39 11 41
REMARK Flexibility Score: inf
ROOT
ATOM      1  O   UNL     1     -37.510   4.947  79.787  1.00  0.00    -0.454 OA
ENDROOT
BRANCH   1   2
ATOM      2  C   UNL     1     -36.362   5.525  80.350  1.00  0.00     0.214 A 
ATOM      3  C   UNL     1     -36.147   5.450  81.734  1.00  0.00     0.180 A 
ATOM      4  O   UNL     1     -35.118   6.085  82.282  1.00  0.00    -0.452 OA
ATOM      5  C   UNL     1     -35.408   6.183  79.553  1.00  0.00     0.239 A 
ATOM      6  C   UNL     1     -34.215   6.754  81.576  1.00  0.00     0.146 A 
ATOM      7  O   UNL     1     -35.579   6.212  78.308  1.00  0.00    -0.285 OA
ATOM      8  C   UNL     1     -34.286   6.802  80.159  1.00  0.00     0.111 A 
ATOM      9  C   UNL     1     -33.190   7.410  82.259  1.00  0.00     0.094 A 
ATOM     10  C   UNL     1     -33.247   7.484  79.448  1.00  0.00     0.134 A 
ATOM     11  C   UNL     1     -32.212   8.116  81.559  1.00  0.00     0.123 A 
ATOM     12  C   UNL     1     -32.245   8.150  80.163  1.00  0.00     0.093 A 
BRANCH   3  13
ATOM     13  C   UNL     1     -37.062   4.709  82.619  1.00  0.00     0.025 A 
ATOM     14  C   UNL     1     -37.904   5.416  83.492  1.00  0.00     0.016 A 
ATOM     15  C   UNL     1     -38.794   4.730  84.320  1.00  0.00     0.051 A 
ATOM     16  C   UNL     1     -38.841   3.328  84.299  1.00  0.00     0.157 A 
ATOM     17  C   UNL     1     -37.095   3.303  82.614  1.00  0.00     0.062 A 
ATOM     18  C   UNL     1     -37.981   2.612  83.447  1.00  0.00     0.158 A 
BRANCH  16  19
ATOM     19  O   UNL     1     -39.734   2.645  85.125  1.00  0.00    -0.504 OA
ATOM     20  H   UNL     1     -39.573   2.557  86.125  1.00  0.00     0.293 HD
ENDBRANCH  16  19
BRANCH  18  21
ATOM     21  O   UNL     1     -37.994   1.218  83.414  1.00  0.00    -0.504 OA
ATOM     22  H   UNL     1     -38.415   0.705  82.652  1.00  0.00     0.293 HD
ENDBRANCH  18  21
ENDBRANCH   3  13
BRANCH  10  23
ATOM     23  O   UNL     1     -33.137   7.523  78.054  1.00  0.00    -0.507 OA
ATOM     24  H   UNL     1     -32.865   6.753  77.465  1.00  0.00     0.293 HD
ENDBRANCH  10  23
BRANCH  11  25
ATOM     25  O   UNL     1     -31.206   8.775  82.259  1.00  0.00    -0.508 OA
ATOM     26  H   UNL     1     -30.405   9.180  81.784  1.00  0.00     0.293 HD
ENDBRANCH  11  25
ENDBRANCH   1   2
BRANCH   1  27
ATOM     27  C   UNL     1     -38.707   5.687  79.505  1.00  0.00     0.339 C 
ATOM     28  C   UNL     1     -39.162   5.446  78.046  1.00  0.00     0.214 C 
ATOM     29  O   UNL     1     -39.732   5.380  80.443  1.00  0.00    -0.332 OA
ATOM     30  C   UNL     1     -39.771   4.041  77.862  1.00  0.00     0.180 C 
ATOM     31  C   UNL     1     -40.142   4.024  80.357  1.00  0.00     0.179 C 
ATOM     32  C   UNL     1     -40.783   3.735  78.979  1.00  0.00     0.177 C 
BRANCH  28  33
ATOM     33  O   UNL     1     -40.068   6.439  77.625  1.00  0.00    -0.384 OA
ATOM     34  H   UNL     1     -40.641   6.053  76.906  1.00  0.00     0.211 HD
ENDBRANCH  28  33
BRANCH  30  35
ATOM     35  O   UNL     1     -38.752   3.073  77.872  1.00  0.00    -0.387 OA
ATOM     36  H   UNL     1     -39.117   2.273  78.328  1.00  0.00     0.211 HD
ENDBRANCH  30  35
BRANCH  31  37
ATOM     37  C   UNL     1     -41.117   3.750  81.509  1.00  0.00     0.191 C 
BRANCH  37  38
ATOM     38  O   UNL     1     -42.438   3.726  81.040  1.00  0.00    -0.394 OA
ATOM     39  H   UNL     1     -42.847   4.588  81.320  1.00  0.00     0.210 HD
ENDBRANCH  37  38
ENDBRANCH  31  37
BRANCH  32  40
ATOM     40  O   UNL     1     -41.164   2.384  78.889  1.00  0.00    -0.387 OA
ATOM     41  H   UNL     1     -41.851   2.310  78.177  1.00  0.00     0.211 HD
ENDBRANCH  32  40
ENDBRANCH   1  27
TORSDOF 12
ENDMDL
MODEL 9
REMARK VINA RESULT:    -6.027     10.274     13.603
REMARK INTER + INTRA:         -10.585
REMARK INTER:                  -9.328
REMARK INTRA:                  -1.257
REMARK UNBOUND:                -1.740
REMARK SMILES O=c1c(O[C@@H]2O[C@@H](CO)[C@H](O)[C@H](O)[C@H]2O)c(-c2ccc(O)c(O)c2)oc2cc(O)cc(O)c12
REMARK SMILES IDX 4 1 3 2 16 3 25 4 2 5 26 6 1 7 33 8 27 9 31 10 28 11 30 12
REMARK SMILES IDX 17 13 18 14 19 15 20 16 24 17 22 18 21 19 23 21 32 23 29 25
REMARK SMILES IDX 5 27 14 28 6 29 12 30 7 31 10 32 15 33 13 35 8 37 9 38 11 40
REMARK H PARENT 21 20 23 22 32 24 29 26 15 34 13 36 9 39 11 41
REMARK Flexibility Score: inf
ROOT
ATOM      1  O   UNL     1     -39.223  -6.765  81.961  1.00  0.00    -0.454 OA
ENDROOT
BRANCH   1   2
ATOM      2  C   UNL     1     -39.582  -5.469  82.365  1.00  0.00     0.214 A 
ATOM      3  C   UNL     1     -40.883  -4.998  82.133  1.00  0.00     0.180 A 
ATOM      4  O   UNL     1     -41.195  -3.741  82.419  1.00  0.00    -0.452 OA
ATOM      5  C   UNL     1     -38.661  -4.622  83.007  1.00  0.00     0.239 A 
ATOM      6  C   UNL     1     -40.348  -2.891  82.986  1.00  0.00     0.146 A 
ATOM      7  O   UNL     1     -37.509  -5.060  83.254  1.00  0.00    -0.285 OA
ATOM      8  C   UNL     1     -39.040  -3.301  83.355  1.00  0.00     0.111 A 
ATOM      9  C   UNL     1     -40.774  -1.581  83.214  1.00  0.00     0.094 A 
ATOM     10  C   UNL     1     -38.194  -2.358  84.022  1.00  0.00     0.134 A 
ATOM     11  C   UNL     1     -39.922  -0.656  83.818  1.00  0.00     0.123 A 
ATOM     12  C   UNL     1     -38.642  -1.047  84.218  1.00  0.00     0.093 A 
BRANCH   3  13
ATOM     13  C   UNL     1     -41.921  -5.859  81.539  1.00  0.00     0.025 A 
ATOM     14  C   UNL     1     -42.737  -6.636  82.376  1.00  0.00     0.016 A 
ATOM     15  C   UNL     1     -43.741  -7.439  81.831  1.00  0.00     0.051 A 
ATOM     16  C   UNL     1     -43.930  -7.488  80.442  1.00  0.00     0.157 A 
ATOM     17  C   UNL     1     -42.097  -5.926  80.146  1.00  0.00     0.062 A 
ATOM     18  C   UNL     1     -43.098  -6.734  79.595  1.00  0.00     0.158 A 
BRANCH  16  19
ATOM     19  O   UNL     1     -44.936  -8.288  79.901  1.00  0.00    -0.504 OA
ATOM     20  H   UNL     1     -45.310  -9.087  80.406  1.00  0.00     0.293 HD
ENDBRANCH  16  19
BRANCH  18  21
ATOM     21  O   UNL     1     -43.252  -6.773  78.210  1.00  0.00    -0.504 OA
ATOM     22  H   UNL     1     -42.458  -6.794  77.584  1.00  0.00     0.293 HD
ENDBRANCH  18  21
ENDBRANCH   3  13
BRANCH  10  23
ATOM     23  O   UNL     1     -36.925  -2.656  84.531  1.00  0.00    -0.507 OA
ATOM     24  H   UNL     1     -36.148  -3.013  83.999  1.00  0.00     0.293 HD
ENDBRANCH  10  23
BRANCH  11  25
ATOM     25  O   UNL     1     -40.360   0.648  84.024  1.00  0.00    -0.508 OA
ATOM     26  H   UNL     1     -40.021   1.206  84.803  1.00  0.00     0.293 HD
ENDBRANCH  11  25
ENDBRANCH   1   2
BRANCH   1  27
ATOM     27  C   UNL     1     -39.104  -7.868  82.871  1.00  0.00     0.339 C 
ATOM     28  C   UNL     1     -39.700  -9.153  82.246  1.00  0.00     0.214 C 
ATOM     29  O   UNL     1     -37.754  -8.050  83.281  1.00  0.00    -0.332 OA
ATOM     30  C   UNL     1     -38.787  -9.728  81.144  1.00  0.00     0.180 C 
ATOM     31  C   UNL     1     -36.912  -8.410  82.196  1.00  0.00     0.179 C 
ATOM     32  C   UNL     1     -37.325  -9.784  81.619  1.00  0.00     0.177 C 
BRANCH  28  33
ATOM     33  O   UNL     1     -39.960 -10.125  83.231  1.00  0.00    -0.384 OA
ATOM     34  H   UNL     1     -40.605  -9.738  83.886  1.00  0.00     0.211 HD
ENDBRANCH  28  33
BRANCH  30  35
ATOM     35  O   UNL     1     -38.876  -8.934  79.987  1.00  0.00    -0.387 OA
ATOM     36  H   UNL     1     -39.525  -9.375  79.382  1.00  0.00     0.211 HD
ENDBRANCH  30  35
BRANCH  31  37
ATOM     37  C   UNL     1     -35.464  -8.415  82.702  1.00  0.00     0.191 C 
BRANCH  37  38
ATOM     38  O   UNL     1     -34.604  -7.872  81.736  1.00  0.00    -0.394 OA
ATOM     39  H   UNL     1     -33.738  -8.348  81.838  1.00  0.00     0.210 HD
ENDBRANCH  37  38
ENDBRANCH  31  37
BRANCH  32  40
ATOM     40  O   UNL     1     -36.506 -10.125  80.528  1.00  0.00    -0.387 OA
ATOM     41  H   UNL     1     -37.033 -10.707  79.923  1.00  0.00     0.211 HD
ENDBRANCH  32  40
ENDBRANCH   1  27
TORSDOF 12
ENDMDL
