MODEL 1
REMARK VINA RESULT:    -4.319      0.000      0.000
REMARK INTER + INTRA:          -6.897
REMARK INTER:                  -6.086
REMARK INTRA:                  -0.811
REMARK UNBOUND:                -0.811
REMARK SMILES CCCCCCCCC(=O)[O-]
REMARK SMILES IDX 6 1 7 2 8 3 9 4 10 5 11 6 5 7 4 8 3 9 2 10 1 11
REMARK H PARENT
REMARK Flexibility Score: inf
ROOT
ATOM      1  C   UNL     1      20.630  69.081  34.921  1.00  0.00     0.000 C 
ENDROOT
BRANCH   1   2
ATOM      2  C   UNL     1      19.536  70.156  34.883  1.00  0.00     0.006 C 
BRANCH   2   3
ATOM      3  C   UNL     1      18.744  70.088  33.574  1.00  0.00     0.053 C 
BRANCH   3   4
ATOM      4  C   UNL     1      17.371  69.548  33.820  1.00  0.00     0.041 C 
ATOM      5  O   UNL     1      16.577  69.373  32.858  1.00  0.00    -0.550 OA
ATOM      6  O   UNL     1      16.949  69.285  35.118  1.00  0.00    -0.550 OA
ENDBRANCH   3   4
ENDBRANCH   2   3
ENDBRANCH   1   2
BRANCH   1   7
ATOM      7  C   UNL     1      20.343  68.043  36.015  1.00  0.00     0.000 C 
BRANCH   7   8
ATOM      8  C   UNL     1      20.077  66.634  35.452  1.00  0.00    -0.000 C 
BRANCH   8   9
ATOM      9  C   UNL     1      18.595  66.217  35.416  1.00  0.00    -0.000 C 
BRANCH   9  10
ATOM     10  C   UNL     1      18.191  65.559  34.090  1.00  0.00    -0.003 C 
ATOM     11  C   UNL     1      18.735  66.344  32.899  1.00  0.00     0.004 C 
ENDBRANCH   9  10
ENDBRANCH   8   9
ENDBRANCH   7   8
ENDBRANCH   1   7
TORSDOF 7
ENDMDL
MODEL 2
REMARK VINA RESULT:    -4.233      2.157      4.469
REMARK INTER + INTRA:          -6.776
REMARK INTER:                  -6.084
REMARK INTRA:                  -0.692
REMARK UNBOUND:                -0.811
REMARK SMILES CCCCCCCCC(=O)[O-]
REMARK SMILES IDX 6 1 7 2 8 3 9 4 10 5 11 6 5 7 4 8 3 9 2 10 1 11
REMARK H PARENT
REMARK Flexibility Score: inf
ROOT
ATOM      1  C   UNL     1      17.262  67.684  35.364  1.00  0.00     0.000 C 
ENDROOT
BRANCH   1   2
ATOM      2  C   UNL     1      17.662  66.255  34.976  1.00  0.00     0.006 C 
BRANCH   2   3
ATOM      3  C   UNL     1      18.972  65.847  35.657  1.00  0.00     0.053 C 
BRANCH   3   4
ATOM      4  C   UNL     1      20.106  66.681  35.153  1.00  0.00     0.041 C 
ATOM      5  O   UNL     1      20.969  67.128  35.954  1.00  0.00    -0.550 OA
ATOM      6  O   UNL     1      20.184  67.009  33.804  1.00  0.00    -0.550 OA
ENDBRANCH   3   4
ENDBRANCH   2   3
ENDBRANCH   1   2
BRANCH   1   7
ATOM      7  C   UNL     1      16.884  68.505  34.122  1.00  0.00     0.000 C 
BRANCH   7   8
ATOM      8  C   UNL     1      17.392  69.957  34.184  1.00  0.00    -0.000 C 
BRANCH   8   9
ATOM      9  C   UNL     1      18.396  70.248  35.315  1.00  0.00    -0.000 C 
BRANCH   9  10
ATOM     10  C   UNL     1      19.843  70.362  34.815  1.00  0.00    -0.003 C 
ATOM     11  C   UNL     1      19.894  70.425  33.291  1.00  0.00     0.004 C 
ENDBRANCH   9  10
ENDBRANCH   8   9
ENDBRANCH   7   8
ENDBRANCH   1   7
TORSDOF 7
ENDMDL
MODEL 3
REMARK VINA RESULT:    -4.123     12.545     14.511
REMARK INTER + INTRA:          -6.622
REMARK INTER:                  -5.963
REMARK INTRA:                  -0.658
REMARK UNBOUND:                -0.811
REMARK SMILES CCCCCCCCC(=O)[O-]
REMARK SMILES IDX 6 1 7 2 8 3 9 4 10 5 11 6 5 7 4 8 3 9 2 10 1 11
REMARK H PARENT
REMARK Flexibility Score: inf
ROOT
ATOM      1  C   UNL     1      10.359  77.468  32.343  1.00  0.00     0.000 C 
ENDROOT
BRANCH   1   2
ATOM      2  C   UNL     1      11.448  77.315  31.273  1.00  0.00     0.006 C 
BRANCH   2   3
ATOM      3  C   UNL     1      11.595  78.599  30.452  1.00  0.00     0.053 C 
BRANCH   3   4
ATOM      4  C   UNL     1      10.670  78.577  29.277  1.00  0.00     0.041 C 
ATOM      5  O   UNL     1      10.034  79.614  28.952  1.00  0.00    -0.550 OA
ATOM      6  O   UNL     1      10.470  77.398  28.569  1.00  0.00    -0.550 OA
ENDBRANCH   3   4
ENDBRANCH   2   3
ENDBRANCH   1   2
BRANCH   1   7
ATOM      7  C   UNL     1       9.029  76.868  31.864  1.00  0.00     0.000 C 
BRANCH   7   8
ATOM      8  C   UNL     1       7.936  77.930  31.642  1.00  0.00    -0.000 C 
BRANCH   8   9
ATOM      9  C   UNL     1       8.320  79.358  32.072  1.00  0.00    -0.000 C 
BRANCH   9  10
ATOM     10  C   UNL     1       7.624  79.800  33.367  1.00  0.00    -0.003 C 
ATOM     11  C   UNL     1       8.642  80.083  34.468  1.00  0.00     0.004 C 
ENDBRANCH   9  10
ENDBRANCH   8   9
ENDBRANCH   7   8
ENDBRANCH   1   7
TORSDOF 7
ENDMDL
MODEL 4
REMARK VINA RESULT:    -4.114      1.998      3.008
REMARK INTER + INTRA:          -6.608
REMARK INTER:                  -6.160
REMARK INTRA:                  -0.447
REMARK UNBOUND:                -0.811
REMARK SMILES CCCCCCCCC(=O)[O-]
REMARK SMILES IDX 6 1 7 2 8 3 9 4 10 5 11 6 5 7 4 8 3 9 2 10 1 11
REMARK H PARENT
REMARK Flexibility Score: inf
ROOT
ATOM      1  C   UNL     1      17.999  68.504  33.118  1.00  0.00     0.000 C 
ENDROOT
BRANCH   1   2
ATOM      2  C   UNL     1      18.309  70.007  33.102  1.00  0.00     0.006 C 
BRANCH   2   3
ATOM      3  C   UNL     1      19.772  70.270  33.467  1.00  0.00     0.053 C 
BRANCH   3   4
ATOM      4  C   UNL     1      20.004  70.009  34.921  1.00  0.00     0.041 C 
ATOM      5  O   UNL     1      20.775  69.081  35.284  1.00  0.00    -0.550 OA
ATOM      6  O   UNL     1      19.330  70.757  35.879  1.00  0.00    -0.550 OA
ENDBRANCH   3   4
ENDBRANCH   2   3
ENDBRANCH   1   2
BRANCH   1   7
ATOM      7  C   UNL     1      16.915  68.177  34.156  1.00  0.00     0.000 C 
BRANCH   7   8
ATOM      8  C   UNL     1      17.407  67.218  35.256  1.00  0.00    -0.000 C 
BRANCH   8   9
ATOM      9  C   UNL     1      18.041  65.912  34.744  1.00  0.00    -0.000 C 
BRANCH   9  10
ATOM     10  C   UNL     1      19.101  65.347  35.701  1.00  0.00    -0.003 C 
ATOM     11  C   UNL     1      18.825  63.881  36.024  1.00  0.00     0.004 C 
ENDBRANCH   9  10
ENDBRANCH   8   9
ENDBRANCH   7   8
ENDBRANCH   1   7
TORSDOF 7
ENDMDL
MODEL 5
REMARK VINA RESULT:    -4.073     12.549     14.257
REMARK INTER + INTRA:          -6.550
REMARK INTER:                  -5.778
REMARK INTRA:                  -0.772
REMARK UNBOUND:                -0.811
REMARK SMILES CCCCCCCCC(=O)[O-]
REMARK SMILES IDX 6 1 7 2 8 3 9 4 10 5 11 6 5 7 4 8 3 9 2 10 1 11
REMARK H PARENT
REMARK Flexibility Score: inf
ROOT
ATOM      1  C   UNL     1      10.426  77.359  32.371  1.00  0.00     0.000 C 
ENDROOT
BRANCH   1   2
ATOM      2  C   UNL     1      11.601  77.530  31.400  1.00  0.00     0.006 C 
BRANCH   2   3
ATOM      3  C   UNL     1      11.289  78.590  30.340  1.00  0.00     0.053 C 
BRANCH   3   4
ATOM      4  C   UNL     1      10.192  78.120  29.438  1.00  0.00     0.041 C 
ATOM      5  O   UNL     1      10.389  77.162  28.646  1.00  0.00    -0.550 OA
ATOM      6  O   UNL     1       8.964  78.773  29.436  1.00  0.00    -0.550 OA
ENDBRANCH   3   4
ENDBRANCH   2   3
ENDBRANCH   1   2
BRANCH   1   7
ATOM      7  C   UNL     1      10.804  77.832  33.782  1.00  0.00     0.000 C 
BRANCH   7   8
ATOM      8  C   UNL     1       9.897  78.964  34.299  1.00  0.00    -0.000 C 
BRANCH   8   9
ATOM      9  C   UNL     1      10.276  80.375  33.814  1.00  0.00    -0.000 C 
BRANCH   9  10
ATOM     10  C   UNL     1       9.361  80.888  32.693  1.00  0.00    -0.003 C 
ATOM     11  C   UNL     1       8.012  80.172  32.715  1.00  0.00     0.004 C 
ENDBRANCH   9  10
ENDBRANCH   8   9
ENDBRANCH   7   8
ENDBRANCH   1   7
TORSDOF 7
ENDMDL
MODEL 6
REMARK VINA RESULT:    -4.049      2.199      3.754
REMARK INTER + INTRA:          -6.516
REMARK INTER:                  -5.776
REMARK INTRA:                  -0.740
REMARK UNBOUND:                -0.811
REMARK SMILES CCCCCCCCC(=O)[O-]
REMARK SMILES IDX 6 1 7 2 8 3 9 4 10 5 11 6 5 7 4 8 3 9 2 10 1 11
REMARK H PARENT
REMARK Flexibility Score: inf
ROOT
ATOM      1  C   UNL     1      20.771  68.502  35.719  1.00  0.00     0.000 C 
ENDROOT
BRANCH   1   2
ATOM      2  C   UNL     1      20.232  67.300  34.934  1.00  0.00     0.006 C 
BRANCH   2   3
ATOM      3  C   UNL     1      19.097  66.610  35.695  1.00  0.00     0.053 C 
BRANCH   3   4
ATOM      4  C   UNL     1      18.553  65.466  34.901  1.00  0.00     0.041 C 
ATOM      5  O   UNL     1      18.253  65.622  33.688  1.00  0.00    -0.550 OA
ATOM      6  O   UNL     1      18.329  64.238  35.512  1.00  0.00    -0.550 OA
ENDBRANCH   3   4
ENDBRANCH   2   3
ENDBRANCH   1   2
BRANCH   1   7
ATOM      7  C   UNL     1      20.223  69.820  35.153  1.00  0.00     0.000 C 
BRANCH   7   8
ATOM      8  C   UNL     1      20.180  69.842  33.614  1.00  0.00    -0.000 C 
BRANCH   8   9
ATOM      9  C   UNL     1      18.826  70.255  33.008  1.00  0.00    -0.000 C 
BRANCH   9  10
ATOM     10  C   UNL     1      17.953  69.054  32.619  1.00  0.00    -0.003 C 
ATOM     11  C   UNL     1      16.866  68.806  33.661  1.00  0.00     0.004 C 
ENDBRANCH   9  10
ENDBRANCH   8   9
ENDBRANCH   7   8
ENDBRANCH   1   7
TORSDOF 7
ENDMDL
MODEL 7
REMARK VINA RESULT:    -3.997     13.010     14.512
REMARK INTER + INTRA:          -6.444
REMARK INTER:                  -5.667
REMARK INTRA:                  -0.777
REMARK UNBOUND:                -0.811
REMARK SMILES CCCCCCCCC(=O)[O-]
REMARK SMILES IDX 6 1 7 2 8 3 9 4 10 5 11 6 5 7 4 8 3 9 2 10 1 11
REMARK H PARENT
REMARK Flexibility Score: inf
ROOT
ATOM      1  C   UNL     1       8.084  78.172  31.355  1.00  0.00     0.000 C 
ENDROOT
BRANCH   1   2
ATOM      2  C   UNL     1       9.093  77.038  31.578  1.00  0.00     0.006 C 
BRANCH   2   3
ATOM      3  C   UNL     1      10.502  77.466  31.161  1.00  0.00     0.053 C 
BRANCH   3   4
ATOM      4  C   UNL     1      10.601  77.563  29.672  1.00  0.00     0.041 C 
ATOM      5  O   UNL     1      10.892  78.660  29.126  1.00  0.00    -0.550 OA
ATOM      6  O   UNL     1      10.323  76.454  28.882  1.00  0.00    -0.550 OA
ENDBRANCH   3   4
ENDBRANCH   2   3
ENDBRANCH   1   2
BRANCH   1   7
ATOM      7  C   UNL     1       8.564  79.473  32.016  1.00  0.00     0.000 C 
BRANCH   7   8
ATOM      8  C   UNL     1       7.781  79.821  33.295  1.00  0.00    -0.000 C 
BRANCH   8   9
ATOM      9  C   UNL     1       8.634  79.912  34.574  1.00  0.00    -0.000 C 
BRANCH   9  10
ATOM     10  C   UNL     1      10.077  79.431  34.366  1.00  0.00    -0.003 C 
ATOM     11  C   UNL     1      10.307  78.078  35.034  1.00  0.00     0.004 C 
ENDBRANCH   9  10
ENDBRANCH   8   9
ENDBRANCH   7   8
ENDBRANCH   1   7
TORSDOF 7
ENDMDL
MODEL 8
REMARK VINA RESULT:    -3.944     12.688     14.400
REMARK INTER + INTRA:          -6.369
REMARK INTER:                  -5.571
REMARK INTRA:                  -0.798
REMARK UNBOUND:                -0.811
REMARK SMILES CCCCCCCCC(=O)[O-]
REMARK SMILES IDX 6 1 7 2 8 3 9 4 10 5 11 6 5 7 4 8 3 9 2 10 1 11
REMARK H PARENT
REMARK Flexibility Score: inf
ROOT
ATOM      1  C   UNL     1       8.088  78.324  31.364  1.00  0.00     0.000 C 
ENDROOT
BRANCH   1   2
ATOM      2  C   UNL     1       8.185  79.235  32.595  1.00  0.00     0.006 C 
BRANCH   2   3
ATOM      3  C   UNL     1       9.092  80.438  32.318  1.00  0.00     0.053 C 
BRANCH   3   4
ATOM      4  C   UNL     1      10.212  80.488  33.307  1.00  0.00     0.041 C 
ATOM      5  O   UNL     1      10.679  79.423  33.790  1.00  0.00    -0.550 OA
ATOM      6  O   UNL     1      10.709  81.713  33.735  1.00  0.00    -0.550 OA
ENDBRANCH   3   4
ENDBRANCH   2   3
ENDBRANCH   1   2
BRANCH   1   7
ATOM      7  C   UNL     1       8.694  76.943  31.653  1.00  0.00     0.000 C 
BRANCH   7   8
ATOM      8  C   UNL     1       9.891  76.610  30.744  1.00  0.00    -0.000 C 
BRANCH   8   9
ATOM      9  C   UNL     1      11.223  77.263  31.156  1.00  0.00    -0.000 C 
BRANCH   9  10
ATOM     10  C   UNL     1      11.557  78.513  30.329  1.00  0.00    -0.003 C 
ATOM     11  C   UNL     1      10.869  78.470  28.967  1.00  0.00     0.004 C 
ENDBRANCH   9  10
ENDBRANCH   8   9
ENDBRANCH   7   8
ENDBRANCH   1   7
TORSDOF 7
ENDMDL
MODEL 9
REMARK VINA RESULT:    -3.874     12.975     14.034
REMARK INTER + INTRA:          -6.270
REMARK INTER:                  -5.656
REMARK INTRA:                  -0.615
REMARK UNBOUND:                -0.811
REMARK SMILES CCCCCCCCC(=O)[O-]
REMARK SMILES IDX 6 1 7 2 8 3 9 4 10 5 11 6 5 7 4 8 3 9 2 10 1 11
REMARK H PARENT
REMARK Flexibility Score: inf
ROOT
ATOM      1  C   UNL     1      11.269  79.122  31.652  1.00  0.00     0.000 C 
ENDROOT
BRANCH   1   2
ATOM      2  C   UNL     1      10.646  79.035  33.051  1.00  0.00     0.006 C 
BRANCH   2   3
ATOM      3  C   UNL     1       9.903  80.327  33.403  1.00  0.00     0.053 C 
BRANCH   3   4
ATOM      4  C   UNL     1       8.688  80.025  34.222  1.00  0.00     0.041 C 
ATOM      5  O   UNL     1       7.561  79.922  33.671  1.00  0.00    -0.550 OA
ATOM      6  O   UNL     1       8.792  79.906  35.603  1.00  0.00    -0.550 OA
ENDBRANCH   3   4
ENDBRANCH   2   3
ENDBRANCH   1   2
BRANCH   1   7
ATOM      7  C   UNL     1      11.588  77.724  31.104  1.00  0.00     0.000 C 
BRANCH   7   8
ATOM      8  C   UNL     1      10.504  77.190  30.149  1.00  0.00    -0.000 C 
BRANCH   8   9
ATOM      9  C   UNL     1       9.843  75.871  30.588  1.00  0.00    -0.000 C 
BRANCH   9  10
ATOM     10  C   UNL     1       8.735  76.074  31.631  1.00  0.00    -0.003 C 
ATOM     11  C   UNL     1       7.912  77.322  31.321  1.00  0.00     0.004 C 
ENDBRANCH   9  10
ENDBRANCH   8   9
ENDBRANCH   7   8
ENDBRANCH   1   7
TORSDOF 7
ENDMDL
