MODEL 1
REMARK VINA RESULT:    -3.812      0.000      0.000
REMARK INTER + INTRA:          -4.939
REMARK INTER:                  -4.703
REMARK INTRA:                  -0.236
REMARK UNBOUND:                -0.236
REMARK SMILES C=CC[C@@H](C)C(=O)CC
REMARK SMILES IDX 4 1 5 2 6 3 7 4 8 5 9 6 3 7 2 8 1 9
REMARK H PARENT
REMARK Flexibility Score: inf
ROOT
ATOM      1  C   UNL     1     -27.292 -12.014  23.653  1.00  0.00     0.057 C 
ATOM      2  C   UNL     1     -26.769 -13.043  24.663  1.00  0.00     0.016 C 
ENDROOT
BRANCH   1   3
ATOM      3  C   UNL     1     -28.118 -12.708  22.588  1.00  0.00     0.135 C 
ATOM      4  O   UNL     1     -27.602 -13.559  21.879  1.00  0.00    -0.299 OA
BRANCH   3   5
ATOM      5  C   UNL     1     -29.574 -12.377  22.398  1.00  0.00     0.072 C 
ATOM      6  C   UNL     1     -29.880 -12.104  20.929  1.00  0.00     0.012 C 
ENDBRANCH   3   5
ENDBRANCH   1   3
BRANCH   1   7
ATOM      7  C   UNL     1     -28.110 -10.920  24.368  1.00  0.00     0.038 C 
BRANCH   7   8
ATOM      8  C   UNL     1     -27.417  -9.582  24.337  1.00  0.00    -0.034 C 
ATOM      9  C   UNL     1     -27.019  -8.970  25.457  1.00  0.00     0.004 C 
ENDBRANCH   7   8
ENDBRANCH   1   7
TORSDOF 4
ENDMDL
MODEL 2
REMARK VINA RESULT:    -3.798      2.072      4.557
REMARK INTER + INTRA:          -4.922
REMARK INTER:                  -4.554
REMARK INTRA:                  -0.368
REMARK UNBOUND:                -0.236
REMARK SMILES C=CC[C@@H](C)C(=O)CC
REMARK SMILES IDX 4 1 5 2 6 3 7 4 8 5 9 6 3 7 2 8 1 9
REMARK H PARENT
REMARK Flexibility Score: inf
ROOT
ATOM      1  C   UNL     1     -28.205 -12.610  22.296  1.00  0.00     0.057 C 
ATOM      2  C   UNL     1     -29.683 -12.267  22.077  1.00  0.00     0.016 C 
ENDROOT
BRANCH   1   3
ATOM      3  C   UNL     1     -27.696 -11.927  23.550  1.00  0.00     0.135 C 
ATOM      4  O   UNL     1     -27.547 -10.714  23.562  1.00  0.00    -0.299 OA
BRANCH   3   5
ATOM      5  C   UNL     1     -27.383 -12.719  24.792  1.00  0.00     0.072 C 
ATOM      6  C   UNL     1     -28.570 -12.713  25.750  1.00  0.00     0.012 C 
ENDBRANCH   3   5
ENDBRANCH   1   3
BRANCH   1   7
ATOM      7  C   UNL     1     -28.009 -14.138  22.376  1.00  0.00     0.038 C 
BRANCH   7   8
ATOM      8  C   UNL     1     -29.321 -14.880  22.352  1.00  0.00    -0.034 C 
ATOM      9  C   UNL     1     -29.400 -16.158  21.968  1.00  0.00     0.004 C 
ENDBRANCH   7   8
ENDBRANCH   1   7
TORSDOF 4
ENDMDL
MODEL 3
REMARK VINA RESULT:    -3.778      1.262      1.431
REMARK INTER + INTRA:          -4.897
REMARK INTER:                  -4.671
REMARK INTRA:                  -0.227
REMARK UNBOUND:                -0.236
REMARK SMILES C=CC[C@@H](C)C(=O)CC
REMARK SMILES IDX 4 1 5 2 6 3 7 4 8 5 9 6 3 7 2 8 1 9
REMARK H PARENT
REMARK Flexibility Score: inf
ROOT
ATOM      1  C   UNL     1     -27.277 -11.835  23.848  1.00  0.00     0.057 C 
ATOM      2  C   UNL     1     -26.975 -12.952  24.854  1.00  0.00     0.016 C 
ENDROOT
BRANCH   1   3
ATOM      3  C   UNL     1     -27.961 -12.411  22.625  1.00  0.00     0.135 C 
ATOM      4  O   UNL     1     -28.646 -11.688  21.915  1.00  0.00    -0.299 OA
BRANCH   3   5
ATOM      5  C   UNL     1     -27.799 -13.862  22.255  1.00  0.00     0.072 C 
ATOM      6  C   UNL     1     -29.156 -14.549  22.153  1.00  0.00     0.012 C 
ENDBRANCH   3   5
ENDBRANCH   1   3
BRANCH   1   7
ATOM      7  C   UNL     1     -28.139 -10.736  24.502  1.00  0.00     0.038 C 
BRANCH   7   8
ATOM      8  C   UNL     1     -27.437  -9.403  24.524  1.00  0.00    -0.034 C 
ATOM      9  C   UNL     1     -26.910  -8.903  25.646  1.00  0.00     0.004 C 
ENDBRANCH   7   8
ENDBRANCH   1   7
TORSDOF 4
ENDMDL
MODEL 4
REMARK VINA RESULT:    -3.760      1.934      3.832
REMARK INTER + INTRA:          -4.876
REMARK INTER:                  -4.572
REMARK INTRA:                  -0.303
REMARK UNBOUND:                -0.236
REMARK SMILES C=CC[C@@H](C)C(=O)CC
REMARK SMILES IDX 4 1 5 2 6 3 7 4 8 5 9 6 3 7 2 8 1 9
REMARK H PARENT
REMARK Flexibility Score: inf
ROOT
ATOM      1  C   UNL     1     -27.457 -11.743  25.401  1.00  0.00     0.057 C 
ATOM      2  C   UNL     1     -26.676 -13.010  25.032  1.00  0.00     0.016 C 
ENDROOT
BRANCH   1   3
ATOM      3  C   UNL     1     -27.492 -10.794  24.220  1.00  0.00     0.135 C 
ATOM      4  O   UNL     1     -27.543 -11.241  23.083  1.00  0.00    -0.299 OA
BRANCH   3   5
ATOM      5  C   UNL     1     -27.481  -9.302  24.423  1.00  0.00     0.072 C 
ATOM      6  C   UNL     1     -26.965  -8.949  25.813  1.00  0.00     0.012 C 
ENDBRANCH   3   5
ENDBRANCH   1   3
BRANCH   1   7
ATOM      7  C   UNL     1     -28.882 -12.102  25.869  1.00  0.00     0.038 C 
BRANCH   7   8
ATOM      8  C   UNL     1     -29.352 -13.416  25.299  1.00  0.00    -0.034 C 
ATOM      9  C   UNL     1     -30.125 -13.474  24.210  1.00  0.00     0.004 C 
ENDBRANCH   7   8
ENDBRANCH   1   7
TORSDOF 4
ENDMDL
MODEL 5
REMARK VINA RESULT:    -3.758      1.956      3.834
REMARK INTER + INTRA:          -4.872
REMARK INTER:                  -4.455
REMARK INTRA:                  -0.418
REMARK UNBOUND:                -0.236
REMARK SMILES C=CC[C@@H](C)C(=O)CC
REMARK SMILES IDX 4 1 5 2 6 3 7 4 8 5 9 6 3 7 2 8 1 9
REMARK H PARENT
REMARK Flexibility Score: inf
ROOT
ATOM      1  C   UNL     1     -27.281 -11.669  23.815  1.00  0.00     0.057 C 
ATOM      2  C   UNL     1     -27.511 -10.193  24.160  1.00  0.00     0.016 C 
ENDROOT
BRANCH   1   3
ATOM      3  C   UNL     1     -27.563 -12.534  25.027  1.00  0.00     0.135 C 
ATOM      4  O   UNL     1     -26.743 -13.368  25.382  1.00  0.00    -0.299 OA
BRANCH   3   5
ATOM      5  C   UNL     1     -28.835 -12.372  25.817  1.00  0.00     0.072 C 
ATOM      6  C   UNL     1     -29.804 -13.512  25.521  1.00  0.00     0.012 C 
ENDBRANCH   3   5
ENDBRANCH   1   3
BRANCH   1   7
ATOM      7  C   UNL     1     -28.155 -12.087  22.616  1.00  0.00     0.038 C 
BRANCH   7   8
ATOM      8  C   UNL     1     -27.773 -13.443  22.081  1.00  0.00    -0.034 C 
ATOM      9  C   UNL     1     -28.618 -14.479  22.120  1.00  0.00     0.004 C 
ENDBRANCH   7   8
ENDBRANCH   1   7
TORSDOF 4
ENDMDL
MODEL 6
REMARK VINA RESULT:    -3.697      1.647      2.751
REMARK INTER + INTRA:          -4.798
REMARK INTER:                  -4.349
REMARK INTRA:                  -0.449
REMARK UNBOUND:                -0.236
REMARK SMILES C=CC[C@@H](C)C(=O)CC
REMARK SMILES IDX 4 1 5 2 6 3 7 4 8 5 9 6 3 7 2 8 1 9
REMARK H PARENT
REMARK Flexibility Score: inf
ROOT
ATOM      1  C   UNL     1     -28.183 -10.837  24.333  1.00  0.00     0.057 C 
ATOM      2  C   UNL     1     -27.476  -9.478  24.386  1.00  0.00     0.016 C 
ENDROOT
BRANCH   1   3
ATOM      3  C   UNL     1     -27.776 -11.584  23.079  1.00  0.00     0.135 C 
ATOM      4  O   UNL     1     -26.604 -11.885  22.906  1.00  0.00    -0.299 OA
BRANCH   3   5
ATOM      5  C   UNL     1     -28.797 -11.979  22.045  1.00  0.00     0.072 C 
ATOM      6  C   UNL     1     -28.930 -13.495  21.968  1.00  0.00     0.012 C 
ENDBRANCH   3   5
ENDBRANCH   1   3
BRANCH   1   7
ATOM      7  C   UNL     1     -27.869 -11.660  25.599  1.00  0.00     0.038 C 
BRANCH   7   8
ATOM      8  C   UNL     1     -28.724 -12.898  25.697  1.00  0.00    -0.034 C 
ATOM      9  C   UNL     1     -30.059 -12.833  25.689  1.00  0.00     0.004 C 
ENDBRANCH   7   8
ENDBRANCH   1   7
TORSDOF 4
ENDMDL
MODEL 7
REMARK VINA RESULT:    -3.693      2.095      4.117
REMARK INTER + INTRA:          -4.792
REMARK INTER:                  -4.527
REMARK INTRA:                  -0.265
REMARK UNBOUND:                -0.236
REMARK SMILES C=CC[C@@H](C)C(=O)CC
REMARK SMILES IDX 4 1 5 2 6 3 7 4 8 5 9 6 3 7 2 8 1 9
REMARK H PARENT
REMARK Flexibility Score: inf
ROOT
ATOM      1  C   UNL     1     -27.559 -12.580  24.361  1.00  0.00     0.057 C 
ATOM      2  C   UNL     1     -26.427 -13.280  25.120  1.00  0.00     0.016 C 
ENDROOT
BRANCH   1   3
ATOM      3  C   UNL     1     -27.873 -11.248  25.012  1.00  0.00     0.135 C 
ATOM      4  O   UNL     1     -28.415 -11.220  26.107  1.00  0.00    -0.299 OA
BRANCH   3   5
ATOM      5  C   UNL     1     -27.513  -9.951  24.337  1.00  0.00     0.072 C 
ATOM      6  C   UNL     1     -26.968  -8.948  25.348  1.00  0.00     0.012 C 
ENDBRANCH   3   5
ENDBRANCH   1   3
BRANCH   1   7
ATOM      7  C   UNL     1     -27.185 -12.400  22.876  1.00  0.00     0.038 C 
BRANCH   7   8
ATOM      8  C   UNL     1     -27.635 -13.566  22.032  1.00  0.00    -0.034 C 
ATOM      9  C   UNL     1     -28.713 -14.288  22.348  1.00  0.00     0.004 C 
ENDBRANCH   7   8
ENDBRANCH   1   7
TORSDOF 4
ENDMDL
MODEL 8
REMARK VINA RESULT:    -3.692      1.777      2.292
REMARK INTER + INTRA:          -4.791
REMARK INTER:                  -4.454
REMARK INTRA:                  -0.337
REMARK UNBOUND:                -0.236
REMARK SMILES C=CC[C@@H](C)C(=O)CC
REMARK SMILES IDX 4 1 5 2 6 3 7 4 8 5 9 6 3 7 2 8 1 9
REMARK H PARENT
REMARK Flexibility Score: inf
ROOT
ATOM      1  C   UNL     1     -28.213 -12.314  25.568  1.00  0.00     0.057 C 
ATOM      2  C   UNL     1     -29.394 -13.291  25.545  1.00  0.00     0.016 C 
ENDROOT
BRANCH   1   3
ATOM      3  C   UNL     1     -27.141 -12.774  24.600  1.00  0.00     0.135 C 
ATOM      4  O   UNL     1     -26.256 -13.523  24.986  1.00  0.00    -0.299 OA
BRANCH   3   5
ATOM      5  C   UNL     1     -27.157 -12.336  23.159  1.00  0.00     0.072 C 
ATOM      6  C   UNL     1     -27.667 -13.456  22.259  1.00  0.00     0.012 C 
ENDBRANCH   3   5
ENDBRANCH   1   3
BRANCH   1   7
ATOM      7  C   UNL     1     -28.686 -10.884  25.236  1.00  0.00     0.038 C 
BRANCH   7   8
ATOM      8  C   UNL     1     -27.741  -9.836  25.765  1.00  0.00    -0.034 C 
ATOM      9  C   UNL     1     -27.113  -8.981  24.953  1.00  0.00     0.004 C 
ENDBRANCH   7   8
ENDBRANCH   1   7
TORSDOF 4
ENDMDL
MODEL 9
REMARK VINA RESULT:    -3.675      1.906      3.148
REMARK INTER + INTRA:          -4.771
REMARK INTER:                  -4.395
REMARK INTRA:                  -0.375
REMARK UNBOUND:                -0.236
REMARK SMILES C=CC[C@@H](C)C(=O)CC
REMARK SMILES IDX 4 1 5 2 6 3 7 4 8 5 9 6 3 7 2 8 1 9
REMARK H PARENT
REMARK Flexibility Score: inf
ROOT
ATOM      1  C   UNL     1     -28.521 -11.708  24.001  1.00  0.00     0.057 C 
ATOM      2  C   UNL     1     -27.624 -11.538  22.770  1.00  0.00     0.016 C 
ENDROOT
BRANCH   1   3
ATOM      3  C   UNL     1     -28.002 -12.837  24.868  1.00  0.00     0.135 C 
ATOM      4  O   UNL     1     -28.730 -13.337  25.714  1.00  0.00    -0.299 OA
BRANCH   3   5
ATOM      5  C   UNL     1     -26.603 -13.368  24.696  1.00  0.00     0.072 C 
ATOM      6  C   UNL     1     -25.845 -13.336  26.018  1.00  0.00     0.012 C 
ENDBRANCH   3   5
ENDBRANCH   1   3
BRANCH   1   7
ATOM      7  C   UNL     1     -28.608 -10.389  24.795  1.00  0.00     0.038 C 
BRANCH   7   8
ATOM      8  C   UNL     1     -27.473  -9.453  24.466  1.00  0.00    -0.034 C 
ATOM      9  C   UNL     1     -26.738  -8.876  25.421  1.00  0.00     0.004 C 
ENDBRANCH   7   8
ENDBRANCH   1   7
TORSDOF 4
ENDMDL
