MODEL 1
REMARK VINA RESULT:    -4.339      0.000      0.000
REMARK INTER + INTRA:          -9.813
REMARK INTER:                  -7.891
REMARK INTRA:                  -1.922
REMARK UNBOUND:                -1.922
REMARK SMILES CCCCCCCCCCCCCCCC(=O)[O-]
REMARK SMILES IDX 9 1 10 2 11 3 12 4 13 5 14 6 15 7 16 8 17 9 18 10 8 11 7 12
REMARK SMILES IDX 6 13 5 14 4 15 3 16 2 17 1 18
REMARK H PARENT
REMARK Flexibility Score: inf
ROOT
ATOM      1  C   UNL     1      97.224  84.360  81.558  1.00  0.00     0.000 C 
ENDROOT
BRANCH   1   2
ATOM      2  C   UNL     1      97.816  85.600  80.871  1.00  0.00     0.000 C 
BRANCH   2   3
ATOM      3  C   UNL     1      96.737  86.591  80.405  1.00  0.00     0.000 C 
BRANCH   3   4
ATOM      4  C   UNL     1      95.983  86.101  79.158  1.00  0.00     0.000 C 
BRANCH   4   5
ATOM      5  C   UNL     1      94.523  85.725  79.462  1.00  0.00     0.000 C 
BRANCH   5   6
ATOM      6  C   UNL     1      94.188  84.276  79.068  1.00  0.00     0.006 C 
BRANCH   6   7
ATOM      7  C   UNL     1      93.367  83.559  80.149  1.00  0.00     0.053 C 
BRANCH   7   8
ATOM      8  C   UNL     1      92.114  84.309  80.483  1.00  0.00     0.041 C 
ATOM      9  O   UNL     1      91.901  84.695  81.662  1.00  0.00    -0.550 OA
ATOM     10  O   UNL     1      91.167  84.552  79.497  1.00  0.00    -0.550 OA
ENDBRANCH   7   8
ENDBRANCH   6   7
ENDBRANCH   5   6
ENDBRANCH   4   5
ENDBRANCH   3   4
ENDBRANCH   2   3
ENDBRANCH   1   2
BRANCH   1  11
ATOM     11  C   UNL     1      98.335  83.416  82.036  1.00  0.00     0.000 C 
BRANCH  11  12
ATOM     12  C   UNL     1      99.721  83.955  81.650  1.00  0.00    -0.000 C 
BRANCH  12  13
ATOM     13  C   UNL     1     100.755  83.768  82.781  1.00  0.00    -0.000 C 
BRANCH  13  14
ATOM     14  C   UNL     1     101.165  85.082  83.465  1.00  0.00    -0.000 C 
BRANCH  14  15
ATOM     15  C   UNL     1     100.209  85.493  84.594  1.00  0.00    -0.000 C 
BRANCH  15  16
ATOM     16  C   UNL     1      99.356  86.699  84.182  1.00  0.00    -0.000 C 
BRANCH  16  17
ATOM     17  C   UNL     1      97.873  86.449  84.477  1.00  0.00    -0.003 C 
ATOM     18  C   UNL     1      97.695  85.296  85.461  1.00  0.00     0.004 C 
ENDBRANCH  16  17
ENDBRANCH  15  16
ENDBRANCH  14  15
ENDBRANCH  13  14
ENDBRANCH  12  13
ENDBRANCH  11  12
ENDBRANCH   1  11
TORSDOF 14
ENDMDL
MODEL 2
REMARK VINA RESULT:    -4.308      0.980      1.884
REMARK INTER + INTRA:          -9.755
REMARK INTER:                  -8.059
REMARK INTRA:                  -1.697
REMARK UNBOUND:                -1.922
REMARK SMILES CCCCCCCCCCCCCCCC(=O)[O-]
REMARK SMILES IDX 9 1 10 2 11 3 12 4 13 5 14 6 15 7 16 8 17 9 18 10 8 11 7 12
REMARK SMILES IDX 6 13 5 14 4 15 3 16 2 17 1 18
REMARK H PARENT
REMARK Flexibility Score: inf
ROOT
ATOM      1  C   UNL     1      97.820  86.905  81.212  1.00  0.00     0.000 C 
ENDROOT
BRANCH   1   2
ATOM      2  C   UNL     1      96.335  86.943  80.822  1.00  0.00     0.000 C 
BRANCH   2   3
ATOM      3  C   UNL     1      96.121  86.924  79.300  1.00  0.00     0.000 C 
BRANCH   3   4
ATOM      4  C   UNL     1      94.980  85.983  78.875  1.00  0.00     0.000 C 
BRANCH   4   5
ATOM      5  C   UNL     1      95.007  84.644  79.631  1.00  0.00     0.000 C 
BRANCH   5   6
ATOM      6  C   UNL     1      93.796  83.753  79.306  1.00  0.00     0.006 C 
BRANCH   6   7
ATOM      7  C   UNL     1      92.685  83.883  80.357  1.00  0.00     0.053 C 
BRANCH   7   8
ATOM      8  C   UNL     1      91.566  84.755  79.876  1.00  0.00     0.041 C 
ATOM      9  O   UNL     1      91.480  85.063  78.658  1.00  0.00    -0.550 OA
ATOM     10  O   UNL     1      90.638  85.257  80.780  1.00  0.00    -0.550 OA
ENDBRANCH   7   8
ENDBRANCH   6   7
ENDBRANCH   5   6
ENDBRANCH   4   5
ENDBRANCH   3   4
ENDBRANCH   2   3
ENDBRANCH   1   2
BRANCH   1  11
ATOM     11  C   UNL     1      98.439  85.542  80.882  1.00  0.00     0.000 C 
BRANCH  11  12
ATOM     12  C   UNL     1      97.788  84.423  81.711  1.00  0.00    -0.000 C 
BRANCH  12  13
ATOM     13  C   UNL     1      98.802  83.335  82.122  1.00  0.00    -0.000 C 
BRANCH  13  14
ATOM     14  C   UNL     1     100.268  83.788  82.020  1.00  0.00    -0.000 C 
BRANCH  14  15
ATOM     15  C   UNL     1     100.868  84.180  83.378  1.00  0.00    -0.000 C 
BRANCH  15  16
ATOM     16  C   UNL     1     101.170  85.683  83.434  1.00  0.00    -0.000 C 
BRANCH  16  17
ATOM     17  C   UNL     1     100.061  86.438  84.176  1.00  0.00    -0.003 C 
ATOM     18  C   UNL     1      99.309  85.514  85.129  1.00  0.00     0.004 C 
ENDBRANCH  16  17
ENDBRANCH  15  16
ENDBRANCH  14  15
ENDBRANCH  13  14
ENDBRANCH  12  13
ENDBRANCH  11  12
ENDBRANCH   1  11
TORSDOF 14
ENDMDL
MODEL 3
REMARK VINA RESULT:    -4.204      3.433      7.250
REMARK INTER + INTRA:          -9.567
REMARK INTER:                  -8.019
REMARK INTRA:                  -1.548
REMARK UNBOUND:                -1.922
REMARK SMILES CCCCCCCCCCCCCCCC(=O)[O-]
REMARK SMILES IDX 9 1 10 2 11 3 12 4 13 5 14 6 15 7 16 8 17 9 18 10 8 11 7 12
REMARK SMILES IDX 6 13 5 14 4 15 3 16 2 17 1 18
REMARK H PARENT
REMARK Flexibility Score: inf
ROOT
ATOM      1  C   UNL     1      96.337  85.932  79.925  1.00  0.00     0.000 C 
ENDROOT
BRANCH   1   2
ATOM      2  C   UNL     1      96.153  86.137  81.437  1.00  0.00     0.000 C 
BRANCH   2   3
ATOM      3  C   UNL     1      97.145  85.313  82.273  1.00  0.00     0.000 C 
BRANCH   3   4
ATOM      4  C   UNL     1      97.347  83.893  81.719  1.00  0.00     0.000 C 
BRANCH   4   5
ATOM      5  C   UNL     1      98.640  83.237  82.233  1.00  0.00     0.000 C 
BRANCH   5   6
ATOM      6  C   UNL     1      99.905  83.994  81.792  1.00  0.00     0.006 C 
BRANCH   6   7
ATOM      7  C   UNL     1     101.018  83.923  82.847  1.00  0.00     0.053 C 
BRANCH   7   8
ATOM      8  C   UNL     1     100.627  84.626  84.111  1.00  0.00     0.041 C 
ATOM      9  O   UNL     1     100.720  84.036  85.220  1.00  0.00    -0.550 OA
ATOM     10  O   UNL     1     100.128  85.921  84.060  1.00  0.00    -0.550 OA
ENDBRANCH   7   8
ENDBRANCH   6   7
ENDBRANCH   5   6
ENDBRANCH   4   5
ENDBRANCH   3   4
ENDBRANCH   2   3
ENDBRANCH   1   2
BRANCH   1  11
ATOM     11  C   UNL     1      95.009  85.556  79.258  1.00  0.00     0.000 C 
BRANCH  11  12
ATOM     12  C   UNL     1      94.683  84.070  79.472  1.00  0.00    -0.000 C 
BRANCH  12  13
ATOM     13  C   UNL     1      93.207  83.746  79.161  1.00  0.00    -0.000 C 
BRANCH  13  14
ATOM     14  C   UNL     1      92.341  84.991  78.914  1.00  0.00    -0.000 C 
BRANCH  14  15
ATOM     15  C   UNL     1      90.905  84.835  79.434  1.00  0.00    -0.000 C 
BRANCH  15  16
ATOM     16  C   UNL     1      90.825  85.148  80.933  1.00  0.00    -0.000 C 
BRANCH  16  17
ATOM     17  C   UNL     1      91.854  86.213  81.327  1.00  0.00    -0.003 C 
ATOM     18  C   UNL     1      92.688  85.758  82.522  1.00  0.00     0.004 C 
ENDBRANCH  16  17
ENDBRANCH  15  16
ENDBRANCH  14  15
ENDBRANCH  13  14
ENDBRANCH  12  13
ENDBRANCH  11  12
ENDBRANCH   1  11
TORSDOF 14
ENDMDL
MODEL 4
REMARK VINA RESULT:    -4.201      3.659      7.665
REMARK INTER + INTRA:          -9.561
REMARK INTER:                  -8.333
REMARK INTRA:                  -1.228
REMARK UNBOUND:                -1.922
REMARK SMILES CCCCCCCCCCCCCCCC(=O)[O-]
REMARK SMILES IDX 9 1 10 2 11 3 12 4 13 5 14 6 15 7 16 8 17 9 18 10 8 11 7 12
REMARK SMILES IDX 6 13 5 14 4 15 3 16 2 17 1 18
REMARK H PARENT
REMARK Flexibility Score: inf
ROOT
ATOM      1  C   UNL     1      97.261  85.984  80.484  1.00  0.00     0.000 C 
ENDROOT
BRANCH   1   2
ATOM      2  C   UNL     1      97.023  86.150  81.993  1.00  0.00     0.000 C 
BRANCH   2   3
ATOM      3  C   UNL     1      97.582  84.977  82.815  1.00  0.00     0.000 C 
BRANCH   3   4
ATOM      4  C   UNL     1      98.038  83.802  81.933  1.00  0.00     0.000 C 
BRANCH   4   5
ATOM      5  C   UNL     1      99.566  83.742  81.774  1.00  0.00     0.000 C 
BRANCH   5   6
ATOM      6  C   UNL     1     100.303  83.704  83.125  1.00  0.00     0.006 C 
BRANCH   6   7
ATOM      7  C   UNL     1     101.705  84.323  83.036  1.00  0.00     0.053 C 
BRANCH   7   8
ATOM      8  C   UNL     1     101.781  85.629  83.766  1.00  0.00     0.041 C 
ATOM      9  O   UNL     1     100.729  86.204  84.148  1.00  0.00    -0.550 OA
ATOM     10  O   UNL     1     103.014  86.227  83.993  1.00  0.00    -0.550 OA
ENDBRANCH   7   8
ENDBRANCH   6   7
ENDBRANCH   5   6
ENDBRANCH   4   5
ENDBRANCH   3   4
ENDBRANCH   2   3
ENDBRANCH   1   2
BRANCH   1  11
ATOM     11  C   UNL     1      95.975  86.250  79.693  1.00  0.00     0.000 C 
BRANCH  11  12
ATOM     12  C   UNL     1      94.772  85.546  80.340  1.00  0.00    -0.000 C 
BRANCH  12  13
ATOM     13  C   UNL     1      94.658  84.070  79.904  1.00  0.00    -0.000 C 
BRANCH  13  14
ATOM     14  C   UNL     1      93.326  83.733  79.213  1.00  0.00    -0.000 C 
BRANCH  14  15
ATOM     15  C   UNL     1      92.496  84.979  78.874  1.00  0.00    -0.000 C 
BRANCH  15  16
ATOM     16  C   UNL     1      91.038  84.806  79.316  1.00  0.00    -0.000 C 
BRANCH  16  17
ATOM     17  C   UNL     1      90.956  84.107  80.677  1.00  0.00    -0.003 C 
ATOM     18  C   UNL     1      90.191  84.957  81.688  1.00  0.00     0.004 C 
ENDBRANCH  16  17
ENDBRANCH  15  16
ENDBRANCH  14  15
ENDBRANCH  13  14
ENDBRANCH  12  13
ENDBRANCH  11  12
ENDBRANCH   1  11
TORSDOF 14
ENDMDL
MODEL 5
REMARK VINA RESULT:    -4.185      1.031      2.662
REMARK INTER + INTRA:          -9.532
REMARK INTER:                  -7.647
REMARK INTRA:                  -1.885
REMARK UNBOUND:                -1.922
REMARK SMILES CCCCCCCCCCCCCCCC(=O)[O-]
REMARK SMILES IDX 9 1 10 2 11 3 12 4 13 5 14 6 15 7 16 8 17 9 18 10 8 11 7 12
REMARK SMILES IDX 6 13 5 14 4 15 3 16 2 17 1 18
REMARK H PARENT
REMARK Flexibility Score: inf
ROOT
ATOM      1  C   UNL     1      98.731  87.615  82.350  1.00  0.00     0.000 C 
ENDROOT
BRANCH   1   2
ATOM      2  C   UNL     1      98.328  86.957  81.021  1.00  0.00     0.000 C 
BRANCH   2   3
ATOM      3  C   UNL     1      97.001  87.501  80.469  1.00  0.00     0.000 C 
BRANCH   3   4
ATOM      4  C   UNL     1      95.823  86.541  80.710  1.00  0.00     0.000 C 
BRANCH   4   5
ATOM      5  C   UNL     1      95.695  85.476  79.608  1.00  0.00     0.000 C 
BRANCH   5   6
ATOM      6  C   UNL     1      94.989  84.199  80.096  1.00  0.00     0.006 C 
BRANCH   6   7
ATOM      7  C   UNL     1      93.800  83.820  79.202  1.00  0.00     0.053 C 
BRANCH   7   8
ATOM      8  C   UNL     1      92.534  84.480  79.654  1.00  0.00     0.041 C 
ATOM      9  O   UNL     1      91.685  84.871  78.810  1.00  0.00    -0.550 OA
ATOM     10  O   UNL     1      92.307  84.694  81.008  1.00  0.00    -0.550 OA
ENDBRANCH   7   8
ENDBRANCH   6   7
ENDBRANCH   5   6
ENDBRANCH   4   5
ENDBRANCH   3   4
ENDBRANCH   2   3
ENDBRANCH   1   2
BRANCH   1  11
ATOM     11  C   UNL     1      98.264  86.773  83.543  1.00  0.00     0.000 C 
BRANCH  11  12
ATOM     12  C   UNL     1      99.233  86.907  84.728  1.00  0.00    -0.000 C 
BRANCH  12  13
ATOM     13  C   UNL     1     100.097  85.643  84.920  1.00  0.00    -0.000 C 
BRANCH  13  14
ATOM     14  C   UNL     1     101.427  85.682  84.149  1.00  0.00    -0.000 C 
BRANCH  14  15
ATOM     15  C   UNL     1     101.465  84.696  82.973  1.00  0.00    -0.000 C 
BRANCH  15  16
ATOM     16  C   UNL     1     100.310  83.691  83.059  1.00  0.00    -0.000 C 
BRANCH  16  17
ATOM     17  C   UNL     1      99.511  83.661  81.751  1.00  0.00    -0.003 C 
ATOM     18  C   UNL     1      98.049  83.306  82.007  1.00  0.00     0.004 C 
ENDBRANCH  16  17
ENDBRANCH  15  16
ENDBRANCH  14  15
ENDBRANCH  13  14
ENDBRANCH  12  13
ENDBRANCH  11  12
ENDBRANCH   1  11
TORSDOF 14
ENDMDL
MODEL 6
REMARK VINA RESULT:    -4.164      3.564      7.269
REMARK INTER + INTRA:          -9.495
REMARK INTER:                  -7.675
REMARK INTRA:                  -1.820
REMARK UNBOUND:                -1.922
REMARK SMILES CCCCCCCCCCCCCCCC(=O)[O-]
REMARK SMILES IDX 9 1 10 2 11 3 12 4 13 5 14 6 15 7 16 8 17 9 18 10 8 11 7 12
REMARK SMILES IDX 6 13 5 14 4 15 3 16 2 17 1 18
REMARK H PARENT
REMARK Flexibility Score: inf
ROOT
ATOM      1  C   UNL     1      95.949  86.443  83.060  1.00  0.00     0.000 C 
ENDROOT
BRANCH   1   2
ATOM      2  C   UNL     1      97.325  85.835  82.751  1.00  0.00     0.000 C 
BRANCH   2   3
ATOM      3  C   UNL     1      97.416  84.348  83.129  1.00  0.00     0.000 C 
BRANCH   3   4
ATOM      4  C   UNL     1      98.269  83.538  82.139  1.00  0.00     0.000 C 
BRANCH   4   5
ATOM      5  C   UNL     1      99.498  84.319  81.642  1.00  0.00     0.000 C 
BRANCH   5   6
ATOM      6  C   UNL     1     100.811  83.825  82.274  1.00  0.00     0.006 C 
BRANCH   6   7
ATOM      7  C   UNL     1     100.960  84.287  83.731  1.00  0.00     0.053 C 
BRANCH   7   8
ATOM      8  C   UNL     1     101.169  85.768  83.824  1.00  0.00     0.041 C 
ATOM      9  O   UNL     1     100.347  86.486  84.452  1.00  0.00    -0.550 OA
ATOM     10  O   UNL     1     102.253  86.358  83.187  1.00  0.00    -0.550 OA
ENDBRANCH   7   8
ENDBRANCH   6   7
ENDBRANCH   5   6
ENDBRANCH   4   5
ENDBRANCH   3   4
ENDBRANCH   2   3
ENDBRANCH   1   2
BRANCH   1  11
ATOM     11  C   UNL     1      95.145  86.664  81.773  1.00  0.00     0.000 C 
BRANCH  11  12
ATOM     12  C   UNL     1      96.037  86.510  80.531  1.00  0.00    -0.000 C 
BRANCH  12  13
ATOM     13  C   UNL     1      95.414  85.569  79.478  1.00  0.00    -0.000 C 
BRANCH  13  14
ATOM     14  C   UNL     1      95.085  84.169  80.021  1.00  0.00    -0.000 C 
BRANCH  14  15
ATOM     15  C   UNL     1      93.697  83.673  79.592  1.00  0.00    -0.000 C 
BRANCH  15  16
ATOM     16  C   UNL     1      92.610  84.692  79.955  1.00  0.00    -0.000 C 
BRANCH  16  17
ATOM     17  C   UNL     1      91.734  85.017  78.740  1.00  0.00    -0.003 C 
ATOM     18  C   UNL     1      92.018  86.422  78.217  1.00  0.00     0.004 C 
ENDBRANCH  16  17
ENDBRANCH  15  16
ENDBRANCH  14  15
ENDBRANCH  13  14
ENDBRANCH  12  13
ENDBRANCH  11  12
ENDBRANCH   1  11
TORSDOF 14
ENDMDL
MODEL 7
REMARK VINA RESULT:    -4.098      3.519      7.360
REMARK INTER + INTRA:          -9.374
REMARK INTER:                  -7.954
REMARK INTRA:                  -1.420
REMARK UNBOUND:                -1.922
REMARK SMILES CCCCCCCCCCCCCCCC(=O)[O-]
REMARK SMILES IDX 9 1 10 2 11 3 12 4 13 5 14 6 15 7 16 8 17 9 18 10 8 11 7 12
REMARK SMILES IDX 6 13 5 14 4 15 3 16 2 17 1 18
REMARK H PARENT
REMARK Flexibility Score: inf
ROOT
ATOM      1  C   UNL     1      96.467  86.069  80.127  1.00  0.00     0.000 C 
ENDROOT
BRANCH   1   2
ATOM      2  C   UNL     1      96.967  85.059  81.171  1.00  0.00     0.000 C 
BRANCH   2   3
ATOM      3  C   UNL     1      98.501  85.003  81.256  1.00  0.00     0.000 C 
BRANCH   3   4
ATOM      4  C   UNL     1      99.014  83.663  81.809  1.00  0.00     0.000 C 
BRANCH   4   5
ATOM      5  C   UNL     1     100.264  83.828  82.690  1.00  0.00     0.000 C 
BRANCH   5   6
ATOM      6  C   UNL     1     100.001  84.685  83.940  1.00  0.00     0.006 C 
BRANCH   6   7
ATOM      7  C   UNL     1     100.760  84.163  85.168  1.00  0.00     0.053 C 
BRANCH   7   8
ATOM      8  C   UNL     1     100.056  84.512  86.444  1.00  0.00     0.041 C 
ATOM      9  O   UNL     1      98.822  84.760  86.441  1.00  0.00    -0.550 OA
ATOM     10  O   UNL     1     100.772  84.598  87.631  1.00  0.00    -0.550 OA
ENDBRANCH   7   8
ENDBRANCH   6   7
ENDBRANCH   5   6
ENDBRANCH   4   5
ENDBRANCH   3   4
ENDBRANCH   2   3
ENDBRANCH   1   2
BRANCH   1  11
ATOM     11  C   UNL     1      95.241  85.526  79.383  1.00  0.00     0.000 C 
BRANCH  11  12
ATOM     12  C   UNL     1      94.878  84.115  79.871  1.00  0.00    -0.000 C 
BRANCH  12  13
ATOM     13  C   UNL     1      93.517  83.640  79.321  1.00  0.00    -0.000 C 
BRANCH  13  14
ATOM     14  C   UNL     1      92.550  84.789  78.993  1.00  0.00    -0.000 C 
BRANCH  14  15
ATOM     15  C   UNL     1      91.502  85.021  80.090  1.00  0.00    -0.000 C 
BRANCH  15  16
ATOM     16  C   UNL     1      91.923  86.165  81.021  1.00  0.00    -0.000 C 
BRANCH  16  17
ATOM     17  C   UNL     1      92.384  85.626  82.379  1.00  0.00    -0.003 C 
ATOM     18  C   UNL     1      93.721  86.238  82.790  1.00  0.00     0.004 C 
ENDBRANCH  16  17
ENDBRANCH  15  16
ENDBRANCH  14  15
ENDBRANCH  13  14
ENDBRANCH  12  13
ENDBRANCH  11  12
ENDBRANCH   1  11
TORSDOF 14
ENDMDL
MODEL 8
REMARK VINA RESULT:    -4.088      3.380      7.226
REMARK INTER + INTRA:          -9.356
REMARK INTER:                  -7.988
REMARK INTRA:                  -1.368
REMARK UNBOUND:                -1.922
REMARK SMILES CCCCCCCCCCCCCCCC(=O)[O-]
REMARK SMILES IDX 9 1 10 2 11 3 12 4 13 5 14 6 15 7 16 8 17 9 18 10 8 11 7 12
REMARK SMILES IDX 6 13 5 14 4 15 3 16 2 17 1 18
REMARK H PARENT
REMARK Flexibility Score: inf
ROOT
ATOM      1  C   UNL     1      97.632  85.591  82.686  1.00  0.00     0.000 C 
ENDROOT
BRANCH   1   2
ATOM      2  C   UNL     1      97.625  84.262  81.915  1.00  0.00     0.000 C 
BRANCH   2   3
ATOM      3  C   UNL     1      98.839  83.379  82.245  1.00  0.00     0.000 C 
BRANCH   3   4
ATOM      4  C   UNL     1     100.156  83.959  81.701  1.00  0.00     0.000 C 
BRANCH   4   5
ATOM      5  C   UNL     1     101.213  84.152  82.801  1.00  0.00     0.000 C 
BRANCH   5   6
ATOM      6  C   UNL     1     100.627  84.025  84.218  1.00  0.00     0.006 C 
BRANCH   6   7
ATOM      7  C   UNL     1     100.538  85.382  84.930  1.00  0.00     0.053 C 
BRANCH   7   8
ATOM      8  C   UNL     1      99.757  85.289  86.205  1.00  0.00     0.041 C 
ATOM      9  O   UNL     1      98.871  86.144  86.470  1.00  0.00    -0.550 OA
ATOM     10  O   UNL     1     100.033  84.277  87.116  1.00  0.00    -0.550 OA
ENDBRANCH   7   8
ENDBRANCH   6   7
ENDBRANCH   5   6
ENDBRANCH   4   5
ENDBRANCH   3   4
ENDBRANCH   2   3
ENDBRANCH   1   2
BRANCH   1  11
ATOM     11  C   UNL     1      97.658  86.784  81.723  1.00  0.00     0.000 C 
BRANCH  11  12
ATOM     12  C   UNL     1      97.286  86.350  80.296  1.00  0.00    -0.000 C 
BRANCH  12  13
ATOM     13  C   UNL     1      95.798  86.605  79.978  1.00  0.00    -0.000 C 
BRANCH  13  14
ATOM     14  C   UNL     1      95.155  85.508  79.114  1.00  0.00    -0.000 C 
BRANCH  14  15
ATOM     15  C   UNL     1      94.668  84.307  79.936  1.00  0.00    -0.000 C 
BRANCH  15  16
ATOM     16  C   UNL     1      93.458  83.639  79.272  1.00  0.00    -0.000 C 
BRANCH  16  17
ATOM     17  C   UNL     1      92.398  84.678  78.891  1.00  0.00    -0.003 C 
ATOM     18  C   UNL     1      91.234  84.665  79.878  1.00  0.00     0.004 C 
ENDBRANCH  16  17
ENDBRANCH  15  16
ENDBRANCH  14  15
ENDBRANCH  13  14
ENDBRANCH  12  13
ENDBRANCH  11  12
ENDBRANCH   1  11
TORSDOF 14
ENDMDL
MODEL 9
REMARK VINA RESULT:    -4.062      0.926      1.721
REMARK INTER + INTRA:          -9.308
REMARK INTER:                  -7.590
REMARK INTRA:                  -1.719
REMARK UNBOUND:                -1.922
REMARK SMILES CCCCCCCCCCCCCCCC(=O)[O-]
REMARK SMILES IDX 9 1 10 2 11 3 12 4 13 5 14 6 15 7 16 8 17 9 18 10 8 11 7 12
REMARK SMILES IDX 6 13 5 14 4 15 3 16 2 17 1 18
REMARK H PARENT
REMARK Flexibility Score: inf
ROOT
ATOM      1  C   UNL     1      98.526  83.326  82.109  1.00  0.00     0.000 C 
ENDROOT
BRANCH   1   2
ATOM      2  C   UNL     1      97.420  84.293  81.658  1.00  0.00     0.000 C 
BRANCH   2   3
ATOM      3  C   UNL     1      97.960  85.464  80.821  1.00  0.00     0.000 C 
BRANCH   3   4
ATOM      4  C   UNL     1      96.847  86.219  80.075  1.00  0.00     0.000 C 
BRANCH   4   5
ATOM      5  C   UNL     1      95.518  85.446  80.060  1.00  0.00     0.000 C 
BRANCH   5   6
ATOM      6  C   UNL     1      94.507  86.022  79.051  1.00  0.00     0.006 C 
BRANCH   6   7
ATOM      7  C   UNL     1      93.131  85.353  79.168  1.00  0.00     0.053 C 
BRANCH   7   8
ATOM      8  C   UNL     1      93.073  84.400  80.323  1.00  0.00     0.041 C 
ATOM      9  O   UNL     1      93.402  83.195  80.168  1.00  0.00    -0.550 OA
ATOM     10  O   UNL     1      92.624  84.838  81.562  1.00  0.00    -0.550 OA
ENDBRANCH   7   8
ENDBRANCH   6   7
ENDBRANCH   5   6
ENDBRANCH   4   5
ENDBRANCH   3   4
ENDBRANCH   2   3
ENDBRANCH   1   2
BRANCH   1  11
ATOM     11  C   UNL     1      99.914  83.914  81.830  1.00  0.00     0.000 C 
BRANCH  11  12
ATOM     12  C   UNL     1     100.745  84.003  83.120  1.00  0.00    -0.000 C 
BRANCH  12  13
ATOM     13  C   UNL     1     101.313  85.420  83.352  1.00  0.00    -0.000 C 
BRANCH  13  14
ATOM     14  C   UNL     1     100.520  86.241  84.382  1.00  0.00    -0.000 C 
BRANCH  14  15
ATOM     15  C   UNL     1      99.425  87.106  83.742  1.00  0.00    -0.000 C 
BRANCH  15  16
ATOM     16  C   UNL     1      98.051  86.793  84.349  1.00  0.00    -0.000 C 
BRANCH  16  17
ATOM     17  C   UNL     1      98.093  85.494  85.161  1.00  0.00    -0.003 C 
ATOM     18  C   UNL     1      96.698  84.894  85.312  1.00  0.00     0.004 C 
ENDBRANCH  16  17
ENDBRANCH  15  16
ENDBRANCH  14  15
ENDBRANCH  13  14
ENDBRANCH  12  13
ENDBRANCH  11  12
ENDBRANCH   1  11
TORSDOF 14
ENDMDL
