MODEL 1
REMARK VINA RESULT:    -6.504      0.000      0.000
REMARK INTER + INTRA:          -7.216
REMARK INTER:                  -7.075
REMARK INTRA:                  -0.141
REMARK UNBOUND:                -0.141
REMARK SMILES C[C@@H]1[C@@H](C)CC[C@@]2(C(=O)[O-])CC[C@@]3(C)C(=CC[C@H]4[C@@]5(C)CC[C@H](O)C(C)(C)[C@@H]5CC[C@]43C)[C@@H]12
REMARK SMILES IDX 7 1 6 2 11 3 33 4 5 5 12 6 15 7 2 8 3 9 13 10 16 11 1 12
REMARK SMILES IDX 4 13 14 14 31 15 17 16 18 17 30 18 32 19 19 20 29 21 28 22
REMARK SMILES IDX 21 23 20 24 25 25 22 26 23 27 26 28 27 29 8 30 9 31 10 32
REMARK SMILES IDX 24 33
REMARK H PARENT 24 34
REMARK Flexibility Score: inf
ROOT
ATOM      1  C   UNL     1      -0.405 -14.634 -34.415  1.00  0.00     0.017 C 
ATOM      2  C   UNL     1       0.009 -15.666 -33.313  1.00  0.00     0.014 C 
ATOM      3  C   UNL     1      -0.193 -15.318 -35.815  1.00  0.00     0.014 C 
ATOM      4  C   UNL     1      -1.890 -14.156 -34.200  1.00  0.00     0.030 C 
ATOM      5  C   UNL     1      -0.738 -15.461 -31.990  1.00  0.00     0.004 C 
ATOM      6  C   UNL     1      -0.848 -14.609 -37.034  1.00  0.00     0.013 C 
ATOM      7  C   UNL     1      -2.405 -13.493 -35.489  1.00  0.00    -0.063 C 
ATOM      8  C   UNL     1      -2.817 -15.221 -33.542  1.00  0.00    -0.003 C 
ATOM      9  C   UNL     1      -2.264 -15.684 -32.148  1.00  0.00    -0.011 C 
ATOM     10  C   UNL     1      -2.348 -14.241 -36.834  1.00  0.00    -0.006 C 
ATOM     11  C   UNL     1      -2.360 -12.148 -35.490  1.00  0.00    -0.027 C 
ATOM     12  C   UNL     1      -4.249 -14.672 -33.371  1.00  0.00     0.008 C 
ATOM     13  C   UNL     1      -2.626 -17.155 -31.875  1.00  0.00     0.008 C 
ATOM     14  C   UNL     1      -3.148 -15.587 -36.749  1.00  0.00     0.017 C 
ATOM     15  C   UNL     1      -2.971 -13.330 -38.045  1.00  0.00    -0.020 C 
ATOM     16  C   UNL     1      -1.869 -11.401 -36.679  1.00  0.00     0.032 C 
ATOM     17  C   UNL     1      -2.643 -11.761 -37.958  1.00  0.00     0.006 C 
ATOM     18  C   UNL     1      -2.583 -13.913 -39.451  1.00  0.00     0.008 C 
ATOM     19  C   UNL     1      -4.535 -13.420 -37.967  1.00  0.00     0.012 C 
ATOM     20  C   UNL     1      -2.064 -11.082 -39.290  1.00  0.00    -0.025 C 
ATOM     21  C   UNL     1      -1.256 -13.440 -40.071  1.00  0.00     0.005 C 
ATOM     22  C   UNL     1      -0.880 -11.951 -39.833  1.00  0.00     0.003 C 
ATOM     23  C   UNL     1      -1.523  -9.640 -38.982  1.00  0.00     0.010 C 
ATOM     24  C   UNL     1      -3.224 -10.941 -40.336  1.00  0.00     0.012 C 
ATOM     25  C   UNL     1      -0.025 -11.309 -41.009  1.00  0.00    -0.006 C 
ATOM     26  C   UNL     1      -0.746  -8.988 -40.133  1.00  0.00     0.033 C 
ATOM     27  C   UNL     1       0.431  -9.877 -40.574  1.00  0.00     0.120 C 
ATOM     28  C   UNL     1      -0.770 -11.246 -42.375  1.00  0.00     0.014 C 
ATOM     29  C   UNL     1       1.251 -12.163 -41.221  1.00  0.00     0.014 C 
ENDROOT
BRANCH   1  30
ATOM     30  C   UNL     1       0.516 -13.416 -34.292  1.00  0.00     0.048 C 
ATOM     31  O   UNL     1       0.173 -12.396 -33.636  1.00  0.00    -0.550 OA
ATOM     32  O   UNL     1       1.776 -13.431 -34.881  1.00  0.00    -0.550 OA
ENDBRANCH   1  30
BRANCH  27  33
ATOM     33  O   UNL     1       1.196  -9.236 -41.568  1.00  0.00    -0.393 OA
ATOM     34  H   UNL     1       2.155  -9.344 -41.345  1.00  0.00     0.210 HD
ENDBRANCH  27  33
TORSDOF 2
ENDMDL
MODEL 2
REMARK VINA RESULT:    -6.362      8.859     10.871
REMARK INTER + INTRA:          -7.060
REMARK INTER:                  -6.789
REMARK INTRA:                  -0.271
REMARK UNBOUND:                -0.141
REMARK SMILES C[C@@H]1[C@@H](C)CC[C@@]2(C(=O)[O-])CC[C@@]3(C)C(=CC[C@H]4[C@@]5(C)CC[C@H](O)C(C)(C)[C@@H]5CC[C@]43C)[C@@H]12
REMARK SMILES IDX 7 1 6 2 11 3 33 4 5 5 12 6 15 7 2 8 3 9 13 10 16 11 1 12
REMARK SMILES IDX 4 13 14 14 31 15 17 16 18 17 30 18 32 19 19 20 29 21 28 22
REMARK SMILES IDX 21 23 20 24 25 25 22 26 23 27 26 28 27 29 8 30 9 31 10 32
REMARK SMILES IDX 24 33
REMARK H PARENT 24 34
REMARK Flexibility Score: inf
ROOT
ATOM      1  C   UNL     1       1.930 -18.183 -40.522  1.00  0.00     0.017 C 
ATOM      2  C   UNL     1       2.418 -17.027 -39.585  1.00  0.00     0.014 C 
ATOM      3  C   UNL     1       2.154 -19.541 -39.764  1.00  0.00     0.014 C 
ATOM      4  C   UNL     1       0.426 -17.967 -40.935  1.00  0.00     0.030 C 
ATOM      5  C   UNL     1       1.684 -15.704 -39.835  1.00  0.00     0.004 C 
ATOM      6  C   UNL     1       1.441 -20.788 -40.359  1.00  0.00     0.013 C 
ATOM      7  C   UNL     1      -0.147 -19.284 -41.487  1.00  0.00    -0.063 C 
ATOM      8  C   UNL     1      -0.431 -17.225 -39.867  1.00  0.00    -0.003 C 
ATOM      9  C   UNL     1       0.170 -15.817 -39.522  1.00  0.00    -0.011 C 
ATOM     10  C   UNL     1      -0.074 -20.581 -40.660  1.00  0.00    -0.006 C 
ATOM     11  C   UNL     1      -0.174 -19.369 -42.831  1.00  0.00    -0.027 C 
ATOM     12  C   UNL     1      -1.888 -17.059 -40.350  1.00  0.00     0.008 C 
ATOM     13  C   UNL     1      -0.108 -15.445 -38.054  1.00  0.00     0.008 C 
ATOM     14  C   UNL     1      -0.798 -20.395 -39.282  1.00  0.00     0.017 C 
ATOM     15  C   UNL     1      -0.765 -21.832 -41.458  1.00  0.00    -0.020 C 
ATOM     16  C   UNL     1       0.256 -20.613 -43.525  1.00  0.00     0.032 C 
ATOM     17  C   UNL     1      -0.520 -21.850 -43.045  1.00  0.00     0.006 C 
ATOM     18  C   UNL     1      -0.371 -23.207 -40.809  1.00  0.00     0.008 C 
ATOM     19  C   UNL     1      -2.321 -21.717 -41.291  1.00  0.00     0.012 C 
ATOM     20  C   UNL     1      -0.002 -23.234 -43.667  1.00  0.00    -0.025 C 
ATOM     21  C   UNL     1       0.918 -23.883 -41.310  1.00  0.00     0.005 C 
ATOM     22  C   UNL     1       1.217 -23.746 -42.829  1.00  0.00     0.003 C 
ATOM     23  C   UNL     1       0.467 -23.028 -45.152  1.00  0.00     0.010 C 
ATOM     24  C   UNL     1      -1.185 -24.263 -43.681  1.00  0.00     0.012 C 
ATOM     25  C   UNL     1       2.017 -24.977 -43.439  1.00  0.00    -0.006 C 
ATOM     26  C   UNL     1       1.188 -24.233 -45.770  1.00  0.00     0.033 C 
ATOM     27  C   UNL     1       2.402 -24.641 -44.917  1.00  0.00     0.120 C 
ATOM     28  C   UNL     1       1.246 -26.329 -43.377  1.00  0.00     0.014 C 
ATOM     29  C   UNL     1       3.333 -25.162 -42.641  1.00  0.00     0.014 C 
ENDROOT
BRANCH   1  30
ATOM     30  C   UNL     1       2.786 -18.155 -41.793  1.00  0.00     0.048 C 
ATOM     31  O   UNL     1       2.531 -17.365 -42.740  1.00  0.00    -0.550 OA
ATOM     32  O   UNL     1       3.895 -18.987 -41.906  1.00  0.00    -0.550 OA
ENDBRANCH   1  30
BRANCH  27  33
ATOM     33  O   UNL     1       3.115 -25.690 -45.534  1.00  0.00    -0.393 OA
ATOM     34  H   UNL     1       2.804 -26.548 -45.150  1.00  0.00     0.210 HD
ENDBRANCH  27  33
TORSDOF 2
ENDMDL
MODEL 3
REMARK VINA RESULT:    -6.021     11.330     13.693
REMARK INTER + INTRA:          -6.689
REMARK INTER:                  -6.456
REMARK INTRA:                  -0.234
REMARK UNBOUND:                -0.141
REMARK SMILES C[C@@H]1[C@@H](C)CC[C@@]2(C(=O)[O-])CC[C@@]3(C)C(=CC[C@H]4[C@@]5(C)CC[C@H](O)C(C)(C)[C@@H]5CC[C@]43C)[C@@H]12
REMARK SMILES IDX 7 1 6 2 11 3 33 4 5 5 12 6 15 7 2 8 3 9 13 10 16 11 1 12
REMARK SMILES IDX 4 13 14 14 31 15 17 16 18 17 30 18 32 19 19 20 29 21 28 22
REMARK SMILES IDX 21 23 20 24 25 25 22 26 23 27 26 28 27 29 8 30 9 31 10 32
REMARK SMILES IDX 24 33
REMARK H PARENT 24 34
REMARK Flexibility Score: inf
ROOT
ATOM      1  C   UNL     1      -0.322 -24.382 -45.627  1.00  0.00     0.017 C 
ATOM      2  C   UNL     1      -1.241 -24.597 -46.876  1.00  0.00     0.014 C 
ATOM      3  C   UNL     1      -0.594 -22.934 -45.077  1.00  0.00     0.014 C 
ATOM      4  C   UNL     1      -0.584 -25.495 -44.545  1.00  0.00     0.030 C 
ATOM      5  C   UNL     1      -1.611 -26.068 -47.100  1.00  0.00     0.004 C 
ATOM      6  C   UNL     1      -0.045 -22.624 -43.655  1.00  0.00     0.013 C 
ATOM      7  C   UNL     1      -0.002 -25.041 -43.194  1.00  0.00    -0.063 C 
ATOM      8  C   UNL     1      -2.041 -26.044 -44.531  1.00  0.00    -0.003 C 
ATOM      9  C   UNL     1      -2.447 -26.638 -45.925  1.00  0.00    -0.011 C 
ATOM     10  C   UNL     1      -0.408 -23.689 -42.578  1.00  0.00    -0.006 C 
ATOM     11  C   UNL     1       1.206 -25.555 -42.898  1.00  0.00    -0.027 C 
ATOM     12  C   UNL     1      -2.210 -27.125 -43.442  1.00  0.00     0.008 C 
ATOM     13  C   UNL     1      -3.951 -26.443 -46.188  1.00  0.00     0.008 C 
ATOM     14  C   UNL     1      -1.961 -23.625 -42.369  1.00  0.00     0.017 C 
ATOM     15  C   UNL     1       0.331 -23.449 -41.137  1.00  0.00    -0.020 C 
ATOM     16  C   UNL     1       2.283 -24.696 -42.335  1.00  0.00     0.032 C 
ATOM     17  C   UNL     1       1.846 -23.974 -41.050  1.00  0.00     0.006 C 
ATOM     18  C   UNL     1       0.226 -21.948 -40.688  1.00  0.00     0.008 C 
ATOM     19  C   UNL     1      -0.444 -24.272 -40.049  1.00  0.00     0.012 C 
ATOM     20  C   UNL     1       2.925 -22.936 -40.479  1.00  0.00    -0.025 C 
ATOM     21  C   UNL     1       1.328 -20.987 -41.167  1.00  0.00     0.005 C 
ATOM     22  C   UNL     1       2.767 -21.571 -41.230  1.00  0.00     0.003 C 
ATOM     23  C   UNL     1       4.383 -23.470 -40.720  1.00  0.00     0.010 C 
ATOM     24  C   UNL     1       2.723 -22.788 -38.931  1.00  0.00     0.012 C 
ATOM     25  C   UNL     1       3.908 -20.495 -40.971  1.00  0.00    -0.006 C 
ATOM     26  C   UNL     1       5.495 -22.457 -40.416  1.00  0.00     0.033 C 
ATOM     27  C   UNL     1       5.297 -21.165 -41.230  1.00  0.00     0.120 C 
ATOM     28  C   UNL     1       3.872 -19.860 -39.549  1.00  0.00     0.014 C 
ATOM     29  C   UNL     1       3.746 -19.340 -41.993  1.00  0.00     0.014 C 
ENDROOT
BRANCH   1  30
ATOM     30  C   UNL     1       1.136 -24.492 -46.088  1.00  0.00     0.048 C 
ATOM     31  O   UNL     1       1.892 -23.485 -46.121  1.00  0.00    -0.550 OA
ATOM     32  O   UNL     1       1.663 -25.728 -46.446  1.00  0.00    -0.550 OA
ENDBRANCH   1  30
BRANCH  27  33
ATOM     33  O   UNL     1       6.368 -20.274 -41.018  1.00  0.00    -0.393 OA
ATOM     34  H   UNL     1       6.272 -19.514 -41.646  1.00  0.00     0.210 HD
ENDBRANCH  27  33
TORSDOF 2
ENDMDL
MODEL 4
REMARK VINA RESULT:    -5.880      9.710     11.687
REMARK INTER + INTRA:          -6.536
REMARK INTER:                  -6.265
REMARK INTRA:                  -0.272
REMARK UNBOUND:                -0.141
REMARK SMILES C[C@@H]1[C@@H](C)CC[C@@]2(C(=O)[O-])CC[C@@]3(C)C(=CC[C@H]4[C@@]5(C)CC[C@H](O)C(C)(C)[C@@H]5CC[C@]43C)[C@@H]12
REMARK SMILES IDX 7 1 6 2 11 3 33 4 5 5 12 6 15 7 2 8 3 9 13 10 16 11 1 12
REMARK SMILES IDX 4 13 14 14 31 15 17 16 18 17 30 18 32 19 19 20 29 21 28 22
REMARK SMILES IDX 21 23 20 24 25 25 22 26 23 27 26 28 27 29 8 30 9 31 10 32
REMARK SMILES IDX 24 33
REMARK H PARENT 24 34
REMARK Flexibility Score: inf
ROOT
ATOM      1  C   UNL     1       0.696 -19.183 -40.493  1.00  0.00     0.017 C 
ATOM      2  C   UNL     1       0.640 -18.006 -39.462  1.00  0.00     0.014 C 
ATOM      3  C   UNL     1       1.046 -20.496 -39.702  1.00  0.00     0.014 C 
ATOM      4  C   UNL     1      -0.663 -19.299 -41.279  1.00  0.00     0.030 C 
ATOM      5  C   UNL     1      -0.305 -16.878 -39.892  1.00  0.00     0.004 C 
ATOM      6  C   UNL     1       0.827 -21.835 -40.461  1.00  0.00     0.013 C 
ATOM      7  C   UNL     1      -0.744 -20.677 -41.960  1.00  0.00    -0.063 C 
ATOM      8  C   UNL     1      -1.913 -18.846 -40.467  1.00  0.00    -0.003 C 
ATOM      9  C   UNL     1      -1.776 -17.361 -39.980  1.00  0.00    -0.011 C 
ATOM     10  C   UNL     1      -0.567 -21.970 -41.142  1.00  0.00    -0.006 C 
ATOM     11  C   UNL     1      -0.412 -20.682 -43.265  1.00  0.00    -0.027 C 
ATOM     12  C   UNL     1      -3.198 -18.995 -41.309  1.00  0.00     0.008 C 
ATOM     13  C   UNL     1      -2.493 -17.157 -38.633  1.00  0.00     0.008 C 
ATOM     14  C   UNL     1      -1.636 -22.044 -39.996  1.00  0.00     0.017 C 
ATOM     15  C   UNL     1      -0.713 -23.296 -42.090  1.00  0.00    -0.020 C 
ATOM     16  C   UNL     1       0.465 -21.746 -43.825  1.00  0.00     0.032 C 
ATOM     17  C   UNL     1      -0.083 -23.157 -43.561  1.00  0.00     0.006 C 
ATOM     18  C   UNL     1      -0.173 -24.578 -41.362  1.00  0.00     0.008 C 
ATOM     19  C   UNL     1      -2.242 -23.558 -42.330  1.00  0.00     0.012 C 
ATOM     20  C   UNL     1       0.893 -24.340 -44.029  1.00  0.00    -0.025 C 
ATOM     21  C   UNL     1       1.323 -24.901 -41.514  1.00  0.00     0.005 C 
ATOM     22  C   UNL     1       1.950 -24.604 -42.904  1.00  0.00     0.003 C 
ATOM     23  C   UNL     1       1.653 -23.938 -45.343  1.00  0.00     0.010 C 
ATOM     24  C   UNL     1       0.036 -25.614 -44.347  1.00  0.00     0.012 C 
ATOM     25  C   UNL     1       3.150 -25.573 -43.288  1.00  0.00    -0.006 C 
ATOM     26  C   UNL     1       2.775 -24.900 -45.754  1.00  0.00     0.033 C 
ATOM     27  C   UNL     1       3.800 -25.066 -44.618  1.00  0.00     0.120 C 
ATOM     28  C   UNL     1       2.739 -27.070 -43.426  1.00  0.00     0.014 C 
ATOM     29  C   UNL     1       4.230 -25.495 -42.178  1.00  0.00     0.014 C 
ENDROOT
BRANCH   1  30
ATOM     30  C   UNL     1       1.810 -18.877 -41.500  1.00  0.00     0.048 C 
ATOM     31  O   UNL     1       1.639 -18.054 -42.439  1.00  0.00    -0.550 OA
ATOM     32  O   UNL     1       3.055 -19.483 -41.370  1.00  0.00    -0.550 OA
ENDBRANCH   1  30
BRANCH  27  33
ATOM     33  O   UNL     1       4.875 -25.878 -45.030  1.00  0.00    -0.393 OA
ATOM     34  H   UNL     1       4.612 -26.827 -44.920  1.00  0.00     0.210 HD
ENDBRANCH  27  33
TORSDOF 2
ENDMDL
MODEL 5
REMARK VINA RESULT:    -5.816      1.837      7.598
REMARK INTER + INTRA:          -6.467
REMARK INTER:                  -6.189
REMARK INTRA:                  -0.278
REMARK UNBOUND:                -0.141
REMARK SMILES C[C@@H]1[C@@H](C)CC[C@@]2(C(=O)[O-])CC[C@@]3(C)C(=CC[C@H]4[C@@]5(C)CC[C@H](O)C(C)(C)[C@@H]5CC[C@]43C)[C@@H]12
REMARK SMILES IDX 7 1 6 2 11 3 33 4 5 5 12 6 15 7 2 8 3 9 13 10 16 11 1 12
REMARK SMILES IDX 4 13 14 14 31 15 17 16 18 17 30 18 32 19 19 20 29 21 28 22
REMARK SMILES IDX 21 23 20 24 25 25 22 26 23 27 26 28 27 29 8 30 9 31 10 32
REMARK SMILES IDX 24 33
REMARK H PARENT 24 34
REMARK Flexibility Score: inf
ROOT
ATOM      1  C   UNL     1      -2.061  -9.878 -41.118  1.00  0.00     0.017 C 
ATOM      2  C   UNL     1      -2.250  -8.547 -41.922  1.00  0.00     0.014 C 
ATOM      3  C   UNL     1      -2.365  -9.572 -39.606  1.00  0.00     0.014 C 
ATOM      4  C   UNL     1      -2.984 -11.014 -41.699  1.00  0.00     0.030 C 
ATOM      5  C   UNL     1      -2.661  -8.782 -43.380  1.00  0.00     0.004 C 
ATOM      6  C   UNL     1      -2.565 -10.806 -38.682  1.00  0.00     0.013 C 
ATOM      7  C   UNL     1      -3.101 -12.153 -40.671  1.00  0.00    -0.063 C 
ATOM      8  C   UNL     1      -4.313 -10.501 -42.328  1.00  0.00    -0.003 C 
ATOM      9  C   UNL     1      -4.044  -9.475 -43.485  1.00  0.00    -0.011 C 
ATOM     10  C   UNL     1      -3.566 -11.867 -39.230  1.00  0.00    -0.006 C 
ATOM     11  C   UNL     1      -2.289 -13.203 -40.896  1.00  0.00    -0.027 C 
ATOM     12  C   UNL     1      -5.155 -11.676 -42.868  1.00  0.00     0.008 C 
ATOM     13  C   UNL     1      -5.169  -8.427 -43.562  1.00  0.00     0.008 C 
ATOM     14  C   UNL     1      -4.987 -11.205 -39.233  1.00  0.00     0.017 C 
ATOM     15  C   UNL     1      -3.623 -13.241 -38.342  1.00  0.00    -0.020 C 
ATOM     16  C   UNL     1      -1.531 -13.835 -39.782  1.00  0.00     0.032 C 
ATOM     17  C   UNL     1      -2.447 -14.294 -38.636  1.00  0.00     0.006 C 
ATOM     18  C   UNL     1      -3.726 -12.922 -36.808  1.00  0.00     0.008 C 
ATOM     19  C   UNL     1      -4.946 -14.002 -38.706  1.00  0.00     0.012 C 
ATOM     20  C   UNL     1      -1.665 -14.861 -37.356  1.00  0.00    -0.025 C 
ATOM     21  C   UNL     1      -2.410 -12.735 -36.034  1.00  0.00     0.005 C 
ATOM     22  C   UNL     1      -1.232 -13.659 -36.450  1.00  0.00     0.003 C 
ATOM     23  C   UNL     1      -0.375 -15.640 -37.800  1.00  0.00     0.010 C 
ATOM     24  C   UNL     1      -2.592 -15.871 -36.597  1.00  0.00     0.012 C 
ATOM     25  C   UNL     1      -0.236 -14.005 -35.261  1.00  0.00    -0.006 C 
ATOM     26  C   UNL     1       0.564 -16.030 -36.652  1.00  0.00     0.033 C 
ATOM     27  C   UNL     1       0.986 -14.791 -35.842  1.00  0.00     0.120 C 
ATOM     28  C   UNL     1      -0.890 -14.810 -34.098  1.00  0.00     0.014 C 
ATOM     29  C   UNL     1       0.301 -12.682 -34.658  1.00  0.00     0.014 C 
ENDROOT
BRANCH   1  30
ATOM     30  C   UNL     1      -0.601 -10.319 -41.271  1.00  0.00     0.048 C 
ATOM     31  O   UNL     1       0.248 -10.103 -40.366  1.00  0.00    -0.550 OA
ATOM     32  O   UNL     1      -0.195 -11.006 -42.410  1.00  0.00    -0.550 OA
ENDBRANCH   1  30
BRANCH  27  33
ATOM     33  O   UNL     1       1.919 -15.140 -34.846  1.00  0.00    -0.393 OA
ATOM     34  H   UNL     1       1.564 -14.849 -33.968  1.00  0.00     0.210 HD
ENDBRANCH  27  33
TORSDOF 2
ENDMDL
MODEL 6
REMARK VINA RESULT:    -5.812     10.193     12.125
REMARK INTER + INTRA:          -6.463
REMARK INTER:                  -6.415
REMARK INTRA:                  -0.048
REMARK UNBOUND:                -0.141
REMARK SMILES C[C@@H]1[C@@H](C)CC[C@@]2(C(=O)[O-])CC[C@@]3(C)C(=CC[C@H]4[C@@]5(C)CC[C@H](O)C(C)(C)[C@@H]5CC[C@]43C)[C@@H]12
REMARK SMILES IDX 7 1 6 2 11 3 33 4 5 5 12 6 15 7 2 8 3 9 13 10 16 11 1 12
REMARK SMILES IDX 4 13 14 14 31 15 17 16 18 17 30 18 32 19 19 20 29 21 28 22
REMARK SMILES IDX 21 23 20 24 25 25 22 26 23 27 26 28 27 29 8 30 9 31 10 32
REMARK SMILES IDX 24 33
REMARK H PARENT 24 34
REMARK Flexibility Score: inf
ROOT
ATOM      1  C   UNL     1       0.482 -19.283 -41.573  1.00  0.00     0.017 C 
ATOM      2  C   UNL     1       0.870 -17.854 -41.063  1.00  0.00     0.014 C 
ATOM      3  C   UNL     1       1.809 -20.027 -41.970  1.00  0.00     0.014 C 
ATOM      4  C   UNL     1      -0.338 -20.060 -40.477  1.00  0.00     0.030 C 
ATOM      5  C   UNL     1      -0.131 -17.288 -40.050  1.00  0.00     0.004 C 
ATOM      6  C   UNL     1       1.698 -21.563 -42.184  1.00  0.00     0.013 C 
ATOM      7  C   UNL     1      -0.345 -21.562 -40.813  1.00  0.00    -0.063 C 
ATOM      8  C   UNL     1       0.022 -19.673 -39.012  1.00  0.00    -0.003 C 
ATOM      9  C   UNL     1      -0.183 -18.139 -38.755  1.00  0.00    -0.011 C 
ATOM     10  C   UNL     1       0.975 -22.324 -41.034  1.00  0.00    -0.006 C 
ATOM     11  C   UNL     1      -1.459 -21.998 -41.431  1.00  0.00    -0.027 C 
ATOM     12  C   UNL     1      -0.824 -20.482 -38.006  1.00  0.00     0.008 C 
ATOM     13  C   UNL     1       0.831 -17.615 -37.722  1.00  0.00     0.008 C 
ATOM     14  C   UNL     1       1.889 -22.219 -39.763  1.00  0.00     0.017 C 
ATOM     15  C   UNL     1       0.700 -23.905 -41.359  1.00  0.00    -0.020 C 
ATOM     16  C   UNL     1      -1.375 -22.920 -42.595  1.00  0.00     0.032 C 
ATOM     17  C   UNL     1      -0.587 -24.200 -42.274  1.00  0.00     0.006 C 
ATOM     18  C   UNL     1       1.982 -24.596 -41.946  1.00  0.00     0.008 C 
ATOM     19  C   UNL     1       0.407 -24.637 -40.003  1.00  0.00     0.012 C 
ATOM     20  C   UNL     1      -0.355 -25.164 -43.533  1.00  0.00    -0.025 C 
ATOM     21  C   UNL     1       2.181 -24.541 -43.471  1.00  0.00     0.005 C 
ATOM     22  C   UNL     1       0.895 -24.666 -44.334  1.00  0.00     0.003 C 
ATOM     23  C   UNL     1      -1.603 -25.132 -44.487  1.00  0.00     0.010 C 
ATOM     24  C   UNL     1      -0.184 -26.638 -43.025  1.00  0.00     0.012 C 
ATOM     25  C   UNL     1       1.136 -25.350 -45.749  1.00  0.00    -0.006 C 
ATOM     26  C   UNL     1      -1.399 -25.841 -45.833  1.00  0.00     0.033 C 
ATOM     27  C   UNL     1      -0.186 -25.260 -46.581  1.00  0.00     0.120 C 
ATOM     28  C   UNL     1       1.621 -26.828 -45.666  1.00  0.00     0.014 C 
ATOM     29  C   UNL     1       2.225 -24.552 -46.510  1.00  0.00     0.014 C 
ENDROOT
BRANCH   1  30
ATOM     30  C   UNL     1      -0.406 -19.118 -42.812  1.00  0.00     0.048 C 
ATOM     31  O   UNL     1      -0.149 -19.719 -43.889  1.00  0.00    -0.550 OA
ATOM     32  O   UNL     1      -1.544 -18.320 -42.754  1.00  0.00    -0.550 OA
ENDBRANCH   1  30
BRANCH  27  33
ATOM     33  O   UNL     1      -0.056 -25.851 -47.854  1.00  0.00    -0.393 OA
ATOM     34  H   UNL     1      -0.736 -26.566 -47.939  1.00  0.00     0.210 HD
ENDBRANCH  27  33
TORSDOF 2
ENDMDL
MODEL 7
REMARK VINA RESULT:    -5.443      4.509      9.276
REMARK INTER + INTRA:          -6.061
REMARK INTER:                  -5.856
REMARK INTRA:                  -0.205
REMARK UNBOUND:                -0.141
REMARK SMILES C[C@@H]1[C@@H](C)CC[C@@]2(C(=O)[O-])CC[C@@]3(C)C(=CC[C@H]4[C@@]5(C)CC[C@H](O)C(C)(C)[C@@H]5CC[C@]43C)[C@@H]12
REMARK SMILES IDX 7 1 6 2 11 3 33 4 5 5 12 6 15 7 2 8 3 9 13 10 16 11 1 12
REMARK SMILES IDX 4 13 14 14 31 15 17 16 18 17 30 18 32 19 19 20 29 21 28 22
REMARK SMILES IDX 21 23 20 24 25 25 22 26 23 27 26 28 27 29 8 30 9 31 10 32
REMARK SMILES IDX 24 33
REMARK H PARENT 24 34
REMARK Flexibility Score: inf
ROOT
ATOM      1  C   UNL     1      -6.990 -10.755 -43.596  1.00  0.00     0.017 C 
ATOM      2  C   UNL     1      -7.859 -10.502 -44.874  1.00  0.00     0.014 C 
ATOM      3  C   UNL     1      -5.626 -11.383 -44.061  1.00  0.00     0.014 C 
ATOM      4  C   UNL     1      -6.791  -9.420 -42.785  1.00  0.00     0.030 C 
ATOM      5  C   UNL     1      -8.844  -9.338 -44.707  1.00  0.00     0.004 C 
ATOM      6  C   UNL     1      -4.485 -11.408 -43.005  1.00  0.00     0.013 C 
ATOM      7  C   UNL     1      -5.623  -9.590 -41.798  1.00  0.00    -0.063 C 
ATOM      8  C   UNL     1      -6.784  -8.133 -43.663  1.00  0.00    -0.003 C 
ATOM      9  C   UNL     1      -8.111  -7.990 -44.488  1.00  0.00    -0.011 C 
ATOM     10  C   UNL     1      -4.237 -10.046 -42.292  1.00  0.00    -0.006 C 
ATOM     11  C   UNL     1      -5.989  -9.873 -40.533  1.00  0.00    -0.027 C 
ATOM     12  C   UNL     1      -6.581  -6.875 -42.791  1.00  0.00     0.008 C 
ATOM     13  C   UNL     1      -7.848  -7.292 -45.834  1.00  0.00     0.008 C 
ATOM     14  C   UNL     1      -3.685  -9.052 -43.372  1.00  0.00     0.017 C 
ATOM     15  C   UNL     1      -3.167 -10.133 -41.056  1.00  0.00    -0.020 C 
ATOM     16  C   UNL     1      -5.283 -10.924 -39.751  1.00  0.00     0.032 C 
ATOM     17  C   UNL     1      -3.768 -10.675 -39.668  1.00  0.00     0.006 C 
ATOM     18  C   UNL     1      -1.885 -10.940 -41.470  1.00  0.00     0.008 C 
ATOM     19  C   UNL     1      -2.669  -8.679 -40.739  1.00  0.00     0.012 C 
ATOM     20  C   UNL     1      -2.947 -11.848 -38.949  1.00  0.00    -0.025 C 
ATOM     21  C   UNL     1      -1.912 -12.465 -41.267  1.00  0.00     0.005 C 
ATOM     22  C   UNL     1      -2.645 -12.974 -39.995  1.00  0.00     0.003 C 
ATOM     23  C   UNL     1      -3.788 -12.470 -37.777  1.00  0.00     0.010 C 
ATOM     24  C   UNL     1      -1.637 -11.250 -38.328  1.00  0.00     0.012 C 
ATOM     25  C   UNL     1      -2.051 -14.329 -39.411  1.00  0.00    -0.006 C 
ATOM     26  C   UNL     1      -3.192 -13.746 -37.168  1.00  0.00     0.033 C 
ATOM     27  C   UNL     1      -2.974 -14.820 -38.248  1.00  0.00     0.120 C 
ATOM     28  C   UNL     1      -0.578 -14.216 -38.919  1.00  0.00     0.014 C 
ATOM     29  C   UNL     1      -2.082 -15.408 -40.524  1.00  0.00     0.014 C 
ENDROOT
BRANCH   1  30
ATOM     30  C   UNL     1      -7.739 -11.752 -42.705  1.00  0.00     0.048 C 
ATOM     31  O   UNL     1      -7.293 -12.911 -42.496  1.00  0.00    -0.550 OA
ATOM     32  O   UNL     1      -8.921 -11.374 -42.075  1.00  0.00    -0.550 OA
ENDBRANCH   1  30
BRANCH  27  33
ATOM     33  O   UNL     1      -2.512 -16.021 -37.672  1.00  0.00    -0.393 OA
ATOM     34  H   UNL     1      -1.881 -15.796 -36.942  1.00  0.00     0.210 HD
ENDBRANCH  27  33
TORSDOF 2
ENDMDL
MODEL 8
REMARK VINA RESULT:    -5.363      4.385      7.654
REMARK INTER + INTRA:          -5.974
REMARK INTER:                  -5.701
REMARK INTRA:                  -0.273
REMARK UNBOUND:                -0.141
REMARK SMILES C[C@@H]1[C@@H](C)CC[C@@]2(C(=O)[O-])CC[C@@]3(C)C(=CC[C@H]4[C@@]5(C)CC[C@H](O)C(C)(C)[C@@H]5CC[C@]43C)[C@@H]12
REMARK SMILES IDX 7 1 6 2 11 3 33 4 5 5 12 6 15 7 2 8 3 9 13 10 16 11 1 12
REMARK SMILES IDX 4 13 14 14 31 15 17 16 18 17 30 18 32 19 19 20 29 21 28 22
REMARK SMILES IDX 21 23 20 24 25 25 22 26 23 27 26 28 27 29 8 30 9 31 10 32
REMARK SMILES IDX 24 33
REMARK H PARENT 24 34
REMARK Flexibility Score: inf
ROOT
ATOM      1  C   UNL     1      -1.517 -13.840 -33.391  1.00  0.00     0.017 C 
ATOM      2  C   UNL     1      -2.469 -12.680 -32.941  1.00  0.00     0.014 C 
ATOM      3  C   UNL     1      -0.783 -14.382 -32.110  1.00  0.00     0.014 C 
ATOM      4  C   UNL     1      -2.326 -14.964 -34.141  1.00  0.00     0.030 C 
ATOM      5  C   UNL     1      -3.690 -12.521 -33.854  1.00  0.00     0.004 C 
ATOM      6  C   UNL     1      -0.048 -15.743 -32.263  1.00  0.00     0.013 C 
ATOM      7  C   UNL     1      -1.481 -16.249 -34.199  1.00  0.00    -0.063 C 
ATOM      8  C   UNL     1      -3.801 -15.117 -33.665  1.00  0.00    -0.003 C 
ATOM      9  C   UNL     1      -4.600 -13.776 -33.824  1.00  0.00    -0.011 C 
ATOM     10  C   UNL     1      -0.905 -16.870 -32.912  1.00  0.00    -0.006 C 
ATOM     11  C   UNL     1      -0.835 -16.449 -35.363  1.00  0.00    -0.027 C 
ATOM     12  C   UNL     1      -4.516 -16.239 -34.448  1.00  0.00     0.008 C 
ATOM     13  C   UNL     1      -5.671 -13.641 -32.727  1.00  0.00     0.008 C 
ATOM     14  C   UNL     1      -2.058 -17.212 -31.905  1.00  0.00     0.017 C 
ATOM     15  C   UNL     1      -0.063 -18.235 -33.238  1.00  0.00    -0.020 C 
ATOM     16  C   UNL     1       0.583 -16.898 -35.382  1.00  0.00     0.032 C 
ATOM     17  C   UNL     1       0.797 -18.200 -34.594  1.00  0.00     0.006 C 
ATOM     18  C   UNL     1       0.826 -18.661 -32.015  1.00  0.00     0.008 C 
ATOM     19  C   UNL     1      -1.090 -19.404 -33.442  1.00  0.00     0.012 C 
ATOM     20  C   UNL     1       2.329 -18.653 -34.474  1.00  0.00    -0.025 C 
ATOM     21  C   UNL     1       2.242 -18.067 -31.930  1.00  0.00     0.005 C 
ATOM     22  C   UNL     1       2.994 -17.891 -33.278  1.00  0.00     0.003 C 
ATOM     23  C   UNL     1       3.113 -18.297 -35.788  1.00  0.00     0.010 C 
ATOM     24  C   UNL     1       2.390 -20.209 -34.291  1.00  0.00     0.012 C 
ATOM     25  C   UNL     1       4.574 -18.026 -33.156  1.00  0.00    -0.006 C 
ATOM     26  C   UNL     1       4.633 -18.481 -35.698  1.00  0.00     0.033 C 
ATOM     27  C   UNL     1       5.217 -17.661 -34.534  1.00  0.00     0.120 C 
ATOM     28  C   UNL     1       5.056 -19.432 -32.691  1.00  0.00     0.014 C 
ATOM     29  C   UNL     1       5.083 -16.999 -32.113  1.00  0.00     0.014 C 
ENDROOT
BRANCH   1  30
ATOM     30  C   UNL     1      -0.488 -13.256 -34.365  1.00  0.00     0.048 C 
ATOM     31  O   UNL     1      -0.766 -13.068 -35.580  1.00  0.00    -0.550 OA
ATOM     32  O   UNL     1       0.773 -12.886 -33.910  1.00  0.00    -0.550 OA
ENDBRANCH   1  30
BRANCH  27  33
ATOM     33  O   UNL     1       6.623 -17.760 -34.509  1.00  0.00    -0.393 OA
ATOM     34  H   UNL     1       7.003 -16.861 -34.675  1.00  0.00     0.210 HD
ENDBRANCH  27  33
TORSDOF 2
ENDMDL
MODEL 9
REMARK VINA RESULT:    -5.278      6.884      9.305
REMARK INTER + INTRA:          -5.882
REMARK INTER:                  -5.604
REMARK INTRA:                  -0.278
REMARK UNBOUND:                -0.141
REMARK SMILES C[C@@H]1[C@@H](C)CC[C@@]2(C(=O)[O-])CC[C@@]3(C)C(=CC[C@H]4[C@@]5(C)CC[C@H](O)C(C)(C)[C@@H]5CC[C@]43C)[C@@H]12
REMARK SMILES IDX 7 1 6 2 11 3 33 4 5 5 12 6 15 7 2 8 3 9 13 10 16 11 1 12
REMARK SMILES IDX 4 13 14 14 31 15 17 16 18 17 30 18 32 19 19 20 29 21 28 22
REMARK SMILES IDX 21 23 20 24 25 25 22 26 23 27 26 28 27 29 8 30 9 31 10 32
REMARK SMILES IDX 24 33
REMARK H PARENT 24 34
REMARK Flexibility Score: inf
ROOT
ATOM      1  C   UNL     1      -1.385 -22.211 -40.947  1.00  0.00     0.017 C 
ATOM      2  C   UNL     1      -1.620 -23.735 -41.221  1.00  0.00     0.014 C 
ATOM      3  C   UNL     1      -0.258 -22.088 -39.857  1.00  0.00     0.014 C 
ATOM      4  C   UNL     1      -1.017 -21.457 -42.279  1.00  0.00     0.030 C 
ATOM      5  C   UNL     1      -2.126 -24.017 -42.640  1.00  0.00     0.004 C 
ATOM      6  C   UNL     1       0.369 -20.677 -39.673  1.00  0.00     0.013 C 
ATOM      7  C   UNL     1      -0.394 -20.092 -41.938  1.00  0.00    -0.063 C 
ATOM      8  C   UNL     1      -0.260 -22.331 -43.322  1.00  0.00    -0.003 C 
ATOM      9  C   UNL     1      -1.087 -23.605 -43.715  1.00  0.00    -0.011 C 
ATOM     10  C   UNL     1       0.823 -19.996 -40.998  1.00  0.00    -0.006 C 
ATOM     11  C   UNL     1      -1.242 -19.048 -42.013  1.00  0.00    -0.027 C 
ATOM     12  C   UNL     1       0.063 -21.515 -44.592  1.00  0.00     0.008 C 
ATOM     13  C   UNL     1      -0.154 -24.785 -44.045  1.00  0.00     0.008 C 
ATOM     14  C   UNL     1       2.021 -20.835 -41.564  1.00  0.00     0.017 C 
ATOM     15  C   UNL     1       1.305 -18.443 -40.810  1.00  0.00    -0.020 C 
ATOM     16  C   UNL     1      -1.261 -18.003 -40.955  1.00  0.00     0.032 C 
ATOM     17  C   UNL     1       0.119 -17.362 -40.738  1.00  0.00     0.006 C 
ATOM     18  C   UNL     1       2.281 -18.295 -39.588  1.00  0.00     0.008 C 
ATOM     19  C   UNL     1       2.144 -18.037 -42.073  1.00  0.00     0.012 C 
ATOM     20  C   UNL     1       0.178 -16.325 -39.518  1.00  0.00    -0.025 C 
ATOM     21  C   UNL     1       1.652 -18.038 -38.208  1.00  0.00     0.005 C 
ATOM     22  C   UNL     1       0.401 -17.116 -38.185  1.00  0.00     0.003 C 
ATOM     23  C   UNL     1      -1.172 -15.530 -39.405  1.00  0.00     0.010 C 
ATOM     24  C   UNL     1       1.320 -15.284 -39.786  1.00  0.00     0.012 C 
ATOM     25  C   UNL     1       0.244 -16.280 -36.842  1.00  0.00    -0.006 C 
ATOM     26  C   UNL     1      -1.309 -14.674 -38.140  1.00  0.00     0.033 C 
ATOM     27  C   UNL     1      -1.130 -15.532 -36.875  1.00  0.00     0.120 C 
ATOM     28  C   UNL     1       1.401 -15.271 -36.583  1.00  0.00     0.014 C 
ATOM     29  C   UNL     1       0.215 -17.263 -35.643  1.00  0.00     0.014 C 
ENDROOT
BRANCH   1  30
ATOM     30  C   UNL     1      -2.692 -21.621 -40.405  1.00  0.00     0.048 C 
ATOM     31  O   UNL     1      -2.856 -21.408 -39.174  1.00  0.00    -0.550 OA
ATOM     32  O   UNL     1      -3.716 -21.273 -41.280  1.00  0.00    -0.550 OA
ENDBRANCH   1  30
BRANCH  27  33
ATOM     33  O   UNL     1      -1.345 -14.761 -35.714  1.00  0.00    -0.393 OA
ATOM     34  H   UNL     1      -2.235 -14.992 -35.345  1.00  0.00     0.210 HD
ENDBRANCH  27  33
TORSDOF 2
ENDMDL
