MODEL 1
REMARK VINA RESULT:    -6.794      0.000      0.000
REMARK INTER + INTRA:          -9.136
REMARK INTER:                  -8.581
REMARK INTRA:                  -0.555
REMARK UNBOUND:                -0.555
REMARK SMILES Oc1ccc(CCc2cc(O)cc(O)c2)cc1
REMARK SMILES IDX 6 1 5 2 4 3 3 4 2 5 16 6 17 7 1 8 7 10 8 11 15 12 9 13 13 14
REMARK SMILES IDX 10 15 12 16 14 17 11 19
REMARK H PARENT 1 9 14 18 11 20
REMARK Flexibility Score: inf
ROOT
ATOM      1  C   UNL     1       6.029 -13.050  -4.734  1.00  0.00     0.040 C 
ENDROOT
BRANCH   1   2
ATOM      2  C   UNL     1       4.854 -12.378  -5.392  1.00  0.00    -0.047 A 
ATOM      3  C   UNL     1       3.557 -12.895  -5.227  1.00  0.00     0.007 A 
ATOM      4  C   UNL     1       2.462 -12.252  -5.810  1.00  0.00     0.046 A 
ATOM      5  C   UNL     1       2.648 -11.082  -6.556  1.00  0.00     0.115 A 
ATOM      6  C   UNL     1       5.034 -11.196  -6.129  1.00  0.00     0.007 A 
ATOM      7  C   UNL     1       3.937 -10.554  -6.711  1.00  0.00     0.046 A 
BRANCH   5   8
ATOM      8  O   UNL     1       1.547 -10.452  -7.132  1.00  0.00    -0.508 OA
ATOM      9  H   UNL     1       0.796 -10.984  -7.557  1.00  0.00     0.293 HD
ENDBRANCH   5   8
ENDBRANCH   1   2
BRANCH   1  10
ATOM     10  C   UNL     1       5.721 -13.355  -3.265  1.00  0.00     0.040 C 
BRANCH  10  11
ATOM     11  C   UNL     1       6.516 -12.452  -2.360  1.00  0.00    -0.040 A 
ATOM     12  C   UNL     1       6.407 -11.057  -2.479  1.00  0.00     0.050 A 
ATOM     13  C   UNL     1       7.417 -12.996  -1.430  1.00  0.00     0.050 A 
ATOM     14  C   UNL     1       7.171 -10.215  -1.659  1.00  0.00     0.119 A 
ATOM     15  C   UNL     1       8.181 -12.155  -0.610  1.00  0.00     0.119 A 
ATOM     16  C   UNL     1       8.054 -10.767  -0.725  1.00  0.00     0.092 A 
BRANCH  14  17
ATOM     17  O   UNL     1       7.064  -8.830  -1.767  1.00  0.00    -0.508 OA
ATOM     18  H   UNL     1       7.434  -8.213  -1.054  1.00  0.00     0.293 HD
ENDBRANCH  14  17
BRANCH  15  19
ATOM     19  O   UNL     1       9.071 -12.688   0.320  1.00  0.00    -0.508 OA
ATOM     20  H   UNL     1       9.636 -13.501   0.106  1.00  0.00     0.293 HD
ENDBRANCH  15  19
ENDBRANCH  10  11
ENDBRANCH   1  10
TORSDOF 6
ENDMDL
MODEL 2
REMARK VINA RESULT:    -6.789      0.188      2.039
REMARK INTER + INTRA:          -9.131
REMARK INTER:                  -8.579
REMARK INTRA:                  -0.552
REMARK UNBOUND:                -0.555
REMARK SMILES Oc1ccc(CCc2cc(O)cc(O)c2)cc1
REMARK SMILES IDX 6 1 5 2 4 3 3 4 2 5 16 6 17 7 1 8 7 10 8 11 15 12 9 13 13 14
REMARK SMILES IDX 10 15 12 16 14 17 11 19
REMARK H PARENT 1 9 14 18 11 20
REMARK Flexibility Score: inf
ROOT
ATOM      1  C   UNL     1       6.147 -13.044  -4.701  1.00  0.00     0.040 C 
ENDROOT
BRANCH   1   2
ATOM      2  C   UNL     1       4.913 -12.446  -5.320  1.00  0.00    -0.047 A 
ATOM      3  C   UNL     1       3.668 -13.082  -5.175  1.00  0.00     0.007 A 
ATOM      4  C   UNL     1       2.516 -12.509  -5.722  1.00  0.00     0.046 A 
ATOM      5  C   UNL     1       2.593 -11.293  -6.410  1.00  0.00     0.115 A 
ATOM      6  C   UNL     1       4.984 -11.219  -6.000  1.00  0.00     0.007 A 
ATOM      7  C   UNL     1       3.830 -10.648  -6.546  1.00  0.00     0.046 A 
BRANCH   5   8
ATOM      8  O   UNL     1       1.437 -10.734  -6.950  1.00  0.00    -0.508 OA
ATOM      9  H   UNL     1       1.453 -10.237  -7.833  1.00  0.00     0.293 HD
ENDBRANCH   5   8
ENDBRANCH   1   2
BRANCH   1  10
ATOM     10  C   UNL     1       5.903 -13.375  -3.226  1.00  0.00     0.040 C 
BRANCH  10  11
ATOM     11  C   UNL     1       6.695 -12.453  -2.339  1.00  0.00    -0.040 A 
ATOM     12  C   UNL     1       7.552 -12.977  -1.358  1.00  0.00     0.050 A 
ATOM     13  C   UNL     1       6.539 -11.061  -2.445  1.00  0.00     0.050 A 
ATOM     14  C   UNL     1       8.265 -12.120  -0.509  1.00  0.00     0.119 A 
ATOM     15  C   UNL     1       7.252 -10.203  -1.597  1.00  0.00     0.119 A 
ATOM     16  C   UNL     1       8.115 -10.735  -0.633  1.00  0.00     0.092 A 
BRANCH  14  17
ATOM     17  O   UNL     1       9.121 -12.633   0.462  1.00  0.00    -0.508 OA
ATOM     18  H   UNL     1       9.325 -13.624   0.518  1.00  0.00     0.293 HD
ENDBRANCH  14  17
BRANCH  15  19
ATOM     19  O   UNL     1       7.108  -8.821  -1.702  1.00  0.00    -0.508 OA
ATOM     20  H   UNL     1       6.723  -8.390  -2.534  1.00  0.00     0.293 HD
ENDBRANCH  15  19
ENDBRANCH  10  11
ENDBRANCH   1  10
TORSDOF 6
ENDMDL
MODEL 3
REMARK VINA RESULT:    -6.766      3.023      3.968
REMARK INTER + INTRA:          -9.101
REMARK INTER:                  -8.555
REMARK INTRA:                  -0.546
REMARK UNBOUND:                -0.555
REMARK SMILES Oc1ccc(CCc2cc(O)cc(O)c2)cc1
REMARK SMILES IDX 6 1 5 2 4 3 3 4 2 5 16 6 17 7 1 8 7 10 8 11 15 12 9 13 13 14
REMARK SMILES IDX 10 15 12 16 14 17 11 19
REMARK H PARENT 1 9 14 18 11 20
REMARK Flexibility Score: inf
ROOT
ATOM      1  C   UNL     1       4.544 -13.072  -3.574  1.00  0.00     0.040 C 
ENDROOT
BRANCH   1   2
ATOM      2  C   UNL     1       3.721 -14.112  -2.861  1.00  0.00    -0.047 A 
ATOM      3  C   UNL     1       2.828 -14.924  -3.581  1.00  0.00     0.007 A 
ATOM      4  C   UNL     1       2.088 -15.911  -2.925  1.00  0.00     0.046 A 
ATOM      5  C   UNL     1       2.239 -16.105  -1.547  1.00  0.00     0.115 A 
ATOM      6  C   UNL     1       3.880 -14.318  -1.482  1.00  0.00     0.007 A 
ATOM      7  C   UNL     1       3.139 -15.307  -0.827  1.00  0.00     0.046 A 
BRANCH   5   8
ATOM      8  O   UNL     1       1.494 -17.092  -0.906  1.00  0.00    -0.508 OA
ATOM      9  H   UNL     1       1.163 -17.911  -1.402  1.00  0.00     0.293 HD
ENDBRANCH   5   8
ENDBRANCH   1   2
BRANCH   1  10
ATOM     10  C   UNL     1       6.035 -13.407  -3.475  1.00  0.00     0.040 C 
BRANCH  10  11
ATOM     11  C   UNL     1       6.717 -12.497  -2.489  1.00  0.00    -0.040 A 
ATOM     12  C   UNL     1       6.571 -11.105  -2.592  1.00  0.00     0.050 A 
ATOM     13  C   UNL     1       7.551 -13.031  -1.493  1.00  0.00     0.050 A 
ATOM     14  C   UNL     1       7.232 -10.254  -1.694  1.00  0.00     0.119 A 
ATOM     15  C   UNL     1       8.212 -12.182  -0.594  1.00  0.00     0.119 A 
ATOM     16  C   UNL     1       8.048 -10.797  -0.696  1.00  0.00     0.092 A 
BRANCH  14  17
ATOM     17  O   UNL     1       7.087  -8.872  -1.787  1.00  0.00    -0.508 OA
ATOM     18  H   UNL     1       7.663  -8.320  -2.411  1.00  0.00     0.293 HD
ENDBRANCH  14  17
BRANCH  15  19
ATOM     19  O   UNL     1       9.035 -12.704   0.401  1.00  0.00    -0.508 OA
ATOM     20  H   UNL     1      10.045 -12.658   0.331  1.00  0.00     0.293 HD
ENDBRANCH  15  19
ENDBRANCH  10  11
ENDBRANCH   1  10
TORSDOF 6
ENDMDL
MODEL 4
REMARK VINA RESULT:    -6.765      3.026      4.461
REMARK INTER + INTRA:          -9.100
REMARK INTER:                  -8.533
REMARK INTRA:                  -0.567
REMARK UNBOUND:                -0.555
REMARK SMILES Oc1ccc(CCc2cc(O)cc(O)c2)cc1
REMARK SMILES IDX 6 1 5 2 4 3 3 4 2 5 16 6 17 7 1 8 7 10 8 11 15 12 9 13 13 14
REMARK SMILES IDX 10 15 12 16 14 17 11 19
REMARK H PARENT 1 9 14 18 11 20
REMARK Flexibility Score: inf
ROOT
ATOM      1  C   UNL     1       4.519 -13.043  -3.552  1.00  0.00     0.040 C 
ENDROOT
BRANCH   1   2
ATOM      2  C   UNL     1       3.705 -14.092  -2.844  1.00  0.00    -0.047 A 
ATOM      3  C   UNL     1       2.821 -14.912  -3.567  1.00  0.00     0.007 A 
ATOM      4  C   UNL     1       2.089 -15.908  -2.915  1.00  0.00     0.046 A 
ATOM      5  C   UNL     1       2.239 -16.103  -1.537  1.00  0.00     0.115 A 
ATOM      6  C   UNL     1       3.862 -14.300  -1.464  1.00  0.00     0.007 A 
ATOM      7  C   UNL     1       3.129 -15.297  -0.813  1.00  0.00     0.046 A 
BRANCH   5   8
ATOM      8  O   UNL     1       1.503 -17.099  -0.900  1.00  0.00    -0.508 OA
ATOM      9  H   UNL     1       1.889 -18.023  -0.741  1.00  0.00     0.293 HD
ENDBRANCH   5   8
ENDBRANCH   1   2
BRANCH   1  10
ATOM     10  C   UNL     1       6.010 -13.391  -3.497  1.00  0.00     0.040 C 
BRANCH  10  11
ATOM     11  C   UNL     1       6.731 -12.478  -2.543  1.00  0.00    -0.040 A 
ATOM     12  C   UNL     1       7.543 -13.012  -1.529  1.00  0.00     0.050 A 
ATOM     13  C   UNL     1       6.552 -11.087  -2.621  1.00  0.00     0.050 A 
ATOM     14  C   UNL     1       8.189 -12.165  -0.619  1.00  0.00     0.119 A 
ATOM     15  C   UNL     1       7.198 -10.239  -1.712  1.00  0.00     0.119 A 
ATOM     16  C   UNL     1       8.017 -10.780  -0.715  1.00  0.00     0.092 A 
BRANCH  14  17
ATOM     17  O   UNL     1       9.001 -12.687   0.385  1.00  0.00    -0.508 OA
ATOM     18  H   UNL     1       8.615 -13.000   1.268  1.00  0.00     0.293 HD
ENDBRANCH  14  17
BRANCH  15  19
ATOM     19  O   UNL     1       7.031  -8.858  -1.788  1.00  0.00    -0.508 OA
ATOM     20  H   UNL     1       6.445  -8.358  -1.130  1.00  0.00     0.293 HD
ENDBRANCH  15  19
ENDBRANCH  10  11
ENDBRANCH   1  10
TORSDOF 6
ENDMDL
MODEL 5
REMARK VINA RESULT:    -6.673      2.196      6.646
REMARK INTER + INTRA:          -8.983
REMARK INTER:                  -8.459
REMARK INTRA:                  -0.524
REMARK UNBOUND:                -0.555
REMARK SMILES Oc1ccc(CCc2cc(O)cc(O)c2)cc1
REMARK SMILES IDX 6 1 5 2 4 3 3 4 2 5 16 6 17 7 1 8 7 10 8 11 15 12 9 13 13 14
REMARK SMILES IDX 10 15 12 16 14 17 11 19
REMARK H PARENT 1 9 14 18 11 20
REMARK Flexibility Score: inf
ROOT
ATOM      1  C   UNL     1       4.486 -12.524  -5.874  1.00  0.00     0.040 C 
ENDROOT
BRANCH   1   2
ATOM      2  C   UNL     1       5.250 -12.849  -4.620  1.00  0.00    -0.047 A 
ATOM      3  C   UNL     1       6.639 -13.055  -4.669  1.00  0.00     0.007 A 
ATOM      4  C   UNL     1       7.354 -13.324  -3.499  1.00  0.00     0.046 A 
ATOM      5  C   UNL     1       6.692 -13.381  -2.267  1.00  0.00     0.115 A 
ATOM      6  C   UNL     1       4.592 -12.893  -3.380  1.00  0.00     0.007 A 
ATOM      7  C   UNL     1       5.309 -13.162  -2.210  1.00  0.00     0.046 A 
BRANCH   5   8
ATOM      8  O   UNL     1       7.417 -13.650  -1.109  1.00  0.00    -0.508 OA
ATOM      9  H   UNL     1       8.383 -13.956  -1.148  1.00  0.00     0.293 HD
ENDBRANCH   5   8
ENDBRANCH   1   2
BRANCH   1  10
ATOM     10  C   UNL     1       3.382 -11.502  -5.583  1.00  0.00     0.040 C 
BRANCH  10  11
ATOM     11  C   UNL     1       3.535 -10.293  -6.467  1.00  0.00    -0.040 A 
ATOM     12  C   UNL     1       4.752  -9.593  -6.504  1.00  0.00     0.050 A 
ATOM     13  C   UNL     1       2.445  -9.821  -7.215  1.00  0.00     0.050 A 
ATOM     14  C   UNL     1       4.886  -8.448  -7.302  1.00  0.00     0.119 A 
ATOM     15  C   UNL     1       2.578  -8.676  -8.013  1.00  0.00     0.119 A 
ATOM     16  C   UNL     1       3.799  -7.995  -8.055  1.00  0.00     0.092 A 
BRANCH  14  17
ATOM     17  O   UNL     1       6.092  -7.752  -7.349  1.00  0.00    -0.508 OA
ATOM     18  H   UNL     1       6.944  -8.192  -7.677  1.00  0.00     0.293 HD
ENDBRANCH  14  17
BRANCH  15  19
ATOM     19  O   UNL     1       1.503  -8.205  -8.764  1.00  0.00    -0.508 OA
ATOM     20  H   UNL     1       0.560  -8.545  -8.611  1.00  0.00     0.293 HD
ENDBRANCH  15  19
ENDBRANCH  10  11
ENDBRANCH   1  10
TORSDOF 6
ENDMDL
MODEL 6
REMARK VINA RESULT:    -6.610      2.213      6.523
REMARK INTER + INTRA:          -8.904
REMARK INTER:                  -8.378
REMARK INTRA:                  -0.525
REMARK UNBOUND:                -0.555
REMARK SMILES Oc1ccc(CCc2cc(O)cc(O)c2)cc1
REMARK SMILES IDX 6 1 5 2 4 3 3 4 2 5 16 6 17 7 1 8 7 10 8 11 15 12 9 13 13 14
REMARK SMILES IDX 10 15 12 16 14 17 11 19
REMARK H PARENT 1 9 14 18 11 20
REMARK Flexibility Score: inf
ROOT
ATOM      1  C   UNL     1       4.358 -12.488  -5.809  1.00  0.00     0.040 C 
ENDROOT
BRANCH   1   2
ATOM      2  C   UNL     1       5.161 -12.835  -4.584  1.00  0.00    -0.047 A 
ATOM      3  C   UNL     1       6.550 -13.029  -4.679  1.00  0.00     0.007 A 
ATOM      4  C   UNL     1       7.300 -13.319  -3.536  1.00  0.00     0.046 A 
ATOM      5  C   UNL     1       6.675 -13.409  -2.287  1.00  0.00     0.115 A 
ATOM      6  C   UNL     1       4.539 -12.912  -3.327  1.00  0.00     0.007 A 
ATOM      7  C   UNL     1       5.292 -13.202  -2.185  1.00  0.00     0.046 A 
BRANCH   5   8
ATOM      8  O   UNL     1       7.435 -13.699  -1.156  1.00  0.00    -0.508 OA
ATOM      9  H   UNL     1       7.047 -14.217  -0.377  1.00  0.00     0.293 HD
ENDBRANCH   5   8
ENDBRANCH   1   2
BRANCH   1  10
ATOM     10  C   UNL     1       3.295 -11.437  -5.475  1.00  0.00     0.040 C 
BRANCH  10  11
ATOM     11  C   UNL     1       3.443 -10.234  -6.367  1.00  0.00    -0.040 A 
ATOM     12  C   UNL     1       2.370  -9.811  -7.169  1.00  0.00     0.050 A 
ATOM     13  C   UNL     1       4.672  -9.559  -6.448  1.00  0.00     0.050 A 
ATOM     14  C   UNL     1       2.516  -8.711  -8.025  1.00  0.00     0.119 A 
ATOM     15  C   UNL     1       4.819  -8.458  -7.303  1.00  0.00     0.119 A 
ATOM     16  C   UNL     1       3.740  -8.036  -8.087  1.00  0.00     0.092 A 
BRANCH  14  17
ATOM     17  O   UNL     1       1.455  -8.282  -8.819  1.00  0.00    -0.508 OA
ATOM     18  H   UNL     1       1.002  -7.390  -8.661  1.00  0.00     0.293 HD
ENDBRANCH  14  17
BRANCH  15  19
ATOM     19  O   UNL     1       6.033  -7.779  -7.384  1.00  0.00    -0.508 OA
ATOM     20  H   UNL     1       6.543  -7.707  -8.257  1.00  0.00     0.293 HD
ENDBRANCH  15  19
ENDBRANCH  10  11
ENDBRANCH   1  10
TORSDOF 6
ENDMDL
MODEL 7
REMARK VINA RESULT:    -6.557      1.277      6.535
REMARK INTER + INTRA:          -8.837
REMARK INTER:                  -8.308
REMARK INTRA:                  -0.529
REMARK UNBOUND:                -0.555
REMARK SMILES Oc1ccc(CCc2cc(O)cc(O)c2)cc1
REMARK SMILES IDX 6 1 5 2 4 3 3 4 2 5 16 6 17 7 1 8 7 10 8 11 15 12 9 13 13 14
REMARK SMILES IDX 10 15 12 16 14 17 11 19
REMARK H PARENT 1 9 14 18 11 20
REMARK Flexibility Score: inf
ROOT
ATOM      1  C   UNL     1       6.351 -13.013  -4.591  1.00  0.00     0.040 C 
ENDROOT
BRANCH   1   2
ATOM      2  C   UNL     1       6.949 -12.711  -3.243  1.00  0.00    -0.047 A 
ATOM      3  C   UNL     1       7.525 -13.739  -2.477  1.00  0.00     0.007 A 
ATOM      4  C   UNL     1       8.110 -13.453  -1.240  1.00  0.00     0.046 A 
ATOM      5  C   UNL     1       8.135 -12.138  -0.761  1.00  0.00     0.115 A 
ATOM      6  C   UNL     1       6.989 -11.391  -2.765  1.00  0.00     0.007 A 
ATOM      7  C   UNL     1       7.575 -11.107  -1.528  1.00  0.00     0.046 A 
BRANCH   5   8
ATOM      8  O   UNL     1       8.721 -11.868   0.474  1.00  0.00    -0.508 OA
ATOM      9  H   UNL     1       9.669 -12.156   0.684  1.00  0.00     0.293 HD
ENDBRANCH   5   8
ENDBRANCH   1   2
BRANCH   1  10
ATOM     10  C   UNL     1       4.823 -13.079  -4.499  1.00  0.00     0.040 C 
BRANCH  10  11
ATOM     11  C   UNL     1       4.194 -12.067  -5.417  1.00  0.00    -0.040 A 
ATOM     12  C   UNL     1       2.819 -12.122  -5.695  1.00  0.00     0.050 A 
ATOM     13  C   UNL     1       4.986 -11.094  -6.049  1.00  0.00     0.050 A 
ATOM     14  C   UNL     1       2.236 -11.200  -6.576  1.00  0.00     0.119 A 
ATOM     15  C   UNL     1       4.405 -10.171  -6.929  1.00  0.00     0.119 A 
ATOM     16  C   UNL     1       3.031 -10.226  -7.188  1.00  0.00     0.092 A 
BRANCH  14  17
ATOM     17  O   UNL     1       0.872 -11.245  -6.852  1.00  0.00    -0.508 OA
ATOM     18  H   UNL     1       0.180 -11.106  -6.125  1.00  0.00     0.293 HD
ENDBRANCH  14  17
BRANCH  15  19
ATOM     19  O   UNL     1       5.183  -9.199  -7.554  1.00  0.00    -0.508 OA
ATOM     20  H   UNL     1       6.127  -8.998  -7.246  1.00  0.00     0.293 HD
ENDBRANCH  15  19
ENDBRANCH  10  11
ENDBRANCH   1  10
TORSDOF 6
ENDMDL
MODEL 8
REMARK VINA RESULT:    -6.551      2.035      2.668
REMARK INTER + INTRA:          -8.829
REMARK INTER:                  -8.296
REMARK INTRA:                  -0.534
REMARK UNBOUND:                -0.555
REMARK SMILES Oc1ccc(CCc2cc(O)cc(O)c2)cc1
REMARK SMILES IDX 6 1 5 2 4 3 3 4 2 5 16 6 17 7 1 8 7 10 8 11 15 12 9 13 13 14
REMARK SMILES IDX 10 15 12 16 14 17 11 19
REMARK H PARENT 1 9 14 18 11 20
REMARK Flexibility Score: inf
ROOT
ATOM      1  C   UNL     1       5.575 -12.732  -4.544  1.00  0.00     0.040 C 
ENDROOT
BRANCH   1   2
ATOM      2  C   UNL     1       4.267 -13.447  -4.335  1.00  0.00    -0.047 A 
ATOM      3  C   UNL     1       3.388 -13.645  -5.413  1.00  0.00     0.007 A 
ATOM      4  C   UNL     1       2.188 -14.338  -5.226  1.00  0.00     0.046 A 
ATOM      5  C   UNL     1       1.859 -14.849  -3.965  1.00  0.00     0.115 A 
ATOM      6  C   UNL     1       3.940 -13.973  -3.075  1.00  0.00     0.007 A 
ATOM      7  C   UNL     1       2.740 -14.666  -2.890  1.00  0.00     0.046 A 
BRANCH   5   8
ATOM      8  O   UNL     1       0.661 -15.537  -3.794  1.00  0.00    -0.508 OA
ATOM      9  H   UNL     1      -0.235 -15.082  -3.931  1.00  0.00     0.293 HD
ENDBRANCH   5   8
ENDBRANCH   1   2
BRANCH   1  10
ATOM     10  C   UNL     1       6.685 -13.387  -3.716  1.00  0.00     0.040 C 
BRANCH  10  11
ATOM     11  C   UNL     1       7.131 -12.469  -2.610  1.00  0.00    -0.040 A 
ATOM     12  C   UNL     1       6.862 -11.093  -2.680  1.00  0.00     0.050 A 
ATOM     13  C   UNL     1       7.871 -12.972  -1.528  1.00  0.00     0.050 A 
ATOM     14  C   UNL     1       7.306 -10.232  -1.667  1.00  0.00     0.119 A 
ATOM     15  C   UNL     1       8.315 -12.112  -0.514  1.00  0.00     0.119 A 
ATOM     16  C   UNL     1       8.029 -10.745  -0.586  1.00  0.00     0.092 A 
BRANCH  14  17
ATOM     17  O   UNL     1       7.038  -8.866  -1.727  1.00  0.00    -0.508 OA
ATOM     18  H   UNL     1       7.768  -8.191  -1.922  1.00  0.00     0.293 HD
ENDBRANCH  14  17
BRANCH  15  19
ATOM     19  O   UNL     1       9.044 -12.605   0.567  1.00  0.00    -0.508 OA
ATOM     20  H   UNL     1       9.898 -13.134   0.433  1.00  0.00     0.293 HD
ENDBRANCH  15  19
ENDBRANCH  10  11
ENDBRANCH   1  10
TORSDOF 6
ENDMDL
MODEL 9
REMARK VINA RESULT:    -6.545      1.273      6.528
REMARK INTER + INTRA:          -8.822
REMARK INTER:                  -8.297
REMARK INTRA:                  -0.525
REMARK UNBOUND:                -0.555
REMARK SMILES Oc1ccc(CCc2cc(O)cc(O)c2)cc1
REMARK SMILES IDX 6 1 5 2 4 3 3 4 2 5 16 6 17 7 1 8 7 10 8 11 15 12 9 13 13 14
REMARK SMILES IDX 10 15 12 16 14 17 11 19
REMARK H PARENT 1 9 14 18 11 20
REMARK Flexibility Score: inf
ROOT
ATOM      1  C   UNL     1       6.317 -13.012  -4.579  1.00  0.00     0.040 C 
ENDROOT
BRANCH   1   2
ATOM      2  C   UNL     1       6.924 -12.711  -3.236  1.00  0.00    -0.047 A 
ATOM      3  C   UNL     1       7.492 -13.742  -2.468  1.00  0.00     0.007 A 
ATOM      4  C   UNL     1       8.086 -13.457  -1.235  1.00  0.00     0.046 A 
ATOM      5  C   UNL     1       8.127 -12.141  -0.760  1.00  0.00     0.115 A 
ATOM      6  C   UNL     1       6.980 -11.390  -2.762  1.00  0.00     0.007 A 
ATOM      7  C   UNL     1       7.574 -11.107  -1.529  1.00  0.00     0.046 A 
BRANCH   5   8
ATOM      8  O   UNL     1       8.721 -11.872   0.470  1.00  0.00    -0.508 OA
ATOM      9  H   UNL     1       9.505 -12.418   0.810  1.00  0.00     0.293 HD
ENDBRANCH   5   8
ENDBRANCH   1   2
BRANCH   1  10
ATOM     10  C   UNL     1       4.788 -13.015  -4.490  1.00  0.00     0.040 C 
BRANCH  10  11
ATOM     11  C   UNL     1       4.199 -12.032  -5.466  1.00  0.00    -0.040 A 
ATOM     12  C   UNL     1       5.006 -11.040  -6.045  1.00  0.00     0.050 A 
ATOM     13  C   UNL     1       2.826 -12.062  -5.760  1.00  0.00     0.050 A 
ATOM     14  C   UNL     1       4.453 -10.103  -6.928  1.00  0.00     0.119 A 
ATOM     15  C   UNL     1       2.272 -11.126  -6.645  1.00  0.00     0.119 A 
ATOM     16  C   UNL     1       3.087 -10.151  -7.227  1.00  0.00     0.092 A 
BRANCH  14  17
ATOM     17  O   UNL     1       5.249  -9.119  -7.511  1.00  0.00    -0.508 OA
ATOM     18  H   UNL     1       5.224  -8.159  -7.188  1.00  0.00     0.293 HD
ENDBRANCH  14  17
BRANCH  15  19
ATOM     19  O   UNL     1       0.912 -11.155  -6.947  1.00  0.00    -0.508 OA
ATOM     20  H   UNL     1       0.210 -10.920  -6.255  1.00  0.00     0.293 HD
ENDBRANCH  15  19
ENDBRANCH  10  11
ENDBRANCH   1  10
TORSDOF 6
ENDMDL
