MODEL 1
REMARK VINA RESULT:    -4.078      0.000      0.000
REMARK INTER + INTRA:          -6.372
REMARK INTER:                  -5.985
REMARK INTRA:                  -0.387
REMARK UNBOUND:                -0.387
REMARK SMILES O=C([O-])CCCCCCCC(=O)[O-]
REMARK SMILES IDX 7 1 6 2 5 3 4 4 2 5 1 6 3 7 8 8 9 9 10 10 11 11 12 12 13 13
REMARK H PARENT
REMARK Flexibility Score: inf
ROOT
ATOM      1  C   UNL     1     177.940 160.907 160.655  1.00  0.00     0.000 C 
ENDROOT
BRANCH   1   2
ATOM      2  C   UNL     1     176.528 161.202 160.130  1.00  0.00     0.000 C 
BRANCH   2   3
ATOM      3  C   UNL     1     176.509 161.237 158.596  1.00  0.00     0.006 C 
BRANCH   3   4
ATOM      4  C   UNL     1     177.390 160.129 158.011  1.00  0.00     0.053 C 
BRANCH   4   5
ATOM      5  C   UNL     1     176.913 159.748 156.644  1.00  0.00     0.041 C 
ATOM      6  O   UNL     1     176.157 160.521 156.000  1.00  0.00    -0.550 OA
ATOM      7  O   UNL     1     177.265 158.518 156.102  1.00  0.00    -0.550 OA
ENDBRANCH   4   5
ENDBRANCH   3   4
ENDBRANCH   2   3
ENDBRANCH   1   2
BRANCH   1   8
ATOM      8  C   UNL     1     177.943 160.461 162.126  1.00  0.00     0.000 C 
BRANCH   8   9
ATOM      9  C   UNL     1     176.806 161.100 162.941  1.00  0.00     0.006 C 
BRANCH   9  10
ATOM     10  C   UNL     1     176.493 160.309 164.217  1.00  0.00     0.053 C 
BRANCH  10  11
ATOM     11  C   UNL     1     175.679 159.085 163.929  1.00  0.00     0.041 C 
ATOM     12  O   UNL     1     174.721 159.140 163.113  1.00  0.00    -0.550 OA
ATOM     13  O   UNL     1     176.002 157.876 164.531  1.00  0.00    -0.550 OA
ENDBRANCH  10  11
ENDBRANCH   9  10
ENDBRANCH   8   9
ENDBRANCH   1   8
TORSDOF 8
ENDMDL
MODEL 2
REMARK VINA RESULT:    -4.020     16.436     18.325
REMARK INTER + INTRA:          -6.287
REMARK INTER:                  -5.642
REMARK INTRA:                  -0.645
REMARK UNBOUND:                -0.387
REMARK SMILES O=C([O-])CCCCCCCC(=O)[O-]
REMARK SMILES IDX 7 1 6 2 5 3 4 4 2 5 1 6 3 7 8 8 9 9 10 10 11 11 12 12 13 13
REMARK H PARENT
REMARK Flexibility Score: inf
ROOT
ATOM      1  C   UNL     1     174.405 177.193 150.544  1.00  0.00     0.000 C 
ENDROOT
BRANCH   1   2
ATOM      2  C   UNL     1     175.082 178.125 151.559  1.00  0.00     0.000 C 
BRANCH   2   3
ATOM      3  C   UNL     1     174.654 177.780 152.991  1.00  0.00     0.006 C 
BRANCH   3   4
ATOM      4  C   UNL     1     175.869 177.438 153.860  1.00  0.00     0.053 C 
BRANCH   4   5
ATOM      5  C   UNL     1     175.649 176.144 154.579  1.00  0.00     0.041 C 
ATOM      6  O   UNL     1     176.610 175.567 155.153  1.00  0.00    -0.550 OA
ATOM      7  O   UNL     1     174.393 175.550 154.575  1.00  0.00    -0.550 OA
ENDBRANCH   4   5
ENDBRANCH   3   4
ENDBRANCH   2   3
ENDBRANCH   1   2
BRANCH   1   8
ATOM      8  C   UNL     1     173.803 175.940 151.200  1.00  0.00     0.000 C 
BRANCH   8   9
ATOM      9  C   UNL     1     174.607 174.665 150.890  1.00  0.00     0.006 C 
BRANCH   9  10
ATOM     10  C   UNL     1     176.110 174.857 151.131  1.00  0.00     0.053 C 
BRANCH  10  11
ATOM     11  C   UNL     1     176.809 173.552 151.357  1.00  0.00     0.041 C 
ATOM     12  O   UNL     1     176.961 172.742 150.405  1.00  0.00    -0.550 OA
ATOM     13  O   UNL     1     177.326 173.245 152.609  1.00  0.00    -0.550 OA
ENDBRANCH  10  11
ENDBRANCH   9  10
ENDBRANCH   8   9
ENDBRANCH   1   8
TORSDOF 8
ENDMDL
MODEL 3
REMARK VINA RESULT:    -3.990     13.731     16.068
REMARK INTER + INTRA:          -6.243
REMARK INTER:                  -5.412
REMARK INTRA:                  -0.831
REMARK UNBOUND:                -0.387
REMARK SMILES O=C([O-])CCCCCCCC(=O)[O-]
REMARK SMILES IDX 7 1 6 2 5 3 4 4 2 5 1 6 3 7 8 8 9 9 10 10 11 11 12 12 13 13
REMARK H PARENT
REMARK Flexibility Score: inf
ROOT
ATOM      1  C   UNL     1     175.929 171.983 150.000  1.00  0.00     0.000 C 
ENDROOT
BRANCH   1   2
ATOM      2  C   UNL     1     177.108 172.936 149.756  1.00  0.00     0.000 C 
BRANCH   2   3
ATOM      3  C   UNL     1     177.106 174.084 150.774  1.00  0.00     0.006 C 
BRANCH   3   4
ATOM      4  C   UNL     1     175.676 174.459 151.176  1.00  0.00     0.053 C 
BRANCH   4   5
ATOM      5  C   UNL     1     175.685 175.627 152.112  1.00  0.00     0.041 C 
ATOM      6  O   UNL     1     175.311 176.760 151.714  1.00  0.00    -0.550 OA
ATOM      7  O   UNL     1     176.152 175.472 153.412  1.00  0.00    -0.550 OA
ENDBRANCH   4   5
ENDBRANCH   3   4
ENDBRANCH   2   3
ENDBRANCH   1   2
BRANCH   1   8
ATOM      8  C   UNL     1     176.376 170.613 150.532  1.00  0.00     0.000 C 
BRANCH   8   9
ATOM      9  C   UNL     1     175.761 170.280 151.903  1.00  0.00     0.006 C 
BRANCH   9  10
ATOM     10  C   UNL     1     176.774 170.434 153.044  1.00  0.00     0.053 C 
BRANCH  10  11
ATOM     11  C   UNL     1     176.720 171.798 153.658  1.00  0.00     0.041 C 
ATOM     12  O   UNL     1     177.766 172.492 153.753  1.00  0.00    -0.550 OA
ATOM     13  O   UNL     1     175.507 172.320 154.090  1.00  0.00    -0.550 OA
ENDBRANCH  10  11
ENDBRANCH   9  10
ENDBRANCH   8   9
ENDBRANCH   1   8
TORSDOF 8
ENDMDL
MODEL 4
REMARK VINA RESULT:    -3.963     15.675     17.724
REMARK INTER + INTRA:          -6.203
REMARK INTER:                  -5.393
REMARK INTRA:                  -0.810
REMARK UNBOUND:                -0.387
REMARK SMILES O=C([O-])CCCCCCCC(=O)[O-]
REMARK SMILES IDX 7 1 6 2 5 3 4 4 2 5 1 6 3 7 8 8 9 9 10 10 11 11 12 12 13 13
REMARK H PARENT
REMARK Flexibility Score: inf
ROOT
ATOM      1  C   UNL     1     174.096 176.473 150.777  1.00  0.00     0.000 C 
ENDROOT
BRANCH   1   2
ATOM      2  C   UNL     1     174.600 175.051 151.064  1.00  0.00     0.000 C 
BRANCH   2   3
ATOM      3  C   UNL     1     176.132 174.995 151.035  1.00  0.00     0.006 C 
BRANCH   3   4
ATOM      4  C   UNL     1     176.654 173.805 151.846  1.00  0.00     0.053 C 
BRANCH   4   5
ATOM      5  C   UNL     1     176.468 172.530 151.083  1.00  0.00     0.041 C 
ATOM      6  O   UNL     1     176.065 171.493 151.672  1.00  0.00    -0.550 OA
ATOM      7  O   UNL     1     176.786 172.476 149.732  1.00  0.00    -0.550 OA
ENDBRANCH   4   5
ENDBRANCH   3   4
ENDBRANCH   2   3
ENDBRANCH   1   2
BRANCH   1   8
ATOM      8  C   UNL     1     175.097 177.554 151.213  1.00  0.00     0.000 C 
BRANCH   8   9
ATOM      9  C   UNL     1     174.783 178.125 152.606  1.00  0.00     0.006 C 
BRANCH   9  10
ATOM     10  C   UNL     1     175.875 177.787 153.629  1.00  0.00     0.053 C 
BRANCH  10  11
ATOM     11  C   UNL     1     175.560 176.536 154.388  1.00  0.00     0.041 C 
ATOM     12  O   UNL     1     174.376 176.108 154.442  1.00  0.00    -0.550 OA
ATOM     13  O   UNL     1     176.578 175.820 155.005  1.00  0.00    -0.550 OA
ENDBRANCH  10  11
ENDBRANCH   9  10
ENDBRANCH   8   9
ENDBRANCH   1   8
TORSDOF 8
ENDMDL
MODEL 5
REMARK VINA RESULT:    -3.933     15.862     18.110
REMARK INTER + INTRA:          -6.159
REMARK INTER:                  -5.821
REMARK INTRA:                  -0.338
REMARK UNBOUND:                -0.387
REMARK SMILES O=C([O-])CCCCCCCC(=O)[O-]
REMARK SMILES IDX 7 1 6 2 5 3 4 4 2 5 1 6 3 7 8 8 9 9 10 10 11 11 12 12 13 13
REMARK H PARENT
REMARK Flexibility Score: inf
ROOT
ATOM      1  C   UNL     1     174.422 175.637 151.145  1.00  0.00     0.000 C 
ENDROOT
BRANCH   1   2
ATOM      2  C   UNL     1     174.348 177.028 150.498  1.00  0.00     0.000 C 
BRANCH   2   3
ATOM      3  C   UNL     1     174.070 178.108 151.550  1.00  0.00     0.006 C 
BRANCH   3   4
ATOM      4  C   UNL     1     172.602 178.083 151.989  1.00  0.00     0.053 C 
BRANCH   4   5
ATOM      5  C   UNL     1     172.492 177.674 153.424  1.00  0.00     0.041 C 
ATOM      6  O   UNL     1     171.492 177.021 153.821  1.00  0.00    -0.550 OA
ATOM      7  O   UNL     1     173.471 178.055 154.333  1.00  0.00    -0.550 OA
ENDBRANCH   4   5
ENDBRANCH   3   4
ENDBRANCH   2   3
ENDBRANCH   1   2
BRANCH   1   8
ATOM      8  C   UNL     1     175.738 175.406 151.903  1.00  0.00     0.000 C 
BRANCH   8   9
ATOM      9  C   UNL     1     176.485 174.150 151.423  1.00  0.00     0.006 C 
BRANCH   9  10
ATOM     10  C   UNL     1     175.927 172.868 152.056  1.00  0.00     0.053 C 
BRANCH  10  11
ATOM     11  C   UNL     1     176.934 172.198 152.939  1.00  0.00     0.041 C 
ATOM     12  O   UNL     1     177.721 172.889 153.639  1.00  0.00    -0.550 OA
ATOM     13  O   UNL     1     176.978 170.812 153.018  1.00  0.00    -0.550 OA
ENDBRANCH  10  11
ENDBRANCH   9  10
ENDBRANCH   8   9
ENDBRANCH   1   8
TORSDOF 8
ENDMDL
MODEL 6
REMARK VINA RESULT:    -3.920     22.361     24.254
REMARK INTER + INTRA:          -6.141
REMARK INTER:                  -5.534
REMARK INTRA:                  -0.607
REMARK UNBOUND:                -0.387
REMARK SMILES O=C([O-])CCCCCCCC(=O)[O-]
REMARK SMILES IDX 7 1 6 2 5 3 4 4 2 5 1 6 3 7 8 8 9 9 10 10 11 11 12 12 13 13
REMARK H PARENT
REMARK Flexibility Score: inf
ROOT
ATOM      1  C   UNL     1     161.622 176.279 151.186  1.00  0.00     0.000 C 
ENDROOT
BRANCH   1   2
ATOM      2  C   UNL     1     161.025 177.678 150.974  1.00  0.00     0.000 C 
BRANCH   2   3
ATOM      3  C   UNL     1     160.221 178.124 152.201  1.00  0.00     0.006 C 
BRANCH   3   4
ATOM      4  C   UNL     1     161.093 178.120 153.461  1.00  0.00     0.053 C 
BRANCH   4   5
ATOM      5  C   UNL     1     160.425 177.350 154.557  1.00  0.00     0.041 C 
ATOM      6  O   UNL     1     160.112 177.924 155.633  1.00  0.00    -0.550 OA
ATOM      7  O   UNL     1     160.190 175.989 154.408  1.00  0.00    -0.550 OA
ENDBRANCH   4   5
ENDBRANCH   3   4
ENDBRANCH   2   3
ENDBRANCH   1   2
BRANCH   1   8
ATOM      8  C   UNL     1     163.137 176.238 150.932  1.00  0.00     0.000 C 
BRANCH   8   9
ATOM      9  C   UNL     1     163.804 177.614 151.101  1.00  0.00     0.006 C 
BRANCH   9  10
ATOM     10  C   UNL     1     164.647 177.696 152.380  1.00  0.00     0.053 C 
BRANCH  10  11
ATOM     11  C   UNL     1     166.114 177.704 152.081  1.00  0.00     0.041 C 
ATOM     12  O   UNL     1     166.946 177.939 152.997  1.00  0.00    -0.550 OA
ATOM     13  O   UNL     1     166.565 177.415 150.799  1.00  0.00    -0.550 OA
ENDBRANCH  10  11
ENDBRANCH   9  10
ENDBRANCH   8   9
ENDBRANCH   1   8
TORSDOF 8
ENDMDL
MODEL 7
REMARK VINA RESULT:    -3.918     21.682     23.780
REMARK INTER + INTRA:          -6.137
REMARK INTER:                  -5.632
REMARK INTRA:                  -0.505
REMARK UNBOUND:                -0.387
REMARK SMILES O=C([O-])CCCCCCCC(=O)[O-]
REMARK SMILES IDX 7 1 6 2 5 3 4 4 2 5 1 6 3 7 8 8 9 9 10 10 11 11 12 12 13 13
REMARK H PARENT
REMARK Flexibility Score: inf
ROOT
ATOM      1  C   UNL     1     163.556 176.408 151.130  1.00  0.00     0.000 C 
ENDROOT
BRANCH   1   2
ATOM      2  C   UNL     1     162.078 176.193 150.773  1.00  0.00     0.000 C 
BRANCH   2   3
ATOM      3  C   UNL     1     161.271 177.481 150.981  1.00  0.00     0.006 C 
BRANCH   3   4
ATOM      4  C   UNL     1     160.144 177.265 151.997  1.00  0.00     0.053 C 
BRANCH   4   5
ATOM      5  C   UNL     1     160.683 177.309 153.393  1.00  0.00     0.041 C 
ATOM      6  O   UNL     1     161.599 178.119 153.693  1.00  0.00    -0.550 OA
ATOM      7  O   UNL     1     160.207 176.421 154.350  1.00  0.00    -0.550 OA
ENDBRANCH   4   5
ENDBRANCH   3   4
ENDBRANCH   2   3
ENDBRANCH   1   2
BRANCH   1   8
ATOM      8  C   UNL     1     163.966 177.888 151.091  1.00  0.00     0.000 C 
BRANCH   8   9
ATOM      9  C   UNL     1     165.448 178.083 150.726  1.00  0.00     0.006 C 
BRANCH   9  10
ATOM     10  C   UNL     1     166.258 176.791 150.892  1.00  0.00     0.053 C 
BRANCH  10  11
ATOM     11  C   UNL     1     167.641 177.063 151.398  1.00  0.00     0.041 C 
ATOM     12  O   UNL     1     168.633 176.934 150.632  1.00  0.00    -0.550 OA
ATOM     13  O   UNL     1     167.833 177.495 152.704  1.00  0.00    -0.550 OA
ENDBRANCH  10  11
ENDBRANCH   9  10
ENDBRANCH   8   9
ENDBRANCH   1   8
TORSDOF 8
ENDMDL
MODEL 8
REMARK VINA RESULT:    -3.869     22.364     23.660
REMARK INTER + INTRA:          -6.065
REMARK INTER:                  -5.693
REMARK INTRA:                  -0.371
REMARK UNBOUND:                -0.387
REMARK SMILES O=C([O-])CCCCCCCC(=O)[O-]
REMARK SMILES IDX 7 1 6 2 5 3 4 4 2 5 1 6 3 7 8 8 9 9 10 10 11 11 12 12 13 13
REMARK H PARENT
REMARK Flexibility Score: inf
ROOT
ATOM      1  C   UNL     1     160.044 176.173 152.004  1.00  0.00     0.000 C 
ENDROOT
BRANCH   1   2
ATOM      2  C   UNL     1     160.971 176.428 150.806  1.00  0.00     0.000 C 
BRANCH   2   3
ATOM      3  C   UNL     1     161.788 177.710 151.007  1.00  0.00     0.006 C 
BRANCH   3   4
ATOM      4  C   UNL     1     163.283 177.398 151.117  1.00  0.00     0.053 C 
BRANCH   4   5
ATOM      5  C   UNL     1     163.810 177.827 152.451  1.00  0.00     0.041 C 
ATOM      6  O   UNL     1     163.019 178.028 153.409  1.00  0.00    -0.550 OA
ATOM      7  O   UNL     1     165.170 178.049 152.622  1.00  0.00    -0.550 OA
ENDBRANCH   4   5
ENDBRANCH   3   4
ENDBRANCH   2   3
ENDBRANCH   1   2
BRANCH   1   8
ATOM      8  C   UNL     1     159.364 174.796 151.944  1.00  0.00     0.000 C 
BRANCH   8   9
ATOM      9  C   UNL     1     160.139 173.719 152.722  1.00  0.00     0.006 C 
BRANCH   9  10
ATOM     10  C   UNL     1     160.725 172.646 151.795  1.00  0.00     0.053 C 
BRANCH  10  11
ATOM     11  C   UNL     1     159.761 171.524 151.563  1.00  0.00     0.041 C 
ATOM     12  O   UNL     1     159.117 171.033 152.527  1.00  0.00    -0.550 OA
ATOM     13  O   UNL     1     159.546 171.044 150.277  1.00  0.00    -0.550 OA
ENDBRANCH  10  11
ENDBRANCH   9  10
ENDBRANCH   8   9
ENDBRANCH   1   8
TORSDOF 8
ENDMDL
MODEL 9
REMARK VINA RESULT:    -3.844     21.385     23.224
REMARK INTER + INTRA:          -6.029
REMARK INTER:                  -5.624
REMARK INTRA:                  -0.405
REMARK UNBOUND:                -0.387
REMARK SMILES O=C([O-])CCCCCCCC(=O)[O-]
REMARK SMILES IDX 7 1 6 2 5 3 4 4 2 5 1 6 3 7 8 8 9 9 10 10 11 11 12 12 13 13
REMARK H PARENT
REMARK Flexibility Score: inf
ROOT
ATOM      1  C   UNL     1     164.168 177.549 151.657  1.00  0.00     0.000 C 
ENDROOT
BRANCH   1   2
ATOM      2  C   UNL     1     165.237 177.913 150.615  1.00  0.00     0.000 C 
BRANCH   2   3
ATOM      3  C   UNL     1     166.523 177.108 150.845  1.00  0.00     0.006 C 
BRANCH   3   4
ATOM      4  C   UNL     1     167.022 176.486 149.537  1.00  0.00     0.053 C 
BRANCH   4   5
ATOM      5  C   UNL     1     166.855 174.998 149.569  1.00  0.00     0.041 C 
ATOM      6  O   UNL     1     167.831 174.258 149.861  1.00  0.00    -0.550 OA
ATOM      7  O   UNL     1     165.635 174.428 149.230  1.00  0.00    -0.550 OA
ENDBRANCH   4   5
ENDBRANCH   3   4
ENDBRANCH   2   3
ENDBRANCH   1   2
BRANCH   1   8
ATOM      8  C   UNL     1     163.114 176.575 151.108  1.00  0.00     0.000 C 
BRANCH   8   9
ATOM      9  C   UNL     1     161.807 177.281 150.707  1.00  0.00     0.006 C 
BRANCH   9  10
ATOM     10  C   UNL     1     161.144 177.989 151.896  1.00  0.00     0.053 C 
BRANCH  10  11
ATOM     11  C   UNL     1     160.285 177.055 152.691  1.00  0.00     0.041 C 
ATOM     12  O   UNL     1     159.770 176.046 152.142  1.00  0.00    -0.550 OA
ATOM     13  O   UNL     1     160.084 177.277 154.047  1.00  0.00    -0.550 OA
ENDBRANCH  10  11
ENDBRANCH   9  10
ENDBRANCH   8   9
ENDBRANCH   1   8
TORSDOF 8
ENDMDL
