MODEL 1
REMARK VINA RESULT:    -7.529      0.000      0.000
REMARK INTER + INTRA:          -8.409
REMARK INTER:                  -8.409
REMARK INTRA:                   0.000
REMARK UNBOUND:                 0.000
REMARK SMILES Oc1cc(O)c2c(ccc3ccc(O)c(O)c32)c1
REMARK SMILES IDX 9 1 8 2 7 3 18 4 2 5 3 6 4 7 6 8 17 9 10 10 11 11 12 12
REMARK SMILES IDX 13 13 15 14 16 15 1 17 5 19 14 21
REMARK H PARENT 16 16 1 18 5 20 14 22
REMARK Flexibility Score: inf
ROOT
ATOM      1  C   UNL     1     -17.606  59.925  -1.757  1.00  0.00     0.009 A 
ATOM      2  C   UNL     1     -18.629  59.043  -2.078  1.00  0.00     0.009 A 
ATOM      3  C   UNL     1     -18.816  58.627  -3.401  1.00  0.00    -0.010 A 
ATOM      4  C   UNL     1     -19.902  57.795  -3.710  1.00  0.00     0.055 A 
ATOM      5  C   UNL     1     -20.189  57.472  -5.034  1.00  0.00     0.119 A 
ATOM      6  C   UNL     1     -19.426  58.027  -6.062  1.00  0.00     0.093 A 
ATOM      7  C   UNL     1     -18.349  58.877  -5.776  1.00  0.00     0.127 A 
ATOM      8  C   UNL     1     -17.939  59.081  -4.428  1.00  0.00     0.035 A 
ATOM      9  C   UNL     1     -16.758  59.802  -4.051  1.00  0.00     0.039 A 
ATOM     10  C   UNL     1     -16.666  60.302  -2.721  1.00  0.00    -0.014 A 
ATOM     11  C   UNL     1     -15.607  61.142  -2.354  1.00  0.00     0.013 A 
ATOM     12  C   UNL     1     -14.607  61.450  -3.267  1.00  0.00     0.051 A 
ATOM     13  C   UNL     1     -14.592  60.855  -4.528  1.00  0.00     0.158 A 
ATOM     14  C   UNL     1     -15.620  59.954  -4.893  1.00  0.00     0.166 A 
ENDROOT
BRANCH  14  15
ATOM     15  O   UNL     1     -15.462  59.126  -6.007  1.00  0.00    -0.504 OA
ATOM     16  H   UNL     1     -15.262  58.137  -5.950  1.00  0.00     0.293 HD
ENDBRANCH  14  15
BRANCH   5  17
ATOM     17  O   UNL     1     -21.260  56.627  -5.319  1.00  0.00    -0.508 OA
ATOM     18  H   UNL     1     -21.459  56.325  -6.266  1.00  0.00     0.293 HD
ENDBRANCH   5  17
BRANCH   7  19
ATOM     19  O   UNL     1     -17.765  59.584  -6.827  1.00  0.00    -0.507 OA
ATOM     20  H   UNL     1     -17.500  60.558  -6.735  1.00  0.00     0.293 HD
ENDBRANCH   7  19
BRANCH  13  21
ATOM     21  O   UNL     1     -13.539  61.173  -5.388  1.00  0.00    -0.504 OA
ATOM     22  H   UNL     1     -13.630  61.201  -6.394  1.00  0.00     0.293 HD
ENDBRANCH  13  21
TORSDOF 4
ENDMDL
MODEL 2
REMARK VINA RESULT:    -7.313      0.903      4.939
REMARK INTER + INTRA:          -8.168
REMARK INTER:                  -8.168
REMARK INTRA:                   0.000
REMARK UNBOUND:                 0.000
REMARK SMILES Oc1cc(O)c2c(ccc3ccc(O)c(O)c32)c1
REMARK SMILES IDX 9 1 8 2 7 3 18 4 2 5 3 6 4 7 6 8 17 9 10 10 11 11 12 12
REMARK SMILES IDX 13 13 15 14 16 15 1 17 5 19 14 21
REMARK H PARENT 16 16 1 18 5 20 14 22
REMARK Flexibility Score: inf
ROOT
ATOM      1  C   UNL     1     -18.501  59.129  -1.947  1.00  0.00     0.009 A 
ATOM      2  C   UNL     1     -17.526  60.087  -1.700  1.00  0.00     0.009 A 
ATOM      3  C   UNL     1     -16.628  60.459  -2.706  1.00  0.00    -0.010 A 
ATOM      4  C   UNL     1     -15.605  61.372  -2.408  1.00  0.00     0.055 A 
ATOM      5  C   UNL     1     -14.621  61.661  -3.349  1.00  0.00     0.119 A 
ATOM      6  C   UNL     1     -14.618  60.992  -4.574  1.00  0.00     0.093 A 
ATOM      7  C   UNL     1     -15.617  60.059  -4.883  1.00  0.00     0.127 A 
ATOM      8  C   UNL     1     -16.722  59.879  -4.004  1.00  0.00     0.035 A 
ATOM      9  C   UNL     1     -17.866  59.070  -4.311  1.00  0.00     0.039 A 
ATOM     10  C   UNL     1     -18.687  58.624  -3.238  1.00  0.00    -0.014 A 
ATOM     11  C   UNL     1     -19.720  57.707  -3.472  1.00  0.00     0.013 A 
ATOM     12  C   UNL     1     -19.988  57.267  -4.762  1.00  0.00     0.051 A 
ATOM     13  C   UNL     1     -19.299  57.801  -5.849  1.00  0.00     0.158 A 
ATOM     14  C   UNL     1     -18.296  58.776  -5.636  1.00  0.00     0.166 A 
ENDROOT
BRANCH  14  15
ATOM     15  O   UNL     1     -17.819  59.535  -6.708  1.00  0.00    -0.504 OA
ATOM     16  H   UNL     1     -18.402  59.879  -7.458  1.00  0.00     0.293 HD
ENDBRANCH  14  15
BRANCH   5  17
ATOM     17  O   UNL     1     -13.627  62.587  -3.042  1.00  0.00    -0.508 OA
ATOM     18  H   UNL     1     -13.751  63.577  -3.221  1.00  0.00     0.293 HD
ENDBRANCH   5  17
BRANCH   7  19
ATOM     19  O   UNL     1     -15.448  59.255  -6.010  1.00  0.00    -0.507 OA
ATOM     20  H   UNL     1     -16.228  58.784  -6.454  1.00  0.00     0.293 HD
ENDBRANCH   7  19
BRANCH  13  21
ATOM     21  O   UNL     1     -19.640  57.348  -7.125  1.00  0.00    -0.504 OA
ATOM     22  H   UNL     1     -20.427  56.742  -7.310  1.00  0.00     0.293 HD
ENDBRANCH  13  21
TORSDOF 4
ENDMDL
MODEL 3
REMARK VINA RESULT:    -7.087     11.868     13.987
REMARK INTER + INTRA:          -7.916
REMARK INTER:                  -7.916
REMARK INTRA:                   0.000
REMARK UNBOUND:                 0.000
REMARK SMILES Oc1cc(O)c2c(ccc3ccc(O)c(O)c32)c1
REMARK SMILES IDX 9 1 8 2 7 3 18 4 2 5 3 6 4 7 6 8 17 9 10 10 11 11 12 12
REMARK SMILES IDX 13 13 15 14 16 15 1 17 5 19 14 21
REMARK H PARENT 16 16 1 18 5 20 14 22
REMARK Flexibility Score: inf
ROOT
ATOM      1  C   UNL     1     -19.294  58.401   8.057  1.00  0.00     0.009 A 
ATOM      2  C   UNL     1     -19.833  58.322   6.779  1.00  0.00     0.009 A 
ATOM      3  C   UNL     1     -21.101  57.765   6.579  1.00  0.00    -0.010 A 
ATOM      4  C   UNL     1     -21.590  57.628   5.271  1.00  0.00     0.055 A 
ATOM      5  C   UNL     1     -22.788  56.960   5.032  1.00  0.00     0.119 A 
ATOM      6  C   UNL     1     -23.475  56.371   6.095  1.00  0.00     0.093 A 
ATOM      7  C   UNL     1     -22.993  56.478   7.406  1.00  0.00     0.127 A 
ATOM      8  C   UNL     1     -21.865  57.299   7.688  1.00  0.00     0.035 A 
ATOM      9  C   UNL     1     -21.399  57.593   9.012  1.00  0.00     0.039 A 
ATOM     10  C   UNL     1     -20.061  58.052   9.172  1.00  0.00    -0.014 A 
ATOM     11  C   UNL     1     -19.515  58.204  10.453  1.00  0.00     0.013 A 
ATOM     12  C   UNL     1     -20.290  57.959  11.580  1.00  0.00     0.051 A 
ATOM     13  C   UNL     1     -21.644  57.654  11.454  1.00  0.00     0.158 A 
ATOM     14  C   UNL     1     -22.228  57.560  10.169  1.00  0.00     0.166 A 
ENDROOT
BRANCH  14  15
ATOM     15  O   UNL     1     -23.619  57.563  10.030  1.00  0.00    -0.504 OA
ATOM     16  H   UNL     1     -24.131  56.887   9.480  1.00  0.00     0.293 HD
ENDBRANCH  14  15
BRANCH   5  17
ATOM     17  O   UNL     1     -23.268  56.854   3.729  1.00  0.00    -0.508 OA
ATOM     18  H   UNL     1     -23.142  57.600   3.054  1.00  0.00     0.293 HD
ENDBRANCH   5  17
BRANCH   7  19
ATOM     19  O   UNL     1     -23.581  55.688   8.395  1.00  0.00    -0.507 OA
ATOM     20  H   UNL     1     -24.317  55.025   8.182  1.00  0.00     0.293 HD
ENDBRANCH   7  19
BRANCH  13  21
ATOM     21  O   UNL     1     -22.381  57.458  12.624  1.00  0.00    -0.504 OA
ATOM     22  H   UNL     1     -23.272  57.899  12.802  1.00  0.00     0.293 HD
ENDBRANCH  13  21
TORSDOF 4
ENDMDL
MODEL 4
REMARK VINA RESULT:    -7.065     10.127     13.082
REMARK INTER + INTRA:          -7.891
REMARK INTER:                  -7.891
REMARK INTRA:                   0.000
REMARK UNBOUND:                 0.000
REMARK SMILES Oc1cc(O)c2c(ccc3ccc(O)c(O)c32)c1
REMARK SMILES IDX 9 1 8 2 7 3 18 4 2 5 3 6 4 7 6 8 17 9 10 10 11 11 12 12
REMARK SMILES IDX 13 13 15 14 16 15 1 17 5 19 14 21
REMARK H PARENT 16 16 1 18 5 20 14 22
REMARK Flexibility Score: inf
ROOT
ATOM      1  C   UNL     1     -29.468  58.118   3.575  1.00  0.00     0.009 A 
ATOM      2  C   UNL     1     -28.185  58.462   3.980  1.00  0.00     0.009 A 
ATOM      3  C   UNL     1     -27.090  58.225   3.142  1.00  0.00    -0.010 A 
ATOM      4  C   UNL     1     -25.797  58.512   3.606  1.00  0.00     0.055 A 
ATOM      5  C   UNL     1     -24.682  58.166   2.848  1.00  0.00     0.119 A 
ATOM      6  C   UNL     1     -24.850  57.475   1.647  1.00  0.00     0.093 A 
ATOM      7  C   UNL     1     -26.132  57.158   1.176  1.00  0.00     0.127 A 
ATOM      8  C   UNL     1     -27.283  57.653   1.852  1.00  0.00     0.035 A 
ATOM      9  C   UNL     1     -28.622  57.516   1.357  1.00  0.00     0.039 A 
ATOM     10  C   UNL     1     -29.701  57.657   2.275  1.00  0.00    -0.014 A 
ATOM     11  C   UNL     1     -31.013  57.379   1.872  1.00  0.00     0.013 A 
ATOM     12  C   UNL     1     -31.281  57.016   0.559  1.00  0.00     0.051 A 
ATOM     13  C   UNL     1     -30.266  57.015  -0.396  1.00  0.00     0.158 A 
ATOM     14  C   UNL     1     -28.946  57.356  -0.020  1.00  0.00     0.166 A 
ENDROOT
BRANCH  14  15
ATOM     15  O   UNL     1     -27.995  57.658  -0.999  1.00  0.00    -0.504 OA
ATOM     16  H   UNL     1     -27.433  58.499  -0.998  1.00  0.00     0.293 HD
ENDBRANCH  14  15
BRANCH   5  17
ATOM     17  O   UNL     1     -23.408  58.480   3.316  1.00  0.00    -0.508 OA
ATOM     18  H   UNL     1     -22.628  57.843   3.198  1.00  0.00     0.293 HD
ENDBRANCH   5  17
BRANCH   7  19
ATOM     19  O   UNL     1     -26.244  56.276   0.102  1.00  0.00    -0.507 OA
ATOM     20  H   UNL     1     -25.593  55.511  -0.032  1.00  0.00     0.293 HD
ENDBRANCH   7  19
BRANCH  13  21
ATOM     21  O   UNL     1     -30.605  56.679  -1.709  1.00  0.00    -0.504 OA
ATOM     22  H   UNL     1     -30.518  57.318  -2.487  1.00  0.00     0.293 HD
ENDBRANCH  13  21
TORSDOF 4
ENDMDL
MODEL 5
REMARK VINA RESULT:    -7.046     10.358     13.671
REMARK INTER + INTRA:          -7.870
REMARK INTER:                  -7.870
REMARK INTRA:                   0.000
REMARK UNBOUND:                 0.000
REMARK SMILES Oc1cc(O)c2c(ccc3ccc(O)c(O)c32)c1
REMARK SMILES IDX 9 1 8 2 7 3 18 4 2 5 3 6 4 7 6 8 17 9 10 10 11 11 12 12
REMARK SMILES IDX 13 13 15 14 16 15 1 17 5 19 14 21
REMARK H PARENT 16 16 1 18 5 20 14 22
REMARK Flexibility Score: inf
ROOT
ATOM      1  C   UNL     1     -27.794  56.900  -0.458  1.00  0.00     0.009 A 
ATOM      2  C   UNL     1     -26.497  56.927   0.038  1.00  0.00     0.009 A 
ATOM      3  C   UNL     1     -26.248  57.355   1.347  1.00  0.00    -0.010 A 
ATOM      4  C   UNL     1     -24.923  57.445   1.798  1.00  0.00     0.055 A 
ATOM      5  C   UNL     1     -24.637  57.990   3.047  1.00  0.00     0.119 A 
ATOM      6  C   UNL     1     -25.673  58.506   3.829  1.00  0.00     0.093 A 
ATOM      7  C   UNL     1     -27.002  58.446   3.387  1.00  0.00     0.127 A 
ATOM      8  C   UNL     1     -27.327  57.741   2.194  1.00  0.00     0.035 A 
ATOM      9  C   UNL     1     -28.668  57.493   1.752  1.00  0.00     0.039 A 
ATOM     10  C   UNL     1     -28.879  57.169   0.382  1.00  0.00    -0.014 A 
ATOM     11  C   UNL     1     -30.180  57.071  -0.129  1.00  0.00     0.013 A 
ATOM     12  C   UNL     1     -31.277  57.235   0.708  1.00  0.00     0.051 A 
ATOM     13  C   UNL     1     -31.100  57.405   2.080  1.00  0.00     0.158 A 
ATOM     14  C   UNL     1     -29.793  57.441   2.623  1.00  0.00     0.166 A 
ENDROOT
BRANCH  14  15
ATOM     15  O   UNL     1     -29.602  57.300   4.000  1.00  0.00    -0.504 OA
ATOM     16  H   UNL     1     -28.941  57.846   4.535  1.00  0.00     0.293 HD
ENDBRANCH  14  15
BRANCH   5  17
ATOM     17  O   UNL     1     -23.317  58.050   3.486  1.00  0.00    -0.508 OA
ATOM     18  H   UNL     1     -22.575  57.555   3.005  1.00  0.00     0.293 HD
ENDBRANCH   5  17
BRANCH   7  19
ATOM     19  O   UNL     1     -27.965  59.171   4.088  1.00  0.00    -0.507 OA
ATOM     20  H   UNL     1     -27.861  59.388   5.072  1.00  0.00     0.293 HD
ENDBRANCH   7  19
BRANCH  13  21
ATOM     21  O   UNL     1     -32.241  57.524   2.876  1.00  0.00    -0.504 OA
ATOM     22  H   UNL     1     -33.118  57.897   2.541  1.00  0.00     0.293 HD
ENDBRANCH  13  21
TORSDOF 4
ENDMDL
MODEL 6
REMARK VINA RESULT:    -6.685     10.870     13.510
REMARK INTER + INTRA:          -7.466
REMARK INTER:                  -7.466
REMARK INTRA:                   0.000
REMARK UNBOUND:                 0.000
REMARK SMILES Oc1cc(O)c2c(ccc3ccc(O)c(O)c32)c1
REMARK SMILES IDX 9 1 8 2 7 3 18 4 2 5 3 6 4 7 6 8 17 9 10 10 11 11 12 12
REMARK SMILES IDX 13 13 15 14 16 15 1 17 5 19 14 21
REMARK H PARENT 16 16 1 18 5 20 14 22
REMARK Flexibility Score: inf
ROOT
ATOM      1  C   UNL     1     -21.246  58.059   4.710  1.00  0.00     0.009 A 
ATOM      2  C   UNL     1     -20.014  58.596   5.062  1.00  0.00     0.009 A 
ATOM      3  C   UNL     1     -19.605  58.614   6.399  1.00  0.00    -0.010 A 
ATOM      4  C   UNL     1     -18.391  59.230   6.736  1.00  0.00     0.055 A 
ATOM      5  C   UNL     1     -18.020  59.378   8.070  1.00  0.00     0.119 A 
ATOM      6  C   UNL     1     -18.892  58.965   9.079  1.00  0.00     0.093 A 
ATOM      7  C   UNL     1     -20.119  58.366   8.764  1.00  0.00     0.127 A 
ATOM      8  C   UNL     1     -20.436  58.054   7.412  1.00  0.00     0.035 A 
ATOM      9  C   UNL     1     -21.590  57.302   7.013  1.00  0.00     0.039 A 
ATOM     10  C   UNL     1     -22.033  57.407   5.665  1.00  0.00    -0.014 A 
ATOM     11  C   UNL     1     -23.240  56.817   5.269  1.00  0.00     0.013 A 
ATOM     12  C   UNL     1     -23.991  56.079   6.176  1.00  0.00     0.051 A 
ATOM     13  C   UNL     1     -23.508  55.836   7.461  1.00  0.00     0.158 A 
ATOM     14  C   UNL     1     -22.259  56.370   7.857  1.00  0.00     0.166 A 
ENDROOT
BRANCH  14  15
ATOM     15  O   UNL     1     -21.625  55.891   9.006  1.00  0.00    -0.504 OA
ATOM     16  H   UNL     1     -21.048  55.062   9.027  1.00  0.00     0.293 HD
ENDBRANCH  14  15
BRANCH   5  17
ATOM     17  O   UNL     1     -16.801  59.973   8.383  1.00  0.00    -0.508 OA
ATOM     18  H   UNL     1     -16.126  59.515   8.986  1.00  0.00     0.293 HD
ENDBRANCH   5  17
BRANCH   7  19
ATOM     19  O   UNL     1     -21.048  58.181   9.789  1.00  0.00    -0.507 OA
ATOM     20  H   UNL     1     -20.985  57.401  10.433  1.00  0.00     0.293 HD
ENDBRANCH   7  19
BRANCH  13  21
ATOM     21  O   UNL     1     -24.289  55.054   8.314  1.00  0.00    -0.504 OA
ATOM     22  H   UNL     1     -24.696  54.170   8.044  1.00  0.00     0.293 HD
ENDBRANCH  13  21
TORSDOF 4
ENDMDL
MODEL 7
REMARK VINA RESULT:    -6.652      5.685      7.850
REMARK INTER + INTRA:          -7.430
REMARK INTER:                  -7.430
REMARK INTRA:                   0.000
REMARK UNBOUND:                 0.000
REMARK SMILES Oc1cc(O)c2c(ccc3ccc(O)c(O)c32)c1
REMARK SMILES IDX 9 1 8 2 7 3 18 4 2 5 3 6 4 7 6 8 17 9 10 10 11 11 12 12
REMARK SMILES IDX 13 13 15 14 16 15 1 17 5 19 14 21
REMARK H PARENT 16 16 1 18 5 20 14 22
REMARK Flexibility Score: inf
ROOT
ATOM      1  C   UNL     1     -21.000  59.183   3.742  1.00  0.00     0.009 A 
ATOM      2  C   UNL     1     -19.706  59.011   4.214  1.00  0.00     0.009 A 
ATOM      3  C   UNL     1     -18.612  59.169   3.357  1.00  0.00    -0.010 A 
ATOM      4  C   UNL     1     -17.320  58.916   3.840  1.00  0.00     0.055 A 
ATOM      5  C   UNL     1     -16.226  58.937   2.979  1.00  0.00     0.119 A 
ATOM      6  C   UNL     1     -16.426  59.152   1.614  1.00  0.00     0.093 A 
ATOM      7  C   UNL     1     -17.712  59.385   1.106  1.00  0.00     0.127 A 
ATOM      8  C   UNL     1     -18.814  59.535   1.995  1.00  0.00     0.035 A 
ATOM      9  C   UNL     1     -20.128  59.931   1.580  1.00  0.00     0.039 A 
ATOM     10  C   UNL     1     -21.224  59.647   2.442  1.00  0.00    -0.014 A 
ATOM     11  C   UNL     1     -22.538  59.873   2.013  1.00  0.00     0.013 A 
ATOM     12  C   UNL     1     -22.782  60.427   0.762  1.00  0.00     0.051 A 
ATOM     13  C   UNL     1     -21.726  60.852  -0.041  1.00  0.00     0.158 A 
ATOM     14  C   UNL     1     -20.393  60.691   0.405  1.00  0.00     0.166 A 
ENDROOT
BRANCH  14  15
ATOM     15  O   UNL     1     -19.354  61.377  -0.230  1.00  0.00    -0.504 OA
ATOM     16  H   UNL     1     -19.460  62.284  -0.662  1.00  0.00     0.293 HD
ENDBRANCH  14  15
BRANCH   5  17
ATOM     17  O   UNL     1     -14.948  58.705   3.483  1.00  0.00    -0.508 OA
ATOM     18  H   UNL     1     -14.608  59.187   4.307  1.00  0.00     0.293 HD
ENDBRANCH   5  17
BRANCH   7  19
ATOM     19  O   UNL     1     -17.891  59.365  -0.277  1.00  0.00    -0.507 OA
ATOM     20  H   UNL     1     -17.187  59.722  -0.913  1.00  0.00     0.293 HD
ENDBRANCH   7  19
BRANCH  13  21
ATOM     21  O   UNL     1     -22.035  61.438  -1.270  1.00  0.00    -0.504 OA
ATOM     22  H   UNL     1     -21.542  62.236  -1.647  1.00  0.00     0.293 HD
ENDBRANCH  13  21
TORSDOF 4
ENDMDL
MODEL 8
REMARK VINA RESULT:    -6.630      1.995      4.993
REMARK INTER + INTRA:          -7.406
REMARK INTER:                  -7.406
REMARK INTRA:                   0.000
REMARK UNBOUND:                 0.000
REMARK SMILES Oc1cc(O)c2c(ccc3ccc(O)c(O)c32)c1
REMARK SMILES IDX 9 1 8 2 7 3 18 4 2 5 3 6 4 7 6 8 17 9 10 10 11 11 12 12
REMARK SMILES IDX 13 13 15 14 16 15 1 17 5 19 14 21
REMARK H PARENT 16 16 1 18 5 20 14 22
REMARK Flexibility Score: inf
ROOT
ATOM      1  C   UNL     1     -18.774  59.129  -1.915  1.00  0.00     0.009 A 
ATOM      2  C   UNL     1     -18.233  59.964  -0.946  1.00  0.00     0.009 A 
ATOM      3  C   UNL     1     -17.012  60.609  -1.168  1.00  0.00    -0.010 A 
ATOM      4  C   UNL     1     -16.451  61.387  -0.144  1.00  0.00     0.055 A 
ATOM      5  C   UNL     1     -15.178  61.932  -0.287  1.00  0.00     0.119 A 
ATOM      6  C   UNL     1     -14.432  61.653  -1.433  1.00  0.00     0.093 A 
ATOM      7  C   UNL     1     -14.964  60.861  -2.459  1.00  0.00     0.127 A 
ATOM      8  C   UNL     1     -16.323  60.438  -2.403  1.00  0.00     0.035 A 
ATOM      9  C   UNL     1     -16.996  59.764  -3.475  1.00  0.00     0.039 A 
ATOM     10  C   UNL     1     -18.176  59.027  -3.176  1.00  0.00    -0.014 A 
ATOM     11  C   UNL     1     -18.778  58.228  -4.156  1.00  0.00     0.013 A 
ATOM     12  C   UNL     1     -18.261  58.189  -5.445  1.00  0.00     0.051 A 
ATOM     13  C   UNL     1     -17.197  59.014  -5.805  1.00  0.00     0.158 A 
ATOM     14  C   UNL     1     -16.617  59.876  -4.843  1.00  0.00     0.166 A 
ENDROOT
BRANCH  14  15
ATOM     15  O   UNL     1     -15.775  60.913  -5.250  1.00  0.00    -0.504 OA
ATOM     16  H   UNL     1     -15.575  61.730  -4.689  1.00  0.00     0.293 HD
ENDBRANCH  14  15
BRANCH   5  17
ATOM     17  O   UNL     1     -14.649  62.720   0.733  1.00  0.00    -0.508 OA
ATOM     18  H   UNL     1     -13.958  62.356   1.380  1.00  0.00     0.293 HD
ENDBRANCH   5  17
BRANCH   7  19
ATOM     19  O   UNL     1     -14.109  60.423  -3.469  1.00  0.00    -0.507 OA
ATOM     20  H   UNL     1     -13.158  60.765  -3.552  1.00  0.00     0.293 HD
ENDBRANCH   7  19
BRANCH  13  21
ATOM     21  O   UNL     1     -16.746  58.960  -7.125  1.00  0.00    -0.504 OA
ATOM     22  H   UNL     1     -17.359  58.847  -7.920  1.00  0.00     0.293 HD
ENDBRANCH  13  21
TORSDOF 4
ENDMDL
MODEL 9
REMARK VINA RESULT:    -6.584      4.801      6.142
REMARK INTER + INTRA:          -7.354
REMARK INTER:                  -7.354
REMARK INTRA:                   0.000
REMARK UNBOUND:                 0.000
REMARK SMILES Oc1cc(O)c2c(ccc3ccc(O)c(O)c32)c1
REMARK SMILES IDX 9 1 8 2 7 3 18 4 2 5 3 6 4 7 6 8 17 9 10 10 11 11 12 12
REMARK SMILES IDX 13 13 15 14 16 15 1 17 5 19 14 21
REMARK H PARENT 16 16 1 18 5 20 14 22
REMARK Flexibility Score: inf
ROOT
ATOM      1  C   UNL     1     -17.679  59.476   2.939  1.00  0.00     0.009 A 
ATOM      2  C   UNL     1     -18.955  59.271   3.447  1.00  0.00     0.009 A 
ATOM      3  C   UNL     1     -20.081  59.534   2.660  1.00  0.00    -0.010 A 
ATOM      4  C   UNL     1     -21.359  59.391   3.222  1.00  0.00     0.055 A 
ATOM      5  C   UNL     1     -22.492  59.770   2.507  1.00  0.00     0.119 A 
ATOM      6  C   UNL     1     -22.350  60.352   1.246  1.00  0.00     0.093 A 
ATOM      7  C   UNL     1     -21.082  60.525   0.675  1.00  0.00     0.127 A 
ATOM      8  C   UNL     1     -19.930  59.989   1.318  1.00  0.00     0.035 A 
ATOM      9  C   UNL     1     -18.621  59.977   0.735  1.00  0.00     0.039 A 
ATOM     10  C   UNL     1     -17.498  59.817   1.595  1.00  0.00    -0.014 A 
ATOM     11  C   UNL     1     -16.197  59.955   1.093  1.00  0.00     0.013 A 
ATOM     12  C   UNL     1     -15.989  60.195  -0.260  1.00  0.00     0.051 A 
ATOM     13  C   UNL     1     -17.062  60.207  -1.149  1.00  0.00     0.158 A 
ATOM     14  C   UNL     1     -18.378  60.005  -0.668  1.00  0.00     0.166 A 
ENDROOT
BRANCH  14  15
ATOM     15  O   UNL     1     -19.412  59.710  -1.560  1.00  0.00    -0.504 OA
ATOM     16  H   UNL     1     -19.278  59.578  -2.553  1.00  0.00     0.293 HD
ENDBRANCH  14  15
BRANCH   5  17
ATOM     17  O   UNL     1     -23.752  59.599   3.074  1.00  0.00    -0.508 OA
ATOM     18  H   UNL     1     -24.577  60.033   2.675  1.00  0.00     0.293 HD
ENDBRANCH   5  17
BRANCH   7  19
ATOM     19  O   UNL     1     -20.973  61.311  -0.471  1.00  0.00    -0.507 OA
ATOM     20  H   UNL     1     -21.283  60.981  -1.378  1.00  0.00     0.293 HD
ENDBRANCH   7  19
BRANCH  13  21
ATOM     21  O   UNL     1     -16.787  60.413  -2.502  1.00  0.00    -0.504 OA
ATOM     22  H   UNL     1     -17.248  61.115  -3.065  1.00  0.00     0.293 HD
ENDBRANCH  13  21
TORSDOF 4
ENDMDL
