MODEL 1
REMARK VINA RESULT:    -3.929      0.000      0.000
REMARK INTER + INTRA:          -4.774
REMARK INTER:                  -4.503
REMARK INTRA:                  -0.271
REMARK UNBOUND:                -0.271
REMARK SMILES COC(=O)c1ccccc1O
REMARK SMILES IDX 5 1 6 2 7 3 8 4 9 5 10 6 3 7 4 8 2 9 1 10 11 11
REMARK H PARENT 11 12
REMARK Flexibility Score: inf
ROOT
ATOM      1  C   UNL     1      28.625  29.127  25.190  1.00  0.00     0.101 A 
ATOM      2  C   UNL     1      28.497  29.213  23.791  1.00  0.00     0.019 A 
ATOM      3  C   UNL     1      28.689  30.429  23.132  1.00  0.00     0.001 A 
ATOM      4  C   UNL     1      29.013  31.574  23.858  1.00  0.00     0.004 A 
ATOM      5  C   UNL     1      29.125  31.512  25.247  1.00  0.00     0.047 A 
ATOM      6  C   UNL     1      28.914  30.304  25.926  1.00  0.00     0.130 A 
ENDROOT
BRANCH   1   7
ATOM      7  C   UNL     1      28.494  27.803  25.834  1.00  0.00     0.341 C 
ATOM      8  O   UNL     1      29.125  27.561  26.900  1.00  0.00    -0.246 OA
BRANCH   7   9
ATOM      9  O   UNL     1      27.630  26.842  25.298  1.00  0.00    -0.465 OA
ATOM     10  C   UNL     1      27.604  25.494  25.751  1.00  0.00     0.282 C 
ENDBRANCH   7   9
ENDBRANCH   1   7
BRANCH   6  11
ATOM     11  O   UNL     1      28.962  30.325  27.322  1.00  0.00    -0.507 OA
ATOM     12  H   UNL     1      28.385  30.932  27.888  1.00  0.00     0.293 HD
ENDBRANCH   6  11
TORSDOF 3
ENDMDL
MODEL 2
REMARK VINA RESULT:    -3.926      2.355      4.687
REMARK INTER + INTRA:          -4.771
REMARK INTER:                  -4.507
REMARK INTRA:                  -0.265
REMARK UNBOUND:                -0.271
REMARK SMILES COC(=O)c1ccccc1O
REMARK SMILES IDX 5 1 6 2 7 3 8 4 9 5 10 6 3 7 4 8 2 9 1 10 11 11
REMARK H PARENT 11 12
REMARK Flexibility Score: inf
ROOT
ATOM      1  C   UNL     1      28.457  30.322  24.925  1.00  0.00     0.101 A 
ATOM      2  C   UNL     1      29.125  30.357  26.163  1.00  0.00     0.019 A 
ATOM      3  C   UNL     1      28.908  29.360  27.117  1.00  0.00     0.001 A 
ATOM      4  C   UNL     1      28.024  28.316  26.850  1.00  0.00     0.004 A 
ATOM      5  C   UNL     1      27.338  28.276  25.636  1.00  0.00     0.047 A 
ATOM      6  C   UNL     1      27.527  29.280  24.676  1.00  0.00     0.130 A 
ENDROOT
BRANCH   1   7
ATOM      7  C   UNL     1      28.780  31.352  23.915  1.00  0.00     0.341 C 
ATOM      8  O   UNL     1      29.125  31.002  22.753  1.00  0.00    -0.246 OA
BRANCH   7   9
ATOM      9  O   UNL     1      28.649  32.709  24.228  1.00  0.00    -0.465 OA
ATOM     10  C   UNL     1      28.386  33.702  23.244  1.00  0.00     0.282 C 
ENDBRANCH   7   9
ENDBRANCH   1   7
BRANCH   6  11
ATOM     11  O   UNL     1      26.751  29.226  23.516  1.00  0.00    -0.507 OA
ATOM     12  H   UNL     1      27.112  28.927  22.621  1.00  0.00     0.293 HD
ENDBRANCH   6  11
TORSDOF 3
ENDMDL
MODEL 3
REMARK VINA RESULT:    -3.812      1.898      3.032
REMARK INTER + INTRA:          -4.640
REMARK INTER:                  -4.364
REMARK INTRA:                  -0.275
REMARK UNBOUND:                -0.271
REMARK SMILES COC(=O)c1ccccc1O
REMARK SMILES IDX 5 1 6 2 7 3 8 4 9 5 10 6 3 7 4 8 2 9 1 10 11 11
REMARK H PARENT 11 12
REMARK Flexibility Score: inf
ROOT
ATOM      1  C   UNL     1      29.023  31.271  24.530  1.00  0.00     0.101 A 
ATOM      2  C   UNL     1      29.070  32.583  25.036  1.00  0.00     0.019 A 
ATOM      3  C   UNL     1      29.113  33.679  24.170  1.00  0.00     0.001 A 
ATOM      4  C   UNL     1      29.110  33.480  22.790  1.00  0.00     0.004 A 
ATOM      5  C   UNL     1      29.084  32.185  22.271  1.00  0.00     0.047 A 
ATOM      6  C   UNL     1      29.062  31.074  23.126  1.00  0.00     0.130 A 
ENDROOT
BRANCH   1   7
ATOM      7  C   UNL     1      28.894  30.148  25.483  1.00  0.00     0.341 C 
ATOM      8  O   UNL     1      29.109  30.342  26.711  1.00  0.00    -0.246 OA
BRANCH   7   9
ATOM      9  O   UNL     1      28.479  28.889  25.035  1.00  0.00    -0.465 OA
ATOM     10  C   UNL     1      27.553  28.085  25.754  1.00  0.00     0.282 C 
ENDBRANCH   7   9
ENDBRANCH   1   7
BRANCH   6  11
ATOM     11  O   UNL     1      29.118  29.806  22.545  1.00  0.00    -0.507 OA
ATOM     12  H   UNL     1      28.400  29.105  22.671  1.00  0.00     0.293 HD
ENDBRANCH   6  11
TORSDOF 3
ENDMDL
MODEL 4
REMARK VINA RESULT:    -3.491      3.647      6.654
REMARK INTER + INTRA:          -4.273
REMARK INTER:                  -3.925
REMARK INTRA:                  -0.347
REMARK UNBOUND:                -0.271
REMARK SMILES COC(=O)c1ccccc1O
REMARK SMILES IDX 5 1 6 2 7 3 8 4 9 5 10 6 3 7 4 8 2 9 1 10 11 11
REMARK H PARENT 11 12
REMARK Flexibility Score: inf
ROOT
ATOM      1  C   UNL     1      26.594  23.707  25.491  1.00  0.00     0.101 A 
ATOM      2  C   UNL     1      25.931  23.330  24.308  1.00  0.00     0.019 A 
ATOM      3  C   UNL     1      24.597  22.917  24.341  1.00  0.00     0.001 A 
ATOM      4  C   UNL     1      23.908  22.875  25.552  1.00  0.00     0.004 A 
ATOM      5  C   UNL     1      24.556  23.226  26.737  1.00  0.00     0.047 A 
ATOM      6  C   UNL     1      25.900  23.622  26.724  1.00  0.00     0.130 A 
ENDROOT
BRANCH   1   7
ATOM      7  C   UNL     1      27.979  24.216  25.395  1.00  0.00     0.341 C 
ATOM      8  O   UNL     1      28.802  23.649  24.625  1.00  0.00    -0.246 OA
BRANCH   7   9
ATOM      9  O   UNL     1      28.360  25.356  26.111  1.00  0.00    -0.465 OA
ATOM     10  C   UNL     1      27.941  26.666  25.748  1.00  0.00     0.282 C 
ENDBRANCH   7   9
ENDBRANCH   1   7
BRANCH   6  11
ATOM     11  O   UNL     1      26.513  23.883  27.952  1.00  0.00    -0.507 OA
ATOM     12  H   UNL     1      26.991  24.749  28.161  1.00  0.00     0.293 HD
ENDBRANCH   6  11
TORSDOF 3
ENDMDL
MODEL 5
REMARK VINA RESULT:    -3.400      3.310      6.765
REMARK INTER + INTRA:          -4.168
REMARK INTER:                  -3.862
REMARK INTRA:                  -0.306
REMARK UNBOUND:                -0.271
REMARK SMILES COC(=O)c1ccccc1O
REMARK SMILES IDX 5 1 6 2 7 3 8 4 9 5 10 6 3 7 4 8 2 9 1 10 11 11
REMARK H PARENT 11 12
REMARK Flexibility Score: inf
ROOT
ATOM      1  C   UNL     1      26.802  24.046  25.653  1.00  0.00     0.101 A 
ATOM      2  C   UNL     1      26.201  24.057  26.925  1.00  0.00     0.019 A 
ATOM      3  C   UNL     1      24.946  23.476  27.124  1.00  0.00     0.001 A 
ATOM      4  C   UNL     1      24.275  22.878  26.058  1.00  0.00     0.004 A 
ATOM      5  C   UNL     1      24.848  22.875  24.786  1.00  0.00     0.047 A 
ATOM      6  C   UNL     1      26.096  23.472  24.564  1.00  0.00     0.130 A 
ENDROOT
BRANCH   1   7
ATOM      7  C   UNL     1      28.166  24.598  25.508  1.00  0.00     0.341 C 
ATOM      8  O   UNL     1      29.001  24.014  24.764  1.00  0.00    -0.246 OA
BRANCH   7   9
ATOM      9  O   UNL     1      28.511  25.794  26.146  1.00  0.00    -0.465 OA
ATOM     10  C   UNL     1      28.011  27.058  25.730  1.00  0.00     0.282 C 
ENDBRANCH   7   9
ENDBRANCH   1   7
BRANCH   6  11
ATOM     11  O   UNL     1      26.577  23.507  23.254  1.00  0.00    -0.507 OA
ATOM     12  H   UNL     1      26.004  23.752  22.458  1.00  0.00     0.293 HD
ENDBRANCH   6  11
TORSDOF 3
ENDMDL
MODEL 6
REMARK VINA RESULT:    -3.373      2.013      4.101
REMARK INTER + INTRA:          -4.137
REMARK INTER:                  -3.911
REMARK INTRA:                  -0.227
REMARK UNBOUND:                -0.271
REMARK SMILES COC(=O)c1ccccc1O
REMARK SMILES IDX 5 1 6 2 7 3 8 4 9 5 10 6 3 7 4 8 2 9 1 10 11 11
REMARK H PARENT 11 12
REMARK Flexibility Score: inf
ROOT
ATOM      1  C   UNL     1      29.073  29.396  24.993  1.00  0.00     0.101 A 
ATOM      2  C   UNL     1      29.123  28.093  24.466  1.00  0.00     0.019 A 
ATOM      3  C   UNL     1      29.124  26.982  25.313  1.00  0.00     0.001 A 
ATOM      4  C   UNL     1      29.074  27.156  26.695  1.00  0.00     0.004 A 
ATOM      5  C   UNL     1      29.044  28.443  27.236  1.00  0.00     0.047 A 
ATOM      6  C   UNL     1      29.065  29.568  26.401  1.00  0.00     0.130 A 
ENDROOT
BRANCH   1   7
ATOM      7  C   UNL     1      28.990  30.537  24.057  1.00  0.00     0.341 C 
ATOM      8  O   UNL     1      28.974  30.325  22.813  1.00  0.00    -0.246 OA
BRANCH   7   9
ATOM      9  O   UNL     1      28.872  31.842  24.546  1.00  0.00    -0.465 OA
ATOM     10  C   UNL     1      28.702  32.969  23.695  1.00  0.00     0.282 C 
ENDBRANCH   7   9
ENDBRANCH   1   7
BRANCH   6  11
ATOM     11  O   UNL     1      29.114  30.826  27.006  1.00  0.00    -0.507 OA
ATOM     12  H   UNL     1      28.291  31.326  27.315  1.00  0.00     0.293 HD
ENDBRANCH   6  11
TORSDOF 3
ENDMDL
MODEL 7
REMARK VINA RESULT:    -3.167      3.713      4.843
REMARK INTER + INTRA:          -3.901
REMARK INTER:                  -3.593
REMARK INTRA:                  -0.308
REMARK UNBOUND:                -0.271
REMARK SMILES COC(=O)c1ccccc1O
REMARK SMILES IDX 5 1 6 2 7 3 8 4 9 5 10 6 3 7 4 8 2 9 1 10 11 11
REMARK H PARENT 11 12
REMARK Flexibility Score: inf
ROOT
ATOM      1  C   UNL     1      26.908  25.226  26.132  1.00  0.00     0.101 A 
ATOM      2  C   UNL     1      26.509  26.575  26.125  1.00  0.00     0.019 A 
ATOM      3  C   UNL     1      27.404  27.580  25.750  1.00  0.00     0.001 A 
ATOM      4  C   UNL     1      28.706  27.254  25.377  1.00  0.00     0.004 A 
ATOM      5  C   UNL     1      29.125  25.922  25.396  1.00  0.00     0.047 A 
ATOM      6  C   UNL     1      28.247  24.904  25.790  1.00  0.00     0.130 A 
ENDROOT
BRANCH   1   7
ATOM      7  C   UNL     1      25.903  24.191  26.455  1.00  0.00     0.341 C 
ATOM      8  O   UNL     1      25.126  24.359  27.435  1.00  0.00    -0.246 OA
BRANCH   7   9
ATOM      9  O   UNL     1      25.775  23.057  25.646  1.00  0.00    -0.465 OA
ATOM     10  C   UNL     1      25.545  23.136  24.245  1.00  0.00     0.282 C 
ENDBRANCH   7   9
ENDBRANCH   1   7
BRANCH   6  11
ATOM     11  O   UNL     1      28.750  23.604  25.865  1.00  0.00    -0.507 OA
ATOM     12  H   UNL     1      28.287  22.804  25.455  1.00  0.00     0.293 HD
ENDBRANCH   6  11
TORSDOF 3
ENDMDL
MODEL 8
REMARK VINA RESULT:    -3.124      4.119      5.715
REMARK INTER + INTRA:          -3.851
REMARK INTER:                  -3.526
REMARK INTRA:                  -0.325
REMARK UNBOUND:                -0.271
REMARK SMILES COC(=O)c1ccccc1O
REMARK SMILES IDX 5 1 6 2 7 3 8 4 9 5 10 6 3 7 4 8 2 9 1 10 11 11
REMARK H PARENT 11 12
REMARK Flexibility Score: inf
ROOT
ATOM      1  C   UNL     1      26.563  24.090  25.883  1.00  0.00     0.101 A 
ATOM      2  C   UNL     1      27.452  23.291  25.140  1.00  0.00     0.019 A 
ATOM      3  C   UNL     1      28.684  23.797  24.721  1.00  0.00     0.001 A 
ATOM      4  C   UNL     1      29.046  25.106  25.036  1.00  0.00     0.004 A 
ATOM      5  C   UNL     1      28.169  25.919  25.755  1.00  0.00     0.047 A 
ATOM      6  C   UNL     1      26.919  25.433  26.165  1.00  0.00     0.130 A 
ENDROOT
BRANCH   1   7
ATOM      7  C   UNL     1      25.308  23.484  26.375  1.00  0.00     0.341 C 
ATOM      8  O   UNL     1      24.550  22.875  25.571  1.00  0.00    -0.246 OA
BRANCH   7   9
ATOM      9  O   UNL     1      24.989  23.534  27.736  1.00  0.00    -0.465 OA
ATOM     10  C   UNL     1      25.793  22.920  28.736  1.00  0.00     0.282 C 
ENDBRANCH   7   9
ENDBRANCH   1   7
BRANCH   6  11
ATOM     11  O   UNL     1      26.056  26.321  26.810  1.00  0.00    -0.507 OA
ATOM     12  H   UNL     1      25.486  26.063  27.604  1.00  0.00     0.293 HD
ENDBRANCH   6  11
TORSDOF 3
ENDMDL
MODEL 9
REMARK VINA RESULT:    -2.587      2.037      5.132
REMARK INTER + INTRA:          -3.236
REMARK INTER:                  -2.965
REMARK INTRA:                  -0.271
REMARK UNBOUND:                -0.271
REMARK SMILES COC(=O)c1ccccc1O
REMARK SMILES IDX 5 1 6 2 7 3 8 4 9 5 10 6 3 7 4 8 2 9 1 10 11 11
REMARK H PARENT 11 12
REMARK Flexibility Score: inf
ROOT
ATOM      1  C   UNL     1      28.009  25.909  25.762  1.00  0.00     0.101 A 
ATOM      2  C   UNL     1      29.073  25.317  25.057  1.00  0.00     0.019 A 
ATOM      3  C   UNL     1      28.990  23.991  24.624  1.00  0.00     0.001 A 
ATOM      4  C   UNL     1      27.846  23.240  24.888  1.00  0.00     0.004 A 
ATOM      5  C   UNL     1      26.789  23.805  25.603  1.00  0.00     0.047 A 
ATOM      6  C   UNL     1      26.865  25.126  26.063  1.00  0.00     0.130 A 
ENDROOT
BRANCH   1   7
ATOM      7  C   UNL     1      28.109  27.338  26.127  1.00  0.00     0.341 C 
ATOM      8  O   UNL     1      29.125  27.756  26.748  1.00  0.00    -0.246 OA
BRANCH   7   9
ATOM      9  O   UNL     1      27.109  28.235  25.736  1.00  0.00    -0.465 OA
ATOM     10  C   UNL     1      27.262  29.123  24.635  1.00  0.00     0.282 C 
ENDBRANCH   7   9
ENDBRANCH   1   7
BRANCH   6  11
ATOM     11  O   UNL     1      25.810  25.606  26.841  1.00  0.00    -0.507 OA
ATOM     12  H   UNL     1      25.511  26.572  26.837  1.00  0.00     0.293 HD
ENDBRANCH   6  11
TORSDOF 3
ENDMDL
