MODEL 1
REMARK VINA RESULT:    -4.137      0.000      0.000
REMARK INTER + INTRA:          -7.235
REMARK INTER:                  -6.313
REMARK INTRA:                  -0.922
REMARK UNBOUND:                -0.922
REMARK SMILES O=C([O-])CCCCCCCCC(=O)[O-]
REMARK SMILES IDX 7 1 6 2 5 3 4 4 2 5 1 6 3 7 8 8 9 9 10 10 11 11 12 12 13 13
REMARK SMILES IDX 14 14
REMARK H PARENT
REMARK Flexibility Score: inf
ROOT
ATOM      1  C   UNL     1      19.064  31.854  44.206  1.00  0.00     0.000 C 
ENDROOT
BRANCH   1   2
ATOM      2  C   UNL     1      18.648  30.399  43.931  1.00  0.00     0.000 C 
BRANCH   2   3
ATOM      3  C   UNL     1      18.645  29.536  45.204  1.00  0.00     0.006 C 
BRANCH   3   4
ATOM      4  C   UNL     1      18.117  30.291  46.431  1.00  0.00     0.053 C 
BRANCH   4   5
ATOM      5  C   UNL     1      18.940  29.967  47.637  1.00  0.00     0.041 C 
ATOM      6  O   UNL     1      18.676  30.501  48.746  1.00  0.00    -0.550 OA
ATOM      7  O   UNL     1      20.029  29.112  47.527  1.00  0.00    -0.550 OA
ENDBRANCH   4   5
ENDBRANCH   3   4
ENDBRANCH   2   3
ENDBRANCH   1   2
BRANCH   1   8
ATOM      8  C   UNL     1      20.548  32.112  43.896  1.00  0.00     0.000 C 
BRANCH   8   9
ATOM      9  C   UNL     1      21.163  33.196  44.795  1.00  0.00     0.000 C 
BRANCH   9  10
ATOM     10  C   UNL     1      21.092  32.789  46.272  1.00  0.00     0.006 C 
BRANCH  10  11
ATOM     11  C   UNL     1      20.734  33.988  47.156  1.00  0.00     0.053 C 
BRANCH  11  12
ATOM     12  C   UNL     1      19.286  34.334  47.008  1.00  0.00     0.041 C 
ATOM     13  O   UNL     1      18.403  33.593  47.515  1.00  0.00    -0.550 OA
ATOM     14  O   UNL     1      18.914  35.499  46.353  1.00  0.00    -0.550 OA
ENDBRANCH  11  12
ENDBRANCH  10  11
ENDBRANCH   9  10
ENDBRANCH   8   9
ENDBRANCH   1   8
TORSDOF 9
ENDMDL
MODEL 2
REMARK VINA RESULT:    -4.025      1.192      4.179
REMARK INTER + INTRA:          -7.065
REMARK INTER:                  -6.194
REMARK INTRA:                  -0.871
REMARK UNBOUND:                -0.922
REMARK SMILES O=C([O-])CCCCCCCCC(=O)[O-]
REMARK SMILES IDX 7 1 6 2 5 3 4 4 2 5 1 6 3 7 8 8 9 9 10 10 11 11 12 12 13 13
REMARK SMILES IDX 14 14
REMARK H PARENT
REMARK Flexibility Score: inf
ROOT
ATOM      1  C   UNL     1      20.176  32.300  44.002  1.00  0.00     0.000 C 
ENDROOT
BRANCH   1   2
ATOM      2  C   UNL     1      20.382  33.654  44.701  1.00  0.00     0.000 C 
BRANCH   2   3
ATOM      3  C   UNL     1      19.111  34.153  45.407  1.00  0.00     0.006 C 
BRANCH   3   4
ATOM      4  C   UNL     1      19.411  35.142  46.541  1.00  0.00     0.053 C 
BRANCH   4   5
ATOM      5  C   UNL     1      19.832  34.408  47.775  1.00  0.00     0.041 C 
ATOM      6  O   UNL     1      21.031  34.449  48.158  1.00  0.00    -0.550 OA
ATOM      7  O   UNL     1      18.912  33.640  48.475  1.00  0.00    -0.550 OA
ENDBRANCH   4   5
ENDBRANCH   3   4
ENDBRANCH   2   3
ENDBRANCH   1   2
BRANCH   1   8
ATOM      8  C   UNL     1      18.746  31.761  44.169  1.00  0.00     0.000 C 
BRANCH   8   9
ATOM      9  C   UNL     1      18.639  30.257  43.875  1.00  0.00     0.000 C 
BRANCH   9  10
ATOM     10  C   UNL     1      18.580  29.447  45.175  1.00  0.00     0.006 C 
BRANCH  10  11
ATOM     11  C   UNL     1      18.243  30.346  46.369  1.00  0.00     0.053 C 
BRANCH  11  12
ATOM     12  C   UNL     1      19.304  30.242  47.419  1.00  0.00     0.041 C 
ATOM     13  O   UNL     1      19.125  29.511  48.429  1.00  0.00    -0.550 OA
ATOM     14  O   UNL     1      20.508  30.913  47.258  1.00  0.00    -0.550 OA
ENDBRANCH  11  12
ENDBRANCH  10  11
ENDBRANCH   9  10
ENDBRANCH   8   9
ENDBRANCH   1   8
TORSDOF 9
ENDMDL
MODEL 3
REMARK VINA RESULT:    -4.018      1.207      4.310
REMARK INTER + INTRA:          -7.054
REMARK INTER:                  -6.135
REMARK INTRA:                  -0.919
REMARK UNBOUND:                -0.922
REMARK SMILES O=C([O-])CCCCCCCCC(=O)[O-]
REMARK SMILES IDX 7 1 6 2 5 3 4 4 2 5 1 6 3 7 8 8 9 9 10 10 11 11 12 12 13 13
REMARK SMILES IDX 14 14
REMARK H PARENT
REMARK Flexibility Score: inf
ROOT
ATOM      1  C   UNL     1      19.257  31.916  43.912  1.00  0.00     0.000 C 
ENDROOT
BRANCH   1   2
ATOM      2  C   UNL     1      20.780  32.130  43.916  1.00  0.00     0.000 C 
BRANCH   2   3
ATOM      3  C   UNL     1      21.188  33.455  44.581  1.00  0.00     0.006 C 
BRANCH   3   4
ATOM      4  C   UNL     1      20.021  34.444  44.695  1.00  0.00     0.053 C 
BRANCH   4   5
ATOM      5  C   UNL     1      19.772  34.795  46.128  1.00  0.00     0.041 C 
ATOM      6  O   UNL     1      18.812  35.547  46.438  1.00  0.00    -0.550 OA
ATOM      7  O   UNL     1      20.630  34.330  47.117  1.00  0.00    -0.550 OA
ENDBRANCH   4   5
ENDBRANCH   3   4
ENDBRANCH   2   3
ENDBRANCH   1   2
BRANCH   1   8
ATOM      8  C   UNL     1      18.869  30.434  44.044  1.00  0.00     0.000 C 
BRANCH   8   9
ATOM      9  C   UNL     1      18.333  30.083  45.440  1.00  0.00     0.000 C 
BRANCH   9  10
ATOM     10  C   UNL     1      18.144  31.346  46.289  1.00  0.00     0.006 C 
BRANCH  10  11
ATOM     11  C   UNL     1      18.695  31.145  47.704  1.00  0.00     0.053 C 
BRANCH  11  12
ATOM     12  C   UNL     1      20.020  30.452  47.657  1.00  0.00     0.041 C 
ATOM     13  O   UNL     1      21.058  31.092  47.340  1.00  0.00    -0.550 OA
ATOM     14  O   UNL     1      20.117  29.113  48.009  1.00  0.00    -0.550 OA
ENDBRANCH  11  12
ENDBRANCH  10  11
ENDBRANCH   9  10
ENDBRANCH   8   9
ENDBRANCH   1   8
TORSDOF 9
ENDMDL
MODEL 4
REMARK VINA RESULT:    -3.996      2.198      3.414
REMARK INTER + INTRA:          -7.021
REMARK INTER:                  -5.975
REMARK INTRA:                  -1.046
REMARK UNBOUND:                -0.922
REMARK SMILES O=C([O-])CCCCCCCCC(=O)[O-]
REMARK SMILES IDX 7 1 6 2 5 3 4 4 2 5 1 6 3 7 8 8 9 9 10 10 11 11 12 12 13 13
REMARK SMILES IDX 14 14
REMARK H PARENT
REMARK Flexibility Score: inf
ROOT
ATOM      1  C   UNL     1      19.920  34.705  45.072  1.00  0.00     0.000 C 
ENDROOT
BRANCH   1   2
ATOM      2  C   UNL     1      19.697  33.599  44.026  1.00  0.00     0.000 C 
BRANCH   2   3
ATOM      3  C   UNL     1      18.805  32.463  44.551  1.00  0.00     0.006 C 
BRANCH   3   4
ATOM      4  C   UNL     1      19.307  31.074  44.134  1.00  0.00     0.053 C 
BRANCH   4   5
ATOM      5  C   UNL     1      18.575  30.008  44.885  1.00  0.00     0.041 C 
ATOM      6  O   UNL     1      18.391  30.120  46.126  1.00  0.00    -0.550 OA
ATOM      7  O   UNL     1      18.138  28.867  44.225  1.00  0.00    -0.550 OA
ENDBRANCH   4   5
ENDBRANCH   3   4
ENDBRANCH   2   3
ENDBRANCH   1   2
BRANCH   1   8
ATOM      8  C   UNL     1      18.934  34.611  46.248  1.00  0.00     0.000 C 
BRANCH   8   9
ATOM      9  C   UNL     1      19.556  35.054  47.581  1.00  0.00     0.000 C 
BRANCH   9  10
ATOM     10  C   UNL     1      20.698  34.116  47.991  1.00  0.00     0.006 C 
BRANCH  10  11
ATOM     11  C   UNL     1      20.224  32.660  48.039  1.00  0.00     0.053 C 
BRANCH  11  12
ATOM     12  C   UNL     1      21.254  31.755  47.440  1.00  0.00     0.041 C 
ATOM     13  O   UNL     1      21.915  32.126  46.434  1.00  0.00    -0.550 OA
ATOM     14  O   UNL     1      21.517  30.522  48.021  1.00  0.00    -0.550 OA
ENDBRANCH  11  12
ENDBRANCH  10  11
ENDBRANCH   9  10
ENDBRANCH   8   9
ENDBRANCH   1   8
TORSDOF 9
ENDMDL
MODEL 5
REMARK VINA RESULT:    -3.981      1.575      4.192
REMARK INTER + INTRA:          -6.998
REMARK INTER:                  -6.220
REMARK INTRA:                  -0.778
REMARK UNBOUND:                -0.922
REMARK SMILES O=C([O-])CCCCCCCCC(=O)[O-]
REMARK SMILES IDX 7 1 6 2 5 3 4 4 2 5 1 6 3 7 8 8 9 9 10 10 11 11 12 12 13 13
REMARK SMILES IDX 14 14
REMARK H PARENT
REMARK Flexibility Score: inf
ROOT
ATOM      1  C   UNL     1      20.611  34.340  45.245  1.00  0.00     0.000 C 
ENDROOT
BRANCH   1   2
ATOM      2  C   UNL     1      19.319  34.980  45.782  1.00  0.00     0.000 C 
BRANCH   2   3
ATOM      3  C   UNL     1      19.314  35.100  47.315  1.00  0.00     0.006 C 
BRANCH   3   4
ATOM      4  C   UNL     1      20.184  34.036  47.996  1.00  0.00     0.053 C 
BRANCH   4   5
ATOM      5  C   UNL     1      19.349  33.168  48.883  1.00  0.00     0.041 C 
ATOM      6  O   UNL     1      18.192  32.825  48.524  1.00  0.00    -0.550 OA
ATOM      7  O   UNL     1      19.828  32.778  50.126  1.00  0.00    -0.550 OA
ENDBRANCH   4   5
ENDBRANCH   3   4
ENDBRANCH   2   3
ENDBRANCH   1   2
BRANCH   1   8
ATOM      8  C   UNL     1      20.413  33.671  43.875  1.00  0.00     0.000 C 
BRANCH   8   9
ATOM      9  C   UNL     1      20.494  32.138  43.946  1.00  0.00     0.000 C 
BRANCH   9  10
ATOM     10  C   UNL     1      19.094  31.514  43.933  1.00  0.00     0.006 C 
BRANCH  10  11
ATOM     11  C   UNL     1      18.577  31.291  45.358  1.00  0.00     0.053 C 
BRANCH  11  12
ATOM     12  C   UNL     1      18.742  29.858  45.757  1.00  0.00     0.041 C 
ATOM     13  O   UNL     1      18.333  28.939  44.999  1.00  0.00    -0.550 OA
ATOM     14  O   UNL     1      19.391  29.538  46.941  1.00  0.00    -0.550 OA
ENDBRANCH  11  12
ENDBRANCH  10  11
ENDBRANCH   9  10
ENDBRANCH   8   9
ENDBRANCH   1   8
TORSDOF 9
ENDMDL
MODEL 6
REMARK VINA RESULT:    -3.931      1.351      1.842
REMARK INTER + INTRA:          -6.922
REMARK INTER:                  -5.946
REMARK INTRA:                  -0.976
REMARK UNBOUND:                -0.922
REMARK SMILES O=C([O-])CCCCCCCCC(=O)[O-]
REMARK SMILES IDX 7 1 6 2 5 3 4 4 2 5 1 6 3 7 8 8 9 9 10 10 11 11 12 12 13 13
REMARK SMILES IDX 14 14
REMARK H PARENT
REMARK Flexibility Score: inf
ROOT
ATOM      1  C   UNL     1      20.216  32.196  44.609  1.00  0.00     0.000 C 
ENDROOT
BRANCH   1   2
ATOM      2  C   UNL     1      19.415  31.105  43.877  1.00  0.00     0.000 C 
BRANCH   2   3
ATOM      3  C   UNL     1      18.642  30.193  44.843  1.00  0.00     0.006 C 
BRANCH   3   4
ATOM      4  C   UNL     1      18.369  30.860  46.198  1.00  0.00     0.053 C 
BRANCH   4   5
ATOM      5  C   UNL     1      18.928  30.029  47.309  1.00  0.00     0.041 C 
ATOM      6  O   UNL     1      19.868  29.222  47.086  1.00  0.00    -0.550 OA
ATOM      7  O   UNL     1      18.379  30.111  48.582  1.00  0.00    -0.550 OA
ENDBRANCH   4   5
ENDBRANCH   3   4
ENDBRANCH   2   3
ENDBRANCH   1   2
BRANCH   1   8
ATOM      8  C   UNL     1      20.164  33.552  43.886  1.00  0.00     0.000 C 
BRANCH   8   9
ATOM      9  C   UNL     1      20.135  34.742  44.857  1.00  0.00     0.000 C 
BRANCH   9  10
ATOM     10  C   UNL     1      19.088  34.528  45.956  1.00  0.00     0.006 C 
BRANCH  10  11
ATOM     11  C   UNL     1      19.655  34.886  47.333  1.00  0.00     0.053 C 
BRANCH  11  12
ATOM     12  C   UNL     1      19.711  33.673  48.208  1.00  0.00     0.041 C 
ATOM     13  O   UNL     1      18.715  33.351  48.908  1.00  0.00    -0.550 OA
ATOM     14  O   UNL     1      20.845  32.872  48.213  1.00  0.00    -0.550 OA
ENDBRANCH  11  12
ENDBRANCH  10  11
ENDBRANCH   9  10
ENDBRANCH   8   9
ENDBRANCH   1   8
TORSDOF 9
ENDMDL
MODEL 7
REMARK VINA RESULT:    -3.896      2.297      3.481
REMARK INTER + INTRA:          -6.869
REMARK INTER:                  -5.939
REMARK INTRA:                  -0.930
REMARK UNBOUND:                -0.922
REMARK SMILES O=C([O-])CCCCCCCCC(=O)[O-]
REMARK SMILES IDX 7 1 6 2 5 3 4 4 2 5 1 6 3 7 8 8 9 9 10 10 11 11 12 12 13 13
REMARK SMILES IDX 14 14
REMARK H PARENT
REMARK Flexibility Score: inf
ROOT
ATOM      1  C   UNL     1      19.101  29.976  46.302  1.00  0.00     0.000 C 
ENDROOT
BRANCH   1   2
ATOM      2  C   UNL     1      18.588  29.511  44.928  1.00  0.00     0.000 C 
BRANCH   2   3
ATOM      3  C   UNL     1      18.625  30.630  43.875  1.00  0.00     0.006 C 
BRANCH   3   4
ATOM      4  C   UNL     1      19.810  31.586  44.068  1.00  0.00     0.053 C 
BRANCH   4   5
ATOM      5  C   UNL     1      19.323  32.984  44.279  1.00  0.00     0.041 C 
ATOM      6  O   UNL     1      18.126  33.195  44.607  1.00  0.00    -0.550 OA
ATOM      7  O   UNL     1      20.177  34.058  44.066  1.00  0.00    -0.550 OA
ENDBRANCH   4   5
ENDBRANCH   3   4
ENDBRANCH   2   3
ENDBRANCH   1   2
BRANCH   1   8
ATOM      8  C   UNL     1      17.970  30.476  47.216  1.00  0.00     0.000 C 
BRANCH   8   9
ATOM      9  C   UNL     1      18.492  31.118  48.510  1.00  0.00     0.000 C 
BRANCH   9  10
ATOM     10  C   UNL     1      19.416  32.302  48.200  1.00  0.00     0.006 C 
BRANCH  10  11
ATOM     11  C   UNL     1      18.611  33.589  47.994  1.00  0.00     0.053 C 
BRANCH  11  12
ATOM     12  C   UNL     1      19.506  34.699  47.542  1.00  0.00     0.041 C 
ATOM     13  O   UNL     1      20.747  34.638  47.751  1.00  0.00    -0.550 OA
ATOM     14  O   UNL     1      18.978  35.779  46.847  1.00  0.00    -0.550 OA
ENDBRANCH  11  12
ENDBRANCH  10  11
ENDBRANCH   9  10
ENDBRANCH   8   9
ENDBRANCH   1   8
TORSDOF 9
ENDMDL
MODEL 8
REMARK VINA RESULT:    -3.880      2.113      4.521
REMARK INTER + INTRA:          -6.843
REMARK INTER:                  -5.757
REMARK INTRA:                  -1.086
REMARK UNBOUND:                -0.922
REMARK SMILES O=C([O-])CCCCCCCCC(=O)[O-]
REMARK SMILES IDX 7 1 6 2 5 3 4 4 2 5 1 6 3 7 8 8 9 9 10 10 11 11 12 12 13 13
REMARK SMILES IDX 14 14
REMARK H PARENT
REMARK Flexibility Score: inf
ROOT
ATOM      1  C   UNL     1      19.500  34.782  47.861  1.00  0.00     0.000 C 
ENDROOT
BRANCH   1   2
ATOM      2  C   UNL     1      19.028  35.308  46.495  1.00  0.00     0.000 C 
BRANCH   2   3
ATOM      3  C   UNL     1      19.570  34.475  45.323  1.00  0.00     0.006 C 
BRANCH   3   4
ATOM      4  C   UNL     1      18.595  33.380  44.873  1.00  0.00     0.053 C 
BRANCH   4   5
ATOM      5  C   UNL     1      19.344  32.149  44.468  1.00  0.00     0.041 C 
ATOM      6  O   UNL     1      20.596  32.100  44.593  1.00  0.00    -0.550 OA
ATOM      7  O   UNL     1      18.666  31.074  43.909  1.00  0.00    -0.550 OA
ENDBRANCH   4   5
ENDBRANCH   3   4
ENDBRANCH   2   3
ENDBRANCH   1   2
BRANCH   1   8
ATOM      8  C   UNL     1      20.830  34.015  47.770  1.00  0.00     0.000 C 
BRANCH   8   9
ATOM      9  C   UNL     1      20.680  32.525  48.109  1.00  0.00     0.000 C 
BRANCH   9  10
ATOM     10  C   UNL     1      19.348  32.255  48.820  1.00  0.00     0.006 C 
BRANCH  10  11
ATOM     11  C   UNL     1      18.467  31.309  47.998  1.00  0.00     0.053 C 
BRANCH  11  12
ATOM     12  C   UNL     1      19.101  29.957  47.899  1.00  0.00     0.041 C 
ATOM     13  O   UNL     1      19.460  29.506  46.779  1.00  0.00    -0.550 OA
ATOM     14  O   UNL     1      19.338  29.216  49.049  1.00  0.00    -0.550 OA
ENDBRANCH  11  12
ENDBRANCH  10  11
ENDBRANCH   9  10
ENDBRANCH   8   9
ENDBRANCH   1   8
TORSDOF 9
ENDMDL
MODEL 9
REMARK VINA RESULT:    -3.870      2.234      4.264
REMARK INTER + INTRA:          -6.828
REMARK INTER:                  -6.163
REMARK INTRA:                  -0.665
REMARK UNBOUND:                -0.922
REMARK SMILES O=C([O-])CCCCCCCCC(=O)[O-]
REMARK SMILES IDX 7 1 6 2 5 3 4 4 2 5 1 6 3 7 8 8 9 9 10 10 11 11 12 12 13 13
REMARK SMILES IDX 14 14
REMARK H PARENT
REMARK Flexibility Score: inf
ROOT
ATOM      1  C   UNL     1      20.396  34.341  46.842  1.00  0.00     0.000 C 
ENDROOT
BRANCH   1   2
ATOM      2  C   UNL     1      19.389  34.491  47.995  1.00  0.00     0.000 C 
BRANCH   2   3
ATOM      3  C   UNL     1      18.715  33.160  48.366  1.00  0.00     0.006 C 
BRANCH   3   4
ATOM      4  C   UNL     1      19.674  32.182  49.055  1.00  0.00     0.053 C 
BRANCH   4   5
ATOM      5  C   UNL     1      19.098  31.712  50.353  1.00  0.00     0.041 C 
ATOM      6  O   UNL     1      19.048  30.481  50.615  1.00  0.00    -0.550 OA
ATOM      7  O   UNL     1      18.570  32.629  51.252  1.00  0.00    -0.550 OA
ENDBRANCH   4   5
ENDBRANCH   3   4
ENDBRANCH   2   3
ENDBRANCH   1   2
BRANCH   1   8
ATOM      8  C   UNL     1      19.754  34.569  45.464  1.00  0.00     0.000 C 
BRANCH   8   9
ATOM      9  C   UNL     1      19.888  33.352  44.537  1.00  0.00     0.000 C 
BRANCH   9  10
ATOM     10  C   UNL     1      18.702  32.396  44.711  1.00  0.00     0.006 C 
BRANCH  10  11
ATOM     11  C   UNL     1      19.002  31.028  44.091  1.00  0.00     0.053 C 
BRANCH  11  12
ATOM     12  C   UNL     1      18.642  29.931  45.044  1.00  0.00     0.041 C 
ATOM     13  O   UNL     1      18.751  30.110  46.286  1.00  0.00    -0.550 OA
ATOM     14  O   UNL     1      18.140  28.730  44.562  1.00  0.00    -0.550 OA
ENDBRANCH  11  12
ENDBRANCH  10  11
ENDBRANCH   9  10
ENDBRANCH   8   9
ENDBRANCH   1   8
TORSDOF 9
ENDMDL
