MODEL 1
REMARK VINA RESULT:    16.773      0.000      0.000
REMARK INTER + INTRA:          17.754
REMARK INTER:                  17.754
REMARK INTRA:                   0.000
REMARK UNBOUND:                 0.000
REMARK SMILES O=c1ccc2cc(O)c(O)cc2o1
REMARK SMILES IDX 4 1 3 2 2 3 1 4 13 5 12 6 11 7 9 8 7 9 6 10 5 11 8 12 10 14
REMARK H PARENT 8 13 10 15
REMARK Flexibility Score: inf
ROOT
ATOM      1  C   UNL     1       9.643  76.791   3.551  1.00  0.00     0.019 A 
ATOM      2  C   UNL     1      10.543  77.333   4.469  1.00  0.00     0.094 A 
ATOM      3  C   UNL     1      11.914  77.241   4.209  1.00  0.00     0.336 A 
ATOM      4  O   UNL     1      12.742  77.723   5.026  1.00  0.00    -0.246 OA
ATOM      5  O   UNL     1      12.352  76.647   3.102  1.00  0.00    -0.423 OA
ATOM      6  C   UNL     1      11.528  76.118   2.200  1.00  0.00     0.142 A 
ATOM      7  C   UNL     1      12.046  75.506   1.054  1.00  0.00     0.098 A 
ATOM      8  C   UNL     1      11.181  74.948   0.101  1.00  0.00     0.161 A 
ATOM      9  C   UNL     1       9.793  75.001   0.295  1.00  0.00     0.158 A 
ATOM     10  C   UNL     1       9.269  75.615   1.442  1.00  0.00     0.062 A 
ATOM     11  C   UNL     1      10.131  76.173   2.396  1.00  0.00     0.022 A 
ENDROOT
BRANCH   9  12
ATOM     12  O   UNL     1       8.941  74.444  -0.657  1.00  0.00    -0.504 OA
ATOM     13  H   UNL     1       8.190  73.819  -0.394  1.00  0.00     0.293 HD
ENDBRANCH   9  12
BRANCH   8  14
ATOM     14  O   UNL     1      11.694  74.336  -1.042  1.00  0.00    -0.504 OA
ATOM     15  H   UNL     1      11.914  73.347  -1.061  1.00  0.00     0.293 HD
ENDBRANCH   8  14
TORSDOF 2
ENDMDL
MODEL 2
REMARK VINA RESULT:    17.899      1.205      4.481
REMARK INTER + INTRA:          18.945
REMARK INTER:                  18.945
REMARK INTRA:                   0.000
REMARK UNBOUND:                 0.000
REMARK SMILES O=c1ccc2cc(O)c(O)cc2o1
REMARK SMILES IDX 4 1 3 2 2 3 1 4 13 5 12 6 11 7 9 8 7 9 6 10 5 11 8 12 10 14
REMARK H PARENT 8 13 10 15
REMARK Flexibility Score: inf
ROOT
ATOM      1  C   UNL     1       9.256  75.068   0.658  1.00  0.00     0.019 A 
ATOM      2  C   UNL     1       9.907  74.455  -0.413  1.00  0.00     0.094 A 
ATOM      3  C   UNL     1      11.304  74.491  -0.468  1.00  0.00     0.336 A 
ATOM      4  O   UNL     1      11.909  73.943  -1.426  1.00  0.00    -0.246 OA
ATOM      5  O   UNL     1      12.000  75.100   0.489  1.00  0.00    -0.423 OA
ATOM      6  C   UNL     1      11.419  75.697   1.527  1.00  0.00     0.142 A 
ATOM      7  C   UNL     1      12.203  76.321   2.503  1.00  0.00     0.098 A 
ATOM      8  C   UNL     1      11.595  76.951   3.599  1.00  0.00     0.161 A 
ATOM      9  C   UNL     1      10.197  76.957   3.720  1.00  0.00     0.158 A 
ATOM     10  C   UNL     1       9.407  76.331   2.745  1.00  0.00     0.062 A 
ATOM     11  C   UNL     1      10.013  75.701   1.648  1.00  0.00     0.022 A 
ENDROOT
BRANCH   9  12
ATOM     12  O   UNL     1       9.602  77.585   4.812  1.00  0.00    -0.504 OA
ATOM     13  H   UNL     1      10.126  77.801   5.651  1.00  0.00     0.293 HD
ENDBRANCH   9  12
BRANCH   8  14
ATOM     14  O   UNL     1      12.373  77.576   4.573  1.00  0.00    -0.504 OA
ATOM     15  H   UNL     1      12.469  77.188   5.504  1.00  0.00     0.293 HD
ENDBRANCH   8  14
TORSDOF 2
ENDMDL
MODEL 3
REMARK VINA RESULT:    18.126      1.112      5.029
REMARK INTER + INTRA:          19.186
REMARK INTER:                  19.186
REMARK INTRA:                   0.000
REMARK UNBOUND:                 0.000
REMARK SMILES O=c1ccc2cc(O)c(O)cc2o1
REMARK SMILES IDX 4 1 3 2 2 3 1 4 13 5 12 6 11 7 9 8 7 9 6 10 5 11 8 12 10 14
REMARK H PARENT 8 13 10 15
REMARK Flexibility Score: inf
ROOT
ATOM      1  C   UNL     1      11.941  75.261   0.506  1.00  0.00     0.019 A 
ATOM      2  C   UNL     1      11.062  74.672  -0.404  1.00  0.00     0.094 A 
ATOM      3  C   UNL     1       9.690  74.701  -0.135  1.00  0.00     0.336 A 
ATOM      4  O   UNL     1       8.881  74.175  -0.943  1.00  0.00    -0.246 OA
ATOM      5  O   UNL     1       9.231  75.282   0.970  1.00  0.00    -0.423 OA
ATOM      6  C   UNL     1      10.035  75.855   1.864  1.00  0.00     0.142 A 
ATOM      7  C   UNL     1       9.496  76.452   3.008  1.00  0.00     0.098 A 
ATOM      8  C   UNL     1      10.339  77.058   3.952  1.00  0.00     0.161 A 
ATOM      9  C   UNL     1      11.727  77.067   3.750  1.00  0.00     0.158 A 
ATOM     10  C   UNL     1      12.273  76.471   2.603  1.00  0.00     0.062 A 
ATOM     11  C   UNL     1      11.432  75.865   1.659  1.00  0.00     0.022 A 
ENDROOT
BRANCH   9  12
ATOM     12  O   UNL     1      12.557  77.670   4.692  1.00  0.00    -0.504 OA
ATOM     13  H   UNL     1      12.376  78.605   5.037  1.00  0.00     0.293 HD
ENDBRANCH   9  12
BRANCH   8  14
ATOM     14  O   UNL     1       9.805  77.652   5.094  1.00  0.00    -0.504 OA
ATOM     15  H   UNL     1       9.192  78.457   5.035  1.00  0.00     0.293 HD
ENDBRANCH   8  14
TORSDOF 2
ENDMDL
MODEL 4
REMARK VINA RESULT:    19.556      1.546      2.445
REMARK INTER + INTRA:          20.699
REMARK INTER:                  20.699
REMARK INTRA:                   0.000
REMARK UNBOUND:                 0.000
REMARK SMILES O=c1ccc2cc(O)c(O)cc2o1
REMARK SMILES IDX 4 1 3 2 2 3 1 4 13 5 12 6 11 7 9 8 7 9 6 10 5 11 8 12 10 14
REMARK H PARENT 8 13 10 15
REMARK Flexibility Score: inf
ROOT
ATOM      1  C   UNL     1      11.910  76.989   3.584  1.00  0.00     0.019 A 
ATOM      2  C   UNL     1      10.991  77.502   4.500  1.00  0.00     0.094 A 
ATOM      3  C   UNL     1       9.625  77.312   4.267  1.00  0.00     0.336 A 
ATOM      4  O   UNL     1       8.780  77.768   5.081  1.00  0.00    -0.246 OA
ATOM      5  O   UNL     1       9.210  76.651   3.190  1.00  0.00    -0.423 OA
ATOM      6  C   UNL     1      10.053  76.145   2.292  1.00  0.00     0.142 A 
ATOM      7  C   UNL     1       9.559  75.458   1.178  1.00  0.00     0.098 A 
ATOM      8  C   UNL     1      10.443  74.923   0.230  1.00  0.00     0.161 A 
ATOM      9  C   UNL     1      11.828  75.075   0.396  1.00  0.00     0.158 A 
ATOM     10  C   UNL     1      12.328  75.762   1.512  1.00  0.00     0.062 A 
ATOM     11  C   UNL     1      11.446  76.298   2.461  1.00  0.00     0.022 A 
ENDROOT
BRANCH   9  12
ATOM     12  O   UNL     1      12.699  74.541  -0.550  1.00  0.00    -0.504 OA
ATOM     13  H   UNL     1      12.633  74.786  -1.530  1.00  0.00     0.293 HD
ENDBRANCH   9  12
BRANCH   8  14
ATOM     14  O   UNL     1       9.954  74.239  -0.881  1.00  0.00    -0.504 OA
ATOM     15  H   UNL     1      10.574  73.862  -1.589  1.00  0.00     0.293 HD
ENDBRANCH   8  14
TORSDOF 2
ENDMDL
