MODEL 1
REMARK VINA RESULT:    -3.152      0.000      0.000
REMARK INTER + INTRA:          -3.804
REMARK INTER:                  -3.705
REMARK INTRA:                  -0.099
REMARK UNBOUND:                -0.099
REMARK SMILES O=C([O-])CCC(=O)[O-]
REMARK SMILES IDX 4 1 2 2 1 3 3 4 5 5 6 6 7 7 8 8
REMARK H PARENT
REMARK Flexibility Score: inf
ROOT
ATOM      1  C   UNL     1      11.427 -15.327  -3.358  1.00  0.00     0.059 C 
ENDROOT
BRANCH   1   2
ATOM      2  C   UNL     1      11.451 -14.351  -2.226  1.00  0.00     0.042 C 
ATOM      3  O   UNL     1      10.428 -14.181  -1.512  1.00  0.00    -0.550 OA
ATOM      4  O   UNL     1      12.621 -13.662  -1.926  1.00  0.00    -0.550 OA
ENDBRANCH   1   2
BRANCH   1   5
ATOM      5  C   UNL     1      11.853 -16.715  -2.878  1.00  0.00     0.059 C 
BRANCH   5   6
ATOM      6  C   UNL     1      10.672 -17.477  -2.365  1.00  0.00     0.042 C 
ATOM      7  O   UNL     1       9.928 -18.105  -3.163  1.00  0.00    -0.550 OA
ATOM      8  O   UNL     1      10.421 -17.535  -0.999  1.00  0.00    -0.550 OA
ENDBRANCH   5   6
ENDBRANCH   1   5
TORSDOF 3
ENDMDL
MODEL 2
REMARK VINA RESULT:    -2.978      0.644      3.725
REMARK INTER + INTRA:          -3.600
REMARK INTER:                  -3.493
REMARK INTRA:                  -0.106
REMARK UNBOUND:                -0.099
REMARK SMILES O=C([O-])CCC(=O)[O-]
REMARK SMILES IDX 4 1 2 2 1 3 3 4 5 5 6 6 7 7 8 8
REMARK H PARENT
REMARK Flexibility Score: inf
ROOT
ATOM      1  C   UNL     1      11.188 -16.366  -3.294  1.00  0.00     0.059 C 
ENDROOT
BRANCH   1   2
ATOM      2  C   UNL     1      10.524 -17.427  -2.476  1.00  0.00     0.042 C 
ATOM      3  O   UNL     1      10.519 -17.348  -1.219  1.00  0.00    -0.550 OA
ATOM      4  O   UNL     1       9.867 -18.480  -3.102  1.00  0.00    -0.550 OA
ENDBRANCH   1   2
BRANCH   1   5
ATOM      5  C   UNL     1      12.319 -15.708  -2.503  1.00  0.00     0.059 C 
BRANCH   5   6
ATOM      6  C   UNL     1      11.969 -14.294  -2.163  1.00  0.00     0.042 C 
ATOM      7  O   UNL     1      10.762 -13.952  -2.042  1.00  0.00    -0.550 OA
ATOM      8  O   UNL     1      12.974 -13.364  -1.931  1.00  0.00    -0.550 OA
ENDBRANCH   5   6
ENDBRANCH   1   5
TORSDOF 3
ENDMDL
MODEL 3
REMARK VINA RESULT:    -2.740     22.148     22.838
REMARK INTER + INTRA:          -3.320
REMARK INTER:                  -3.172
REMARK INTRA:                  -0.148
REMARK UNBOUND:                -0.099
REMARK SMILES O=C([O-])CCC(=O)[O-]
REMARK SMILES IDX 4 1 2 2 1 3 3 4 5 5 6 6 7 7 8 8
REMARK H PARENT
REMARK Flexibility Score: inf
ROOT
ATOM      1  C   UNL     1      -2.589 -10.986  15.055  1.00  0.00     0.059 C 
ENDROOT
BRANCH   1   2
ATOM      2  C   UNL     1      -2.816  -9.685  14.355  1.00  0.00     0.042 C 
ATOM      3  O   UNL     1      -2.096  -9.357  13.375  1.00  0.00    -0.550 OA
ATOM      4  O   UNL     1      -3.856  -8.853  14.753  1.00  0.00    -0.550 OA
ENDBRANCH   1   2
BRANCH   1   5
ATOM      5  C   UNL     1      -3.924 -11.653  15.392  1.00  0.00     0.059 C 
BRANCH   5   6
ATOM      6  C   UNL     1      -4.500 -12.313  14.180  1.00  0.00     0.042 C 
ATOM      7  O   UNL     1      -3.803 -13.115  13.503  1.00  0.00    -0.550 OA
ATOM      8  O   UNL     1      -5.824 -12.083  13.825  1.00  0.00    -0.550 OA
ENDBRANCH   5   6
ENDBRANCH   1   5
TORSDOF 3
ENDMDL
MODEL 4
REMARK VINA RESULT:    -2.671     22.101     22.952
REMARK INTER + INTRA:          -3.239
REMARK INTER:                  -3.182
REMARK INTRA:                  -0.058
REMARK UNBOUND:                -0.099
REMARK SMILES O=C([O-])CCC(=O)[O-]
REMARK SMILES IDX 4 1 2 2 1 3 3 4 5 5 6 6 7 7 8 8
REMARK H PARENT
REMARK Flexibility Score: inf
ROOT
ATOM      1  C   UNL     1      -3.312 -11.865  14.583  1.00  0.00     0.059 C 
ENDROOT
BRANCH   1   2
ATOM      2  C   UNL     1      -4.297 -12.718  13.849  1.00  0.00     0.042 C 
ATOM      3  O   UNL     1      -3.939 -13.822  13.360  1.00  0.00    -0.550 OA
ATOM      4  O   UNL     1      -5.623 -12.317  13.746  1.00  0.00    -0.550 OA
ENDBRANCH   1   2
BRANCH   1   5
ATOM      5  C   UNL     1      -3.867 -10.453  14.777  1.00  0.00     0.059 C 
BRANCH   5   6
ATOM      6  C   UNL     1      -2.809  -9.432  14.500  1.00  0.00     0.042 C 
ATOM      7  O   UNL     1      -2.148  -9.479  13.429  1.00  0.00    -0.550 OA
ATOM      8  O   UNL     1      -2.588  -8.397  15.400  1.00  0.00    -0.550 OA
ENDBRANCH   5   6
ENDBRANCH   1   5
TORSDOF 3
ENDMDL
MODEL 5
REMARK VINA RESULT:    -2.512     16.765     17.493
REMARK INTER + INTRA:          -3.052
REMARK INTER:                  -2.945
REMARK INTRA:                  -0.107
REMARK UNBOUND:                -0.099
REMARK SMILES O=C([O-])CCC(=O)[O-]
REMARK SMILES IDX 4 1 2 2 1 3 3 4 5 5 6 6 7 7 8 8
REMARK H PARENT
REMARK Flexibility Score: inf
ROOT
ATOM      1  C   UNL     1      -3.242  -4.515  -1.379  1.00  0.00     0.059 C 
ENDROOT
BRANCH   1   2
ATOM      2  C   UNL     1      -2.230  -4.729  -2.460  1.00  0.00     0.042 C 
ATOM      3  O   UNL     1      -1.027  -4.405  -2.276  1.00  0.00    -0.550 OA
ATOM      4  O   UNL     1      -2.606  -5.333  -3.654  1.00  0.00    -0.550 OA
ENDBRANCH   1   2
BRANCH   1   5
ATOM      5  C   UNL     1      -3.847  -5.850  -0.940  1.00  0.00     0.059 C 
BRANCH   5   6
ATOM      6  C   UNL     1      -3.142  -6.371   0.271  1.00  0.00     0.042 C 
ATOM      7  O   UNL     1      -3.482  -5.981   1.420  1.00  0.00    -0.550 OA
ATOM      8  O   UNL     1      -2.142  -7.327   0.138  1.00  0.00    -0.550 OA
ENDBRANCH   5   6
ENDBRANCH   1   5
TORSDOF 3
ENDMDL
MODEL 6
REMARK VINA RESULT:    -2.504     16.647     17.509
REMARK INTER + INTRA:          -3.043
REMARK INTER:                  -2.934
REMARK INTRA:                  -0.109
REMARK UNBOUND:                -0.099
REMARK SMILES O=C([O-])CCC(=O)[O-]
REMARK SMILES IDX 4 1 2 2 1 3 3 4 5 5 6 6 7 7 8 8
REMARK H PARENT
REMARK Flexibility Score: inf
ROOT
ATOM      1  C   UNL     1      -3.782  -6.120  -0.957  1.00  0.00     0.059 C 
ENDROOT
BRANCH   1   2
ATOM      2  C   UNL     1      -3.035  -6.469   0.290  1.00  0.00     0.042 C 
ATOM      3  O   UNL     1      -3.434  -6.045   1.407  1.00  0.00    -0.550 OA
ATOM      4  O   UNL     1      -1.926  -7.303   0.227  1.00  0.00    -0.550 OA
ENDBRANCH   1   2
BRANCH   1   5
ATOM      5  C   UNL     1      -3.364  -4.738  -1.463  1.00  0.00     0.059 C 
BRANCH   5   6
ATOM      6  C   UNL     1      -2.305  -4.863  -2.512  1.00  0.00     0.042 C 
ATOM      7  O   UNL     1      -2.597  -5.290  -3.661  1.00  0.00    -0.550 OA
ATOM      8  O   UNL     1      -1.003  -4.461  -2.238  1.00  0.00    -0.550 OA
ENDBRANCH   5   6
ENDBRANCH   1   5
TORSDOF 3
ENDMDL
MODEL 7
REMARK VINA RESULT:    -2.489      9.217     10.537
REMARK INTER + INTRA:          -3.025
REMARK INTER:                  -2.924
REMARK INTRA:                  -0.101
REMARK UNBOUND:                -0.099
REMARK SMILES O=C([O-])CCC(=O)[O-]
REMARK SMILES IDX 4 1 2 2 1 3 3 4 5 5 6 6 7 7 8 8
REMARK H PARENT
REMARK Flexibility Score: inf
ROOT
ATOM      1  C   UNL     1       2.424 -18.989   2.212  1.00  0.00     0.059 C 
ENDROOT
BRANCH   1   2
ATOM      2  C   UNL     1       3.678 -19.451   1.539  1.00  0.00     0.042 C 
ATOM      3  O   UNL     1       3.701 -19.628   0.293  1.00  0.00    -0.550 OA
ATOM      4  O   UNL     1       4.837 -19.641   2.283  1.00  0.00    -0.550 OA
ENDBRANCH   1   2
BRANCH   1   5
ATOM      5  C   UNL     1       2.746 -17.955   3.291  1.00  0.00     0.059 C 
BRANCH   5   6
ATOM      6  C   UNL     1       2.526 -18.533   4.653  1.00  0.00     0.042 C 
ATOM      7  O   UNL     1       2.114 -19.717   4.780  1.00  0.00    -0.550 OA
ATOM      8  O   UNL     1       2.824 -17.784   5.785  1.00  0.00    -0.550 OA
ENDBRANCH   5   6
ENDBRANCH   1   5
TORSDOF 3
ENDMDL
MODEL 8
REMARK VINA RESULT:    -2.489      9.419     10.790
REMARK INTER + INTRA:          -3.025
REMARK INTER:                  -2.864
REMARK INTRA:                  -0.161
REMARK UNBOUND:                -0.099
REMARK SMILES O=C([O-])CCC(=O)[O-]
REMARK SMILES IDX 4 1 2 2 1 3 3 4 5 5 6 6 7 7 8 8
REMARK H PARENT
REMARK Flexibility Score: inf
ROOT
ATOM      1  C   UNL     1       2.506 -18.490   3.951  1.00  0.00     0.059 C 
ENDROOT
BRANCH   1   2
ATOM      2  C   UNL     1       1.393 -19.417   3.579  1.00  0.00     0.042 C 
ATOM      3  O   UNL     1       0.517 -19.056   2.750  1.00  0.00    -0.550 OA
ATOM      4  O   UNL     1       1.349 -20.700   4.113  1.00  0.00    -0.550 OA
ENDBRANCH   1   2
BRANCH   1   5
ATOM      5  C   UNL     1       3.174 -17.926   2.696  1.00  0.00     0.059 C 
BRANCH   5   6
ATOM      6  C   UNL     1       4.033 -18.965   2.048  1.00  0.00     0.042 C 
ATOM      7  O   UNL     1       3.736 -19.409   0.907  1.00  0.00    -0.550 OA
ATOM      8  O   UNL     1       5.189 -19.407   2.679  1.00  0.00    -0.550 OA
ENDBRANCH   5   6
ENDBRANCH   1   5
TORSDOF 3
ENDMDL
MODEL 9
REMARK VINA RESULT:    -2.466      9.410     10.636
REMARK INTER + INTRA:          -2.998
REMARK INTER:                  -2.812
REMARK INTRA:                  -0.186
REMARK UNBOUND:                -0.099
REMARK SMILES O=C([O-])CCC(=O)[O-]
REMARK SMILES IDX 4 1 2 2 1 3 3 4 5 5 6 6 7 7 8 8
REMARK H PARENT
REMARK Flexibility Score: inf
ROOT
ATOM      1  C   UNL     1       3.229 -17.961   2.649  1.00  0.00     0.059 C 
ENDROOT
BRANCH   1   2
ATOM      2  C   UNL     1       4.009 -19.064   2.007  1.00  0.00     0.042 C 
ATOM      3  O   UNL     1       4.947 -19.626   2.632  1.00  0.00    -0.550 OA
ATOM      4  O   UNL     1       3.669 -19.506   0.733  1.00  0.00    -0.550 OA
ENDBRANCH   1   2
BRANCH   1   5
ATOM      5  C   UNL     1       2.493 -18.477   3.886  1.00  0.00     0.059 C 
BRANCH   5   6
ATOM      6  C   UNL     1       1.396 -19.414   3.490  1.00  0.00     0.042 C 
ATOM      7  O   UNL     1       0.463 -19.017   2.742  1.00  0.00    -0.550 OA
ATOM      8  O   UNL     1       1.428 -20.739   3.905  1.00  0.00    -0.550 OA
ENDBRANCH   5   6
ENDBRANCH   1   5
TORSDOF 3
ENDMDL
