MODEL 1
REMARK VINA RESULT:    -5.963      0.000      0.000
REMARK INTER + INTRA:          -6.853
REMARK INTER:                  -7.008
REMARK INTRA:                   0.155
REMARK UNBOUND:                 0.155
REMARK SMILES CC1(C)CC[C@]2(C(=O)[O-])CC[C@]3(C)C(=CC[C@H]4[C@@]5(C)CC[C@@H](O)[C@@](C)(CO)[C@@H]5CC[C@]43C)[C@H]2C1
REMARK SMILES IDX 6 1 5 2 10 3 33 4 4 5 11 6 14 7 34 8 2 9 12 10 15 11 1 12
REMARK SMILES IDX 3 13 13 14 31 15 16 16 17 17 30 18 32 19 18 20 29 21 28 22
REMARK SMILES IDX 20 23 19 24 24 25 21 26 22 27 25 28 7 29 8 30 9 31 26 32
REMARK SMILES IDX 27 33 23 35
REMARK H PARENT 27 34 23 36
REMARK Flexibility Score: inf
ROOT
ATOM      1  C   UNL     1     -19.135  49.649  12.000  1.00  0.00     0.017 C 
ATOM      2  C   UNL     1     -20.156  48.652  12.637  1.00  0.00     0.014 C 
ATOM      3  C   UNL     1     -18.387  50.470  13.119  1.00  0.00     0.014 C 
ATOM      4  C   UNL     1     -19.955  50.616  11.085  1.00  0.00     0.028 C 
ATOM      5  C   UNL     1     -20.993  47.891  11.579  1.00  0.00     0.007 C 
ATOM      6  C   UNL     1     -18.679  51.993  13.124  1.00  0.00     0.013 C 
ATOM      7  C   UNL     1     -19.079  51.786  10.643  1.00  0.00    -0.064 C 
ATOM      8  C   UNL     1     -20.735  49.862   9.981  1.00  0.00     0.015 C 
ATOM      9  C   UNL     1     -21.725  48.821  10.567  1.00  0.00    -0.035 C 
ATOM     10  C   UNL     1     -18.541  52.736  11.725  1.00  0.00    -0.006 C 
ATOM     11  C   UNL     1     -18.827  52.032   9.346  1.00  0.00    -0.027 C 
ATOM     12  C   UNL     1     -22.928  49.519  11.244  1.00  0.00     0.011 C 
ATOM     13  C   UNL     1     -22.267  47.966   9.398  1.00  0.00     0.011 C 
ATOM     14  C   UNL     1     -19.615  53.876  11.790  1.00  0.00     0.017 C 
ATOM     15  C   UNL     1     -17.021  53.311  11.358  1.00  0.00    -0.020 C 
ATOM     16  C   UNL     1     -17.867  53.099   8.947  1.00  0.00     0.032 C 
ATOM     17  C   UNL     1     -16.602  53.000   9.838  1.00  0.00     0.006 C 
ATOM     18  C   UNL     1     -16.943  54.866  11.589  1.00  0.00     0.008 C 
ATOM     19  C   UNL     1     -15.954  52.667  12.306  1.00  0.00     0.012 C 
ATOM     20  C   UNL     1     -15.310  53.792   9.273  1.00  0.00    -0.025 C 
ATOM     21  C   UNL     1     -15.659  55.555  11.115  1.00  0.00     0.005 C 
ATOM     22  C   UNL     1     -15.437  55.328   9.596  1.00  0.00     0.006 C 
ATOM     23  C   UNL     1     -15.195  53.648   7.718  1.00  0.00     0.010 C 
ATOM     24  C   UNL     1     -14.013  53.137   9.881  1.00  0.00     0.012 C 
ATOM     25  C   UNL     1     -14.342  56.281   8.932  1.00  0.00     0.020 C 
ATOM     26  C   UNL     1     -14.067  54.483   7.086  1.00  0.00     0.033 C 
ATOM     27  C   UNL     1     -14.239  55.978   7.394  1.00  0.00     0.123 C 
ATOM     28  C   UNL     1     -12.934  56.133   9.567  1.00  0.00     0.017 C 
ENDROOT
BRANCH   1  29
ATOM     29  C   UNL     1     -18.076  48.869  11.218  1.00  0.00     0.048 C 
ATOM     30  O   UNL     1     -16.873  49.253  11.235  1.00  0.00    -0.550 OA
ATOM     31  O   UNL     1     -18.453  47.876  10.317  1.00  0.00    -0.550 OA
ENDBRANCH   1  29
BRANCH  25  32
ATOM     32  C   UNL     1     -14.760  57.788   9.061  1.00  0.00     0.165 C 
BRANCH  32  33
ATOM     33  O   UNL     1     -14.214  58.587   8.043  1.00  0.00    -0.396 OA
ATOM     34  H   UNL     1     -14.186  59.518   8.387  1.00  0.00     0.210 HD
ENDBRANCH  32  33
ENDBRANCH  25  32
BRANCH  27  35
ATOM     35  O   UNL     1     -15.390  56.450   6.723  1.00  0.00    -0.392 OA
ATOM     36  H   UNL     1     -16.029  56.761   7.428  1.00  0.00     0.210 HD
ENDBRANCH  27  35
TORSDOF 4
ENDMDL
MODEL 2
REMARK VINA RESULT:    -5.777      2.233      3.352
REMARK INTER + INTRA:          -6.635
REMARK INTER:                  -6.861
REMARK INTRA:                   0.226
REMARK UNBOUND:                 0.155
REMARK SMILES CC1(C)CC[C@]2(C(=O)[O-])CC[C@]3(C)C(=CC[C@H]4[C@@]5(C)CC[C@@H](O)[C@@](C)(CO)[C@@H]5CC[C@]43C)[C@H]2C1
REMARK SMILES IDX 6 1 5 2 10 3 33 4 4 5 11 6 14 7 34 8 2 9 12 10 15 11 1 12
REMARK SMILES IDX 3 13 13 14 31 15 16 16 17 17 30 18 32 19 18 20 29 21 28 22
REMARK SMILES IDX 20 23 19 24 24 25 21 26 22 27 25 28 7 29 8 30 9 31 26 32
REMARK SMILES IDX 27 33 23 35
REMARK H PARENT 27 34 23 36
REMARK Flexibility Score: inf
ROOT
ATOM      1  C   UNL     1     -18.030  49.312   8.231  1.00  0.00     0.017 C 
ATOM      2  C   UNL     1     -18.681  47.893   8.277  1.00  0.00     0.014 C 
ATOM      3  C   UNL     1     -16.463  49.201   8.105  1.00  0.00     0.014 C 
ATOM      4  C   UNL     1     -18.411  50.032   9.566  1.00  0.00     0.028 C 
ATOM      5  C   UNL     1     -20.213  47.941   8.503  1.00  0.00     0.007 C 
ATOM      6  C   UNL     1     -15.666  49.733   9.325  1.00  0.00     0.013 C 
ATOM      7  C   UNL     1     -17.592  51.311   9.724  1.00  0.00    -0.064 C 
ATOM      8  C   UNL     1     -19.942  50.145   9.758  1.00  0.00     0.015 C 
ATOM      9  C   UNL     1     -20.640  48.760   9.757  1.00  0.00    -0.035 C 
ATOM     10  C   UNL     1     -16.065  51.182   9.843  1.00  0.00    -0.006 C 
ATOM     11  C   UNL     1     -18.175  52.517   9.820  1.00  0.00    -0.027 C 
ATOM     12  C   UNL     1     -20.317  47.975  11.052  1.00  0.00     0.011 C 
ATOM     13  C   UNL     1     -22.167  48.993   9.711  1.00  0.00     0.011 C 
ATOM     14  C   UNL     1     -15.816  51.118  11.389  1.00  0.00     0.017 C 
ATOM     15  C   UNL     1     -15.268  52.454   9.120  1.00  0.00    -0.020 C 
ATOM     16  C   UNL     1     -17.354  53.760   9.842  1.00  0.00     0.032 C 
ATOM     17  C   UNL     1     -16.260  53.662   8.747  1.00  0.00     0.006 C 
ATOM     18  C   UNL     1     -14.137  53.011  10.063  1.00  0.00     0.008 C 
ATOM     19  C   UNL     1     -14.558  51.975   7.809  1.00  0.00     0.012 C 
ATOM     20  C   UNL     1     -15.565  55.068   8.356  1.00  0.00    -0.025 C 
ATOM     21  C   UNL     1     -13.447  54.299   9.601  1.00  0.00     0.005 C 
ATOM     22  C   UNL     1     -14.477  55.447   9.431  1.00  0.00     0.006 C 
ATOM     23  C   UNL     1     -16.614  56.229   8.322  1.00  0.00     0.010 C 
ATOM     24  C   UNL     1     -14.978  54.952   6.898  1.00  0.00     0.012 C 
ATOM     25  C   UNL     1     -13.836  56.904   9.302  1.00  0.00     0.020 C 
ATOM     26  C   UNL     1     -16.010  57.625   8.088  1.00  0.00     0.033 C 
ATOM     27  C   UNL     1     -14.978  57.975   9.171  1.00  0.00     0.123 C 
ATOM     28  C   UNL     1     -12.875  57.047   8.092  1.00  0.00     0.017 C 
ENDROOT
BRANCH   1  29
ATOM     29  C   UNL     1     -18.536  50.068   7.000  1.00  0.00     0.048 C 
ATOM     30  O   UNL     1     -19.525  50.848   7.105  1.00  0.00    -0.550 OA
ATOM     31  O   UNL     1     -18.066  49.745   5.729  1.00  0.00    -0.550 OA
ENDBRANCH   1  29
BRANCH  25  32
ATOM     32  C   UNL     1     -13.026  57.275  10.593  1.00  0.00     0.165 C 
BRANCH  32  33
ATOM     33  O   UNL     1     -13.651  56.828  11.768  1.00  0.00    -0.396 OA
ATOM     34  H   UNL     1     -12.951  56.396  12.324  1.00  0.00     0.210 HD
ENDBRANCH  32  33
ENDBRANCH  25  32
BRANCH  27  35
ATOM     35  O   UNL     1     -15.650  58.129  10.405  1.00  0.00    -0.392 OA
ATOM     36  H   UNL     1     -15.454  59.057  10.728  1.00  0.00     0.210 HD
ENDBRANCH  27  35
TORSDOF 4
ENDMDL
MODEL 3
REMARK VINA RESULT:    -5.529      3.906     10.473
REMARK INTER + INTRA:          -6.344
REMARK INTER:                  -6.425
REMARK INTRA:                   0.081
REMARK UNBOUND:                 0.155
REMARK SMILES CC1(C)CC[C@]2(C(=O)[O-])CC[C@]3(C)C(=CC[C@H]4[C@@]5(C)CC[C@@H](O)[C@@](C)(CO)[C@@H]5CC[C@]43C)[C@H]2C1
REMARK SMILES IDX 6 1 5 2 10 3 33 4 4 5 11 6 14 7 34 8 2 9 12 10 15 11 1 12
REMARK SMILES IDX 3 13 13 14 31 15 16 16 17 17 30 18 32 19 18 20 29 21 28 22
REMARK SMILES IDX 20 23 19 24 24 25 21 26 22 27 25 28 7 29 8 30 9 31 26 32
REMARK SMILES IDX 27 33 23 35
REMARK H PARENT 27 34 23 36
REMARK Flexibility Score: inf
ROOT
ATOM      1  C   UNL     1     -13.845  61.448   7.733  1.00  0.00     0.017 C 
ATOM      2  C   UNL     1     -12.939  62.503   7.020  1.00  0.00     0.014 C 
ATOM      3  C   UNL     1     -13.003  60.180   8.144  1.00  0.00     0.014 C 
ATOM      4  C   UNL     1     -14.960  61.043   6.715  1.00  0.00     0.028 C 
ATOM      5  C   UNL     1     -13.736  63.727   6.503  1.00  0.00     0.007 C 
ATOM      6  C   UNL     1     -13.393  58.868   7.416  1.00  0.00     0.013 C 
ATOM      7  C   UNL     1     -15.719  59.822   7.228  1.00  0.00    -0.064 C 
ATOM      8  C   UNL     1     -15.804  62.256   6.253  1.00  0.00     0.015 C 
ATOM      9  C   UNL     1     -14.937  63.355   5.585  1.00  0.00    -0.035 C 
ATOM     10  C   UNL     1     -14.941  58.508   7.403  1.00  0.00    -0.006 C 
ATOM     11  C   UNL     1     -17.041  59.858   7.466  1.00  0.00    -0.027 C 
ATOM     12  C   UNL     1     -14.436  62.898   4.194  1.00  0.00     0.011 C 
ATOM     13  C   UNL     1     -15.823  64.606   5.383  1.00  0.00     0.011 C 
ATOM     14  C   UNL     1     -15.150  57.765   6.039  1.00  0.00     0.017 C 
ATOM     15  C   UNL     1     -15.488  57.620   8.703  1.00  0.00    -0.020 C 
ATOM     16  C   UNL     1     -17.734  58.695   8.088  1.00  0.00     0.032 C 
ATOM     17  C   UNL     1     -16.882  58.176   9.276  1.00  0.00     0.006 C 
ATOM     18  C   UNL     1     -15.678  56.109   8.306  1.00  0.00     0.008 C 
ATOM     19  C   UNL     1     -14.433  57.646   9.860  1.00  0.00     0.012 C 
ATOM     20  C   UNL     1     -17.672  57.210  10.305  1.00  0.00    -0.025 C 
ATOM     21  C   UNL     1     -16.352  55.216   9.353  1.00  0.00     0.005 C 
ATOM     22  C   UNL     1     -17.762  55.753   9.713  1.00  0.00     0.006 C 
ATOM     23  C   UNL     1     -19.136  57.711  10.542  1.00  0.00     0.010 C 
ATOM     24  C   UNL     1     -16.948  57.265  11.703  1.00  0.00     0.012 C 
ATOM     25  C   UNL     1     -18.684  54.723  10.512  1.00  0.00     0.020 C 
ATOM     26  C   UNL     1     -19.996  56.772  11.405  1.00  0.00     0.033 C 
ATOM     27  C   UNL     1     -20.090  55.370  10.783  1.00  0.00     0.123 C 
ATOM     28  C   UNL     1     -18.071  54.273  11.865  1.00  0.00     0.017 C 
ENDROOT
BRANCH   1  29
ATOM     29  C   UNL     1     -14.422  62.052   9.016  1.00  0.00     0.048 C 
ATOM     30  O   UNL     1     -13.910  61.758  10.134  1.00  0.00    -0.550 OA
ATOM     31  O   UNL     1     -15.631  62.742   8.990  1.00  0.00    -0.550 OA
ENDBRANCH   1  29
BRANCH  25  32
ATOM     32  C   UNL     1     -18.947  53.431   9.661  1.00  0.00     0.165 C 
BRANCH  32  33
ATOM     33  O   UNL     1     -20.115  52.757  10.053  1.00  0.00    -0.396 OA
ATOM     34  H   UNL     1     -20.102  51.870   9.607  1.00  0.00     0.210 HD
ENDBRANCH  32  33
ENDBRANCH  25  32
BRANCH  27  35
ATOM     35  O   UNL     1     -20.830  55.455   9.581  1.00  0.00    -0.392 OA
ATOM     36  H   UNL     1     -20.199  55.781   8.875  1.00  0.00     0.210 HD
ENDBRANCH  27  35
TORSDOF 4
ENDMDL
MODEL 4
REMARK VINA RESULT:    -5.519      2.187      3.257
REMARK INTER + INTRA:          -6.332
REMARK INTER:                  -6.256
REMARK INTRA:                  -0.077
REMARK UNBOUND:                 0.155
REMARK SMILES CC1(C)CC[C@]2(C(=O)[O-])CC[C@]3(C)C(=CC[C@H]4[C@@]5(C)CC[C@@H](O)[C@@](C)(CO)[C@@H]5CC[C@]43C)[C@H]2C1
REMARK SMILES IDX 6 1 5 2 10 3 33 4 4 5 11 6 14 7 34 8 2 9 12 10 15 11 1 12
REMARK SMILES IDX 3 13 13 14 31 15 16 16 17 17 30 18 32 19 18 20 29 21 28 22
REMARK SMILES IDX 20 23 19 24 24 25 21 26 22 27 25 28 7 29 8 30 9 31 26 32
REMARK SMILES IDX 27 33 23 35
REMARK H PARENT 27 34 23 36
REMARK Flexibility Score: inf
ROOT
ATOM      1  C   UNL     1     -20.161  49.234   9.658  1.00  0.00     0.017 C 
ATOM      2  C   UNL     1     -20.932  47.875   9.639  1.00  0.00     0.014 C 
ATOM      3  C   UNL     1     -18.614  48.999   9.469  1.00  0.00     0.014 C 
ATOM      4  C   UNL     1     -20.437  49.895  11.048  1.00  0.00     0.028 C 
ATOM      5  C   UNL     1     -22.446  48.039   9.921  1.00  0.00     0.007 C 
ATOM      6  C   UNL     1     -17.737  49.381  10.691  1.00  0.00     0.013 C 
ATOM      7  C   UNL     1     -19.506  51.087  11.255  1.00  0.00    -0.064 C 
ATOM      8  C   UNL     1     -21.947  50.125  11.301  1.00  0.00     0.015 C 
ATOM      9  C   UNL     1     -22.762  48.807  11.239  1.00  0.00    -0.035 C 
ATOM     10  C   UNL     1     -17.993  50.821  11.312  1.00  0.00    -0.006 C 
ATOM     11  C   UNL     1     -19.979  52.329  11.447  1.00  0.00    -0.027 C 
ATOM     12  C   UNL     1     -22.470  47.915  12.469  1.00  0.00     0.011 C 
ATOM     13  C   UNL     1     -24.264  49.172  11.262  1.00  0.00     0.011 C 
ATOM     14  C   UNL     1     -17.704  50.635  12.841  1.00  0.00     0.017 C 
ATOM     15  C   UNL     1     -17.110  52.065  10.642  1.00  0.00    -0.020 C 
ATOM     16  C   UNL     1     -19.052  53.493  11.517  1.00  0.00     0.032 C 
ATOM     17  C   UNL     1     -18.005  53.375  10.380  1.00  0.00     0.006 C 
ATOM     18  C   UNL     1     -15.907  52.461  11.576  1.00  0.00     0.008 C 
ATOM     19  C   UNL     1     -16.485  51.614   9.279  1.00  0.00     0.012 C 
ATOM     20  C   UNL     1     -17.201  54.740  10.053  1.00  0.00    -0.025 C 
ATOM     21  C   UNL     1     -15.122  53.713  11.171  1.00  0.00     0.005 C 
ATOM     22  C   UNL     1     -16.052  54.954  11.110  1.00  0.00     0.006 C 
ATOM     23  C   UNL     1     -18.146  55.985  10.130  1.00  0.00     0.010 C 
ATOM     24  C   UNL     1     -16.672  54.669   8.571  1.00  0.00     0.012 C 
ATOM     25  C   UNL     1     -15.292  56.356  11.049  1.00  0.00     0.020 C 
ATOM     26  C   UNL     1     -17.430  57.336   9.961  1.00  0.00     0.033 C 
ATOM     27  C   UNL     1     -16.339  57.526  11.026  1.00  0.00     0.123 C 
ATOM     28  C   UNL     1     -14.359  56.495   9.817  1.00  0.00     0.017 C 
ENDROOT
BRANCH   1  29
ATOM     29  C   UNL     1     -20.637  50.109   8.495  1.00  0.00     0.048 C 
ATOM     30  O   UNL     1     -21.504  49.667   7.690  1.00  0.00    -0.550 OA
ATOM     31  O   UNL     1     -19.973  51.294   8.185  1.00  0.00    -0.550 OA
ENDBRANCH   1  29
BRANCH  25  32
ATOM     32  C   UNL     1     -14.413  56.571  12.331  1.00  0.00     0.165 C 
BRANCH  32  33
ATOM     33  O   UNL     1     -14.156  57.928  12.586  1.00  0.00    -0.396 OA
ATOM     34  H   UNL     1     -13.203  58.091  12.360  1.00  0.00     0.210 HD
ENDBRANCH  32  33
ENDBRANCH  25  32
BRANCH  27  35
ATOM     35  O   UNL     1     -16.957  57.656  12.291  1.00  0.00    -0.392 OA
ATOM     36  H   UNL     1     -16.348  58.215  12.856  1.00  0.00     0.210 HD
ENDBRANCH  27  35
TORSDOF 4
ENDMDL
MODEL 5
REMARK VINA RESULT:    -5.414      3.409      6.260
REMARK INTER + INTRA:          -6.208
REMARK INTER:                  -6.144
REMARK INTRA:                  -0.064
REMARK UNBOUND:                 0.155
REMARK SMILES CC1(C)CC[C@]2(C(=O)[O-])CC[C@]3(C)C(=CC[C@H]4[C@@]5(C)CC[C@@H](O)[C@@](C)(CO)[C@@H]5CC[C@]43C)[C@H]2C1
REMARK SMILES IDX 6 1 5 2 10 3 33 4 4 5 11 6 14 7 34 8 2 9 12 10 15 11 1 12
REMARK SMILES IDX 3 13 13 14 31 15 16 16 17 17 30 18 32 19 18 20 29 21 28 22
REMARK SMILES IDX 20 23 19 24 24 25 21 26 22 27 25 28 7 29 8 30 9 31 26 32
REMARK SMILES IDX 27 33 23 35
REMARK H PARENT 27 34 23 36
REMARK Flexibility Score: inf
ROOT
ATOM      1  C   UNL     1     -19.037  56.839  11.566  1.00  0.00     0.017 C 
ATOM      2  C   UNL     1     -19.827  58.175  11.750  1.00  0.00     0.014 C 
ATOM      3  C   UNL     1     -17.530  57.022  11.990  1.00  0.00     0.014 C 
ATOM      4  C   UNL     1     -19.125  56.463  10.051  1.00  0.00     0.028 C 
ATOM      5  C   UNL     1     -21.291  58.081  11.252  1.00  0.00     0.007 C 
ATOM      6  C   UNL     1     -16.500  56.877  10.838  1.00  0.00     0.013 C 
ATOM      7  C   UNL     1     -18.156  55.327   9.736  1.00  0.00    -0.064 C 
ATOM      8  C   UNL     1     -20.587  56.298   9.569  1.00  0.00     0.015 C 
ATOM      9  C   UNL     1     -21.426  57.585   9.782  1.00  0.00    -0.035 C 
ATOM     10  C   UNL     1     -16.652  55.587   9.923  1.00  0.00    -0.006 C 
ATOM     11  C   UNL     1     -18.579  54.149   9.249  1.00  0.00    -0.027 C 
ATOM     12  C   UNL     1     -20.997  58.696   8.794  1.00  0.00     0.011 C 
ATOM     13  C   UNL     1     -22.907  57.243   9.500  1.00  0.00     0.011 C 
ATOM     14  C   UNL     1     -16.176  56.063   8.508  1.00  0.00     0.017 C 
ATOM     15  C   UNL     1     -15.839  54.229  10.446  1.00  0.00    -0.020 C 
ATOM     16  C   UNL     1     -17.631  53.013   9.073  1.00  0.00     0.032 C 
ATOM     17  C   UNL     1     -16.736  52.901  10.335  1.00  0.00     0.006 C 
ATOM     18  C   UNL     1     -14.522  54.013   9.612  1.00  0.00     0.008 C 
ATOM     19  C   UNL     1     -15.397  54.403  11.939  1.00  0.00     0.012 C 
ATOM     20  C   UNL     1     -15.958  51.492  10.491  1.00  0.00    -0.025 C 
ATOM     21  C   UNL     1     -13.772  52.700   9.863  1.00  0.00     0.005 C 
ATOM     22  C   UNL     1     -14.682  51.478   9.566  1.00  0.00     0.006 C 
ATOM     23  C   UNL     1     -16.864  50.293  10.056  1.00  0.00     0.010 C 
ATOM     24  C   UNL     1     -15.619  51.271  12.013  1.00  0.00     0.012 C 
ATOM     25  C   UNL     1     -13.911  50.085   9.450  1.00  0.00     0.020 C 
ATOM     26  C   UNL     1     -16.152  48.929  10.049  1.00  0.00     0.033 C 
ATOM     27  C   UNL     1     -14.933  48.941   9.114  1.00  0.00     0.123 C 
ATOM     28  C   UNL     1     -13.138  49.703  10.740  1.00  0.00     0.017 C 
ENDROOT
BRANCH   1  29
ATOM     29  C   UNL     1     -19.640  55.759  12.468  1.00  0.00     0.048 C 
ATOM     30  O   UNL     1     -20.690  56.004  13.125  1.00  0.00    -0.550 OA
ATOM     31  O   UNL     1     -18.930  54.592  12.743  1.00  0.00    -0.550 OA
ENDBRANCH   1  29
BRANCH  25  32
ATOM     32  C   UNL     1     -12.875  50.116   8.272  1.00  0.00     0.165 C 
BRANCH  32  33
ATOM     33  O   UNL     1     -13.373  50.771   7.134  1.00  0.00    -0.396 OA
ATOM     34  H   UNL     1     -12.594  51.165   6.661  1.00  0.00     0.210 HD
ENDBRANCH  32  33
ENDBRANCH  25  32
BRANCH  27  35
ATOM     35  O   UNL     1     -15.386  49.064   7.780  1.00  0.00    -0.392 OA
ATOM     36  H   UNL     1     -15.158  48.205   7.317  1.00  0.00     0.210 HD
ENDBRANCH  27  35
TORSDOF 4
ENDMDL
MODEL 6
REMARK VINA RESULT:    -5.401      2.724      8.103
REMARK INTER + INTRA:          -6.192
REMARK INTER:                  -6.184
REMARK INTRA:                  -0.009
REMARK UNBOUND:                 0.155
REMARK SMILES CC1(C)CC[C@]2(C(=O)[O-])CC[C@]3(C)C(=CC[C@H]4[C@@]5(C)CC[C@@H](O)[C@@](C)(CO)[C@@H]5CC[C@]43C)[C@H]2C1
REMARK SMILES IDX 6 1 5 2 10 3 33 4 4 5 11 6 14 7 34 8 2 9 12 10 15 11 1 12
REMARK SMILES IDX 3 13 13 14 31 15 16 16 17 17 30 18 32 19 18 20 29 21 28 22
REMARK SMILES IDX 20 23 19 24 24 25 21 26 22 27 25 28 7 29 8 30 9 31 26 32
REMARK SMILES IDX 27 33 23 35
REMARK H PARENT 27 34 23 36
REMARK Flexibility Score: inf
ROOT
ATOM      1  C   UNL     1     -15.845  57.496   9.335  1.00  0.00     0.017 C 
ATOM      2  C   UNL     1     -15.562  59.033   9.327  1.00  0.00     0.014 C 
ATOM      3  C   UNL     1     -15.682  56.908  10.789  1.00  0.00     0.014 C 
ATOM      4  C   UNL     1     -14.804  56.837   8.371  1.00  0.00     0.028 C 
ATOM      5  C   UNL     1     -15.608  59.645   7.905  1.00  0.00     0.007 C 
ATOM      6  C   UNL     1     -14.515  55.902  10.964  1.00  0.00     0.013 C 
ATOM      7  C   UNL     1     -14.830  55.319   8.531  1.00  0.00    -0.064 C 
ATOM      8  C   UNL     1     -14.898  57.397   6.931  1.00  0.00     0.015 C 
ATOM      9  C   UNL     1     -14.677  58.931   6.881  1.00  0.00    -0.035 C 
ATOM     10  C   UNL     1     -14.435  54.729   9.895  1.00  0.00    -0.006 C 
ATOM     11  C   UNL     1     -15.126  54.504   7.506  1.00  0.00    -0.027 C 
ATOM     12  C   UNL     1     -13.196  59.288   7.156  1.00  0.00     0.011 C 
ATOM     13  C   UNL     1     -15.027  59.419   5.456  1.00  0.00     0.011 C 
ATOM     14  C   UNL     1     -12.901  54.446   9.749  1.00  0.00     0.017 C 
ATOM     15  C   UNL     1     -15.306  53.356  10.262  1.00  0.00    -0.020 C 
ATOM     16  C   UNL     1     -15.273  53.037   7.717  1.00  0.00     0.032 C 
ATOM     17  C   UNL     1     -16.117  52.792   8.995  1.00  0.00     0.006 C 
ATOM     18  C   UNL     1     -14.354  52.218  10.791  1.00  0.00     0.008 C 
ATOM     19  C   UNL     1     -16.327  53.652  11.411  1.00  0.00     0.012 C 
ATOM     20  C   UNL     1     -16.719  51.297   9.134  1.00  0.00    -0.025 C 
ATOM     21  C   UNL     1     -14.996  50.841  10.991  1.00  0.00     0.005 C 
ATOM     22  C   UNL     1     -15.605  50.317   9.664  1.00  0.00     0.006 C 
ATOM     23  C   UNL     1     -17.204  50.751   7.749  1.00  0.00     0.010 C 
ATOM     24  C   UNL     1     -17.989  51.351  10.065  1.00  0.00     0.012 C 
ATOM     25  C   UNL     1     -15.977  48.765   9.668  1.00  0.00     0.020 C 
ATOM     26  C   UNL     1     -17.668  49.284   7.773  1.00  0.00     0.033 C 
ATOM     27  C   UNL     1     -16.548  48.353   8.264  1.00  0.00     0.123 C 
ATOM     28  C   UNL     1     -17.012  48.384  10.760  1.00  0.00     0.017 C 
ENDROOT
BRANCH   1  29
ATOM     29  C   UNL     1     -17.288  57.238   8.895  1.00  0.00     0.048 C 
ATOM     30  O   UNL     1     -17.922  58.132   8.267  1.00  0.00    -0.550 OA
ATOM     31  O   UNL     1     -17.981  56.124   9.364  1.00  0.00    -0.550 OA
ENDBRANCH   1  29
BRANCH  25  32
ATOM     32  C   UNL     1     -14.700  47.884   9.903  1.00  0.00     0.165 C 
BRANCH  32  33
ATOM     33  O   UNL     1     -13.581  48.360   9.201  1.00  0.00    -0.396 OA
ATOM     34  H   UNL     1     -12.888  48.584   9.876  1.00  0.00     0.210 HD
ENDBRANCH  32  33
ENDBRANCH  25  32
BRANCH  27  35
ATOM     35  O   UNL     1     -15.515  48.338   7.299  1.00  0.00    -0.392 OA
ATOM     36  H   UNL     1     -15.957  48.277   6.402  1.00  0.00     0.210 HD
ENDBRANCH  27  35
TORSDOF 4
ENDMDL
MODEL 7
REMARK VINA RESULT:    -5.298      9.946     15.644
REMARK INTER + INTRA:          -6.072
REMARK INTER:                  -6.149
REMARK INTRA:                   0.076
REMARK UNBOUND:                 0.155
REMARK SMILES CC1(C)CC[C@]2(C(=O)[O-])CC[C@]3(C)C(=CC[C@H]4[C@@]5(C)CC[C@@H](O)[C@@](C)(CO)[C@@H]5CC[C@]43C)[C@H]2C1
REMARK SMILES IDX 6 1 5 2 10 3 33 4 4 5 11 6 14 7 34 8 2 9 12 10 15 11 1 12
REMARK SMILES IDX 3 13 13 14 31 15 16 16 17 17 30 18 32 19 18 20 29 21 28 22
REMARK SMILES IDX 20 23 19 24 24 25 21 26 22 27 25 28 7 29 8 30 9 31 26 32
REMARK SMILES IDX 27 33 23 35
REMARK H PARENT 27 34 23 36
REMARK Flexibility Score: inf
ROOT
ATOM      1  C   UNL     1     -15.004  63.986  -2.232  1.00  0.00     0.017 C 
ATOM      2  C   UNL     1     -15.195  64.572  -3.668  1.00  0.00     0.014 C 
ATOM      3  C   UNL     1     -14.905  62.413  -2.282  1.00  0.00     0.014 C 
ATOM      4  C   UNL     1     -16.251  64.418  -1.394  1.00  0.00     0.028 C 
ATOM      5  C   UNL     1     -15.400  66.108  -3.667  1.00  0.00     0.007 C 
ATOM      6  C   UNL     1     -16.068  61.659  -1.587  1.00  0.00     0.013 C 
ATOM      7  C   UNL     1     -16.278  63.661  -0.068  1.00  0.00    -0.064 C 
ATOM      8  C   UNL     1     -16.416  65.956  -1.332  1.00  0.00     0.015 C 
ATOM      9  C   UNL     1     -16.556  66.589  -2.741  1.00  0.00    -0.035 C 
ATOM     10  C   UNL     1     -16.425  62.131  -0.111  1.00  0.00    -0.006 C 
ATOM     11  C   UNL     1     -16.240  64.300   1.113  1.00  0.00    -0.027 C 
ATOM     12  C   UNL     1     -17.930  66.249  -3.368  1.00  0.00     0.011 C 
ATOM     13  C   UNL     1     -16.471  68.125  -2.586  1.00  0.00     0.011 C 
ATOM     14  C   UNL     1     -17.971  61.901   0.001  1.00  0.00     0.017 C 
ATOM     15  C   UNL     1     -15.577  61.383   1.113  1.00  0.00    -0.020 C 
ATOM     16  C   UNL     1     -16.137  63.536   2.388  1.00  0.00     0.032 C 
ATOM     17  C   UNL     1     -15.068  62.424   2.226  1.00  0.00     0.006 C 
ATOM     18  C   UNL     1     -16.466  60.292   1.819  1.00  0.00     0.008 C 
ATOM     19  C   UNL     1     -14.332  60.633   0.531  1.00  0.00     0.012 C 
ATOM     20  C   UNL     1     -14.536  61.788   3.614  1.00  0.00    -0.025 C 
ATOM     21  C   UNL     1     -15.875  59.655   3.081  1.00  0.00     0.005 C 
ATOM     22  C   UNL     1     -15.574  60.733   4.156  1.00  0.00     0.006 C 
ATOM     23  C   UNL     1     -14.369  62.889   4.714  1.00  0.00     0.010 C 
ATOM     24  C   UNL     1     -13.104  61.176   3.371  1.00  0.00     0.012 C 
ATOM     25  C   UNL     1     -15.296  60.159   5.619  1.00  0.00     0.020 C 
ATOM     26  C   UNL     1     -13.993  62.346   6.104  1.00  0.00     0.033 C 
ATOM     27  C   UNL     1     -15.042  61.346   6.615  1.00  0.00     0.123 C 
ATOM     28  C   UNL     1     -14.087  59.188   5.677  1.00  0.00     0.017 C 
ENDROOT
BRANCH   1  29
ATOM     29  C   UNL     1     -13.695  64.509  -1.635  1.00  0.00     0.048 C 
ATOM     30  O   UNL     1     -13.033  65.391  -2.251  1.00  0.00    -0.550 OA
ATOM     31  O   UNL     1     -13.114  63.874  -0.540  1.00  0.00    -0.550 OA
ENDBRANCH   1  29
BRANCH  25  32
ATOM     32  C   UNL     1     -16.548  59.384   6.162  1.00  0.00     0.165 C 
BRANCH  32  33
ATOM     33  O   UNL     1     -16.280  58.025   6.395  1.00  0.00    -0.396 OA
ATOM     34  H   UNL     1     -16.992  57.688   6.999  1.00  0.00     0.210 HD
ENDBRANCH  32  33
ENDBRANCH  25  32
BRANCH  27  35
ATOM     35  O   UNL     1     -16.246  62.041   6.868  1.00  0.00    -0.392 OA
ATOM     36  H   UNL     1     -16.375  62.046   7.861  1.00  0.00     0.210 HD
ENDBRANCH  27  35
TORSDOF 4
ENDMDL
MODEL 8
REMARK VINA RESULT:    -5.295      1.768      2.285
REMARK INTER + INTRA:          -6.068
REMARK INTER:                  -6.169
REMARK INTRA:                   0.101
REMARK UNBOUND:                 0.155
REMARK SMILES CC1(C)CC[C@]2(C(=O)[O-])CC[C@]3(C)C(=CC[C@H]4[C@@]5(C)CC[C@@H](O)[C@@](C)(CO)[C@@H]5CC[C@]43C)[C@H]2C1
REMARK SMILES IDX 6 1 5 2 10 3 33 4 4 5 11 6 14 7 34 8 2 9 12 10 15 11 1 12
REMARK SMILES IDX 3 13 13 14 31 15 16 16 17 17 30 18 32 19 18 20 29 21 28 22
REMARK SMILES IDX 20 23 19 24 24 25 21 26 22 27 25 28 7 29 8 30 9 31 26 32
REMARK SMILES IDX 27 33 23 35
REMARK H PARENT 27 34 23 36
REMARK Flexibility Score: inf
ROOT
ATOM      1  C   UNL     1     -18.356  49.222   9.831  1.00  0.00     0.017 C 
ATOM      2  C   UNL     1     -19.214  47.916   9.802  1.00  0.00     0.014 C 
ATOM      3  C   UNL     1     -17.443  49.259  11.115  1.00  0.00     0.014 C 
ATOM      4  C   UNL     1     -19.356  50.424   9.850  1.00  0.00     0.028 C 
ATOM      5  C   UNL     1     -20.206  47.875   8.613  1.00  0.00     0.007 C 
ATOM      6  C   UNL     1     -17.775  50.388  12.126  1.00  0.00     0.013 C 
ATOM      7  C   UNL     1     -18.610  51.721  10.155  1.00  0.00    -0.064 C 
ATOM      8  C   UNL     1     -20.300  50.424   8.623  1.00  0.00     0.015 C 
ATOM      9  C   UNL     1     -21.136  49.121   8.524  1.00  0.00    -0.035 C 
ATOM     10  C   UNL     1     -17.914  51.851  11.519  1.00  0.00    -0.006 C 
ATOM     11  C   UNL     1     -18.604  52.753   9.295  1.00  0.00    -0.027 C 
ATOM     12  C   UNL     1     -22.218  49.070   9.629  1.00  0.00     0.011 C 
ATOM     13  C   UNL     1     -21.854  49.117   7.155  1.00  0.00     0.011 C 
ATOM     14  C   UNL     1     -18.992  52.539  12.425  1.00  0.00     0.017 C 
ATOM     15  C   UNL     1     -16.503  52.732  11.424  1.00  0.00    -0.020 C 
ATOM     16  C   UNL     1     -17.764  53.955   9.556  1.00  0.00     0.032 C 
ATOM     17  C   UNL     1     -16.356  53.498  10.019  1.00  0.00     0.006 C 
ATOM     18  C   UNL     1     -16.431  53.795  12.583  1.00  0.00     0.008 C 
ATOM     19  C   UNL     1     -15.263  51.792  11.606  1.00  0.00     0.012 C 
ATOM     20  C   UNL     1     -15.212  54.638   9.938  1.00  0.00    -0.025 C 
ATOM     21  C   UNL     1     -15.275  54.798  12.507  1.00  0.00     0.005 C 
ATOM     22  C   UNL     1     -15.325  55.601  11.180  1.00  0.00     0.006 C 
ATOM     23  C   UNL     1     -15.375  55.513   8.651  1.00  0.00     0.010 C 
ATOM     24  C   UNL     1     -13.807  53.934   9.828  1.00  0.00     0.012 C 
ATOM     25  C   UNL     1     -14.397  56.900  11.151  1.00  0.00     0.020 C 
ATOM     26  C   UNL     1     -14.405  56.705   8.566  1.00  0.00     0.033 C 
ATOM     27  C   UNL     1     -14.564  57.640   9.775  1.00  0.00     0.123 C 
ATOM     28  C   UNL     1     -12.893  56.584  11.370  1.00  0.00     0.017 C 
ENDROOT
BRANCH   1  29
ATOM     29  C   UNL     1     -17.433  49.255   8.610  1.00  0.00     0.048 C 
ATOM     30  O   UNL     1     -17.450  48.300   7.784  1.00  0.00    -0.550 OA
ATOM     31  O   UNL     1     -16.424  50.210   8.513  1.00  0.00    -0.550 OA
ENDBRANCH   1  29
BRANCH  25  32
ATOM     32  C   UNL     1     -14.829  57.921  12.260  1.00  0.00     0.165 C 
BRANCH  32  33
ATOM     33  O   UNL     1     -13.818  58.848  12.563  1.00  0.00    -0.396 OA
ATOM     34  H   UNL     1     -13.327  58.495  13.350  1.00  0.00     0.210 HD
ENDBRANCH  32  33
ENDBRANCH  25  32
BRANCH  27  35
ATOM     35  O   UNL     1     -15.831  58.263   9.704  1.00  0.00    -0.392 OA
ATOM     36  H   UNL     1     -16.410  57.677   9.134  1.00  0.00     0.210 HD
ENDBRANCH  27  35
TORSDOF 4
ENDMDL
