MODEL 1
REMARK VINA RESULT:    -2.985      0.000      0.000
REMARK INTER + INTRA:         -13.522
REMARK INTER:                  -7.872
REMARK INTRA:                  -5.650
REMARK UNBOUND:                -5.650
REMARK SMILES CCCCCCCCCCCCCCCCCCCCCCCCCCCCCC(=O)[O-]
REMARK SMILES IDX 16 1 17 2 18 3 19 4 20 5 21 6 22 7 23 8 24 9 25 10 26 11
REMARK SMILES IDX 27 12 28 13 29 14 30 15 31 16 32 17 15 18 14 19 13 20 12 21
REMARK SMILES IDX 11 22 10 23 9 24 8 25 7 26 6 27 5 28 4 29 3 30 2 31 1 32
REMARK H PARENT
REMARK Flexibility Score: inf
ROOT
ATOM      1  C   UNL     1      57.973   0.149  92.658  1.00  0.00     0.000 C 
ENDROOT
BRANCH   1   2
ATOM      2  C   UNL     1      59.485   0.126  92.361  1.00  0.00     0.000 C 
BRANCH   2   3
ATOM      3  C   UNL     1      60.226  -1.156  92.799  1.00  0.00     0.000 C 
BRANCH   3   4
ATOM      4  C   UNL     1      60.212  -1.442  94.315  1.00  0.00     0.000 C 
BRANCH   4   5
ATOM      5  C   UNL     1      60.615  -0.249  95.199  1.00  0.00     0.000 C 
BRANCH   5   6
ATOM      6  C   UNL     1      59.517   0.143  96.199  1.00  0.00     0.000 C 
BRANCH   6   7
ATOM      7  C   UNL     1      58.493  -0.994  96.376  1.00  0.00     0.000 C 
BRANCH   7   8
ATOM      8  C   UNL     1      57.050  -0.470  96.439  1.00  0.00     0.000 C 
BRANCH   8   9
ATOM      9  C   UNL     1      56.102  -1.224  95.495  1.00  0.00     0.000 C 
BRANCH   9  10
ATOM     10  C   UNL     1      56.600  -2.644  95.160  1.00  0.00     0.000 C 
BRANCH  10  11
ATOM     11  C   UNL     1      56.662  -2.976  93.659  1.00  0.00     0.000 C 
BRANCH  11  12
ATOM     12  C   UNL     1      57.457  -4.258  93.363  1.00  0.00     0.000 C 
BRANCH  12  13
ATOM     13  C   UNL     1      58.339  -4.118  92.114  1.00  0.00     0.006 C 
BRANCH  13  14
ATOM     14  C   UNL     1      57.701  -3.222  91.044  1.00  0.00     0.053 C 
BRANCH  14  15
ATOM     15  C   UNL     1      57.967  -3.771  89.678  1.00  0.00     0.041 C 
ATOM     16  O   UNL     1      58.362  -4.963  89.540  1.00  0.00    -0.550 OA
ATOM     17  O   UNL     1      57.726  -2.990  88.556  1.00  0.00    -0.550 OA
ENDBRANCH  14  15
ENDBRANCH  13  14
ENDBRANCH  12  13
ENDBRANCH  11  12
ENDBRANCH  10  11
ENDBRANCH   9  10
ENDBRANCH   8   9
ENDBRANCH   7   8
ENDBRANCH   6   7
ENDBRANCH   5   6
ENDBRANCH   4   5
ENDBRANCH   3   4
ENDBRANCH   2   3
ENDBRANCH   1   2
BRANCH   1  18
ATOM     18  C   UNL     1      57.347   1.551  92.518  1.00  0.00     0.000 C 
BRANCH  18  19
ATOM     19  C   UNL     1      56.680   2.030  93.830  1.00  0.00     0.000 C 
BRANCH  19  20
ATOM     20  C   UNL     1      57.655   2.786  94.755  1.00  0.00     0.000 C 
BRANCH  20  21
ATOM     21  C   UNL     1      57.004   3.236  96.080  1.00  0.00     0.000 C 
BRANCH  21  22
ATOM     22  C   UNL     1      58.027   3.736  97.125  1.00  0.00     0.000 C 
BRANCH  22  23
ATOM     23  C   UNL     1      58.491   5.180  96.862  1.00  0.00     0.000 C 
BRANCH  23  24
ATOM     24  C   UNL     1      59.997   5.295  96.560  1.00  0.00    -0.000 C 
BRANCH  24  25
ATOM     25  C   UNL     1      60.479   6.754  96.362  1.00  0.00    -0.000 C 
BRANCH  25  26
ATOM     26  C   UNL     1      59.375   7.780  96.651  1.00  0.00    -0.000 C 
BRANCH  26  27
ATOM     27  C   UNL     1      59.252   8.802  95.517  1.00  0.00    -0.000 C 
BRANCH  27  28
ATOM     28  C   UNL     1      59.920   8.282  94.232  1.00  0.00    -0.000 C 
BRANCH  28  29
ATOM     29  C   UNL     1      58.907   7.793  93.178  1.00  0.00    -0.000 C 
BRANCH  29  30
ATOM     30  C   UNL     1      58.405   6.347  93.373  1.00  0.00    -0.000 C 
BRANCH  30  31
ATOM     31  C   UNL     1      56.875   6.188  93.477  1.00  0.00    -0.003 C 
ATOM     32  C   UNL     1      56.270   6.997  94.623  1.00  0.00     0.004 C 
ENDBRANCH  30  31
ENDBRANCH  29  30
ENDBRANCH  28  29
ENDBRANCH  27  28
ENDBRANCH  26  27
ENDBRANCH  25  26
ENDBRANCH  24  25
ENDBRANCH  23  24
ENDBRANCH  22  23
ENDBRANCH  21  22
ENDBRANCH  20  21
ENDBRANCH  19  20
ENDBRANCH  18  19
ENDBRANCH   1  18
TORSDOF 28
ENDMDL
MODEL 2
REMARK VINA RESULT:    -2.961      3.473      8.320
REMARK INTER + INTRA:         -13.457
REMARK INTER:                  -8.445
REMARK INTRA:                  -5.012
REMARK UNBOUND:                -5.650
REMARK SMILES CCCCCCCCCCCCCCCCCCCCCCCCCCCCCC(=O)[O-]
REMARK SMILES IDX 16 1 17 2 18 3 19 4 20 5 21 6 22 7 23 8 24 9 25 10 26 11
REMARK SMILES IDX 27 12 28 13 29 14 30 15 31 16 32 17 15 18 14 19 13 20 12 21
REMARK SMILES IDX 11 22 10 23 9 24 8 25 7 26 6 27 5 28 4 29 3 30 2 31 1 32
REMARK H PARENT
REMARK Flexibility Score: inf
ROOT
ATOM      1  C   UNL     1      57.489   4.060  95.534  1.00  0.00     0.000 C 
ENDROOT
BRANCH   1   2
ATOM      2  C   UNL     1      58.424   4.223  96.748  1.00  0.00     0.000 C 
BRANCH   2   3
ATOM      3  C   UNL     1      59.064   5.619  96.909  1.00  0.00     0.000 C 
BRANCH   3   4
ATOM      4  C   UNL     1      60.478   5.771  96.313  1.00  0.00     0.000 C 
BRANCH   4   5
ATOM      5  C   UNL     1      60.843   7.201  95.875  1.00  0.00     0.000 C 
BRANCH   5   6
ATOM      6  C   UNL     1      60.119   8.274  96.701  1.00  0.00     0.000 C 
BRANCH   6   7
ATOM      7  C   UNL     1      59.632   9.430  95.807  1.00  0.00     0.000 C 
BRANCH   7   8
ATOM      8  C   UNL     1      59.659   9.060  94.316  1.00  0.00     0.000 C 
BRANCH   8   9
ATOM      9  C   UNL     1      58.253   8.884  93.722  1.00  0.00     0.000 C 
BRANCH   9  10
ATOM     10  C   UNL     1      57.735   7.437  93.837  1.00  0.00     0.000 C 
BRANCH  10  11
ATOM     11  C   UNL     1      58.507   6.400  93.003  1.00  0.00     0.000 C 
BRANCH  11  12
ATOM     12  C   UNL     1      57.649   5.764  91.896  1.00  0.00     0.000 C 
BRANCH  12  13
ATOM     13  C   UNL     1      56.229   5.436  92.379  1.00  0.00     0.006 C 
BRANCH  13  14
ATOM     14  C   UNL     1      55.152   5.900  91.390  1.00  0.00     0.053 C 
BRANCH  14  15
ATOM     15  C   UNL     1      54.190   6.827  92.064  1.00  0.00     0.041 C 
ATOM     16  O   UNL     1      54.423   8.067  92.094  1.00  0.00    -0.550 OA
ATOM     17  O   UNL     1      53.012   6.332  92.607  1.00  0.00    -0.550 OA
ENDBRANCH  14  15
ENDBRANCH  13  14
ENDBRANCH  12  13
ENDBRANCH  11  12
ENDBRANCH  10  11
ENDBRANCH   9  10
ENDBRANCH   8   9
ENDBRANCH   7   8
ENDBRANCH   6   7
ENDBRANCH   5   6
ENDBRANCH   4   5
ENDBRANCH   3   4
ENDBRANCH   2   3
ENDBRANCH   1   2
BRANCH   1  18
ATOM     18  C   UNL     1      57.298   2.592  95.106  1.00  0.00     0.000 C 
BRANCH  18  19
ATOM     19  C   UNL     1      58.300   1.641  95.805  1.00  0.00     0.000 C 
BRANCH  19  20
ATOM     20  C   UNL     1      57.725   0.228  96.031  1.00  0.00     0.000 C 
BRANCH  20  21
ATOM     21  C   UNL     1      58.813  -0.865  96.075  1.00  0.00     0.000 C 
BRANCH  21  22
ATOM     22  C   UNL     1      60.250  -0.299  96.009  1.00  0.00     0.000 C 
BRANCH  22  23
ATOM     23  C   UNL     1      61.039  -0.816  94.793  1.00  0.00     0.000 C 
BRANCH  23  24
ATOM     24  C   UNL     1      60.247  -1.815  93.927  1.00  0.00    -0.000 C 
BRANCH  24  25
ATOM     25  C   UNL     1      60.037  -1.338  92.468  1.00  0.00    -0.000 C 
BRANCH  25  26
ATOM     26  C   UNL     1      59.102  -0.124  92.377  1.00  0.00    -0.000 C 
BRANCH  26  27
ATOM     27  C   UNL     1      57.632  -0.543  92.467  1.00  0.00    -0.000 C 
BRANCH  27  28
ATOM     28  C   UNL     1      56.705   0.599  92.015  1.00  0.00    -0.000 C 
BRANCH  28  29
ATOM     29  C   UNL     1      57.471   1.815  91.458  1.00  0.00    -0.000 C 
BRANCH  29  30
ATOM     30  C   UNL     1      56.796   2.522  90.263  1.00  0.00    -0.000 C 
BRANCH  30  31
ATOM     31  C   UNL     1      55.592   1.779  89.651  1.00  0.00    -0.003 C 
ATOM     32  C   UNL     1      54.251   2.398  90.040  1.00  0.00     0.004 C 
ENDBRANCH  30  31
ENDBRANCH  29  30
ENDBRANCH  28  29
ENDBRANCH  27  28
ENDBRANCH  26  27
ENDBRANCH  25  26
ENDBRANCH  24  25
ENDBRANCH  23  24
ENDBRANCH  22  23
ENDBRANCH  21  22
ENDBRANCH  20  21
ENDBRANCH  19  20
ENDBRANCH  18  19
ENDBRANCH   1  18
TORSDOF 28
ENDMDL
MODEL 3
REMARK VINA RESULT:    -2.955      2.441      7.581
REMARK INTER + INTRA:         -13.442
REMARK INTER:                  -8.650
REMARK INTRA:                  -4.793
REMARK UNBOUND:                -5.650
REMARK SMILES CCCCCCCCCCCCCCCCCCCCCCCCCCCCCC(=O)[O-]
REMARK SMILES IDX 16 1 17 2 18 3 19 4 20 5 21 6 22 7 23 8 24 9 25 10 26 11
REMARK SMILES IDX 27 12 28 13 29 14 30 15 31 16 32 17 15 18 14 19 13 20 12 21
REMARK SMILES IDX 11 22 10 23 9 24 8 25 7 26 6 27 5 28 4 29 3 30 2 31 1 32
REMARK H PARENT
REMARK Flexibility Score: inf
ROOT
ATOM      1  C   UNL     1      57.027   3.833  95.115  1.00  0.00     0.000 C 
ENDROOT
BRANCH   1   2
ATOM      2  C   UNL     1      57.072   5.239  95.743  1.00  0.00     0.000 C 
BRANCH   2   3
ATOM      3  C   UNL     1      58.026   5.397  96.947  1.00  0.00     0.000 C 
BRANCH   3   4
ATOM      4  C   UNL     1      59.530   5.308  96.615  1.00  0.00     0.000 C 
BRANCH   4   5
ATOM      5  C   UNL     1      60.263   6.661  96.578  1.00  0.00     0.000 C 
BRANCH   5   6
ATOM      6  C   UNL     1      60.904   6.949  95.212  1.00  0.00     0.000 C 
BRANCH   6   7
ATOM      7  C   UNL     1      59.944   7.735  94.300  1.00  0.00     0.000 C 
BRANCH   7   8
ATOM      8  C   UNL     1      59.806   7.091  92.912  1.00  0.00     0.000 C 
BRANCH   8   9
ATOM      9  C   UNL     1      58.433   6.439  92.692  1.00  0.00     0.000 C 
BRANCH   9  10
ATOM     10  C   UNL     1      58.035   6.376  91.205  1.00  0.00     0.000 C 
BRANCH  10  11
ATOM     11  C   UNL     1      56.706   5.656  90.916  1.00  0.00     0.000 C 
BRANCH  11  12
ATOM     12  C   UNL     1      56.894   4.348  90.129  1.00  0.00     0.000 C 
BRANCH  12  13
ATOM     13  C   UNL     1      55.564   3.621  89.886  1.00  0.00     0.006 C 
BRANCH  13  14
ATOM     14  C   UNL     1      55.566   2.193  90.445  1.00  0.00     0.053 C 
BRANCH  14  15
ATOM     15  C   UNL     1      54.662   2.097  91.633  1.00  0.00     0.041 C 
ATOM     16  O   UNL     1      53.877   1.116  91.753  1.00  0.00    -0.550 OA
ATOM     17  O   UNL     1      54.726   3.056  92.634  1.00  0.00    -0.550 OA
ENDBRANCH  14  15
ENDBRANCH  13  14
ENDBRANCH  12  13
ENDBRANCH  11  12
ENDBRANCH  10  11
ENDBRANCH   9  10
ENDBRANCH   8   9
ENDBRANCH   7   8
ENDBRANCH   6   7
ENDBRANCH   5   6
ENDBRANCH   4   5
ENDBRANCH   3   4
ENDBRANCH   2   3
ENDBRANCH   1   2
BRANCH   1  18
ATOM     18  C   UNL     1      56.259   2.808  95.973  1.00  0.00     0.000 C 
BRANCH  18  19
ATOM     19  C   UNL     1      57.208   1.895  96.785  1.00  0.00     0.000 C 
BRANCH  19  20
ATOM     20  C   UNL     1      58.555   1.649  96.075  1.00  0.00     0.000 C 
BRANCH  20  21
ATOM     21  C   UNL     1      59.753   1.623  97.048  1.00  0.00     0.000 C 
BRANCH  21  22
ATOM     22  C   UNL     1      60.673   0.397  96.849  1.00  0.00     0.000 C 
BRANCH  22  23
ATOM     23  C   UNL     1      60.076  -0.649  95.891  1.00  0.00     0.000 C 
BRANCH  23  24
ATOM     24  C   UNL     1      60.950  -0.913  94.649  1.00  0.00    -0.000 C 
BRANCH  24  25
ATOM     25  C   UNL     1      60.442  -2.085  93.773  1.00  0.00    -0.000 C 
BRANCH  25  26
ATOM     26  C   UNL     1      60.213  -1.668  92.313  1.00  0.00    -0.000 C 
BRANCH  26  27
ATOM     27  C   UNL     1      59.666  -0.241  92.219  1.00  0.00    -0.000 C 
BRANCH  27  28
ATOM     28  C   UNL     1      58.396  -0.194  91.351  1.00  0.00    -0.000 C 
BRANCH  28  29
ATOM     29  C   UNL     1      57.159  -0.784  92.056  1.00  0.00    -0.000 C 
BRANCH  29  30
ATOM     30  C   UNL     1      56.883  -0.229  93.469  1.00  0.00    -0.000 C 
BRANCH  30  31
ATOM     31  C   UNL     1      56.747  -1.289  94.580  1.00  0.00    -0.003 C 
ATOM     32  C   UNL     1      56.815  -2.719  94.048  1.00  0.00     0.004 C 
ENDBRANCH  30  31
ENDBRANCH  29  30
ENDBRANCH  28  29
ENDBRANCH  27  28
ENDBRANCH  26  27
ENDBRANCH  25  26
ENDBRANCH  24  25
ENDBRANCH  23  24
ENDBRANCH  22  23
ENDBRANCH  21  22
ENDBRANCH  20  21
ENDBRANCH  19  20
ENDBRANCH  18  19
ENDBRANCH   1  18
TORSDOF 28
ENDMDL
MODEL 4
REMARK VINA RESULT:    -2.889      3.562      8.929
REMARK INTER + INTRA:         -13.268
REMARK INTER:                  -8.333
REMARK INTRA:                  -4.936
REMARK UNBOUND:                -5.650
REMARK SMILES CCCCCCCCCCCCCCCCCCCCCCCCCCCCCC(=O)[O-]
REMARK SMILES IDX 16 1 17 2 18 3 19 4 20 5 21 6 22 7 23 8 24 9 25 10 26 11
REMARK SMILES IDX 27 12 28 13 29 14 30 15 31 16 32 17 15 18 14 19 13 20 12 21
REMARK SMILES IDX 11 22 10 23 9 24 8 25 7 26 6 27 5 28 4 29 3 30 2 31 1 32
REMARK H PARENT
REMARK Flexibility Score: inf
ROOT
ATOM      1  C   UNL     1      58.406   3.008  96.393  1.00  0.00     0.000 C 
ENDROOT
BRANCH   1   2
ATOM      2  C   UNL     1      57.532   3.782  95.387  1.00  0.00     0.000 C 
BRANCH   2   3
ATOM      3  C   UNL     1      56.755   4.983  95.969  1.00  0.00     0.000 C 
BRANCH   3   4
ATOM      4  C   UNL     1      57.596   5.975  96.799  1.00  0.00     0.000 C 
BRANCH   4   5
ATOM      5  C   UNL     1      57.362   7.458  96.460  1.00  0.00     0.000 C 
BRANCH   5   6
ATOM      6  C   UNL     1      56.018   7.699  95.759  1.00  0.00     0.000 C 
BRANCH   6   7
ATOM      7  C   UNL     1      56.069   8.959  94.875  1.00  0.00     0.000 C 
BRANCH   7   8
ATOM      8  C   UNL     1      56.032   8.618  93.377  1.00  0.00     0.000 C 
BRANCH   8   9
ATOM      9  C   UNL     1      55.757   7.130  93.113  1.00  0.00     0.000 C 
BRANCH   9  10
ATOM     10  C   UNL     1      56.702   6.529  92.055  1.00  0.00     0.000 C 
BRANCH  10  11
ATOM     11  C   UNL     1      58.067   6.062  92.589  1.00  0.00     0.000 C 
BRANCH  11  12
ATOM     12  C   UNL     1      59.188   7.087  92.343  1.00  0.00     0.000 C 
BRANCH  12  13
ATOM     13  C   UNL     1      59.721   7.688  93.651  1.00  0.00     0.006 C 
BRANCH  13  14
ATOM     14  C   UNL     1      60.952   6.941  94.180  1.00  0.00     0.053 C 
BRANCH  14  15
ATOM     15  C   UNL     1      60.993   6.998  95.675  1.00  0.00     0.041 C 
ATOM     16  O   UNL     1      61.064   5.931  96.348  1.00  0.00    -0.550 OA
ATOM     17  O   UNL     1      61.012   8.225  96.324  1.00  0.00    -0.550 OA
ENDBRANCH  14  15
ENDBRANCH  13  14
ENDBRANCH  12  13
ENDBRANCH  11  12
ENDBRANCH  10  11
ENDBRANCH   9  10
ENDBRANCH   8   9
ENDBRANCH   7   8
ENDBRANCH   6   7
ENDBRANCH   5   6
ENDBRANCH   4   5
ENDBRANCH   3   4
ENDBRANCH   2   3
ENDBRANCH   1   2
BRANCH   1  18
ATOM     18  C   UNL     1      58.686   1.555  95.963  1.00  0.00     0.000 C 
BRANCH  18  19
ATOM     19  C   UNL     1      59.900   0.947  96.707  1.00  0.00     0.000 C 
BRANCH  19  20
ATOM     20  C   UNL     1      60.519  -0.252  95.961  1.00  0.00     0.000 C 
BRANCH  20  21
ATOM     21  C   UNL     1      60.225  -0.237  94.447  1.00  0.00     0.000 C 
BRANCH  21  22
ATOM     22  C   UNL     1      60.770  -1.480  93.706  1.00  0.00     0.000 C 
BRANCH  22  23
ATOM     23  C   UNL     1      59.779  -2.657  93.708  1.00  0.00     0.000 C 
BRANCH  23  24
ATOM     24  C   UNL     1      58.344  -2.253  93.321  1.00  0.00    -0.000 C 
BRANCH  24  25
ATOM     25  C   UNL     1      57.267  -2.771  94.307  1.00  0.00    -0.000 C 
BRANCH  25  26
ATOM     26  C   UNL     1      56.977  -1.773  95.437  1.00  0.00    -0.000 C 
BRANCH  26  27
ATOM     27  C   UNL     1      55.649  -1.045  95.212  1.00  0.00    -0.000 C 
BRANCH  27  28
ATOM     28  C   UNL     1      55.886   0.406  94.759  1.00  0.00    -0.000 C 
BRANCH  28  29
ATOM     29  C   UNL     1      55.308   0.706  93.362  1.00  0.00    -0.000 C 
BRANCH  29  30
ATOM     30  C   UNL     1      56.249   0.386  92.181  1.00  0.00    -0.000 C 
BRANCH  30  31
ATOM     31  C   UNL     1      57.530   1.240  92.109  1.00  0.00    -0.003 C 
ATOM     32  C   UNL     1      58.619   0.606  91.245  1.00  0.00     0.004 C 
ENDBRANCH  30  31
ENDBRANCH  29  30
ENDBRANCH  28  29
ENDBRANCH  27  28
ENDBRANCH  26  27
ENDBRANCH  25  26
ENDBRANCH  24  25
ENDBRANCH  23  24
ENDBRANCH  22  23
ENDBRANCH  21  22
ENDBRANCH  20  21
ENDBRANCH  19  20
ENDBRANCH  18  19
ENDBRANCH   1  18
TORSDOF 28
ENDMDL
MODEL 5
REMARK VINA RESULT:    -2.875      4.578     10.286
REMARK INTER + INTRA:         -13.232
REMARK INTER:                 -10.025
REMARK INTRA:                  -3.206
REMARK UNBOUND:                -5.650
REMARK SMILES CCCCCCCCCCCCCCCCCCCCCCCCCCCCCC(=O)[O-]
REMARK SMILES IDX 16 1 17 2 18 3 19 4 20 5 21 6 22 7 23 8 24 9 25 10 26 11
REMARK SMILES IDX 27 12 28 13 29 14 30 15 31 16 32 17 15 18 14 19 13 20 12 21
REMARK SMILES IDX 11 22 10 23 9 24 8 25 7 26 6 27 5 28 4 29 3 30 2 31 1 32
REMARK H PARENT
REMARK Flexibility Score: inf
ROOT
ATOM      1  C   UNL     1      57.082   2.710  96.065  1.00  0.00     0.000 C 
ENDROOT
BRANCH   1   2
ATOM      2  C   UNL     1      57.387   4.113  96.623  1.00  0.00     0.000 C 
BRANCH   2   3
ATOM      3  C   UNL     1      58.517   4.881  95.903  1.00  0.00     0.000 C 
BRANCH   3   4
ATOM      4  C   UNL     1      59.728   5.255  96.783  1.00  0.00     0.000 C 
BRANCH   4   5
ATOM      5  C   UNL     1      60.868   5.973  96.039  1.00  0.00     0.000 C 
BRANCH   5   6
ATOM      6  C   UNL     1      60.487   7.397  95.608  1.00  0.00     0.000 C 
BRANCH   6   7
ATOM      7  C   UNL     1      60.526   8.369  96.802  1.00  0.00     0.000 C 
BRANCH   7   8
ATOM      8  C   UNL     1      59.210   9.146  96.960  1.00  0.00     0.000 C 
BRANCH   8   9
ATOM      9  C   UNL     1      58.044   8.503  96.193  1.00  0.00     0.000 C 
BRANCH   9  10
ATOM     10  C   UNL     1      57.014   7.836  97.125  1.00  0.00     0.000 C 
BRANCH  10  11
ATOM     11  C   UNL     1      55.547   8.202  96.843  1.00  0.00     0.000 C 
BRANCH  11  12
ATOM     12  C   UNL     1      55.381   9.096  95.602  1.00  0.00     0.000 C 
BRANCH  12  13
ATOM     13  C   UNL     1      53.914   9.222  95.170  1.00  0.00     0.006 C 
BRANCH  13  14
ATOM     14  C   UNL     1      53.198  10.389  95.861  1.00  0.00     0.053 C 
BRANCH  14  15
ATOM     15  C   UNL     1      51.834   9.971  96.312  1.00  0.00     0.041 C 
ATOM     16  O   UNL     1      51.164  10.717  97.079  1.00  0.00    -0.550 OA
ATOM     17  O   UNL     1      51.278   8.789  95.841  1.00  0.00    -0.550 OA
ENDBRANCH  14  15
ENDBRANCH  13  14
ENDBRANCH  12  13
ENDBRANCH  11  12
ENDBRANCH  10  11
ENDBRANCH   9  10
ENDBRANCH   8   9
ENDBRANCH   7   8
ENDBRANCH   6   7
ENDBRANCH   5   6
ENDBRANCH   4   5
ENDBRANCH   3   4
ENDBRANCH   2   3
ENDBRANCH   1   2
BRANCH   1  18
ATOM     18  C   UNL     1      58.349   1.885  95.767  1.00  0.00     0.000 C 
BRANCH  18  19
ATOM     19  C   UNL     1      59.164   1.577  97.047  1.00  0.00     0.000 C 
BRANCH  19  20
ATOM     20  C   UNL     1      60.429   0.742  96.764  1.00  0.00     0.000 C 
BRANCH  20  21
ATOM     21  C   UNL     1      60.119  -0.615  96.098  1.00  0.00     0.000 C 
BRANCH  21  22
ATOM     22  C   UNL     1      61.099  -0.974  94.957  1.00  0.00     0.000 C 
BRANCH  22  23
ATOM     23  C   UNL     1      60.408  -1.678  93.776  1.00  0.00     0.000 C 
BRANCH  23  24
ATOM     24  C   UNL     1      59.966  -0.711  92.660  1.00  0.00    -0.000 C 
BRANCH  24  25
ATOM     25  C   UNL     1      58.721  -1.198  91.877  1.00  0.00    -0.000 C 
BRANCH  25  26
ATOM     26  C   UNL     1      57.601  -1.691  92.805  1.00  0.00    -0.000 C 
BRANCH  26  27
ATOM     27  C   UNL     1      57.022  -0.544  93.639  1.00  0.00    -0.000 C 
BRANCH  27  28
ATOM     28  C   UNL     1      56.473  -1.061  94.980  1.00  0.00    -0.000 C 
BRANCH  28  29
ATOM     29  C   UNL     1      56.768  -2.556  95.219  1.00  0.00    -0.000 C 
BRANCH  29  30
ATOM     30  C   UNL     1      55.957  -3.209  96.358  1.00  0.00    -0.000 C 
BRANCH  30  31
ATOM     31  C   UNL     1      55.178  -4.481  95.967  1.00  0.00    -0.003 C 
ATOM     32  C   UNL     1      55.026  -5.465  97.125  1.00  0.00     0.004 C 
ENDBRANCH  30  31
ENDBRANCH  29  30
ENDBRANCH  28  29
ENDBRANCH  27  28
ENDBRANCH  26  27
ENDBRANCH  25  26
ENDBRANCH  24  25
ENDBRANCH  23  24
ENDBRANCH  22  23
ENDBRANCH  21  22
ENDBRANCH  20  21
ENDBRANCH  19  20
ENDBRANCH  18  19
ENDBRANCH   1  18
TORSDOF 28
ENDMDL
MODEL 6
REMARK VINA RESULT:    -2.873      3.538      8.472
REMARK INTER + INTRA:         -13.225
REMARK INTER:                  -7.970
REMARK INTRA:                  -5.255
REMARK UNBOUND:                -5.650
REMARK SMILES CCCCCCCCCCCCCCCCCCCCCCCCCCCCCC(=O)[O-]
REMARK SMILES IDX 16 1 17 2 18 3 19 4 20 5 21 6 22 7 23 8 24 9 25 10 26 11
REMARK SMILES IDX 27 12 28 13 29 14 30 15 31 16 32 17 15 18 14 19 13 20 12 21
REMARK SMILES IDX 11 22 10 23 9 24 8 25 7 26 6 27 5 28 4 29 3 30 2 31 1 32
REMARK H PARENT
REMARK Flexibility Score: inf
ROOT
ATOM      1  C   UNL     1      56.812  -0.289  92.914  1.00  0.00     0.000 C 
ENDROOT
BRANCH   1   2
ATOM      2  C   UNL     1      58.040   0.462  92.363  1.00  0.00     0.000 C 
BRANCH   2   3
ATOM      3  C   UNL     1      58.373   0.191  90.880  1.00  0.00     0.000 C 
BRANCH   3   4
ATOM      4  C   UNL     1      57.759   1.185  89.873  1.00  0.00     0.000 C 
BRANCH   4   5
ATOM      5  C   UNL     1      56.347   0.816  89.383  1.00  0.00     0.000 C 
BRANCH   5   6
ATOM      6  C   UNL     1      55.246   1.606  90.106  1.00  0.00     0.000 C 
BRANCH   6   7
ATOM      7  C   UNL     1      55.734   3.012  90.498  1.00  0.00     0.000 C 
BRANCH   7   8
ATOM      8  C   UNL     1      55.664   3.249  92.015  1.00  0.00     0.000 C 
BRANCH   8   9
ATOM      9  C   UNL     1      56.058   4.679  92.412  1.00  0.00     0.000 C 
BRANCH   9  10
ATOM     10  C   UNL     1      57.113   4.716  93.535  1.00  0.00     0.000 C 
BRANCH  10  11
ATOM     11  C   UNL     1      57.015   3.573  94.560  1.00  0.00     0.000 C 
BRANCH  11  12
ATOM     12  C   UNL     1      57.095   4.066  96.015  1.00  0.00     0.000 C 
BRANCH  12  13
ATOM     13  C   UNL     1      58.535   4.385  96.440  1.00  0.00     0.006 C 
BRANCH  13  14
ATOM     14  C   UNL     1      58.657   5.761  97.107  1.00  0.00     0.053 C 
BRANCH  14  15
ATOM     15  C   UNL     1      59.271   6.745  96.161  1.00  0.00     0.041 C 
ATOM     16  O   UNL     1      59.959   6.339  95.183  1.00  0.00    -0.550 OA
ATOM     17  O   UNL     1      59.038   8.104  96.323  1.00  0.00    -0.550 OA
ENDBRANCH  14  15
ENDBRANCH  13  14
ENDBRANCH  12  13
ENDBRANCH  11  12
ENDBRANCH  10  11
ENDBRANCH   9  10
ENDBRANCH   8   9
ENDBRANCH   7   8
ENDBRANCH   6   7
ENDBRANCH   5   6
ENDBRANCH   4   5
ENDBRANCH   3   4
ENDBRANCH   2   3
ENDBRANCH   1   2
BRANCH   1  18
ATOM     18  C   UNL     1      57.179  -1.570  93.688  1.00  0.00     0.000 C 
BRANCH  18  19
ATOM     19  C   UNL     1      56.573  -1.588  95.112  1.00  0.00     0.000 C 
BRANCH  19  20
ATOM     20  C   UNL     1      57.593  -1.200  96.202  1.00  0.00     0.000 C 
BRANCH  20  21
ATOM     21  C   UNL     1      57.719   0.326  96.393  1.00  0.00     0.000 C 
BRANCH  21  22
ATOM     22  C   UNL     1      59.075   0.892  95.912  1.00  0.00     0.000 C 
BRANCH  22  23
ATOM     23  C   UNL     1      60.264   0.384  96.748  1.00  0.00     0.000 C 
BRANCH  23  24
ATOM     24  C   UNL     1      61.121  -0.669  96.020  1.00  0.00    -0.000 C 
BRANCH  24  25
ATOM     25  C   UNL     1      60.856  -0.736  94.495  1.00  0.00    -0.000 C 
BRANCH  25  26
ATOM     26  C   UNL     1      60.707  -2.177  93.989  1.00  0.00    -0.000 C 
BRANCH  26  27
ATOM     27  C   UNL     1      60.630  -2.227  92.460  1.00  0.00    -0.000 C 
BRANCH  27  28
ATOM     28  C   UNL     1      60.298  -3.647  91.971  1.00  0.00    -0.000 C 
BRANCH  28  29
ATOM     29  C   UNL     1      59.040  -3.702  91.082  1.00  0.00    -0.000 C 
BRANCH  29  30
ATOM     30  C   UNL     1      57.870  -4.533  91.652  1.00  0.00    -0.000 C 
BRANCH  30  31
ATOM     31  C   UNL     1      58.116  -5.149  93.044  1.00  0.00    -0.003 C 
ATOM     32  C   UNL     1      56.841  -5.262  93.878  1.00  0.00     0.004 C 
ENDBRANCH  30  31
ENDBRANCH  29  30
ENDBRANCH  28  29
ENDBRANCH  27  28
ENDBRANCH  26  27
ENDBRANCH  25  26
ENDBRANCH  24  25
ENDBRANCH  23  24
ENDBRANCH  22  23
ENDBRANCH  21  22
ENDBRANCH  20  21
ENDBRANCH  19  20
ENDBRANCH  18  19
ENDBRANCH   1  18
TORSDOF 28
ENDMDL
MODEL 7
REMARK VINA RESULT:    -2.867      3.463      8.406
REMARK INTER + INTRA:         -13.209
REMARK INTER:                  -8.129
REMARK INTRA:                  -5.080
REMARK UNBOUND:                -5.650
REMARK SMILES CCCCCCCCCCCCCCCCCCCCCCCCCCCCCC(=O)[O-]
REMARK SMILES IDX 16 1 17 2 18 3 19 4 20 5 21 6 22 7 23 8 24 9 25 10 26 11
REMARK SMILES IDX 27 12 28 13 29 14 30 15 31 16 32 17 15 18 14 19 13 20 12 21
REMARK SMILES IDX 11 22 10 23 9 24 8 25 7 26 6 27 5 28 4 29 3 30 2 31 1 32
REMARK H PARENT
REMARK Flexibility Score: inf
ROOT
ATOM      1  C   UNL     1      59.624  -0.506  92.115  1.00  0.00     0.000 C 
ENDROOT
BRANCH   1   2
ATOM      2  C   UNL     1      58.558   0.529  91.707  1.00  0.00     0.000 C 
BRANCH   2   3
ATOM      3  C   UNL     1      57.445   0.779  92.748  1.00  0.00     0.000 C 
BRANCH   3   4
ATOM      4  C   UNL     1      56.088   1.232  92.170  1.00  0.00     0.000 C 
BRANCH   4   5
ATOM      5  C   UNL     1      56.185   2.259  91.028  1.00  0.00     0.000 C 
BRANCH   5   6
ATOM      6  C   UNL     1      55.876   3.690  91.492  1.00  0.00     0.000 C 
BRANCH   6   7
ATOM      7  C   UNL     1      56.973   4.221  92.433  1.00  0.00     0.000 C 
BRANCH   7   8
ATOM      8  C   UNL     1      56.442   4.488  93.850  1.00  0.00     0.000 C 
BRANCH   8   9
ATOM      9  C   UNL     1      57.469   4.151  94.942  1.00  0.00     0.000 C 
BRANCH   9  10
ATOM     10  C   UNL     1      57.411   5.126  96.134  1.00  0.00     0.000 C 
BRANCH  10  11
ATOM     11  C   UNL     1      58.582   5.014  97.125  1.00  0.00     0.000 C 
BRANCH  11  12
ATOM     12  C   UNL     1      59.929   5.432  96.509  1.00  0.00     0.000 C 
BRANCH  12  13
ATOM     13  C   UNL     1      59.871   6.834  95.887  1.00  0.00     0.006 C 
BRANCH  13  14
ATOM     14  C   UNL     1      59.972   6.800  94.356  1.00  0.00     0.053 C 
BRANCH  14  15
ATOM     15  C   UNL     1      59.164   7.907  93.756  1.00  0.00     0.041 C 
ATOM     16  O   UNL     1      57.905   7.827  93.724  1.00  0.00    -0.550 OA
ATOM     17  O   UNL     1      59.794   9.051  93.286  1.00  0.00    -0.550 OA
ENDBRANCH  14  15
ENDBRANCH  13  14
ENDBRANCH  12  13
ENDBRANCH  11  12
ENDBRANCH  10  11
ENDBRANCH   9  10
ENDBRANCH   8   9
ENDBRANCH   7   8
ENDBRANCH   6   7
ENDBRANCH   5   6
ENDBRANCH   4   5
ENDBRANCH   3   4
ENDBRANCH   2   3
ENDBRANCH   1   2
BRANCH   1  18
ATOM     18  C   UNL     1      59.075  -1.614  93.035  1.00  0.00     0.000 C 
BRANCH  18  19
ATOM     19  C   UNL     1      60.024  -1.915  94.221  1.00  0.00     0.000 C 
BRANCH  19  20
ATOM     20  C   UNL     1      60.847  -0.686  94.655  1.00  0.00     0.000 C 
BRANCH  20  21
ATOM     21  C   UNL     1      60.980  -0.559  96.187  1.00  0.00     0.000 C 
BRANCH  21  22
ATOM     22  C   UNL     1      60.354   0.738  96.749  1.00  0.00     0.000 C 
BRANCH  22  23
ATOM     23  C   UNL     1      59.112   1.191  95.962  1.00  0.00     0.000 C 
BRANCH  23  24
ATOM     24  C   UNL     1      57.793   1.006  96.738  1.00  0.00    -0.000 C 
BRANCH  24  25
ATOM     25  C   UNL     1      56.874  -0.090  96.144  1.00  0.00    -0.000 C 
BRANCH  25  26
ATOM     26  C   UNL     1      57.324  -1.506  96.533  1.00  0.00    -0.000 C 
BRANCH  26  27
ATOM     27  C   UNL     1      56.300  -2.557  96.094  1.00  0.00    -0.000 C 
BRANCH  27  28
ATOM     28  C   UNL     1      55.528  -2.087  94.849  1.00  0.00    -0.000 C 
BRANCH  28  29
ATOM     29  C   UNL     1      55.630  -3.071  93.667  1.00  0.00    -0.000 C 
BRANCH  29  30
ATOM     30  C   UNL     1      55.796  -2.414  92.280  1.00  0.00    -0.000 C 
BRANCH  30  31
ATOM     31  C   UNL     1      56.312  -3.347  91.166  1.00  0.00    -0.003 C 
ATOM     32  C   UNL     1      55.351  -3.448  89.982  1.00  0.00     0.004 C 
ENDBRANCH  30  31
ENDBRANCH  29  30
ENDBRANCH  28  29
ENDBRANCH  27  28
ENDBRANCH  26  27
ENDBRANCH  25  26
ENDBRANCH  24  25
ENDBRANCH  23  24
ENDBRANCH  22  23
ENDBRANCH  21  22
ENDBRANCH  20  21
ENDBRANCH  19  20
ENDBRANCH  18  19
ENDBRANCH   1  18
TORSDOF 28
ENDMDL
MODEL 8
REMARK VINA RESULT:    -2.850      2.557      3.887
REMARK INTER + INTRA:         -13.166
REMARK INTER:                  -8.437
REMARK INTRA:                  -4.729
REMARK UNBOUND:                -5.650
REMARK SMILES CCCCCCCCCCCCCCCCCCCCCCCCCCCCCC(=O)[O-]
REMARK SMILES IDX 16 1 17 2 18 3 19 4 20 5 21 6 22 7 23 8 24 9 25 10 26 11
REMARK SMILES IDX 27 12 28 13 29 14 30 15 31 16 32 17 15 18 14 19 13 20 12 21
REMARK SMILES IDX 11 22 10 23 9 24 8 25 7 26 6 27 5 28 4 29 3 30 2 31 1 32
REMARK H PARENT
REMARK Flexibility Score: inf
ROOT
ATOM      1  C   UNL     1      56.292   2.542  92.014  1.00  0.00     0.000 C 
ENDROOT
BRANCH   1   2
ATOM      2  C   UNL     1      56.233   1.888  93.408  1.00  0.00     0.000 C 
BRANCH   2   3
ATOM      3  C   UNL     1      57.371   2.284  94.375  1.00  0.00     0.000 C 
BRANCH   3   4
ATOM      4  C   UNL     1      57.022   2.202  95.875  1.00  0.00     0.000 C 
BRANCH   4   5
ATOM      5  C   UNL     1      57.933   1.272  96.698  1.00  0.00     0.000 C 
BRANCH   5   6
ATOM      6  C   UNL     1      59.241   1.953  97.125  1.00  0.00     0.000 C 
BRANCH   6   7
ATOM      7  C   UNL     1      60.466   1.127  96.692  1.00  0.00     0.000 C 
BRANCH   7   8
ATOM      8  C   UNL     1      60.079  -0.290  96.240  1.00  0.00     0.000 C 
BRANCH   8   9
ATOM      9  C   UNL     1      61.075  -0.886  95.233  1.00  0.00     0.000 C 
BRANCH   9  10
ATOM     10  C   UNL     1      60.379  -1.546  94.028  1.00  0.00     0.000 C 
BRANCH  10  11
ATOM     11  C   UNL     1      59.177  -0.771  93.463  1.00  0.00     0.000 C 
BRANCH  11  12
ATOM     12  C   UNL     1      58.017  -1.689  93.043  1.00  0.00     0.000 C 
BRANCH  12  13
ATOM     13  C   UNL     1      56.813  -1.574  93.989  1.00  0.00     0.006 C 
BRANCH  13  14
ATOM     14  C   UNL     1      57.135  -2.059  95.408  1.00  0.00     0.053 C 
BRANCH  14  15
ATOM     15  C   UNL     1      55.875  -2.385  96.146  1.00  0.00     0.041 C 
ATOM     16  O   UNL     1      55.813  -3.420  96.866  1.00  0.00    -0.550 OA
ATOM     17  O   UNL     1      54.790  -1.521  96.086  1.00  0.00    -0.550 OA
ENDBRANCH  14  15
ENDBRANCH  13  14
ENDBRANCH  12  13
ENDBRANCH  11  12
ENDBRANCH  10  11
ENDBRANCH   9  10
ENDBRANCH   8   9
ENDBRANCH   7   8
ENDBRANCH   6   7
ENDBRANCH   5   6
ENDBRANCH   4   5
ENDBRANCH   3   4
ENDBRANCH   2   3
ENDBRANCH   1   2
BRANCH   1  18
ATOM     18  C   UNL     1      56.455   4.074  92.067  1.00  0.00     0.000 C 
BRANCH  18  19
ATOM     19  C   UNL     1      55.198   4.779  92.631  1.00  0.00     0.000 C 
BRANCH  19  20
ATOM     20  C   UNL     1      55.541   5.966  93.553  1.00  0.00     0.000 C 
BRANCH  20  21
ATOM     21  C   UNL     1      56.687   5.653  94.538  1.00  0.00     0.000 C 
BRANCH  21  22
ATOM     22  C   UNL     1      56.617   6.484  95.840  1.00  0.00     0.000 C 
BRANCH  22  23
ATOM     23  C   UNL     1      57.844   6.278  96.746  1.00  0.00     0.000 C 
BRANCH  23  24
ATOM     24  C   UNL     1      58.937   5.400  96.107  1.00  0.00    -0.000 C 
BRANCH  24  25
ATOM     25  C   UNL     1      60.360   6.001  96.223  1.00  0.00    -0.000 C 
BRANCH  25  26
ATOM     26  C   UNL     1      60.346   7.536  96.270  1.00  0.00    -0.000 C 
BRANCH  26  27
ATOM     27  C   UNL     1      60.980   8.139  95.014  1.00  0.00    -0.000 C 
BRANCH  27  28
ATOM     28  C   UNL     1      60.994   7.120  93.861  1.00  0.00    -0.000 C 
BRANCH  28  29
ATOM     29  C   UNL     1      59.765   7.232  92.938  1.00  0.00    -0.000 C 
BRANCH  29  30
ATOM     30  C   UNL     1      59.085   8.618  92.918  1.00  0.00    -0.000 C 
BRANCH  30  31
ATOM     31  C   UNL     1      57.893   8.754  91.950  1.00  0.00    -0.003 C 
ATOM     32  C   UNL     1      58.319   8.799  90.484  1.00  0.00     0.004 C 
ENDBRANCH  30  31
ENDBRANCH  29  30
ENDBRANCH  28  29
ENDBRANCH  27  28
ENDBRANCH  26  27
ENDBRANCH  25  26
ENDBRANCH  24  25
ENDBRANCH  23  24
ENDBRANCH  22  23
ENDBRANCH  21  22
ENDBRANCH  20  21
ENDBRANCH  19  20
ENDBRANCH  18  19
ENDBRANCH   1  18
TORSDOF 28
ENDMDL
MODEL 9
REMARK VINA RESULT:    -2.829      4.243      8.605
REMARK INTER + INTRA:         -13.109
REMARK INTER:                  -8.549
REMARK INTRA:                  -4.560
REMARK UNBOUND:                -5.650
REMARK SMILES CCCCCCCCCCCCCCCCCCCCCCCCCCCCCC(=O)[O-]
REMARK SMILES IDX 16 1 17 2 18 3 19 4 20 5 21 6 22 7 23 8 24 9 25 10 26 11
REMARK SMILES IDX 27 12 28 13 29 14 30 15 31 16 32 17 15 18 14 19 13 20 12 21
REMARK SMILES IDX 11 22 10 23 9 24 8 25 7 26 6 27 5 28 4 29 3 30 2 31 1 32
REMARK H PARENT
REMARK Flexibility Score: inf
ROOT
ATOM      1  C   UNL     1      58.340   1.558  95.850  1.00  0.00     0.000 C 
ENDROOT
BRANCH   1   2
ATOM      2  C   UNL     1      56.902   1.760  96.365  1.00  0.00     0.000 C 
BRANCH   2   3
ATOM      3  C   UNL     1      56.473   3.228  96.574  1.00  0.00     0.000 C 
BRANCH   3   4
ATOM      4  C   UNL     1      57.154   4.255  95.647  1.00  0.00     0.000 C 
BRANCH   4   5
ATOM      5  C   UNL     1      57.796   5.452  96.372  1.00  0.00     0.000 C 
BRANCH   5   6
ATOM      6  C   UNL     1      59.325   5.478  96.230  1.00  0.00     0.000 C 
BRANCH   6   7
ATOM      7  C   UNL     1      59.907   6.816  96.724  1.00  0.00     0.000 C 
BRANCH   7   8
ATOM      8  C   UNL     1      61.012   7.344  95.797  1.00  0.00     0.000 C 
BRANCH   8   9
ATOM      9  C   UNL     1      60.854   6.861  94.347  1.00  0.00     0.000 C 
BRANCH   9  10
ATOM     10  C   UNL     1      60.095   7.869  93.463  1.00  0.00     0.000 C 
BRANCH  10  11
ATOM     11  C   UNL     1      58.642   7.484  93.135  1.00  0.00     0.000 C 
BRANCH  11  12
ATOM     12  C   UNL     1      57.612   8.306  93.929  1.00  0.00     0.000 C 
BRANCH  12  13
ATOM     13  C   UNL     1      56.233   7.633  93.960  1.00  0.00     0.006 C 
BRANCH  13  14
ATOM     14  C   UNL     1      55.358   8.144  95.112  1.00  0.00     0.053 C 
BRANCH  14  15
ATOM     15  C   UNL     1      54.698   9.432  94.734  1.00  0.00     0.041 C 
ATOM     16  O   UNL     1      54.330  10.242  95.630  1.00  0.00    -0.550 OA
ATOM     17  O   UNL     1      54.540   9.765  93.395  1.00  0.00    -0.550 OA
ENDBRANCH  14  15
ENDBRANCH  13  14
ENDBRANCH  12  13
ENDBRANCH  11  12
ENDBRANCH  10  11
ENDBRANCH   9  10
ENDBRANCH   8   9
ENDBRANCH   7   8
ENDBRANCH   6   7
ENDBRANCH   5   6
ENDBRANCH   4   5
ENDBRANCH   3   4
ENDBRANCH   2   3
ENDBRANCH   1   2
BRANCH   1  18
ATOM     18  C   UNL     1      59.405   1.680  96.957  1.00  0.00     0.000 C 
BRANCH  18  19
ATOM     19  C   UNL     1      60.586   0.702  96.746  1.00  0.00     0.000 C 
BRANCH  19  20
ATOM     20  C   UNL     1      60.165  -0.599  96.034  1.00  0.00     0.000 C 
BRANCH  20  21
ATOM     21  C   UNL     1      61.125  -1.000  94.894  1.00  0.00     0.000 C 
BRANCH  21  22
ATOM     22  C   UNL     1      60.393  -1.512  93.632  1.00  0.00     0.000 C 
BRANCH  22  23
ATOM     23  C   UNL     1      59.263  -0.573  93.175  1.00  0.00     0.000 C 
BRANCH  23  24
ATOM     24  C   UNL     1      59.254  -0.318  91.655  1.00  0.00    -0.000 C 
BRANCH  24  25
ATOM     25  C   UNL     1      58.140   0.657  91.198  1.00  0.00    -0.000 C 
BRANCH  25  26
ATOM     26  C   UNL     1      57.077   0.883  92.283  1.00  0.00    -0.000 C 
BRANCH  26  27
ATOM     27  C   UNL     1      56.868   2.374  92.557  1.00  0.00    -0.000 C 
BRANCH  27  28
ATOM     28  C   UNL     1      56.907   3.185  91.250  1.00  0.00    -0.000 C 
BRANCH  28  29
ATOM     29  C   UNL     1      56.976   4.708  91.485  1.00  0.00    -0.000 C 
BRANCH  29  30
ATOM     30  C   UNL     1      55.759   5.506  90.971  1.00  0.00    -0.000 C 
BRANCH  30  31
ATOM     31  C   UNL     1      56.078   6.901  90.400  1.00  0.00    -0.003 C 
ATOM     32  C   UNL     1      54.891   7.860  90.474  1.00  0.00     0.004 C 
ENDBRANCH  30  31
ENDBRANCH  29  30
ENDBRANCH  28  29
ENDBRANCH  27  28
ENDBRANCH  26  27
ENDBRANCH  25  26
ENDBRANCH  24  25
ENDBRANCH  23  24
ENDBRANCH  22  23
ENDBRANCH  21  22
ENDBRANCH  20  21
ENDBRANCH  19  20
ENDBRANCH  18  19
ENDBRANCH   1  18
TORSDOF 28
ENDMDL
