MODEL 1
REMARK VINA RESULT:    -4.679      0.000      0.000
REMARK INTER + INTRA:          -4.919
REMARK INTER:                  -5.773
REMARK INTRA:                   0.854
REMARK UNBOUND:                 0.854
REMARK SMILES CC1=CC=CC(C)(C)CC1=O
REMARK SMILES IDX 1 1 2 2 3 3 10 4 11 5 9 6 4 8 5 9 6 10 7 11 8 12
REMARK H PARENT
REMARK Flexibility Score: 80.00
ROOT
ATOM      1  C   UNL     1      31.318  17.958  25.630  1.00  0.00     0.048 C 
ATOM      2  C   UNL     1      30.075  18.024  26.487  1.00  0.00    -0.008 C 
ATOM      3  C   UNL     1      30.161  17.583  27.759  1.00  0.00     0.007 C 
ENDROOT
BRANCH   2   4
ATOM      4  C   UNL     1      28.838  18.525  25.830  1.00  0.00     0.159 C 
ATOM      5  O   UNL     1      28.909  18.927  24.636  1.00  0.00    -0.295 OA
BRANCH   4   6
ATOM      6  C   UNL     1      27.489  18.548  26.484  1.00  0.00     0.091 CG0
ATOM      7  G   UNL     1      27.479  19.216  27.878  1.00  0.00     0.000 G0
ENDBRANCH   4   6
ENDBRANCH   2   4
BRANCH   3   8
ATOM      8  C   UNL     1      29.127  17.537  28.818  1.00  0.00    -0.003 C 
ATOM      9  C   UNL     1      27.991  18.239  28.906  1.00  0.00    -0.020 C 
BRANCH   9  10
ATOM     10  C   UNL     1      27.465  19.214  27.880  1.00  0.00    -0.010 CG0
ATOM     11  C   UNL     1      25.994  19.538  28.230  1.00  0.00     0.016 C 
ATOM     12  C   UNL     1      28.268  20.535  27.934  1.00  0.00     0.016 C 
ATOM     13  G   UNL     1      27.493  18.555  26.483  1.00  0.00     0.000 G0
ENDBRANCH   9  10
ENDBRANCH   3   8
TORSDOF 0
ENDMDL
MODEL 2
REMARK VINA RESULT:    -4.630      8.927     11.135
REMARK INTER + INTRA:          -4.859
REMARK INTER:                  -5.710
REMARK INTRA:                   0.850
REMARK UNBOUND:                 0.854
REMARK SMILES CC1=CC=CC(C)(C)CC1=O
REMARK SMILES IDX 1 1 2 2 3 3 10 4 11 5 9 6 4 8 5 9 6 10 7 11 8 12
REMARK H PARENT
REMARK Flexibility Score: 80.00
ROOT
ATOM      1  C   UNL     1      32.943  20.216  21.032  1.00  0.00     0.048 C 
ATOM      2  C   UNL     1      33.169  20.451  19.556  1.00  0.00    -0.008 C 
ATOM      3  C   UNL     1      34.205  21.237  19.194  1.00  0.00     0.007 C 
ENDROOT
BRANCH   2   4
ATOM      4  C   UNL     1      32.188  19.834  18.624  1.00  0.00     0.159 C 
ATOM      5  O   UNL     1      31.287  19.091  19.102  1.00  0.00    -0.295 OA
BRANCH   4   6
ATOM      6  C   UNL     1      32.174  20.068  17.143  1.00  0.00     0.091 CG0
ATOM      7  G   UNL     1      33.540  19.838  16.458  1.00  0.00     0.000 G0
ENDBRANCH   4   6
ENDBRANCH   2   4
BRANCH   3   8
ATOM      8  C   UNL     1      34.669  21.630  17.845  1.00  0.00    -0.003 C 
ATOM      9  C   UNL     1      34.421  21.036  16.671  1.00  0.00    -0.020 C 
BRANCH   9  10
ATOM     10  C   UNL     1      33.530  19.837  16.451  1.00  0.00    -0.010 CG0
ATOM     11  C   UNL     1      33.271  19.699  14.933  1.00  0.00     0.016 C 
ATOM     12  C   UNL     1      34.238  18.548  16.930  1.00  0.00     0.016 C 
ATOM     13  G   UNL     1      32.173  20.068  17.151  1.00  0.00     0.000 G0
ENDBRANCH   9  10
ENDBRANCH   3   8
TORSDOF 0
ENDMDL
MODEL 3
REMARK VINA RESULT:    -4.600      9.351     11.146
REMARK INTER + INTRA:          -4.822
REMARK INTER:                  -5.665
REMARK INTRA:                   0.843
REMARK UNBOUND:                 0.854
REMARK SMILES CC1=CC=CC(C)(C)CC1=O
REMARK SMILES IDX 1 1 2 2 3 3 10 4 11 5 9 6 4 8 5 9 6 10 7 11 8 12
REMARK H PARENT
REMARK Flexibility Score: 80.00
ROOT
ATOM      1  C   UNL     1      33.132  21.222  20.714  1.00  0.00     0.048 C 
ATOM      2  C   UNL     1      33.132  20.417  19.435  1.00  0.00    -0.008 C 
ATOM      3  C   UNL     1      32.383  19.294  19.396  1.00  0.00     0.007 C 
ENDROOT
BRANCH   2   4
ATOM      4  C   UNL     1      34.010  20.906  18.338  1.00  0.00     0.159 C 
ATOM      5  O   UNL     1      34.618  22.000  18.494  1.00  0.00    -0.295 OA
BRANCH   4   6
ATOM      6  C   UNL     1      34.254  20.159  17.060  1.00  0.00     0.091 CG0
ATOM      7  G   UNL     1      32.963  19.751  16.316  1.00  0.00     0.000 G0
ENDBRANCH   4   6
ENDBRANCH   2   4
BRANCH   3   8
ATOM      8  C   UNL     1      32.182  18.327  18.294  1.00  0.00    -0.003 C 
ATOM      9  C   UNL     1      32.394  18.500  16.983  1.00  0.00    -0.020 C 
BRANCH   9  10
ATOM     10  C   UNL     1      32.964  19.735  16.329  1.00  0.00    -0.010 CG0
ATOM     11  C   UNL     1      33.352  19.377  14.875  1.00  0.00     0.016 C 
ATOM     12  C   UNL     1      31.898  20.854  16.273  1.00  0.00     0.016 C 
ATOM     13  G   UNL     1      34.246  20.168  17.075  1.00  0.00     0.000 G0
ENDBRANCH   9  10
ENDBRANCH   3   8
TORSDOF 0
ENDMDL
MODEL 4
REMARK VINA RESULT:    -4.250      1.614      2.528
REMARK INTER + INTRA:          -4.390
REMARK INTER:                  -5.232
REMARK INTRA:                   0.843
REMARK UNBOUND:                 0.854
REMARK SMILES CC1=CC=CC(C)(C)CC1=O
REMARK SMILES IDX 1 1 2 2 3 3 10 4 11 5 9 6 4 8 5 9 6 10 7 11 8 12
REMARK H PARENT
REMARK Flexibility Score: 80.00
ROOT
ATOM      1  C   UNL     1      30.787  17.848  26.037  1.00  0.00     0.048 C 
ATOM      2  C   UNL     1      29.624  18.576  26.670  1.00  0.00    -0.008 C 
ATOM      3  C   UNL     1      29.101  19.628  26.004  1.00  0.00     0.007 C 
ENDROOT
BRANCH   2   4
ATOM      4  C   UNL     1      29.189  18.101  28.010  1.00  0.00     0.159 C 
ATOM      5  O   UNL     1      29.736  17.071  28.492  1.00  0.00    -0.295 OA
BRANCH   4   6
ATOM      6  C   UNL     1      28.159  18.792  28.854  1.00  0.00     0.091 CG0
ATOM      7  G   UNL     1      26.826  19.063  28.120  1.00  0.00     0.000 G0
ENDBRANCH   4   6
ENDBRANCH   2   4
BRANCH   3   8
ATOM      8  C   UNL     1      27.969  20.510  26.367  1.00  0.00    -0.003 C 
ATOM      9  C   UNL     1      26.980  20.282  27.239  1.00  0.00    -0.020 C 
BRANCH   9  10
ATOM     10  C   UNL     1      26.832  19.066  28.121  1.00  0.00    -0.010 CG0
ATOM     11  C   UNL     1      25.762  19.372  29.194  1.00  0.00     0.016 C 
ATOM     12  C   UNL     1      26.339  17.858  27.290  1.00  0.00     0.016 C 
ATOM     13  G   UNL     1      28.170  18.788  28.842  1.00  0.00     0.000 G0
ENDBRANCH   9  10
ENDBRANCH   3   8
TORSDOF 0
ENDMDL
MODEL 5
REMARK VINA RESULT:    -4.230     10.513     11.826
REMARK INTER + INTRA:          -4.366
REMARK INTER:                  -5.442
REMARK INTRA:                   1.076
REMARK UNBOUND:                 0.854
REMARK SMILES CC1=CC=CC(C)(C)CC1=O
REMARK SMILES IDX 1 1 2 2 3 3 10 4 11 5 9 6 4 8 5 9 6 10 7 11 8 12
REMARK H PARENT
REMARK Flexibility Score: 80.00
ROOT
ATOM      1  C   UNL     1      34.995  22.007  18.401  1.00  0.00     0.048 C 
ATOM      2  C   UNL     1      34.544  20.823  17.578  1.00  0.00    -0.008 C 
ATOM      3  C   UNL     1      35.019  20.711  16.319  1.00  0.00     0.007 C 
ENDROOT
BRANCH   2   4
ATOM      4  C   UNL     1      33.562  19.904  18.213  1.00  0.00     0.159 C 
ATOM      5  O   UNL     1      33.034  20.248  19.307  1.00  0.00    -0.295 OA
BRANCH   4   6
ATOM      6  C   UNL     1      33.123  18.600  17.617  1.00  0.00     0.091 CG0
ATOM      7  G   UNL     1      32.567  18.722  16.181  1.00  0.00     0.000 G0
ENDBRANCH   4   6
ENDBRANCH   2   4
BRANCH   3   8
ATOM      8  C   UNL     1      34.766  19.668  15.300  1.00  0.00    -0.003 C 
ATOM      9  C   UNL     1      33.757  18.789  15.239  1.00  0.00    -0.020 C 
BRANCH   9  10
ATOM     10  C   UNL     1      32.585  18.711  16.187  1.00  0.00    -0.010 CG0
ATOM     11  C   UNL     1      31.764  20.014  16.049  1.00  0.00     0.016 C 
ATOM     12  C   UNL     1      31.665  17.527  15.806  1.00  0.00     0.016 C 
ATOM     13  G   UNL     1      33.104  18.621  17.640  1.00  0.00     0.000 G0
ENDBRANCH   9  10
ENDBRANCH   3   8
TORSDOF 0
ENDMDL
MODEL 6
REMARK VINA RESULT:    -3.838      4.802      6.543
REMARK INTER + INTRA:          -3.881
REMARK INTER:                  -4.982
REMARK INTRA:                   1.100
REMARK UNBOUND:                 0.854
REMARK SMILES CC1=CC=CC(C)(C)CC1=O
REMARK SMILES IDX 1 1 2 2 3 3 10 4 11 5 9 6 4 8 5 9 6 10 7 11 8 12
REMARK H PARENT
REMARK Flexibility Score: 80.00
ROOT
ATOM      1  C   UNL     1      33.864  21.109  19.813  1.00  0.00     0.048 C 
ATOM      2  C   UNL     1      32.945  20.968  21.004  1.00  0.00    -0.008 C 
ATOM      3  C   UNL     1      32.985  21.931  21.949  1.00  0.00     0.007 C 
ENDROOT
BRANCH   2   4
ATOM      4  C   UNL     1      32.108  19.740  21.060  1.00  0.00     0.159 C 
ATOM      5  O   UNL     1      32.339  18.815  20.233  1.00  0.00    -0.295 OA
BRANCH   4   6
ATOM      6  C   UNL     1      31.022  19.508  22.067  1.00  0.00     0.091 CG0
ATOM      7  G   UNL     1      31.485  19.653  23.534  1.00  0.00     0.000 G0
ENDBRANCH   4   6
ENDBRANCH   2   4
BRANCH   3   8
ATOM      8  C   UNL     1      32.204  22.064  23.200  1.00  0.00    -0.003 C 
ATOM      9  C   UNL     1      31.533  21.118  23.869  1.00  0.00    -0.020 C 
BRANCH   9  10
ATOM     10  C   UNL     1      31.478  19.651  23.520  1.00  0.00    -0.010 CG0
ATOM     11  C   UNL     1      32.904  19.068  23.655  1.00  0.00     0.016 C 
ATOM     12  C   UNL     1      30.562  18.898  24.514  1.00  0.00     0.016 C 
ATOM     13  G   UNL     1      31.028  19.486  22.051  1.00  0.00     0.000 G0
ENDBRANCH   9  10
ENDBRANCH   3   8
TORSDOF 0
ENDMDL
MODEL 7
REMARK VINA RESULT:    -3.756      1.638      3.472
REMARK INTER + INTRA:          -3.780
REMARK INTER:                  -4.649
REMARK INTRA:                   0.869
REMARK UNBOUND:                 0.854
REMARK SMILES CC1=CC=CC(C)(C)CC1=O
REMARK SMILES IDX 1 1 2 2 3 3 10 4 11 5 9 6 4 8 5 9 6 10 7 11 8 12
REMARK H PARENT
REMARK Flexibility Score: 80.00
ROOT
ATOM      1  C   UNL     1      26.265  19.018  29.289  1.00  0.00     0.048 C 
ATOM      2  C   UNL     1      27.525  18.948  28.457  1.00  0.00    -0.008 C 
ATOM      3  C   UNL     1      28.385  17.936  28.698  1.00  0.00     0.007 C 
ENDROOT
BRANCH   2   4
ATOM      4  C   UNL     1      27.736  20.043  27.473  1.00  0.00     0.159 C 
ATOM      5  O   UNL     1      26.817  20.892  27.309  1.00  0.00    -0.295 OA
BRANCH   4   6
ATOM      6  C   UNL     1      28.995  20.230  26.680  1.00  0.00     0.091 CG0
ATOM      7  G   UNL     1      29.443  18.969  25.908  1.00  0.00     0.000 G0
ENDBRANCH   4   6
ENDBRANCH   2   4
BRANCH   3   8
ATOM      8  C   UNL     1      29.672  17.611  28.044  1.00  0.00    -0.003 C 
ATOM      9  C   UNL     1      30.127  18.014  26.851  1.00  0.00    -0.020 C 
BRANCH   9  10
ATOM     10  C   UNL     1      29.435  18.972  25.912  1.00  0.00    -0.010 CG0
ATOM     11  C   UNL     1      30.448  19.397  24.823  1.00  0.00     0.016 C 
ATOM     12  C   UNL     1      28.249  18.271  25.209  1.00  0.00     0.016 C 
ATOM     13  G   UNL     1      29.006  20.236  26.689  1.00  0.00     0.000 G0
ENDBRANCH   9  10
ENDBRANCH   3   8
TORSDOF 0
ENDMDL
MODEL 8
REMARK VINA RESULT:    -3.674      7.566      9.255
REMARK INTER + INTRA:          -3.679
REMARK INTER:                  -4.531
REMARK INTRA:                   0.852
REMARK UNBOUND:                 0.854
REMARK SMILES CC1=CC=CC(C)(C)CC1=O
REMARK SMILES IDX 1 1 2 2 3 3 10 4 11 5 9 6 4 8 5 9 6 10 7 11 8 12
REMARK H PARENT
REMARK Flexibility Score: 80.00
ROOT
ATOM      1  C   UNL     1      34.578  20.836  24.484  1.00  0.00     0.048 C 
ATOM      2  C   UNL     1      35.857  20.086  24.781  1.00  0.00    -0.008 C 
ATOM      3  C   UNL     1      37.024  20.748  24.635  1.00  0.00     0.007 C 
ENDROOT
BRANCH   2   4
ATOM      4  C   UNL     1      35.718  18.655  25.160  1.00  0.00     0.159 C 
ATOM      5  O   UNL     1      34.559  18.182  25.317  1.00  0.00    -0.295 OA
BRANCH   4   6
ATOM      6  C   UNL     1      36.874  17.715  25.332  1.00  0.00     0.091 CG0
ATOM      7  G   UNL     1      37.962  18.230  26.301  1.00  0.00     0.000 G0
ENDBRANCH   4   6
ENDBRANCH   2   4
BRANCH   3   8
ATOM      8  C   UNL     1      38.411  20.282  24.861  1.00  0.00    -0.003 C 
ATOM      9  C   UNL     1      38.833  19.238  25.585  1.00  0.00    -0.020 C 
BRANCH   9  10
ATOM     10  C   UNL     1      37.957  18.235  26.296  1.00  0.00    -0.010 CG0
ATOM     11  C   UNL     1      38.836  17.032  26.710  1.00  0.00     0.016 C 
ATOM     12  C   UNL     1      37.366  18.856  27.583  1.00  0.00     0.016 C 
ATOM     13  G   UNL     1      36.869  17.723  25.326  1.00  0.00     0.000 G0
ENDBRANCH   9  10
ENDBRANCH   3   8
TORSDOF 0
ENDMDL
MODEL 9
REMARK VINA RESULT:    -3.529      8.471     10.047
REMARK INTER + INTRA:          -3.501
REMARK INTER:                  -4.343
REMARK INTRA:                   0.843
REMARK UNBOUND:                 0.854
REMARK SMILES CC1=CC=CC(C)(C)CC1=O
REMARK SMILES IDX 1 1 2 2 3 3 10 4 11 5 9 6 4 8 5 9 6 10 7 11 8 12
REMARK H PARENT
REMARK Flexibility Score: 80.00
ROOT
ATOM      1  C   UNL     1      35.464  20.032  24.202  1.00  0.00     0.048 C 
ATOM      2  C   UNL     1      36.395  19.386  25.202  1.00  0.00    -0.008 C 
ATOM      3  C   UNL     1      35.937  18.322  25.895  1.00  0.00     0.007 C 
ENDROOT
BRANCH   2   4
ATOM      4  C   UNL     1      37.730  20.019  25.376  1.00  0.00     0.159 C 
ATOM      5  O   UNL     1      38.042  20.983  24.625  1.00  0.00    -0.295 OA
BRANCH   4   6
ATOM      6  C   UNL     1      38.724  19.610  26.421  1.00  0.00     0.091 CG0
ATOM      7  G   UNL     1      39.033  18.096  26.434  1.00  0.00     0.000 G0
ENDBRANCH   4   6
ENDBRANCH   2   4
BRANCH   3   8
ATOM      8  C   UNL     1      36.617  17.493  26.915  1.00  0.00    -0.003 C 
ATOM      9  C   UNL     1      37.929  17.359  27.143  1.00  0.00    -0.020 C 
BRANCH   9  10
ATOM     10  C   UNL     1      39.036  18.099  26.431  1.00  0.00    -0.010 CG0
ATOM     11  C   UNL     1      40.344  17.900  27.232  1.00  0.00     0.016 C 
ATOM     12  C   UNL     1      39.252  17.510  25.017  1.00  0.00     0.016 C 
ATOM     13  G   UNL     1      38.713  19.609  26.406  1.00  0.00     0.000 G0
ENDBRANCH   9  10
ENDBRANCH   3   8
TORSDOF 0
ENDMDL
