MODEL 1
REMARK VINA RESULT:    -4.120      0.000      0.000
REMARK INTER + INTRA:          -5.064
REMARK INTER:                  -4.963
REMARK INTRA:                  -0.101
REMARK UNBOUND:                -0.101
REMARK SMILES CC[C@H](C)[C@H]([NH3+])C(=O)[O-]
REMARK SMILES IDX 3 1 4 2 5 3 6 4 7 8 8 9 9 10 2 11 1 12
REMARK H PARENT 6 5 6 6 6 7
REMARK Flexibility Score: inf
ROOT
ATOM      1  C   UNL     1      62.023  -0.074   8.185  1.00  0.00     0.050 C 
ATOM      2  C   UNL     1      61.929   1.379   7.679  1.00  0.00     0.014 C 
ENDROOT
BRANCH   1   3
ATOM      3  C   UNL     1      61.275  -1.045   7.212  1.00  0.00     0.230 C 
BRANCH   3   4
ATOM      4  N   UNL     1      60.384  -1.969   7.930  1.00  0.00    -0.350 N 
ATOM      5  H   UNL     1      59.969  -1.500   8.766  1.00  0.00     0.345 HD
ATOM      6  H   UNL     1      59.590  -2.252   7.311  1.00  0.00     0.345 HD
ATOM      7  H   UNL     1      60.904  -2.828   8.225  1.00  0.00     0.345 HD
ENDBRANCH   3   4
BRANCH   3   8
ATOM      8  C   UNL     1      62.250  -1.842   6.380  1.00  0.00     0.099 C 
ATOM      9  O   UNL     1      63.405  -2.091   6.816  1.00  0.00    -0.544 OA
ATOM     10  O   UNL     1      61.877  -2.301   5.124  1.00  0.00    -0.544 OA
ENDBRANCH   3   8
ENDBRANCH   1   3
BRANCH   1  11
ATOM     11  C   UNL     1      61.470  -0.148   9.639  1.00  0.00     0.006 C 
ATOM     12  C   UNL     1      60.567   1.037   9.986  1.00  0.00     0.004 C 
ENDBRANCH   1  11
TORSDOF 4
ENDMDL
MODEL 2
REMARK VINA RESULT:    -4.101      0.156      1.088
REMARK INTER + INTRA:          -5.041
REMARK INTER:                  -4.956
REMARK INTRA:                  -0.085
REMARK UNBOUND:                -0.101
REMARK SMILES CC[C@H](C)[C@H]([NH3+])C(=O)[O-]
REMARK SMILES IDX 3 1 4 2 5 3 6 4 7 8 8 9 9 10 2 11 1 12
REMARK H PARENT 6 5 6 6 6 7
REMARK Flexibility Score: inf
ROOT
ATOM      1  C   UNL     1      62.108  -0.166   8.210  1.00  0.00     0.050 C 
ATOM      2  C   UNL     1      62.228   1.274   7.672  1.00  0.00     0.014 C 
ENDROOT
BRANCH   1   3
ATOM      3  C   UNL     1      61.325  -1.067   7.198  1.00  0.00     0.230 C 
BRANCH   3   4
ATOM      4  N   UNL     1      60.410  -1.996   7.878  1.00  0.00    -0.350 N 
ATOM      5  H   UNL     1      60.782  -2.250   8.820  1.00  0.00     0.345 HD
ATOM      6  H   UNL     1      59.482  -1.537   8.028  1.00  0.00     0.345 HD
ATOM      7  H   UNL     1      60.270  -2.861   7.306  1.00  0.00     0.345 HD
ENDBRANCH   3   4
BRANCH   3   8
ATOM      8  C   UNL     1      62.271  -1.854   6.324  1.00  0.00     0.099 C 
ATOM      9  O   UNL     1      61.912  -2.237   5.179  1.00  0.00    -0.544 OA
ATOM     10  O   UNL     1      63.544  -2.164   6.782  1.00  0.00    -0.544 OA
ENDBRANCH   3   8
ENDBRANCH   1   3
BRANCH   1  11
ATOM     11  C   UNL     1      61.441  -0.135   9.616  1.00  0.00     0.006 C 
ATOM     12  C   UNL     1      60.457   1.026   9.777  1.00  0.00     0.004 C 
ENDBRANCH   1  11
TORSDOF 4
ENDMDL
MODEL 3
REMARK VINA RESULT:    -4.091      2.803      3.801
REMARK INTER + INTRA:          -5.029
REMARK INTER:                  -4.958
REMARK INTRA:                  -0.071
REMARK UNBOUND:                -0.101
REMARK SMILES CC[C@H](C)[C@H]([NH3+])C(=O)[O-]
REMARK SMILES IDX 3 1 4 2 5 3 6 4 7 8 8 9 9 10 2 11 1 12
REMARK H PARENT 6 5 6 6 6 7
REMARK Flexibility Score: inf
ROOT
ATOM      1  C   UNL     1      61.932  -0.107   7.652  1.00  0.00     0.050 C 
ATOM      2  C   UNL     1      63.364  -0.018   8.217  1.00  0.00     0.014 C 
ENDROOT
BRANCH   1   3
ATOM      3  C   UNL     1      60.950  -0.671   8.732  1.00  0.00     0.230 C 
BRANCH   3   4
ATOM      4  N   UNL     1      60.079  -1.725   8.191  1.00  0.00    -0.350 N 
ATOM      5  H   UNL     1      60.651  -2.525   7.839  1.00  0.00     0.345 HD
ATOM      6  H   UNL     1      59.460  -2.099   8.946  1.00  0.00     0.345 HD
ATOM      7  H   UNL     1      59.481  -1.349   7.419  1.00  0.00     0.345 HD
ENDBRANCH   3   4
BRANCH   3   8
ATOM      8  C   UNL     1      60.095   0.427   9.317  1.00  0.00     0.099 C 
ATOM      9  O   UNL     1      60.628   1.448   9.826  1.00  0.00    -0.544 OA
ATOM     10  O   UNL     1      58.712   0.312   9.300  1.00  0.00    -0.544 OA
ENDBRANCH   3   8
ENDBRANCH   1   3
BRANCH   1  11
ATOM     11  C   UNL     1      61.945  -0.967   6.354  1.00  0.00     0.006 C 
ATOM     12  C   UNL     1      63.133  -1.928   6.296  1.00  0.00     0.004 C 
ENDBRANCH   1  11
TORSDOF 4
ENDMDL
MODEL 4
REMARK VINA RESULT:    -3.919     15.003     16.012
REMARK INTER + INTRA:          -4.821
REMARK INTER:                  -4.753
REMARK INTRA:                  -0.069
REMARK UNBOUND:                -0.101
REMARK SMILES CC[C@H](C)[C@H]([NH3+])C(=O)[O-]
REMARK SMILES IDX 3 1 4 2 5 3 6 4 7 8 8 9 9 10 2 11 1 12
REMARK H PARENT 6 5 6 6 6 7
REMARK Flexibility Score: inf
ROOT
ATOM      1  C   UNL     1      62.703   7.644  -6.260  1.00  0.00     0.050 C 
ATOM      2  C   UNL     1      62.250   9.073  -6.621  1.00  0.00     0.014 C 
ENDROOT
BRANCH   1   3
ATOM      3  C   UNL     1      63.703   7.673  -5.058  1.00  0.00     0.230 C 
BRANCH   3   4
ATOM      4  N   UNL     1      64.906   6.868  -5.320  1.00  0.00    -0.350 N 
ATOM      5  H   UNL     1      64.655   5.858  -5.416  1.00  0.00     0.345 HD
ATOM      6  H   UNL     1      65.343   7.162  -6.224  1.00  0.00     0.345 HD
ATOM      7  H   UNL     1      65.605   6.989  -4.552  1.00  0.00     0.345 HD
ENDBRANCH   3   4
BRANCH   3   8
ATOM      8  C   UNL     1      63.047   7.184  -3.790  1.00  0.00     0.099 C 
ATOM      9  O   UNL     1      62.274   7.938  -3.141  1.00  0.00    -0.544 OA
ATOM     10  O   UNL     1      63.296   5.898  -3.330  1.00  0.00    -0.544 OA
ENDBRANCH   3   8
ENDBRANCH   1   3
BRANCH   1  11
ATOM     11  C   UNL     1      63.309   6.964  -7.522  1.00  0.00     0.006 C 
ATOM     12  C   UNL     1      62.444   7.157  -8.769  1.00  0.00     0.004 C 
ENDBRANCH   1  11
TORSDOF 4
ENDMDL
MODEL 5
REMARK VINA RESULT:    -3.899     14.782     15.763
REMARK INTER + INTRA:          -4.798
REMARK INTER:                  -4.652
REMARK INTRA:                  -0.146
REMARK UNBOUND:                -0.101
REMARK SMILES CC[C@H](C)[C@H]([NH3+])C(=O)[O-]
REMARK SMILES IDX 3 1 4 2 5 3 6 4 7 8 8 9 9 10 2 11 1 12
REMARK H PARENT 6 5 6 6 6 7
REMARK Flexibility Score: inf
ROOT
ATOM      1  C   UNL     1      63.912   8.906  -5.298  1.00  0.00     0.050 C 
ATOM      2  C   UNL     1      65.338   9.229  -5.788  1.00  0.00     0.014 C 
ENDROOT
BRANCH   1   3
ATOM      3  C   UNL     1      63.706   7.359  -5.188  1.00  0.00     0.230 C 
BRANCH   3   4
ATOM      4  N   UNL     1      62.840   6.839  -6.257  1.00  0.00    -0.350 N 
ATOM      5  H   UNL     1      61.907   7.307  -6.230  1.00  0.00     0.345 HD
ATOM      6  H   UNL     1      63.261   7.049  -7.191  1.00  0.00     0.345 HD
ATOM      7  H   UNL     1      62.722   5.804  -6.165  1.00  0.00     0.345 HD
ENDBRANCH   3   4
BRANCH   3   8
ATOM      8  C   UNL     1      63.122   6.980  -3.849  1.00  0.00     0.099 C 
ATOM      9  O   UNL     1      62.283   7.730  -3.284  1.00  0.00    -0.544 OA
ATOM     10  O   UNL     1      63.513   5.800  -3.231  1.00  0.00    -0.544 OA
ENDBRANCH   3   8
ENDBRANCH   1   3
BRANCH   1  11
ATOM     11  C   UNL     1      62.878   9.577  -6.248  1.00  0.00     0.006 C 
ATOM     12  C   UNL     1      61.878  10.461  -5.501  1.00  0.00     0.004 C 
ENDBRANCH   1  11
TORSDOF 4
ENDMDL
MODEL 6
REMARK VINA RESULT:    -3.857      2.408      4.330
REMARK INTER + INTRA:          -4.747
REMARK INTER:                  -4.648
REMARK INTRA:                  -0.098
REMARK UNBOUND:                -0.101
REMARK SMILES CC[C@H](C)[C@H]([NH3+])C(=O)[O-]
REMARK SMILES IDX 3 1 4 2 5 3 6 4 7 8 8 9 9 10 2 11 1 12
REMARK H PARENT 6 5 6 6 6 7
REMARK Flexibility Score: inf
ROOT
ATOM      1  C   UNL     1      63.024  -2.144   5.490  1.00  0.00     0.050 C 
ATOM      2  C   UNL     1      64.457  -2.627   5.791  1.00  0.00     0.014 C 
ENDROOT
BRANCH   1   3
ATOM      3  C   UNL     1      62.376  -1.515   6.768  1.00  0.00     0.230 C 
BRANCH   3   4
ATOM      4  N   UNL     1      61.201  -2.273   7.223  1.00  0.00    -0.350 N 
ATOM      5  H   UNL     1      61.150  -3.195   6.733  1.00  0.00     0.345 HD
ATOM      6  H   UNL     1      61.280  -2.474   8.246  1.00  0.00     0.345 HD
ATOM      7  H   UNL     1      60.323  -1.731   7.052  1.00  0.00     0.345 HD
ENDBRANCH   3   4
BRANCH   3   8
ATOM      8  C   UNL     1      61.977  -0.080   6.527  1.00  0.00     0.099 C 
ATOM      9  O   UNL     1      61.970   0.393   5.360  1.00  0.00    -0.544 OA
ATOM     10  O   UNL     1      61.618   0.729   7.597  1.00  0.00    -0.544 OA
ENDBRANCH   3   8
ENDBRANCH   1   3
BRANCH   1  11
ATOM     11  C   UNL     1      62.190  -3.331   4.925  1.00  0.00     0.006 C 
ATOM     12  C   UNL     1      62.188  -3.375   3.396  1.00  0.00     0.004 C 
ENDBRANCH   1  11
TORSDOF 4
ENDMDL
MODEL 7
REMARK VINA RESULT:    -3.807      1.464      2.355
REMARK INTER + INTRA:          -4.687
REMARK INTER:                  -4.711
REMARK INTRA:                   0.025
REMARK UNBOUND:                -0.101
REMARK SMILES CC[C@H](C)[C@H]([NH3+])C(=O)[O-]
REMARK SMILES IDX 3 1 4 2 5 3 6 4 7 8 8 9 9 10 2 11 1 12
REMARK H PARENT 6 5 6 6 6 7
REMARK Flexibility Score: inf
ROOT
ATOM      1  C   UNL     1      62.100  -0.035   7.206  1.00  0.00     0.050 C 
ATOM      2  C   UNL     1      62.967  -0.395   8.429  1.00  0.00     0.014 C 
ENDROOT
BRANCH   1   3
ATOM      3  C   UNL     1      61.269  -1.275   6.738  1.00  0.00     0.230 C 
BRANCH   3   4
ATOM      4  N   UNL     1      60.694  -2.015   7.871  1.00  0.00    -0.350 N 
ATOM      5  H   UNL     1      59.871  -1.504   8.260  1.00  0.00     0.345 HD
ATOM      6  H   UNL     1      60.350  -2.950   7.550  1.00  0.00     0.345 HD
ATOM      7  H   UNL     1      61.410  -2.158   8.620  1.00  0.00     0.345 HD
ENDBRANCH   3   4
BRANCH   3   8
ATOM      8  C   UNL     1      62.110  -2.214   5.908  1.00  0.00     0.099 C 
ATOM      9  O   UNL     1      63.011  -2.909   6.449  1.00  0.00    -0.544 OA
ATOM     10  O   UNL     1      61.897  -2.313   4.540  1.00  0.00    -0.544 OA
ENDBRANCH   3   8
ENDBRANCH   1   3
BRANCH   1  11
ATOM     11  C   UNL     1      63.013   0.528   6.077  1.00  0.00     0.006 C 
ATOM     12  C   UNL     1      62.269   1.480   5.138  1.00  0.00     0.004 C 
ENDBRANCH   1  11
TORSDOF 4
ENDMDL
MODEL 8
REMARK VINA RESULT:    -3.799      3.043      3.714
REMARK INTER + INTRA:          -4.677
REMARK INTER:                  -4.583
REMARK INTRA:                  -0.094
REMARK UNBOUND:                -0.101
REMARK SMILES CC[C@H](C)[C@H]([NH3+])C(=O)[O-]
REMARK SMILES IDX 3 1 4 2 5 3 6 4 7 8 8 9 9 10 2 11 1 12
REMARK H PARENT 6 5 6 6 6 7
REMARK Flexibility Score: inf
ROOT
ATOM      1  C   UNL     1      62.747  -2.086   5.904  1.00  0.00     0.050 C 
ATOM      2  C   UNL     1      61.571  -1.657   6.804  1.00  0.00     0.014 C 
ENDROOT
BRANCH   1   3
ATOM      3  C   UNL     1      62.659  -3.613   5.577  1.00  0.00     0.230 C 
BRANCH   3   4
ATOM      4  N   UNL     1      63.946  -4.297   5.777  1.00  0.00    -0.350 N 
ATOM      5  H   UNL     1      64.479  -3.849   6.555  1.00  0.00     0.345 HD
ATOM      6  H   UNL     1      63.783  -5.293   6.050  1.00  0.00     0.345 HD
ATOM      7  H   UNL     1      64.515  -4.277   4.899  1.00  0.00     0.345 HD
ENDBRANCH   3   4
BRANCH   3   8
ATOM      8  C   UNL     1      62.192  -3.842   4.160  1.00  0.00     0.099 C 
ATOM      9  O   UNL     1      61.885  -4.998   3.769  1.00  0.00    -0.544 OA
ATOM     10  O   UNL     1      62.103  -2.773   3.278  1.00  0.00    -0.544 OA
ENDBRANCH   3   8
ENDBRANCH   1   3
BRANCH   1  11
ATOM     11  C   UNL     1      64.088  -1.703   6.595  1.00  0.00     0.006 C 
ATOM     12  C   UNL     1      63.881  -0.892   7.876  1.00  0.00     0.004 C 
ENDBRANCH   1  11
TORSDOF 4
ENDMDL
MODEL 9
REMARK VINA RESULT:    -3.671      2.510      3.559
REMARK INTER + INTRA:          -4.523
REMARK INTER:                  -4.399
REMARK INTRA:                  -0.124
REMARK UNBOUND:                -0.101
REMARK SMILES CC[C@H](C)[C@H]([NH3+])C(=O)[O-]
REMARK SMILES IDX 3 1 4 2 5 3 6 4 7 8 8 9 9 10 2 11 1 12
REMARK H PARENT 6 5 6 6 6 7
REMARK Flexibility Score: inf
ROOT
ATOM      1  C   UNL     1      62.839  -0.423   7.158  1.00  0.00     0.050 C 
ATOM      2  C   UNL     1      62.736  -0.169   8.675  1.00  0.00     0.014 C 
ENDROOT
BRANCH   1   3
ATOM      3  C   UNL     1      62.851   0.931   6.374  1.00  0.00     0.230 C 
BRANCH   3   4
ATOM      4  N   UNL     1      61.525   1.565   6.343  1.00  0.00    -0.350 N 
ATOM      5  H   UNL     1      61.554   2.445   5.782  1.00  0.00     0.345 HD
ATOM      6  H   UNL     1      60.835   0.929   5.881  1.00  0.00     0.345 HD
ATOM      7  H   UNL     1      61.193   1.773   7.314  1.00  0.00     0.345 HD
ENDBRANCH   3   4
BRANCH   3   8
ATOM      8  C   UNL     1      63.341   0.737   4.959  1.00  0.00     0.099 C 
ATOM      9  O   UNL     1      62.531   0.767   3.995  1.00  0.00    -0.544 OA
ATOM     10  O   UNL     1      64.690   0.521   4.715  1.00  0.00    -0.544 OA
ENDBRANCH   3   8
ENDBRANCH   1   3
BRANCH   1  11
ATOM     11  C   UNL     1      61.674  -1.356   6.714  1.00  0.00     0.006 C 
ATOM     12  C   UNL     1      62.166  -2.601   5.973  1.00  0.00     0.004 C 
ENDBRANCH   1  11
TORSDOF 4
ENDMDL
