MODEL 1
REMARK VINA RESULT:    -3.657      0.000      0.000
REMARK INTER + INTRA:          -5.357
REMARK INTER:                  -4.940
REMARK INTRA:                  -0.417
REMARK UNBOUND:                -0.417
REMARK SMILES C[C@@H](O)[C@@H](O)[C@H](O)[C@@H](O)C=O
REMARK SMILES IDX 4 1 2 2 1 3 3 4 6 6 8 7 10 8 11 9 9 10 7 12 5 14
REMARK H PARENT 3 5 9 11 7 13 5 15
REMARK Flexibility Score: inf
ROOT
ATOM      1  C   UNL     1     -21.963   1.421   8.875  1.00  0.00     0.174 C 
ENDROOT
BRANCH   1   2
ATOM      2  C   UNL     1     -21.449   0.938  10.262  1.00  0.00     0.142 C 
ATOM      3  C   UNL     1     -22.290   1.469  11.436  1.00  0.00     0.041 C 
BRANCH   2   4
ATOM      4  O   UNL     1     -21.319  -0.461  10.315  1.00  0.00    -0.391 OA
ATOM      5  H   UNL     1     -20.536  -0.676  10.886  1.00  0.00     0.211 HD
ENDBRANCH   2   4
ENDBRANCH   1   2
BRANCH   1   6
ATOM      6  C   UNL     1     -21.051   1.037   7.673  1.00  0.00     0.181 C 
BRANCH   6   7
ATOM      7  C   UNL     1     -21.712  -0.029   6.760  1.00  0.00     0.209 C 
BRANCH   7   8
ATOM      8  C   UNL     1     -20.990  -1.348   6.859  1.00  0.00     0.258 C 
ATOM      9  O   UNL     1     -20.650  -1.793   7.944  1.00  0.00    -0.300 OA
ENDBRANCH   7   8
BRANCH   7  10
ATOM     10  O   UNL     1     -21.734   0.404   5.425  1.00  0.00    -0.383 OA
ATOM     11  H   UNL     1     -20.858   0.159   5.028  1.00  0.00     0.211 HD
ENDBRANCH   7  10
ENDBRANCH   6   7
BRANCH   6  12
ATOM     12  O   UNL     1     -20.650   2.171   6.940  1.00  0.00    -0.387 OA
ATOM     13  H   UNL     1     -20.100   2.746   7.532  1.00  0.00     0.211 HD
ENDBRANCH   6  12
ENDBRANCH   1   6
BRANCH   1  14
ATOM     14  O   UNL     1     -22.218   2.805   8.895  1.00  0.00    -0.388 OA
ATOM     15  H   UNL     1     -23.048   2.958   9.419  1.00  0.00     0.211 HD
ENDBRANCH   1  14
TORSDOF 8
ENDMDL
MODEL 2
REMARK VINA RESULT:    -3.557      1.728      3.284
REMARK INTER + INTRA:          -5.221
REMARK INTER:                  -4.798
REMARK INTRA:                  -0.423
REMARK UNBOUND:                -0.417
REMARK SMILES C[C@@H](O)[C@@H](O)[C@H](O)[C@@H](O)C=O
REMARK SMILES IDX 4 1 2 2 1 3 3 4 6 6 8 7 10 8 11 9 9 10 7 12 5 14
REMARK H PARENT 3 5 9 11 7 13 5 15
REMARK Flexibility Score: inf
ROOT
ATOM      1  C   UNL     1     -20.507  -1.623   8.871  1.00  0.00     0.174 C 
ENDROOT
BRANCH   1   2
ATOM      2  C   UNL     1     -21.191  -1.289  10.228  1.00  0.00     0.142 C 
ATOM      3  C   UNL     1     -20.525  -1.984  11.428  1.00  0.00     0.041 C 
BRANCH   2   4
ATOM      4  O   UNL     1     -21.299   0.099  10.433  1.00  0.00    -0.391 OA
ATOM      5  H   UNL     1     -21.703   0.499   9.620  1.00  0.00     0.211 HD
ENDBRANCH   2   4
ENDBRANCH   1   2
BRANCH   1   6
ATOM      6  C   UNL     1     -21.242  -1.064   7.617  1.00  0.00     0.181 C 
BRANCH   6   7
ATOM      7  C   UNL     1     -20.475   0.122   6.975  1.00  0.00     0.209 C 
BRANCH   7   8
ATOM      8  C   UNL     1     -21.283   1.391   7.048  1.00  0.00     0.258 C 
ATOM      9  O   UNL     1     -21.764   1.764   8.106  1.00  0.00    -0.300 OA
ENDBRANCH   7   8
BRANCH   7  10
ATOM     10  O   UNL     1     -20.149  -0.162   5.639  1.00  0.00    -0.383 OA
ATOM     11  H   UNL     1     -20.166  -1.150   5.542  1.00  0.00     0.211 HD
ENDBRANCH   7  10
ENDBRANCH   6   7
BRANCH   6  12
ATOM     12  O   UNL     1     -21.511  -2.078   6.677  1.00  0.00    -0.387 OA
ATOM     13  H   UNL     1     -22.474  -2.306   6.731  1.00  0.00     0.211 HD
ENDBRANCH   6  12
ENDBRANCH   1   6
BRANCH   1  14
ATOM     14  O   UNL     1     -20.288  -3.008   8.754  1.00  0.00    -0.388 OA
ATOM     15  H   UNL     1     -20.837  -3.344   7.998  1.00  0.00     0.211 HD
ENDBRANCH   1  14
TORSDOF 8
ENDMDL
MODEL 3
REMARK VINA RESULT:    -3.474      1.457      2.712
REMARK INTER + INTRA:          -5.110
REMARK INTER:                  -5.019
REMARK INTRA:                  -0.091
REMARK UNBOUND:                -0.417
REMARK SMILES C[C@@H](O)[C@@H](O)[C@H](O)[C@@H](O)C=O
REMARK SMILES IDX 4 1 2 2 1 3 3 4 6 6 8 7 10 8 11 9 9 10 7 12 5 14
REMARK H PARENT 3 5 9 11 7 13 5 15
REMARK Flexibility Score: inf
ROOT
ATOM      1  C   UNL     1     -21.634   0.825   8.648  1.00  0.00     0.174 C 
ENDROOT
BRANCH   1   2
ATOM      2  C   UNL     1     -22.005   1.865   9.745  1.00  0.00     0.142 C 
ATOM      3  C   UNL     1     -22.539   3.187   9.167  1.00  0.00     0.041 C 
BRANCH   2   4
ATOM      4  O   UNL     1     -22.887   1.328  10.700  1.00  0.00    -0.391 OA
ATOM      5  H   UNL     1     -23.627   0.877  10.216  1.00  0.00     0.211 HD
ENDBRANCH   2   4
ENDBRANCH   1   2
BRANCH   1   6
ATOM      6  C   UNL     1     -21.435  -0.629   9.171  1.00  0.00     0.181 C 
BRANCH   6   7
ATOM      7  C   UNL     1     -20.544  -1.470   8.220  1.00  0.00     0.209 C 
BRANCH   7   8
ATOM      8  C   UNL     1     -21.061  -1.416   6.806  1.00  0.00     0.258 C 
ATOM      9  O   UNL     1     -20.472  -0.774   5.951  1.00  0.00    -0.300 OA
ENDBRANCH   7   8
BRANCH   7  10
ATOM     10  O   UNL     1     -20.476  -2.804   8.653  1.00  0.00    -0.383 OA
ATOM     11  H   UNL     1     -21.040  -2.871   9.468  1.00  0.00     0.211 HD
ENDBRANCH   7  10
ENDBRANCH   6   7
BRANCH   6  12
ATOM     12  O   UNL     1     -20.945  -0.645  10.491  1.00  0.00    -0.387 OA
ATOM     13  H   UNL     1     -21.718  -0.636  11.111  1.00  0.00     0.211 HD
ENDBRANCH   6  12
ENDBRANCH   1   6
BRANCH   1  14
ATOM     14  O   UNL     1     -20.514   1.256   7.913  1.00  0.00    -0.388 OA
ATOM     15  H   UNL     1     -20.785   2.045   7.375  1.00  0.00     0.211 HD
ENDBRANCH   1  14
TORSDOF 8
ENDMDL
MODEL 4
REMARK VINA RESULT:    -3.474      1.229      4.510
REMARK INTER + INTRA:          -5.109
REMARK INTER:                  -4.864
REMARK INTRA:                  -0.245
REMARK UNBOUND:                -0.417
REMARK SMILES C[C@@H](O)[C@@H](O)[C@H](O)[C@@H](O)C=O
REMARK SMILES IDX 4 1 2 2 1 3 3 4 6 6 8 7 10 8 11 9 9 10 7 12 5 14
REMARK H PARENT 3 5 9 11 7 13 5 15
REMARK Flexibility Score: inf
ROOT
ATOM      1  C   UNL     1     -21.406  -0.218   8.116  1.00  0.00     0.174 C 
ENDROOT
BRANCH   1   2
ATOM      2  C   UNL     1     -20.690   0.620   7.018  1.00  0.00     0.142 C 
ATOM      3  C   UNL     1     -20.281  -0.215   5.792  1.00  0.00     0.041 C 
BRANCH   2   4
ATOM      4  O   UNL     1     -21.444   1.747   6.643  1.00  0.00    -0.391 OA
ATOM      5  H   UNL     1     -22.050   1.976   7.395  1.00  0.00     0.211 HD
ENDBRANCH   2   4
ENDBRANCH   1   2
BRANCH   1   6
ATOM      6  C   UNL     1     -21.181   0.288   9.572  1.00  0.00     0.181 C 
BRANCH   6   7
ATOM      7  C   UNL     1     -22.292   1.272  10.023  1.00  0.00     0.209 C 
BRANCH   7   8
ATOM      8  C   UNL     1     -21.927   2.693   9.683  1.00  0.00     0.258 C 
ATOM      9  O   UNL     1     -22.532   3.302   8.815  1.00  0.00    -0.300 OA
ENDBRANCH   7   8
BRANCH   7  10
ATOM     10  O   UNL     1     -22.528   1.156  11.402  1.00  0.00    -0.383 OA
ATOM     11  H   UNL     1     -23.217   1.832  11.634  1.00  0.00     0.211 HD
ENDBRANCH   7  10
ENDBRANCH   6   7
BRANCH   6  12
ATOM     12  O   UNL     1     -21.034  -0.780  10.477  1.00  0.00    -0.387 OA
ATOM     13  H   UNL     1     -20.142  -1.190  10.333  1.00  0.00     0.211 HD
ENDBRANCH   6  12
ENDBRANCH   1   6
BRANCH   1  14
ATOM     14  O   UNL     1     -21.074  -1.580   7.996  1.00  0.00    -0.388 OA
ATOM     15  H   UNL     1     -20.194  -1.721   8.433  1.00  0.00     0.211 HD
ENDBRANCH   1  14
TORSDOF 8
ENDMDL
MODEL 5
REMARK VINA RESULT:    -3.441      1.631      3.597
REMARK INTER + INTRA:          -5.065
REMARK INTER:                  -4.962
REMARK INTRA:                  -0.104
REMARK UNBOUND:                -0.417
REMARK SMILES C[C@@H](O)[C@@H](O)[C@H](O)[C@@H](O)C=O
REMARK SMILES IDX 4 1 2 2 1 3 3 4 6 6 8 7 10 8 11 9 9 10 7 12 5 14
REMARK H PARENT 3 5 9 11 7 13 5 15
REMARK Flexibility Score: inf
ROOT
ATOM      1  C   UNL     1     -20.773  -1.063   8.417  1.00  0.00     0.174 C 
ENDROOT
BRANCH   1   2
ATOM      2  C   UNL     1     -20.577  -2.275   9.373  1.00  0.00     0.142 C 
ATOM      3  C   UNL     1     -19.965  -3.501   8.674  1.00  0.00     0.041 C 
BRANCH   2   4
ATOM      4  O   UNL     1     -19.849  -1.923  10.524  1.00  0.00    -0.391 OA
ATOM      5  H   UNL     1     -20.317  -2.301  11.312  1.00  0.00     0.211 HD
ENDBRANCH   2   4
ENDBRANCH   1   2
BRANCH   1   6
ATOM      6  C   UNL     1     -21.012   0.299   9.134  1.00  0.00     0.181 C 
BRANCH   6   7
ATOM      7  C   UNL     1     -21.814   1.289   8.248  1.00  0.00     0.209 C 
BRANCH   7   8
ATOM      8  C   UNL     1     -21.118   1.520   6.932  1.00  0.00     0.258 C 
ATOM      9  O   UNL     1     -21.533   1.001   5.907  1.00  0.00    -0.300 OA
ENDBRANCH   7   8
BRANCH   7  10
ATOM     10  O   UNL     1     -21.999   2.511   8.912  1.00  0.00    -0.383 OA
ATOM     11  H   UNL     1     -22.256   2.296   9.847  1.00  0.00     0.211 HD
ENDBRANCH   7  10
ENDBRANCH   6   7
BRANCH   6  12
ATOM     12  O   UNL     1     -21.616   0.125  10.394  1.00  0.00    -0.387 OA
ATOM     13  H   UNL     1     -22.432  -0.426  10.276  1.00  0.00     0.211 HD
ENDBRANCH   6  12
ENDBRANCH   1   6
BRANCH   1  14
ATOM     14  O   UNL     1     -21.791  -1.328   7.482  1.00  0.00    -0.388 OA
ATOM     15  H   UNL     1     -22.008  -2.295   7.530  1.00  0.00     0.211 HD
ENDBRANCH   1  14
TORSDOF 8
ENDMDL
MODEL 6
REMARK VINA RESULT:    -3.343      1.142      4.036
REMARK INTER + INTRA:          -4.933
REMARK INTER:                  -4.824
REMARK INTRA:                  -0.109
REMARK UNBOUND:                -0.417
REMARK SMILES C[C@@H](O)[C@@H](O)[C@H](O)[C@@H](O)C=O
REMARK SMILES IDX 4 1 2 2 1 3 3 4 6 6 8 7 10 8 11 9 9 10 7 12 5 14
REMARK H PARENT 3 5 9 11 7 13 5 15
REMARK Flexibility Score: inf
ROOT
ATOM      1  C   UNL     1     -20.951   0.960   8.110  1.00  0.00     0.174 C 
ENDROOT
BRANCH   1   2
ATOM      2  C   UNL     1     -21.292  -0.360   7.360  1.00  0.00     0.142 C 
ATOM      3  C   UNL     1     -20.646  -0.447   5.967  1.00  0.00     0.041 C 
BRANCH   2   4
ATOM      4  O   UNL     1     -20.994  -1.495   8.136  1.00  0.00    -0.391 OA
ATOM      5  H   UNL     1     -20.431  -1.206   8.901  1.00  0.00     0.211 HD
ENDBRANCH   2   4
ENDBRANCH   1   2
BRANCH   1   6
ATOM      6  C   UNL     1     -22.105   1.525   8.991  1.00  0.00     0.181 C 
BRANCH   6   7
ATOM      7  C   UNL     1     -22.097   0.916  10.418  1.00  0.00     0.209 C 
BRANCH   7   8
ATOM      8  C   UNL     1     -21.709   1.948  11.443  1.00  0.00     0.258 C 
ATOM      9  O   UNL     1     -21.731   1.682  12.635  1.00  0.00    -0.300 OA
ENDBRANCH   7   8
BRANCH   7  10
ATOM     10  O   UNL     1     -21.220  -0.178  10.486  1.00  0.00    -0.383 OA
ATOM     11  H   UNL     1     -21.548  -0.851   9.832  1.00  0.00     0.211 HD
ENDBRANCH   7  10
ENDBRANCH   6   7
BRANCH   6  12
ATOM     12  O   UNL     1     -22.091   2.932   9.027  1.00  0.00    -0.387 OA
ATOM     13  H   UNL     1     -22.476   3.270   8.178  1.00  0.00     0.211 HD
ENDBRANCH   6  12
ENDBRANCH   1   6
BRANCH   1  14
ATOM     14  O   UNL     1     -20.479   1.934   7.210  1.00  0.00    -0.388 OA
ATOM     15  H   UNL     1     -19.875   1.486   6.562  1.00  0.00     0.211 HD
ENDBRANCH   1  14
TORSDOF 8
ENDMDL
MODEL 7
REMARK VINA RESULT:    -3.311      1.745      3.781
REMARK INTER + INTRA:          -4.890
REMARK INTER:                  -4.621
REMARK INTRA:                  -0.268
REMARK UNBOUND:                -0.417
REMARK SMILES C[C@@H](O)[C@@H](O)[C@H](O)[C@@H](O)C=O
REMARK SMILES IDX 4 1 2 2 1 3 3 4 6 6 8 7 10 8 11 9 9 10 7 12 5 14
REMARK H PARENT 3 5 9 11 7 13 5 15
REMARK Flexibility Score: inf
ROOT
ATOM      1  C   UNL     1     -20.975   0.297   8.226  1.00  0.00     0.174 C 
ENDROOT
BRANCH   1   2
ATOM      2  C   UNL     1     -21.477  -0.355   6.906  1.00  0.00     0.142 C 
ATOM      3  C   UNL     1     -21.738   0.668   5.788  1.00  0.00     0.041 C 
BRANCH   2   4
ATOM      4  O   UNL     1     -20.623  -1.385   6.472  1.00  0.00    -0.391 OA
ATOM      5  H   UNL     1     -19.857  -1.436   7.102  1.00  0.00     0.211 HD
ENDBRANCH   2   4
ENDBRANCH   1   2
BRANCH   1   6
ATOM      6  C   UNL     1     -21.390  -0.457   9.524  1.00  0.00     0.181 C 
BRANCH   6   7
ATOM      7  C   UNL     1     -20.340  -1.521   9.938  1.00  0.00     0.209 C 
BRANCH   7   8
ATOM      8  C   UNL     1     -20.688  -2.872   9.371  1.00  0.00     0.258 C 
ATOM      9  O   UNL     1     -20.029  -3.358   8.465  1.00  0.00    -0.300 OA
ENDBRANCH   7   8
BRANCH   7  10
ATOM     10  O   UNL     1     -20.237  -1.601  11.336  1.00  0.00    -0.383 OA
ATOM     11  H   UNL     1     -20.576  -0.741  11.699  1.00  0.00     0.211 HD
ENDBRANCH   7  10
ENDBRANCH   6   7
BRANCH   6  12
ATOM     12  O   UNL     1     -21.668   0.435  10.578  1.00  0.00    -0.387 OA
ATOM     13  H   UNL     1     -22.652   0.511  10.671  1.00  0.00     0.211 HD
ENDBRANCH   6  12
ENDBRANCH   1   6
BRANCH   1  14
ATOM     14  O   UNL     1     -21.352   1.652   8.285  1.00  0.00    -0.388 OA
ATOM     15  H   UNL     1     -20.799   2.095   8.979  1.00  0.00     0.211 HD
ENDBRANCH   1  14
TORSDOF 8
ENDMDL
MODEL 8
REMARK VINA RESULT:    -3.307      1.437      3.477
REMARK INTER + INTRA:          -4.884
REMARK INTER:                  -4.687
REMARK INTRA:                  -0.197
REMARK UNBOUND:                -0.417
REMARK SMILES C[C@@H](O)[C@@H](O)[C@H](O)[C@@H](O)C=O
REMARK SMILES IDX 4 1 2 2 1 3 3 4 6 6 8 7 10 8 11 9 9 10 7 12 5 14
REMARK H PARENT 3 5 9 11 7 13 5 15
REMARK Flexibility Score: inf
ROOT
ATOM      1  C   UNL     1     -20.678  -1.007   7.684  1.00  0.00     0.174 C 
ENDROOT
BRANCH   1   2
ATOM      2  C   UNL     1     -20.962  -1.780   9.005  1.00  0.00     0.142 C 
ATOM      3  C   UNL     1     -20.169  -3.093   9.118  1.00  0.00     0.041 C 
BRANCH   2   4
ATOM      4  O   UNL     1     -20.776  -0.968  10.138  1.00  0.00    -0.391 OA
ATOM      5  H   UNL     1     -20.180  -1.450  10.768  1.00  0.00     0.211 HD
ENDBRANCH   2   4
ENDBRANCH   1   2
BRANCH   1   6
ATOM      6  C   UNL     1     -21.670   0.157   7.385  1.00  0.00     0.181 C 
BRANCH   6   7
ATOM      7  C   UNL     1     -21.225   1.484   8.054  1.00  0.00     0.209 C 
BRANCH   7   8
ATOM      8  C   UNL     1     -22.177   1.880   9.153  1.00  0.00     0.258 C 
ATOM      9  O   UNL     1     -22.082   1.391  10.267  1.00  0.00    -0.300 OA
ENDBRANCH   7   8
BRANCH   7  10
ATOM     10  O   UNL     1     -21.137   2.514   7.105  1.00  0.00    -0.383 OA
ATOM     11  H   UNL     1     -20.629   3.254   7.529  1.00  0.00     0.211 HD
ENDBRANCH   7  10
ENDBRANCH   6   7
BRANCH   6  12
ATOM     12  O   UNL     1     -21.881   0.318   6.002  1.00  0.00    -0.387 OA
ATOM     13  H   UNL     1     -22.702  -0.177   5.753  1.00  0.00     0.211 HD
ENDBRANCH   6  12
ENDBRANCH   1   6
BRANCH   1  14
ATOM     14  O   UNL     1     -20.598  -1.896   6.596  1.00  0.00    -0.388 OA
ATOM     15  H   UNL     1     -21.203  -2.661   6.779  1.00  0.00     0.211 HD
ENDBRANCH   1  14
TORSDOF 8
ENDMDL
MODEL 9
REMARK VINA RESULT:    -3.288      1.605      3.022
REMARK INTER + INTRA:          -4.858
REMARK INTER:                  -4.946
REMARK INTRA:                   0.088
REMARK UNBOUND:                -0.417
REMARK SMILES C[C@@H](O)[C@@H](O)[C@H](O)[C@@H](O)C=O
REMARK SMILES IDX 4 1 2 2 1 3 3 4 6 6 8 7 10 8 11 9 9 10 7 12 5 14
REMARK H PARENT 3 5 9 11 7 13 5 15
REMARK Flexibility Score: inf
ROOT
ATOM      1  C   UNL     1     -21.103   0.598   8.727  1.00  0.00     0.174 C 
ENDROOT
BRANCH   1   2
ATOM      2  C   UNL     1     -21.783   1.791   7.995  1.00  0.00     0.142 C 
ATOM      3  C   UNL     1     -22.318   2.865   8.957  1.00  0.00     0.041 C 
BRANCH   2   4
ATOM      4  O   UNL     1     -20.943   2.351   7.015  1.00  0.00    -0.391 OA
ATOM      5  H   UNL     1     -20.042   1.947   7.114  1.00  0.00     0.211 HD
ENDBRANCH   2   4
ENDBRANCH   1   2
BRANCH   1   6
ATOM      6  C   UNL     1     -20.826  -0.644   7.830  1.00  0.00     0.181 C 
BRANCH   6   7
ATOM      7  C   UNL     1     -20.951  -1.972   8.622  1.00  0.00     0.209 C 
BRANCH   7   8
ATOM      8  C   UNL     1     -20.117  -1.933   9.876  1.00  0.00     0.258 C 
ATOM      9  O   UNL     1     -20.641  -2.018  10.976  1.00  0.00    -0.300 OA
ENDBRANCH   7   8
BRANCH   7  10
ATOM     10  O   UNL     1     -20.567  -3.063   7.827  1.00  0.00    -0.383 OA
ATOM     11  H   UNL     1     -19.599  -2.953   7.634  1.00  0.00     0.211 HD
ENDBRANCH   7  10
ENDBRANCH   6   7
BRANCH   6  12
ATOM     12  O   UNL     1     -21.639  -0.648   6.680  1.00  0.00    -0.387 OA
ATOM     13  H   UNL     1     -21.718   0.284   6.351  1.00  0.00     0.211 HD
ENDBRANCH   6  12
ENDBRANCH   1   6
BRANCH   1  14
ATOM     14  O   UNL     1     -21.834   0.240   9.876  1.00  0.00    -0.388 OA
ATOM     15  H   UNL     1     -22.069  -0.721   9.803  1.00  0.00     0.211 HD
ENDBRANCH   1  14
TORSDOF 8
ENDMDL
