MODEL 1
REMARK VINA RESULT:    -3.043      0.000      0.000
REMARK INTER + INTRA:         -12.930
REMARK INTER:                  -7.669
REMARK INTRA:                  -5.261
REMARK UNBOUND:                -5.261
REMARK SMILES CCCCCCCCCCCCCCCCCCCCCCCCCCCC(=O)[O-]
REMARK SMILES IDX 15 1 16 2 17 3 18 4 19 5 20 6 21 7 22 8 23 9 24 10 25 11
REMARK SMILES IDX 26 12 27 13 28 14 29 15 30 16 14 17 13 18 12 19 11 20 10 21
REMARK SMILES IDX 9 22 8 23 7 24 6 25 5 26 4 27 3 28 2 29 1 30
REMARK H PARENT
REMARK Flexibility Score: inf
ROOT
ATOM      1  C   UNL     1      64.435  33.705  60.643  1.00  0.00     0.000 C 
ENDROOT
BRANCH   1   2
ATOM      2  C   UNL     1      65.202  35.014  60.876  1.00  0.00     0.000 C 
BRANCH   2   3
ATOM      3  C   UNL     1      64.266  36.106  61.417  1.00  0.00     0.000 C 
BRANCH   3   4
ATOM      4  C   UNL     1      63.357  36.712  60.333  1.00  0.00     0.000 C 
BRANCH   4   5
ATOM      5  C   UNL     1      61.847  36.602  60.611  1.00  0.00     0.000 C 
BRANCH   5   6
ATOM      6  C   UNL     1      61.170  35.474  59.813  1.00  0.00     0.000 C 
BRANCH   6   7
ATOM      7  C   UNL     1      61.581  35.478  58.331  1.00  0.00     0.000 C 
BRANCH   7   8
ATOM      8  C   UNL     1      60.402  35.814  57.401  1.00  0.00     0.000 C 
BRANCH   8   9
ATOM      9  C   UNL     1      59.218  34.849  57.570  1.00  0.00     0.000 C 
BRANCH   9  10
ATOM     10  C   UNL     1      58.707  34.293  56.231  1.00  0.00     0.000 C 
BRANCH  10  11
ATOM     11  C   UNL     1      58.300  32.819  56.369  1.00  0.00     0.000 C 
BRANCH  11  12
ATOM     12  C   UNL     1      56.934  32.642  57.053  1.00  0.00     0.006 C 
BRANCH  12  13
ATOM     13  C   UNL     1      55.874  33.610  56.512  1.00  0.00     0.053 C 
BRANCH  13  14
ATOM     14  C   UNL     1      54.964  34.056  57.612  1.00  0.00     0.041 C 
ATOM     15  O   UNL     1      55.428  34.667  58.611  1.00  0.00    -0.550 OA
ATOM     16  O   UNL     1      53.609  33.752  57.561  1.00  0.00    -0.550 OA
ENDBRANCH  13  14
ENDBRANCH  12  13
ENDBRANCH  11  12
ENDBRANCH  10  11
ENDBRANCH   9  10
ENDBRANCH   8   9
ENDBRANCH   7   8
ENDBRANCH   6   7
ENDBRANCH   5   6
ENDBRANCH   4   5
ENDBRANCH   3   4
ENDBRANCH   2   3
ENDBRANCH   1   2
BRANCH   1  17
ATOM     17  C   UNL     1      64.374  33.304  59.162  1.00  0.00     0.000 C 
BRANCH  17  18
ATOM     18  C   UNL     1      65.029  31.942  58.886  1.00  0.00     0.000 C 
BRANCH  18  19
ATOM     19  C   UNL     1      64.823  30.984  60.065  1.00  0.00     0.000 C 
BRANCH  19  20
ATOM     20  C   UNL     1      64.377  29.597  59.579  1.00  0.00     0.000 C 
BRANCH  20  21
ATOM     21  C   UNL     1      63.308  28.960  60.493  1.00  0.00     0.000 C 
BRANCH  21  22
ATOM     22  C   UNL     1      62.665  29.950  61.484  1.00  0.00    -0.000 C 
BRANCH  22  23
ATOM     23  C   UNL     1      61.249  30.424  61.107  1.00  0.00    -0.000 C 
BRANCH  23  24
ATOM     24  C   UNL     1      61.177  31.796  60.401  1.00  0.00    -0.000 C 
BRANCH  24  25
ATOM     25  C   UNL     1      60.530  31.784  59.004  1.00  0.00    -0.000 C 
BRANCH  25  26
ATOM     26  C   UNL     1      61.494  31.315  57.901  1.00  0.00    -0.000 C 
BRANCH  26  27
ATOM     27  C   UNL     1      61.260  29.849  57.496  1.00  0.00    -0.000 C 
BRANCH  27  28
ATOM     28  C   UNL     1      59.767  29.484  57.415  1.00  0.00    -0.000 C 
BRANCH  28  29
ATOM     29  C   UNL     1      59.352  28.468  58.492  1.00  0.00    -0.003 C 
ATOM     30  C   UNL     1      60.427  27.416  58.761  1.00  0.00     0.004 C 
ENDBRANCH  28  29
ENDBRANCH  27  28
ENDBRANCH  26  27
ENDBRANCH  25  26
ENDBRANCH  24  25
ENDBRANCH  23  24
ENDBRANCH  22  23
ENDBRANCH  21  22
ENDBRANCH  20  21
ENDBRANCH  19  20
ENDBRANCH  18  19
ENDBRANCH  17  18
ENDBRANCH   1  17
TORSDOF 26
ENDMDL
MODEL 2
REMARK VINA RESULT:    -2.939      7.728     11.641
REMARK INTER + INTRA:         -12.666
REMARK INTER:                  -7.218
REMARK INTRA:                  -5.448
REMARK UNBOUND:                -5.261
REMARK SMILES CCCCCCCCCCCCCCCCCCCCCCCCCCCC(=O)[O-]
REMARK SMILES IDX 15 1 16 2 17 3 18 4 19 5 20 6 21 7 22 8 23 9 24 10 25 11
REMARK SMILES IDX 26 12 27 13 28 14 29 15 30 16 14 17 13 18 12 19 11 20 10 21
REMARK SMILES IDX 9 22 8 23 7 24 6 25 5 26 4 27 3 28 2 29 1 30
REMARK H PARENT
REMARK Flexibility Score: inf
ROOT
ATOM      1  C   UNL     1      58.854  27.831  52.914  1.00  0.00     0.000 C 
ENDROOT
BRANCH   1   2
ATOM      2  C   UNL     1      59.302  29.163  52.295  1.00  0.00     0.000 C 
BRANCH   2   3
ATOM      3  C   UNL     1      58.265  29.669  51.280  1.00  0.00     0.000 C 
BRANCH   3   4
ATOM      4  C   UNL     1      58.306  28.904  49.945  1.00  0.00     0.000 C 
BRANCH   4   5
ATOM      5  C   UNL     1      59.546  29.177  49.074  1.00  0.00     0.000 C 
BRANCH   5   6
ATOM      6  C   UNL     1      60.516  27.983  49.019  1.00  0.00     0.000 C 
BRANCH   6   7
ATOM      7  C   UNL     1      59.828  26.655  49.375  1.00  0.00     0.000 C 
BRANCH   7   8
ATOM      8  C   UNL     1      60.610  25.860  50.435  1.00  0.00     0.000 C 
BRANCH   8   9
ATOM      9  C   UNL     1      61.518  24.782  49.821  1.00  0.00     0.000 C 
BRANCH   9  10
ATOM     10  C   UNL     1      62.982  24.909  50.271  1.00  0.00     0.000 C 
BRANCH  10  11
ATOM     11  C   UNL     1      63.572  26.260  49.844  1.00  0.00     0.000 C 
BRANCH  11  12
ATOM     12  C   UNL     1      64.138  27.062  51.026  1.00  0.00     0.006 C 
BRANCH  12  13
ATOM     13  C   UNL     1      63.284  28.291  51.369  1.00  0.00     0.053 C 
BRANCH  13  14
ATOM     14  C   UNL     1      63.848  29.516  50.722  1.00  0.00     0.041 C 
ATOM     15  O   UNL     1      63.163  30.166  49.889  1.00  0.00    -0.550 OA
ATOM     16  O   UNL     1      65.151  29.911  50.998  1.00  0.00    -0.550 OA
ENDBRANCH  13  14
ENDBRANCH  12  13
ENDBRANCH  11  12
ENDBRANCH  10  11
ENDBRANCH   9  10
ENDBRANCH   8   9
ENDBRANCH   7   8
ENDBRANCH   6   7
ENDBRANCH   5   6
ENDBRANCH   4   5
ENDBRANCH   3   4
ENDBRANCH   2   3
ENDBRANCH   1   2
BRANCH   1  17
ATOM     17  C   UNL     1      57.458  27.907  53.551  1.00  0.00     0.000 C 
BRANCH  17  18
ATOM     18  C   UNL     1      56.521  26.790  53.068  1.00  0.00     0.000 C 
BRANCH  18  19
ATOM     19  C   UNL     1      57.161  25.992  51.926  1.00  0.00     0.000 C 
BRANCH  19  20
ATOM     20  C   UNL     1      56.250  25.969  50.689  1.00  0.00     0.000 C 
BRANCH  20  21
ATOM     21  C   UNL     1      54.751  25.927  51.053  1.00  0.00     0.000 C 
BRANCH  21  22
ATOM     22  C   UNL     1      53.923  27.061  50.419  1.00  0.00    -0.000 C 
BRANCH  22  23
ATOM     23  C   UNL     1      54.748  28.179  49.754  1.00  0.00    -0.000 C 
BRANCH  23  24
ATOM     24  C   UNL     1      54.583  29.582  50.376  1.00  0.00    -0.000 C 
BRANCH  24  25
ATOM     25  C   UNL     1      54.550  29.621  51.914  1.00  0.00    -0.000 C 
BRANCH  25  26
ATOM     26  C   UNL     1      55.038  30.962  52.491  1.00  0.00    -0.000 C 
BRANCH  26  27
ATOM     27  C   UNL     1      55.431  30.860  53.974  1.00  0.00    -0.000 C 
BRANCH  27  28
ATOM     28  C   UNL     1      56.582  31.809  54.354  1.00  0.00    -0.000 C 
BRANCH  28  29
ATOM     29  C   UNL     1      57.070  32.645  53.160  1.00  0.00    -0.003 C 
ATOM     30  C   UNL     1      58.585  32.845  53.156  1.00  0.00     0.004 C 
ENDBRANCH  28  29
ENDBRANCH  27  28
ENDBRANCH  26  27
ENDBRANCH  25  26
ENDBRANCH  24  25
ENDBRANCH  23  24
ENDBRANCH  22  23
ENDBRANCH  21  22
ENDBRANCH  20  21
ENDBRANCH  19  20
ENDBRANCH  18  19
ENDBRANCH  17  18
ENDBRANCH   1  17
TORSDOF 26
ENDMDL
MODEL 3
REMARK VINA RESULT:    -2.913      6.683     10.275
REMARK INTER + INTRA:         -12.600
REMARK INTER:                  -6.909
REMARK INTRA:                  -5.691
REMARK UNBOUND:                -5.261
REMARK SMILES CCCCCCCCCCCCCCCCCCCCCCCCCCCC(=O)[O-]
REMARK SMILES IDX 15 1 16 2 17 3 18 4 19 5 20 6 21 7 22 8 23 9 24 10 25 11
REMARK SMILES IDX 26 12 27 13 28 14 29 15 30 16 14 17 13 18 12 19 11 20 10 21
REMARK SMILES IDX 9 22 8 23 7 24 6 25 5 26 4 27 3 28 2 29 1 30
REMARK H PARENT
REMARK Flexibility Score: inf
ROOT
ATOM      1  C   UNL     1      61.073  24.913  51.532  1.00  0.00     0.000 C 
ENDROOT
BRANCH   1   2
ATOM      2  C   UNL     1      61.452  25.462  50.150  1.00  0.00     0.000 C 
BRANCH   2   3
ATOM      3  C   UNL     1      62.356  26.697  50.282  1.00  0.00     0.000 C 
BRANCH   3   4
ATOM      4  C   UNL     1      61.847  27.907  49.480  1.00  0.00     0.000 C 
BRANCH   4   5
ATOM      5  C   UNL     1      60.394  27.796  48.983  1.00  0.00     0.000 C 
BRANCH   5   6
ATOM      6  C   UNL     1      59.600  29.104  49.152  1.00  0.00     0.000 C 
BRANCH   6   7
ATOM      7  C   UNL     1      58.440  28.959  50.151  1.00  0.00     0.000 C 
BRANCH   7   8
ATOM      8  C   UNL     1      58.553  29.952  51.321  1.00  0.00     0.000 C 
BRANCH   8   9
ATOM      9  C   UNL     1      59.956  29.976  51.948  1.00  0.00     0.000 C 
BRANCH   9  10
ATOM     10  C   UNL     1      60.064  29.090  53.198  1.00  0.00     0.000 C 
BRANCH  10  11
ATOM     11  C   UNL     1      59.187  29.635  54.334  1.00  0.00     0.000 C 
BRANCH  11  12
ATOM     12  C   UNL     1      59.005  28.627  55.480  1.00  0.00     0.006 C 
BRANCH  12  13
ATOM     13  C   UNL     1      57.768  28.927  56.339  1.00  0.00     0.053 C 
BRANCH  13  14
ATOM     14  C   UNL     1      58.166  29.166  57.761  1.00  0.00     0.041 C 
ATOM     15  O   UNL     1      59.032  30.037  58.040  1.00  0.00    -0.550 OA
ATOM     16  O   UNL     1      57.618  28.392  58.777  1.00  0.00    -0.550 OA
ENDBRANCH  13  14
ENDBRANCH  12  13
ENDBRANCH  11  12
ENDBRANCH  10  11
ENDBRANCH   9  10
ENDBRANCH   8   9
ENDBRANCH   7   8
ENDBRANCH   6   7
ENDBRANCH   5   6
ENDBRANCH   4   5
ENDBRANCH   3   4
ENDBRANCH   2   3
ENDBRANCH   1   2
BRANCH   1  17
ATOM     17  C   UNL     1      59.848  25.614  52.138  1.00  0.00     0.000 C 
BRANCH  17  18
ATOM     18  C   UNL     1      58.596  25.495  51.256  1.00  0.00     0.000 C 
BRANCH  18  19
ATOM     19  C   UNL     1      57.342  25.272  52.110  1.00  0.00     0.000 C 
BRANCH  19  20
ATOM     20  C   UNL     1      57.301  26.246  53.297  1.00  0.00     0.000 C 
BRANCH  20  21
ATOM     21  C   UNL     1      56.477  27.516  52.999  1.00  0.00     0.000 C 
BRANCH  21  22
ATOM     22  C   UNL     1      55.221  27.666  53.879  1.00  0.00    -0.000 C 
BRANCH  22  23
ATOM     23  C   UNL     1      54.546  29.049  53.823  1.00  0.00    -0.000 C 
BRANCH  23  24
ATOM     24  C   UNL     1      55.440  30.202  53.319  1.00  0.00    -0.000 C 
BRANCH  24  25
ATOM     25  C   UNL     1      54.819  31.087  52.223  1.00  0.00    -0.000 C 
BRANCH  25  26
ATOM     26  C   UNL     1      53.944  30.293  51.236  1.00  0.00    -0.000 C 
BRANCH  26  27
ATOM     27  C   UNL     1      54.770  29.617  50.128  1.00  0.00    -0.000 C 
BRANCH  27  28
ATOM     28  C   UNL     1      54.205  28.246  49.715  1.00  0.00    -0.000 C 
BRANCH  28  29
ATOM     29  C   UNL     1      55.291  27.159  49.653  1.00  0.00    -0.003 C 
ATOM     30  C   UNL     1      54.739  25.790  49.260  1.00  0.00     0.004 C 
ENDBRANCH  28  29
ENDBRANCH  27  28
ENDBRANCH  26  27
ENDBRANCH  25  26
ENDBRANCH  24  25
ENDBRANCH  23  24
ENDBRANCH  22  23
ENDBRANCH  21  22
ENDBRANCH  20  21
ENDBRANCH  19  20
ENDBRANCH  18  19
ENDBRANCH  17  18
ENDBRANCH   1  17
TORSDOF 26
ENDMDL
MODEL 4
REMARK VINA RESULT:    -2.907      1.438      2.088
REMARK INTER + INTRA:         -12.585
REMARK INTER:                  -7.256
REMARK INTRA:                  -5.329
REMARK UNBOUND:                -5.261
REMARK SMILES CCCCCCCCCCCCCCCCCCCCCCCCCCCC(=O)[O-]
REMARK SMILES IDX 15 1 16 2 17 3 18 4 19 5 20 6 21 7 22 8 23 9 24 10 25 11
REMARK SMILES IDX 26 12 27 13 28 14 29 15 30 16 14 17 13 18 12 19 11 20 10 21
REMARK SMILES IDX 9 22 8 23 7 24 6 25 5 26 4 27 3 28 2 29 1 30
REMARK H PARENT
REMARK Flexibility Score: inf
ROOT
ATOM      1  C   UNL     1      64.289  33.661  60.630  1.00  0.00     0.000 C 
ENDROOT
BRANCH   1   2
ATOM      2  C   UNL     1      65.148  34.904  60.907  1.00  0.00     0.000 C 
BRANCH   2   3
ATOM      3  C   UNL     1      64.272  36.085  61.351  1.00  0.00     0.000 C 
BRANCH   3   4
ATOM      4  C   UNL     1      63.333  36.591  60.241  1.00  0.00     0.000 C 
BRANCH   4   5
ATOM      5  C   UNL     1      61.832  36.513  60.571  1.00  0.00     0.000 C 
BRANCH   5   6
ATOM      6  C   UNL     1      61.061  35.562  59.639  1.00  0.00     0.000 C 
BRANCH   6   7
ATOM      7  C   UNL     1      61.812  35.296  58.324  1.00  0.00     0.000 C 
BRANCH   7   8
ATOM      8  C   UNL     1      60.927  35.540  57.089  1.00  0.00     0.000 C 
BRANCH   8   9
ATOM      9  C   UNL     1      59.458  35.155  57.324  1.00  0.00     0.000 C 
BRANCH   9  10
ATOM     10  C   UNL     1      58.946  34.113  56.318  1.00  0.00     0.000 C 
BRANCH  10  11
ATOM     11  C   UNL     1      57.818  33.270  56.929  1.00  0.00     0.000 C 
BRANCH  11  12
ATOM     12  C   UNL     1      56.484  34.030  57.006  1.00  0.00     0.006 C 
BRANCH  12  13
ATOM     13  C   UNL     1      56.150  34.769  55.704  1.00  0.00     0.053 C 
BRANCH  13  14
ATOM     14  C   UNL     1      55.124  34.012  54.921  1.00  0.00     0.041 C 
ATOM     15  O   UNL     1      53.971  33.832  55.395  1.00  0.00    -0.550 OA
ATOM     16  O   UNL     1      55.456  33.460  53.690  1.00  0.00    -0.550 OA
ENDBRANCH  13  14
ENDBRANCH  12  13
ENDBRANCH  11  12
ENDBRANCH  10  11
ENDBRANCH   9  10
ENDBRANCH   8   9
ENDBRANCH   7   8
ENDBRANCH   6   7
ENDBRANCH   5   6
ENDBRANCH   4   5
ENDBRANCH   3   4
ENDBRANCH   2   3
ENDBRANCH   1   2
BRANCH   1  17
ATOM     17  C   UNL     1      64.532  33.066  59.235  1.00  0.00     0.000 C 
BRANCH  17  18
ATOM     18  C   UNL     1      65.129  31.652  59.286  1.00  0.00     0.000 C 
BRANCH  18  19
ATOM     19  C   UNL     1      64.569  30.861  60.473  1.00  0.00     0.000 C 
BRANCH  19  20
ATOM     20  C   UNL     1      64.059  29.482  60.029  1.00  0.00     0.000 C 
BRANCH  20  21
ATOM     21  C   UNL     1      62.865  28.987  60.871  1.00  0.00     0.000 C 
BRANCH  21  22
ATOM     22  C   UNL     1      62.192  30.092  61.709  1.00  0.00    -0.000 C 
BRANCH  22  23
ATOM     23  C   UNL     1      60.916  30.694  61.091  1.00  0.00    -0.000 C 
BRANCH  23  24
ATOM     24  C   UNL     1      61.133  31.941  60.207  1.00  0.00    -0.000 C 
BRANCH  24  25
ATOM     25  C   UNL     1      60.616  31.821  58.762  1.00  0.00    -0.000 C 
BRANCH  25  26
ATOM     26  C   UNL     1      61.606  31.103  57.828  1.00  0.00    -0.000 C 
BRANCH  26  27
ATOM     27  C   UNL     1      62.060  31.989  56.655  1.00  0.00    -0.000 C 
BRANCH  27  28
ATOM     28  C   UNL     1      63.349  31.478  55.986  1.00  0.00    -0.000 C 
BRANCH  28  29
ATOM     29  C   UNL     1      63.639  30.006  56.319  1.00  0.00    -0.003 C 
ATOM     30  C   UNL     1      65.109  29.634  56.131  1.00  0.00     0.004 C 
ENDBRANCH  28  29
ENDBRANCH  27  28
ENDBRANCH  26  27
ENDBRANCH  25  26
ENDBRANCH  24  25
ENDBRANCH  23  24
ENDBRANCH  22  23
ENDBRANCH  21  22
ENDBRANCH  20  21
ENDBRANCH  19  20
ENDBRANCH  18  19
ENDBRANCH  17  18
ENDBRANCH   1  17
TORSDOF 26
ENDMDL
MODEL 5
REMARK VINA RESULT:    -2.879      2.746      5.025
REMARK INTER + INTRA:         -12.516
REMARK INTER:                  -6.143
REMARK INTRA:                  -6.374
REMARK UNBOUND:                -5.261
REMARK SMILES CCCCCCCCCCCCCCCCCCCCCCCCCCCC(=O)[O-]
REMARK SMILES IDX 15 1 16 2 17 3 18 4 19 5 20 6 21 7 22 8 23 9 24 10 25 11
REMARK SMILES IDX 26 12 27 13 28 14 29 15 30 16 14 17 13 18 12 19 11 20 10 21
REMARK SMILES IDX 9 22 8 23 7 24 6 25 5 26 4 27 3 28 2 29 1 30
REMARK H PARENT
REMARK Flexibility Score: inf
ROOT
ATOM      1  C   UNL     1      61.271  30.277  60.691  1.00  0.00     0.000 C 
ENDROOT
BRANCH   1   2
ATOM      2  C   UNL     1      60.960  31.772  60.856  1.00  0.00     0.000 C 
BRANCH   2   3
ATOM      3  C   UNL     1      61.932  32.626  60.028  1.00  0.00     0.000 C 
BRANCH   3   4
ATOM      4  C   UNL     1      61.499  34.100  59.921  1.00  0.00     0.000 C 
BRANCH   4   5
ATOM      5  C   UNL     1      62.547  35.124  60.393  1.00  0.00     0.000 C 
BRANCH   5   6
ATOM      6  C   UNL     1      63.915  34.487  60.694  1.00  0.00     0.000 C 
BRANCH   6   7
ATOM      7  C   UNL     1      65.077  35.473  60.485  1.00  0.00     0.000 C 
BRANCH   7   8
ATOM      8  C   UNL     1      65.779  35.265  59.132  1.00  0.00     0.000 C 
BRANCH   8   9
ATOM      9  C   UNL     1      65.383  36.321  58.088  1.00  0.00     0.000 C 
BRANCH   9  10
ATOM     10  C   UNL     1      64.249  35.850  57.164  1.00  0.00     0.000 C 
BRANCH  10  11
ATOM     11  C   UNL     1      64.303  34.329  56.962  1.00  0.00     0.000 C 
BRANCH  11  12
ATOM     12  C   UNL     1      62.941  33.733  56.571  1.00  0.00     0.006 C 
BRANCH  12  13
ATOM     13  C   UNL     1      62.830  33.451  55.067  1.00  0.00     0.053 C 
BRANCH  13  14
ATOM     14  C   UNL     1      61.796  34.335  54.444  1.00  0.00     0.041 C 
ATOM     15  O   UNL     1      61.073  35.071  55.166  1.00  0.00    -0.550 OA
ATOM     16  O   UNL     1      61.594  34.308  53.069  1.00  0.00    -0.550 OA
ENDBRANCH  13  14
ENDBRANCH  12  13
ENDBRANCH  11  12
ENDBRANCH  10  11
ENDBRANCH   9  10
ENDBRANCH   8   9
ENDBRANCH   7   8
ENDBRANCH   6   7
ENDBRANCH   5   6
ENDBRANCH   4   5
ENDBRANCH   3   4
ENDBRANCH   2   3
ENDBRANCH   1   2
BRANCH   1  17
ATOM     17  C   UNL     1      62.574  29.858  61.386  1.00  0.00     0.000 C 
BRANCH  17  18
ATOM     18  C   UNL     1      63.395  28.857  60.559  1.00  0.00     0.000 C 
BRANCH  18  19
ATOM     19  C   UNL     1      64.831  29.356  60.361  1.00  0.00     0.000 C 
BRANCH  19  20
ATOM     20  C   UNL     1      64.882  30.891  60.310  1.00  0.00     0.000 C 
BRANCH  20  21
ATOM     21  C   UNL     1      65.260  31.429  58.914  1.00  0.00     0.000 C 
BRANCH  21  22
ATOM     22  C   UNL     1      66.279  30.551  58.162  1.00  0.00    -0.000 C 
BRANCH  22  23
ATOM     23  C   UNL     1      66.036  30.421  56.646  1.00  0.00    -0.000 C 
BRANCH  23  24
ATOM     24  C   UNL     1      64.565  30.217  56.227  1.00  0.00    -0.000 C 
BRANCH  24  25
ATOM     25  C   UNL     1      63.977  28.829  56.540  1.00  0.00    -0.000 C 
BRANCH  25  26
ATOM     26  C   UNL     1      62.507  28.889  56.991  1.00  0.00    -0.000 C 
BRANCH  26  27
ATOM     27  C   UNL     1      62.025  30.328  57.244  1.00  0.00    -0.000 C 
BRANCH  27  28
ATOM     28  C   UNL     1      60.742  30.673  56.466  1.00  0.00    -0.000 C 
BRANCH  28  29
ATOM     29  C   UNL     1      59.625  31.199  57.382  1.00  0.00    -0.003 C 
ATOM     30  C   UNL     1      59.350  32.689  57.186  1.00  0.00     0.004 C 
ENDBRANCH  28  29
ENDBRANCH  27  28
ENDBRANCH  26  27
ENDBRANCH  25  26
ENDBRANCH  24  25
ENDBRANCH  23  24
ENDBRANCH  22  23
ENDBRANCH  21  22
ENDBRANCH  20  21
ENDBRANCH  19  20
ENDBRANCH  18  19
ENDBRANCH  17  18
ENDBRANCH   1  17
TORSDOF 26
ENDMDL
MODEL 6
REMARK VINA RESULT:    -2.879      3.579      7.162
REMARK INTER + INTRA:         -12.516
REMARK INTER:                  -7.007
REMARK INTRA:                  -5.508
REMARK UNBOUND:                -5.261
REMARK SMILES CCCCCCCCCCCCCCCCCCCCCCCCCCCC(=O)[O-]
REMARK SMILES IDX 15 1 16 2 17 3 18 4 19 5 20 6 21 7 22 8 23 9 24 10 25 11
REMARK SMILES IDX 26 12 27 13 28 14 29 15 30 16 14 17 13 18 12 19 11 20 10 21
REMARK SMILES IDX 9 22 8 23 7 24 6 25 5 26 4 27 3 28 2 29 1 30
REMARK H PARENT
REMARK Flexibility Score: inf
ROOT
ATOM      1  C   UNL     1      64.571  31.147  59.272  1.00  0.00     0.000 C 
ENDROOT
BRANCH   1   2
ATOM      2  C   UNL     1      64.499  30.726  60.747  1.00  0.00     0.000 C 
BRANCH   2   3
ATOM      3  C   UNL     1      63.220  29.922  61.024  1.00  0.00     0.000 C 
BRANCH   3   4
ATOM      4  C   UNL     1      62.020  30.808  61.403  1.00  0.00     0.000 C 
BRANCH   4   5
ATOM      5  C   UNL     1      60.818  30.726  60.444  1.00  0.00     0.000 C 
BRANCH   5   6
ATOM      6  C   UNL     1      60.898  31.744  59.293  1.00  0.00     0.000 C 
BRANCH   6   7
ATOM      7  C   UNL     1      61.164  31.072  57.936  1.00  0.00     0.000 C 
BRANCH   7   8
ATOM      8  C   UNL     1      60.919  29.553  57.981  1.00  0.00     0.000 C 
BRANCH   8   9
ATOM      9  C   UNL     1      62.180  28.738  57.654  1.00  0.00     0.000 C 
BRANCH   9  10
ATOM     10  C   UNL     1      62.366  27.528  58.584  1.00  0.00     0.000 C 
BRANCH  10  11
ATOM     11  C   UNL     1      61.018  27.064  59.154  1.00  0.00     0.000 C 
BRANCH  11  12
ATOM     12  C   UNL     1      60.970  27.121  60.690  1.00  0.00     0.006 C 
BRANCH  12  13
ATOM     13  C   UNL     1      62.063  26.266  61.346  1.00  0.00     0.053 C 
BRANCH  13  14
ATOM     14  C   UNL     1      61.468  25.359  62.376  1.00  0.00     0.041 C 
ATOM     15  O   UNL     1      60.265  25.496  62.723  1.00  0.00    -0.550 OA
ATOM     16  O   UNL     1      62.256  24.395  62.993  1.00  0.00    -0.550 OA
ENDBRANCH  13  14
ENDBRANCH  12  13
ENDBRANCH  11  12
ENDBRANCH  10  11
ENDBRANCH   9  10
ENDBRANCH   8   9
ENDBRANCH   7   8
ENDBRANCH   6   7
ENDBRANCH   5   6
ENDBRANCH   4   5
ENDBRANCH   3   4
ENDBRANCH   2   3
ENDBRANCH   1   2
BRANCH   1  17
ATOM     17  C   UNL     1      64.557  32.671  59.085  1.00  0.00     0.000 C 
BRANCH  17  18
ATOM     18  C   UNL     1      64.488  33.435  60.416  1.00  0.00     0.000 C 
BRANCH  18  19
ATOM     19  C   UNL     1      63.245  34.330  60.472  1.00  0.00     0.000 C 
BRANCH  19  20
ATOM     20  C   UNL     1      63.595  35.730  61.000  1.00  0.00     0.000 C 
BRANCH  20  21
ATOM     21  C   UNL     1      65.052  36.136  60.693  1.00  0.00     0.000 C 
BRANCH  21  22
ATOM     22  C   UNL     1      65.227  36.852  59.339  1.00  0.00    -0.000 C 
BRANCH  22  23
ATOM     23  C   UNL     1      65.895  36.008  58.236  1.00  0.00    -0.000 C 
BRANCH  23  24
ATOM     24  C   UNL     1      65.045  35.786  56.967  1.00  0.00    -0.000 C 
BRANCH  24  25
ATOM     25  C   UNL     1      63.567  36.202  57.083  1.00  0.00    -0.000 C 
BRANCH  25  26
ATOM     26  C   UNL     1      62.600  35.008  56.993  1.00  0.00    -0.000 C 
BRANCH  26  27
ATOM     27  C   UNL     1      61.180  35.429  56.578  1.00  0.00    -0.000 C 
BRANCH  27  28
ATOM     28  C   UNL     1      60.108  34.999  57.596  1.00  0.00    -0.000 C 
BRANCH  28  29
ATOM     29  C   UNL     1      60.352  35.597  58.991  1.00  0.00    -0.003 C 
ATOM     30  C   UNL     1      60.195  37.117  59.021  1.00  0.00     0.004 C 
ENDBRANCH  28  29
ENDBRANCH  27  28
ENDBRANCH  26  27
ENDBRANCH  25  26
ENDBRANCH  24  25
ENDBRANCH  23  24
ENDBRANCH  22  23
ENDBRANCH  21  22
ENDBRANCH  20  21
ENDBRANCH  19  20
ENDBRANCH  18  19
ENDBRANCH  17  18
ENDBRANCH   1  17
TORSDOF 26
ENDMDL
MODEL 7
REMARK VINA RESULT:    -2.870     10.154     13.432
REMARK INTER + INTRA:         -12.494
REMARK INTER:                  -8.056
REMARK INTRA:                  -4.438
REMARK UNBOUND:                -5.261
REMARK SMILES CCCCCCCCCCCCCCCCCCCCCCCCCCCC(=O)[O-]
REMARK SMILES IDX 15 1 16 2 17 3 18 4 19 5 20 6 21 7 22 8 23 9 24 10 25 11
REMARK SMILES IDX 26 12 27 13 28 14 29 15 30 16 14 17 13 18 12 19 11 20 10 21
REMARK SMILES IDX 9 22 8 23 7 24 6 25 5 26 4 27 3 28 2 29 1 30
REMARK H PARENT
REMARK Flexibility Score: inf
ROOT
ATOM      1  C   UNL     1      58.547  29.282  50.495  1.00  0.00     0.000 C 
ENDROOT
BRANCH   1   2
ATOM      2  C   UNL     1      58.952  28.188  49.496  1.00  0.00     0.000 C 
BRANCH   2   3
ATOM      3  C   UNL     1      60.442  28.300  49.139  1.00  0.00     0.000 C 
BRANCH   3   4
ATOM      4  C   UNL     1      61.365  27.652  50.187  1.00  0.00     0.000 C 
BRANCH   4   5
ATOM      5  C   UNL     1      61.914  26.265  49.804  1.00  0.00     0.000 C 
BRANCH   5   6
ATOM      6  C   UNL     1      60.841  25.163  49.845  1.00  0.00     0.000 C 
BRANCH   6   7
ATOM      7  C   UNL     1      61.453  23.754  49.921  1.00  0.00     0.000 C 
BRANCH   7   8
ATOM      8  C   UNL     1      62.187  23.510  51.251  1.00  0.00     0.000 C 
BRANCH   8   9
ATOM      9  C   UNL     1      61.462  22.498  52.154  1.00  0.00     0.000 C 
BRANCH   9  10
ATOM     10  C   UNL     1      59.963  22.383  51.836  1.00  0.00     0.000 C 
BRANCH  10  11
ATOM     11  C   UNL     1      59.410  21.024  52.287  1.00  0.00     0.000 C 
BRANCH  11  12
ATOM     12  C   UNL     1      60.164  19.838  51.663  1.00  0.00     0.006 C 
BRANCH  12  13
ATOM     13  C   UNL     1      59.277  18.596  51.499  1.00  0.00     0.053 C 
BRANCH  13  14
ATOM     14  C   UNL     1      58.635  18.588  50.148  1.00  0.00     0.041 C 
ATOM     15  O   UNL     1      59.321  18.824  49.118  1.00  0.00    -0.550 OA
ATOM     16  O   UNL     1      57.268  18.371  50.029  1.00  0.00    -0.550 OA
ENDBRANCH  13  14
ENDBRANCH  12  13
ENDBRANCH  11  12
ENDBRANCH  10  11
ENDBRANCH   9  10
ENDBRANCH   8   9
ENDBRANCH   7   8
ENDBRANCH   6   7
ENDBRANCH   5   6
ENDBRANCH   4   5
ENDBRANCH   3   4
ENDBRANCH   2   3
ENDBRANCH   1   2
BRANCH   1  17
ATOM     17  C   UNL     1      57.079  29.176  50.934  1.00  0.00     0.000 C 
BRANCH  17  18
ATOM     18  C   UNL     1      56.286  28.146  50.117  1.00  0.00     0.000 C 
BRANCH  18  19
ATOM     19  C   UNL     1      54.792  28.491  50.100  1.00  0.00     0.000 C 
BRANCH  19  20
ATOM     20  C   UNL     1      53.983  27.414  49.361  1.00  0.00     0.000 C 
BRANCH  20  21
ATOM     21  C   UNL     1      54.790  26.120  49.124  1.00  0.00     0.000 C 
BRANCH  21  22
ATOM     22  C   UNL     1      54.273  24.908  49.924  1.00  0.00    -0.000 C 
BRANCH  22  23
ATOM     23  C   UNL     1      53.359  25.253  51.115  1.00  0.00    -0.000 C 
BRANCH  23  24
ATOM     24  C   UNL     1      54.081  25.459  52.464  1.00  0.00    -0.000 C 
BRANCH  24  25
ATOM     25  C   UNL     1      55.489  24.844  52.558  1.00  0.00    -0.000 C 
BRANCH  25  26
ATOM     26  C   UNL     1      56.571  25.877  52.919  1.00  0.00    -0.000 C 
BRANCH  26  27
ATOM     27  C   UNL     1      57.915  25.590  52.228  1.00  0.00    -0.000 C 
BRANCH  27  28
ATOM     28  C   UNL     1      59.065  26.453  52.777  1.00  0.00    -0.000 C 
BRANCH  28  29
ATOM     29  C   UNL     1      60.085  25.629  53.579  1.00  0.00    -0.003 C 
ATOM     30  C   UNL     1      59.429  24.717  54.613  1.00  0.00     0.004 C 
ENDBRANCH  28  29
ENDBRANCH  27  28
ENDBRANCH  26  27
ENDBRANCH  25  26
ENDBRANCH  24  25
ENDBRANCH  23  24
ENDBRANCH  22  23
ENDBRANCH  21  22
ENDBRANCH  20  21
ENDBRANCH  19  20
ENDBRANCH  18  19
ENDBRANCH  17  18
ENDBRANCH   1  17
TORSDOF 26
ENDMDL
MODEL 8
REMARK VINA RESULT:    -2.859     10.289     14.713
REMARK INTER + INTRA:         -12.465
REMARK INTER:                  -8.615
REMARK INTRA:                  -3.850
REMARK UNBOUND:                -5.261
REMARK SMILES CCCCCCCCCCCCCCCCCCCCCCCCCCCC(=O)[O-]
REMARK SMILES IDX 15 1 16 2 17 3 18 4 19 5 20 6 21 7 22 8 23 9 24 10 25 11
REMARK SMILES IDX 26 12 27 13 28 14 29 15 30 16 14 17 13 18 12 19 11 20 10 21
REMARK SMILES IDX 9 22 8 23 7 24 6 25 5 26 4 27 3 28 2 29 1 30
REMARK H PARENT
REMARK Flexibility Score: inf
ROOT
ATOM      1  C   UNL     1      60.843  21.699  52.267  1.00  0.00     0.000 C 
ENDROOT
BRANCH   1   2
ATOM      2  C   UNL     1      60.790  21.734  50.733  1.00  0.00     0.000 C 
BRANCH   2   3
ATOM      3  C   UNL     1      61.443  20.479  50.135  1.00  0.00     0.000 C 
BRANCH   3   4
ATOM      4  C   UNL     1      61.550  19.318  51.140  1.00  0.00     0.000 C 
BRANCH   4   5
ATOM      5  C   UNL     1      61.905  17.952  50.524  1.00  0.00     0.000 C 
BRANCH   5   6
ATOM      6  C   UNL     1      60.716  16.976  50.503  1.00  0.00     0.000 C 
BRANCH   6   7
ATOM      7  C   UNL     1      59.773  17.228  49.314  1.00  0.00     0.000 C 
BRANCH   7   8
ATOM      8  C   UNL     1      58.323  17.479  49.765  1.00  0.00     0.000 C 
BRANCH   8   9
ATOM      9  C   UNL     1      58.078  18.934  50.197  1.00  0.00     0.000 C 
BRANCH   9  10
ATOM     10  C   UNL     1      57.311  19.039  51.524  1.00  0.00     0.000 C 
BRANCH  10  11
ATOM     11  C   UNL     1      58.246  18.794  52.717  1.00  0.00     0.000 C 
BRANCH  11  12
ATOM     12  C   UNL     1      57.515  18.861  54.068  1.00  0.00     0.006 C 
BRANCH  12  13
ATOM     13  C   UNL     1      56.051  18.412  53.970  1.00  0.00     0.053 C 
BRANCH  13  14
ATOM     14  C   UNL     1      55.274  18.902  55.150  1.00  0.00     0.041 C 
ATOM     15  O   UNL     1      54.018  18.985  55.093  1.00  0.00    -0.550 OA
ATOM     16  O   UNL     1      55.939  19.319  56.297  1.00  0.00    -0.550 OA
ENDBRANCH  13  14
ENDBRANCH  12  13
ENDBRANCH  11  12
ENDBRANCH  10  11
ENDBRANCH   9  10
ENDBRANCH   8   9
ENDBRANCH   7   8
ENDBRANCH   6   7
ENDBRANCH   5   6
ENDBRANCH   4   5
ENDBRANCH   3   4
ENDBRANCH   2   3
ENDBRANCH   1   2
BRANCH   1  17
ATOM     17  C   UNL     1      59.838  22.659  52.922  1.00  0.00     0.000 C 
BRANCH  17  18
ATOM     18  C   UNL     1      60.504  23.917  53.497  1.00  0.00     0.000 C 
BRANCH  18  19
ATOM     19  C   UNL     1      60.220  25.140  52.617  1.00  0.00     0.000 C 
BRANCH  19  20
ATOM     20  C   UNL     1      58.981  24.913  51.738  1.00  0.00     0.000 C 
BRANCH  20  21
ATOM     21  C   UNL     1      59.225  25.276  50.258  1.00  0.00     0.000 C 
BRANCH  21  22
ATOM     22  C   UNL     1      60.701  25.562  49.921  1.00  0.00    -0.000 C 
BRANCH  22  23
ATOM     23  C   UNL     1      61.019  27.028  49.569  1.00  0.00    -0.000 C 
BRANCH  23  24
ATOM     24  C   UNL     1      59.835  27.845  49.008  1.00  0.00    -0.000 C 
BRANCH  24  25
ATOM     25  C   UNL     1      59.583  29.198  49.696  1.00  0.00    -0.000 C 
BRANCH  25  26
ATOM     26  C   UNL     1      58.688  29.079  50.943  1.00  0.00    -0.000 C 
BRANCH  26  27
ATOM     27  C   UNL     1      57.190  29.061  50.594  1.00  0.00    -0.000 C 
BRANCH  27  28
ATOM     28  C   UNL     1      56.546  27.679  50.799  1.00  0.00    -0.000 C 
BRANCH  28  29
ATOM     29  C   UNL     1      55.449  27.383  49.762  1.00  0.00    -0.003 C 
ATOM     30  C   UNL     1      55.381  25.907  49.375  1.00  0.00     0.004 C 
ENDBRANCH  28  29
ENDBRANCH  27  28
ENDBRANCH  26  27
ENDBRANCH  25  26
ENDBRANCH  24  25
ENDBRANCH  23  24
ENDBRANCH  22  23
ENDBRANCH  21  22
ENDBRANCH  20  21
ENDBRANCH  19  20
ENDBRANCH  18  19
ENDBRANCH  17  18
ENDBRANCH   1  17
TORSDOF 26
ENDMDL
MODEL 9
REMARK VINA RESULT:    -2.856      6.527     10.268
REMARK INTER + INTRA:         -12.458
REMARK INTER:                  -7.419
REMARK INTRA:                  -5.040
REMARK UNBOUND:                -5.261
REMARK SMILES CCCCCCCCCCCCCCCCCCCCCCCCCCCC(=O)[O-]
REMARK SMILES IDX 15 1 16 2 17 3 18 4 19 5 20 6 21 7 22 8 23 9 24 10 25 11
REMARK SMILES IDX 26 12 27 13 28 14 29 15 30 16 14 17 13 18 12 19 11 20 10 21
REMARK SMILES IDX 9 22 8 23 7 24 6 25 5 26 4 27 3 28 2 29 1 30
REMARK H PARENT
REMARK Flexibility Score: inf
ROOT
ATOM      1  C   UNL     1      60.459  24.755  51.118  1.00  0.00     0.000 C 
ENDROOT
BRANCH   1   2
ATOM      2  C   UNL     1      59.102  25.368  51.491  1.00  0.00     0.000 C 
BRANCH   2   3
ATOM      3  C   UNL     1      58.262  25.641  50.234  1.00  0.00     0.000 C 
BRANCH   3   4
ATOM      4  C   UNL     1      56.859  26.186  50.553  1.00  0.00     0.000 C 
BRANCH   4   5
ATOM      5  C   UNL     1      55.853  26.121  49.389  1.00  0.00     0.000 C 
BRANCH   5   6
ATOM      6  C   UNL     1      54.540  26.865  49.687  1.00  0.00     0.000 C 
BRANCH   6   7
ATOM      7  C   UNL     1      54.724  27.980  50.730  1.00  0.00     0.000 C 
BRANCH   7   8
ATOM      8  C   UNL     1      54.387  29.369  50.162  1.00  0.00     0.000 C 
BRANCH   8   9
ATOM      9  C   UNL     1      54.735  30.510  51.132  1.00  0.00     0.000 C 
BRANCH   9  10
ATOM     10  C   UNL     1      55.269  30.002  52.480  1.00  0.00     0.000 C 
BRANCH  10  11
ATOM     11  C   UNL     1      55.760  31.169  53.349  1.00  0.00     0.000 C 
BRANCH  11  12
ATOM     12  C   UNL     1      55.369  32.541  52.777  1.00  0.00     0.006 C 
BRANCH  12  13
ATOM     13  C   UNL     1      56.035  33.704  53.526  1.00  0.00     0.053 C 
BRANCH  13  14
ATOM     14  C   UNL     1      56.107  34.916  52.652  1.00  0.00     0.041 C 
ATOM     15  O   UNL     1      57.223  35.346  52.256  1.00  0.00    -0.550 OA
ATOM     16  O   UNL     1      54.947  35.602  52.317  1.00  0.00    -0.550 OA
ENDBRANCH  13  14
ENDBRANCH  12  13
ENDBRANCH  11  12
ENDBRANCH  10  11
ENDBRANCH   9  10
ENDBRANCH   8   9
ENDBRANCH   7   8
ENDBRANCH   6   7
ENDBRANCH   5   6
ENDBRANCH   4   5
ENDBRANCH   3   4
ENDBRANCH   2   3
ENDBRANCH   1   2
BRANCH   1  17
ATOM     17  C   UNL     1      61.262  25.629  50.143  1.00  0.00     0.000 C 
BRANCH  17  18
ATOM     18  C   UNL     1      61.846  26.883  50.810  1.00  0.00     0.000 C 
BRANCH  18  19
ATOM     19  C   UNL     1      61.712  28.105  49.894  1.00  0.00     0.000 C 
BRANCH  19  20
ATOM     20  C   UNL     1      60.475  27.986  48.990  1.00  0.00     0.000 C 
BRANCH  20  21
ATOM     21  C   UNL     1      59.636  29.281  48.954  1.00  0.00     0.000 C 
BRANCH  21  22
ATOM     22  C   UNL     1      58.430  29.269  49.913  1.00  0.00    -0.000 C 
BRANCH  22  23
ATOM     23  C   UNL     1      58.718  29.792  51.333  1.00  0.00    -0.000 C 
BRANCH  23  24
ATOM     24  C   UNL     1      58.679  28.728  52.450  1.00  0.00    -0.000 C 
BRANCH  24  25
ATOM     25  C   UNL     1      59.830  28.800  53.469  1.00  0.00    -0.000 C 
BRANCH  25  26
ATOM     26  C   UNL     1      59.477  29.633  54.714  1.00  0.00    -0.000 C 
BRANCH  26  27
ATOM     27  C   UNL     1      60.240  30.968  54.767  1.00  0.00    -0.000 C 
BRANCH  27  28
ATOM     28  C   UNL     1      59.335  32.184  54.501  1.00  0.00    -0.000 C 
BRANCH  28  29
ATOM     29  C   UNL     1      59.537  32.768  53.093  1.00  0.00    -0.003 C 
ATOM     30  C   UNL     1      60.996  32.736  52.641  1.00  0.00     0.004 C 
ENDBRANCH  28  29
ENDBRANCH  27  28
ENDBRANCH  26  27
ENDBRANCH  25  26
ENDBRANCH  24  25
ENDBRANCH  23  24
ENDBRANCH  22  23
ENDBRANCH  21  22
ENDBRANCH  20  21
ENDBRANCH  19  20
ENDBRANCH  18  19
ENDBRANCH  17  18
ENDBRANCH   1  17
TORSDOF 26
ENDMDL
