MODEL 1
REMARK VINA RESULT:    -3.437      0.000      0.000
REMARK INTER + INTRA:          -5.177
REMARK INTER:                  -4.844
REMARK INTRA:                  -0.334
REMARK UNBOUND:                -0.334
REMARK SMILES CCCCCCCCC(=O)[O-]
REMARK SMILES IDX 6 1 7 2 8 3 9 4 10 5 11 6 5 7 4 8 3 9 2 10 1 11
REMARK H PARENT
REMARK Flexibility Score: inf
ROOT
ATOM      1  C   UNL     1      59.963  -0.639  95.709  1.00  0.00     0.000 C 
ENDROOT
BRANCH   1   2
ATOM      2  C   UNL     1      60.746  -0.828  94.398  1.00  0.00     0.006 C 
BRANCH   2   3
ATOM      3  C   UNL     1      60.600  -2.238  93.813  1.00  0.00     0.053 C 
BRANCH   3   4
ATOM      4  C   UNL     1      60.390  -2.170  92.334  1.00  0.00     0.041 C 
ATOM      5  O   UNL     1      59.648  -1.279  91.840  1.00  0.00    -0.550 OA
ATOM      6  O   UNL     1      61.050  -3.058  91.495  1.00  0.00    -0.550 OA
ENDBRANCH   3   4
ENDBRANCH   2   3
ENDBRANCH   1   2
BRANCH   1   7
ATOM      7  C   UNL     1      60.713   0.205  96.761  1.00  0.00     0.000 C 
BRANCH   7   8
ATOM      8  C   UNL     1      59.997   1.532  97.059  1.00  0.00    -0.000 C 
BRANCH   8   9
ATOM      9  C   UNL     1      58.628   1.586  96.366  1.00  0.00    -0.000 C 
BRANCH   9  10
ATOM     10  C   UNL     1      58.174   3.023  96.067  1.00  0.00    -0.003 C 
ATOM     11  C   UNL     1      58.937   4.067  96.884  1.00  0.00     0.004 C 
ENDBRANCH   9  10
ENDBRANCH   8   9
ENDBRANCH   7   8
ENDBRANCH   1   7
TORSDOF 7
ENDMDL
MODEL 2
REMARK VINA RESULT:    -3.429      2.850      5.095
REMARK INTER + INTRA:          -5.167
REMARK INTER:                  -4.685
REMARK INTRA:                  -0.482
REMARK UNBOUND:                -0.334
REMARK SMILES CCCCCCCCC(=O)[O-]
REMARK SMILES IDX 6 1 7 2 8 3 9 4 10 5 11 6 5 7 4 8 3 9 2 10 1 11
REMARK H PARENT
REMARK Flexibility Score: inf
ROOT
ATOM      1  C   UNL     1      60.729   0.321  96.735  1.00  0.00     0.000 C 
ENDROOT
BRANCH   1   2
ATOM      2  C   UNL     1      59.953   1.606  97.073  1.00  0.00     0.006 C 
BRANCH   2   3
ATOM      3  C   UNL     1      58.473   1.531  96.680  1.00  0.00     0.053 C 
BRANCH   3   4
ATOM      4  C   UNL     1      58.100   2.699  95.823  1.00  0.00     0.041 C 
ATOM      5  O   UNL     1      58.477   3.860  96.136  1.00  0.00    -0.550 OA
ATOM      6  O   UNL     1      57.379   2.502  94.653  1.00  0.00    -0.550 OA
ENDBRANCH   3   4
ENDBRANCH   2   3
ENDBRANCH   1   2
BRANCH   1   7
ATOM      7  C   UNL     1      60.051  -0.544  95.651  1.00  0.00     0.000 C 
BRANCH   7   8
ATOM      8  C   UNL     1      61.056  -1.068  94.613  1.00  0.00    -0.000 C 
BRANCH   8   9
ATOM      9  C   UNL     1      60.415  -1.147  93.219  1.00  0.00    -0.000 C 
BRANCH   9  10
ATOM     10  C   UNL     1      59.271  -0.137  93.038  1.00  0.00    -0.003 C 
ATOM     11  C   UNL     1      58.963   0.150  91.568  1.00  0.00     0.004 C 
ENDBRANCH   9  10
ENDBRANCH   8   9
ENDBRANCH   7   8
ENDBRANCH   1   7
TORSDOF 7
ENDMDL
MODEL 3
REMARK VINA RESULT:    -3.422      0.902      1.524
REMARK INTER + INTRA:          -5.156
REMARK INTER:                  -4.826
REMARK INTRA:                  -0.330
REMARK UNBOUND:                -0.334
REMARK SMILES CCCCCCCCC(=O)[O-]
REMARK SMILES IDX 6 1 7 2 8 3 9 4 10 5 11 6 5 7 4 8 3 9 2 10 1 11
REMARK H PARENT
REMARK Flexibility Score: inf
ROOT
ATOM      1  C   UNL     1      60.721   0.297  96.740  1.00  0.00     0.000 C 
ENDROOT
BRANCH   1   2
ATOM      2  C   UNL     1      59.991  -0.484  95.634  1.00  0.00     0.006 C 
BRANCH   2   3
ATOM      3  C   UNL     1      60.948  -1.111  94.613  1.00  0.00     0.053 C 
BRANCH   3   4
ATOM      4  C   UNL     1      60.336  -1.098  93.248  1.00  0.00     0.041 C 
ATOM      5  O   UNL     1      59.576  -0.155  92.903  1.00  0.00    -0.550 OA
ATOM      6  O   UNL     1      60.643  -2.102  92.339  1.00  0.00    -0.550 OA
ENDBRANCH   3   4
ENDBRANCH   2   3
ENDBRANCH   1   2
BRANCH   1   7
ATOM      7  C   UNL     1      60.037   1.630  97.112  1.00  0.00     0.000 C 
BRANCH   7   8
ATOM      8  C   UNL     1      58.573   1.680  96.649  1.00  0.00    -0.000 C 
BRANCH   8   9
ATOM      9  C   UNL     1      58.228   3.058  96.064  1.00  0.00    -0.000 C 
BRANCH   9  10
ATOM     10  C   UNL     1      58.874   4.211  96.848  1.00  0.00    -0.003 C 
ATOM     11  C   UNL     1      58.174   5.550  96.616  1.00  0.00     0.004 C 
ENDBRANCH   9  10
ENDBRANCH   8   9
ENDBRANCH   7   8
ENDBRANCH   1   7
TORSDOF 7
ENDMDL
MODEL 4
REMARK VINA RESULT:    -3.383      1.917      2.475
REMARK INTER + INTRA:          -5.100
REMARK INTER:                  -4.408
REMARK INTRA:                  -0.693
REMARK UNBOUND:                -0.334
REMARK SMILES CCCCCCCCC(=O)[O-]
REMARK SMILES IDX 6 1 7 2 8 3 9 4 10 5 11 6 5 7 4 8 3 9 2 10 1 11
REMARK H PARENT
REMARK Flexibility Score: inf
ROOT
ATOM      1  C   UNL     1      60.882  -0.763  94.769  1.00  0.00     0.000 C 
ENDROOT
BRANCH   1   2
ATOM      2  C   UNL     1      60.091  -1.354  93.589  1.00  0.00     0.006 C 
BRANCH   2   3
ATOM      3  C   UNL     1      59.730  -0.309  92.528  1.00  0.00     0.053 C 
BRANCH   3   4
ATOM      4  C   UNL     1      58.280   0.050  92.620  1.00  0.00     0.041 C 
ATOM      5  O   UNL     1      57.503  -0.635  93.338  1.00  0.00    -0.550 OA
ATOM      6  O   UNL     1      57.796   1.167  91.954  1.00  0.00    -0.550 OA
ENDBRANCH   3   4
ENDBRANCH   2   3
ENDBRANCH   1   2
BRANCH   1   7
ATOM      7  C   UNL     1      60.020  -0.499  96.021  1.00  0.00     0.000 C 
BRANCH   7   8
ATOM      8  C   UNL     1      60.514   0.717  96.822  1.00  0.00    -0.000 C 
BRANCH   8   9
ATOM      9  C   UNL     1      59.411   1.778  96.948  1.00  0.00    -0.000 C 
BRANCH   9  10
ATOM     10  C   UNL     1      58.130   1.390  96.193  1.00  0.00    -0.003 C 
ATOM     11  C   UNL     1      57.569   2.536  95.351  1.00  0.00     0.004 C 
ENDBRANCH   9  10
ENDBRANCH   8   9
ENDBRANCH   7   8
ENDBRANCH   1   7
TORSDOF 7
ENDMDL
MODEL 5
REMARK VINA RESULT:    -3.380      1.738      2.191
REMARK INTER + INTRA:          -5.096
REMARK INTER:                  -4.361
REMARK INTRA:                  -0.736
REMARK UNBOUND:                -0.334
REMARK SMILES CCCCCCCCC(=O)[O-]
REMARK SMILES IDX 6 1 7 2 8 3 9 4 10 5 11 6 5 7 4 8 3 9 2 10 1 11
REMARK H PARENT
REMARK Flexibility Score: inf
ROOT
ATOM      1  C   UNL     1      61.125  -1.004  94.870  1.00  0.00     0.000 C 
ENDROOT
BRANCH   1   2
ATOM      2  C   UNL     1      60.514  -1.436  93.526  1.00  0.00     0.006 C 
BRANCH   2   3
ATOM      3  C   UNL     1      59.611  -0.363  92.907  1.00  0.00     0.053 C 
BRANCH   3   4
ATOM      4  C   UNL     1      58.205  -0.863  92.800  1.00  0.00     0.041 C 
ATOM      5  O   UNL     1      57.333  -0.179  92.200  1.00  0.00    -0.550 OA
ATOM      6  O   UNL     1      57.867  -2.105  93.320  1.00  0.00    -0.550 OA
ENDBRANCH   3   4
ENDBRANCH   2   3
ENDBRANCH   1   2
BRANCH   1   7
ATOM      7  C   UNL     1      60.073  -0.626  95.934  1.00  0.00     0.000 C 
BRANCH   7   8
ATOM      8  C   UNL     1      60.481   0.619  96.739  1.00  0.00    -0.000 C 
BRANCH   8   9
ATOM      9  C   UNL     1      59.346   1.653  96.765  1.00  0.00    -0.000 C 
BRANCH   9  10
ATOM     10  C   UNL     1      58.074   1.151  96.063  1.00  0.00    -0.003 C 
ATOM     11  C   UNL     1      57.557   2.127  95.006  1.00  0.00     0.004 C 
ENDBRANCH   9  10
ENDBRANCH   8   9
ENDBRANCH   7   8
ENDBRANCH   1   7
TORSDOF 7
ENDMDL
MODEL 6
REMARK VINA RESULT:    -3.351      4.013      6.691
REMARK INTER + INTRA:          -5.057
REMARK INTER:                  -4.702
REMARK INTRA:                  -0.355
REMARK UNBOUND:                -0.334
REMARK SMILES CCCCCCCCC(=O)[O-]
REMARK SMILES IDX 6 1 7 2 8 3 9 4 10 5 11 6 5 7 4 8 3 9 2 10 1 11
REMARK H PARENT
REMARK Flexibility Score: inf
ROOT
ATOM      1  C   UNL     1      58.124   3.234  96.147  1.00  0.00     0.000 C 
ENDROOT
BRANCH   1   2
ATOM      2  C   UNL     1      58.915   4.146  97.101  1.00  0.00     0.006 C 
BRANCH   2   3
ATOM      3  C   UNL     1      58.516   5.621  96.987  1.00  0.00     0.053 C 
BRANCH   3   4
ATOM      4  C   UNL     1      59.599   6.405  96.316  1.00  0.00     0.041 C 
ATOM      5  O   UNL     1      60.648   5.828  95.923  1.00  0.00    -0.550 OA
ATOM      6  O   UNL     1      59.430   7.763  96.079  1.00  0.00    -0.550 OA
ENDBRANCH   3   4
ENDBRANCH   2   3
ENDBRANCH   1   2
BRANCH   1   7
ATOM      7  C   UNL     1      58.641   1.781  96.108  1.00  0.00     0.000 C 
BRANCH   7   8
ATOM      8  C   UNL     1      59.803   1.551  97.087  1.00  0.00    -0.000 C 
BRANCH   8   9
ATOM      9  C   UNL     1      60.581   0.276  96.727  1.00  0.00    -0.000 C 
BRANCH   9  10
ATOM     10  C   UNL     1      59.887  -0.549  95.633  1.00  0.00    -0.003 C 
ATOM     11  C   UNL     1      60.841  -0.969  94.514  1.00  0.00     0.004 C 
ENDBRANCH   9  10
ENDBRANCH   8   9
ENDBRANCH   7   8
ENDBRANCH   1   7
TORSDOF 7
ENDMDL
MODEL 7
REMARK VINA RESULT:    -3.310      2.712      4.732
REMARK INTER + INTRA:          -4.998
REMARK INTER:                  -4.307
REMARK INTRA:                  -0.691
REMARK UNBOUND:                -0.334
REMARK SMILES CCCCCCCCC(=O)[O-]
REMARK SMILES IDX 6 1 7 2 8 3 9 4 10 5 11 6 5 7 4 8 3 9 2 10 1 11
REMARK H PARENT
REMARK Flexibility Score: inf
ROOT
ATOM      1  C   UNL     1      60.337   1.287  96.749  1.00  0.00     0.000 C 
ENDROOT
BRANCH   1   2
ATOM      2  C   UNL     1      58.871   1.734  96.878  1.00  0.00     0.006 C 
BRANCH   2   3
ATOM      3  C   UNL     1      58.100   1.642  95.556  1.00  0.00     0.053 C 
BRANCH   3   4
ATOM      4  C   UNL     1      57.023   0.608  95.651  1.00  0.00     0.041 C 
ATOM      5  O   UNL     1      56.843  -0.022  96.727  1.00  0.00    -0.550 OA
ATOM      6  O   UNL     1      56.187   0.373  94.567  1.00  0.00    -0.550 OA
ENDBRANCH   3   4
ENDBRANCH   2   3
ENDBRANCH   1   2
BRANCH   1   7
ATOM      7  C   UNL     1      60.521  -0.245  96.758  1.00  0.00     0.000 C 
BRANCH   7   8
ATOM      8  C   UNL     1      61.125  -0.765  95.444  1.00  0.00    -0.000 C 
BRANCH   8   9
ATOM      9  C   UNL     1      60.037  -1.353  94.533  1.00  0.00    -0.000 C 
BRANCH   9  10
ATOM     10  C   UNL     1      60.332  -1.130  93.042  1.00  0.00    -0.003 C 
ATOM     11  C   UNL     1      59.365  -0.143  92.388  1.00  0.00     0.004 C 
ENDBRANCH   9  10
ENDBRANCH   8   9
ENDBRANCH   7   8
ENDBRANCH   1   7
TORSDOF 7
ENDMDL
MODEL 8
REMARK VINA RESULT:    -3.301      1.425      1.968
REMARK INTER + INTRA:          -4.985
REMARK INTER:                  -4.484
REMARK INTRA:                  -0.501
REMARK UNBOUND:                -0.334
REMARK SMILES CCCCCCCCC(=O)[O-]
REMARK SMILES IDX 6 1 7 2 8 3 9 4 10 5 11 6 5 7 4 8 3 9 2 10 1 11
REMARK H PARENT
REMARK Flexibility Score: inf
ROOT
ATOM      1  C   UNL     1      60.085  -0.604  96.070  1.00  0.00     0.000 C 
ENDROOT
BRANCH   1   2
ATOM      2  C   UNL     1      61.004  -0.982  94.895  1.00  0.00     0.006 C 
BRANCH   2   3
ATOM      3  C   UNL     1      60.289  -0.941  93.539  1.00  0.00     0.053 C 
BRANCH   3   4
ATOM      4  C   UNL     1      59.928  -2.323  93.098  1.00  0.00     0.041 C 
ATOM      5  O   UNL     1      58.743  -2.735  93.211  1.00  0.00    -0.550 OA
ATOM      6  O   UNL     1      60.888  -3.141  92.516  1.00  0.00    -0.550 OA
ENDBRANCH   3   4
ENDBRANCH   2   3
ENDBRANCH   1   2
BRANCH   1   7
ATOM      7  C   UNL     1      60.483   0.715  96.766  1.00  0.00     0.000 C 
BRANCH   7   8
ATOM      8  C   UNL     1      59.315   1.711  96.835  1.00  0.00    -0.000 C 
BRANCH   8   9
ATOM      9  C   UNL     1      58.145   1.249  95.952  1.00  0.00    -0.000 C 
BRANCH   9  10
ATOM     10  C   UNL     1      56.833   1.109  96.738  1.00  0.00    -0.003 C 
ATOM     11  C   UNL     1      56.295  -0.322  96.742  1.00  0.00     0.004 C 
ENDBRANCH   9  10
ENDBRANCH   8   9
ENDBRANCH   7   8
ENDBRANCH   1   7
TORSDOF 7
ENDMDL
MODEL 9
REMARK VINA RESULT:    -3.279      2.257      3.076
REMARK INTER + INTRA:          -4.954
REMARK INTER:                  -4.285
REMARK INTRA:                  -0.669
REMARK UNBOUND:                -0.334
REMARK SMILES CCCCCCCCC(=O)[O-]
REMARK SMILES IDX 6 1 7 2 8 3 9 4 10 5 11 6 5 7 4 8 3 9 2 10 1 11
REMARK H PARENT
REMARK Flexibility Score: inf
ROOT
ATOM      1  C   UNL     1      60.453  -1.267  93.430  1.00  0.00     0.000 C 
ENDROOT
BRANCH   1   2
ATOM      2  C   UNL     1      59.364  -0.231  93.100  1.00  0.00     0.006 C 
BRANCH   2   3
ATOM      3  C   UNL     1      58.066  -0.870  92.592  1.00  0.00     0.053 C 
BRANCH   3   4
ATOM      4  C   UNL     1      57.137  -1.141  93.733  1.00  0.00     0.041 C 
ATOM      5  O   UNL     1      56.223  -0.320  94.014  1.00  0.00    -0.550 OA
ATOM      6  O   UNL     1      57.248  -2.321  94.456  1.00  0.00    -0.550 OA
ENDBRANCH   3   4
ENDBRANCH   2   3
ENDBRANCH   1   2
BRANCH   1   7
ATOM      7  C   UNL     1      61.095  -1.068  94.819  1.00  0.00     0.000 C 
BRANCH   7   8
ATOM      8  C   UNL     1      60.071  -0.623  95.875  1.00  0.00    -0.000 C 
BRANCH   8   9
ATOM      9  C   UNL     1      60.670   0.439  96.809  1.00  0.00    -0.000 C 
BRANCH   9  10
ATOM     10  C   UNL     1      59.758   1.665  96.969  1.00  0.00    -0.003 C 
ATOM     11  C   UNL     1      58.391   1.476  96.310  1.00  0.00     0.004 C 
ENDBRANCH   9  10
ENDBRANCH   8   9
ENDBRANCH   7   8
ENDBRANCH   1   7
TORSDOF 7
ENDMDL
