MODEL 1
REMARK VINA RESULT:     4.464      0.000      0.000
REMARK INTER + INTRA:           6.653
REMARK INTER:                   6.943
REMARK INTRA:                  -0.290
REMARK UNBOUND:                -0.290
REMARK SMILES COc1cc(CNC(=O)CCCCC=CC(C)C)ccc1O
REMARK SMILES IDX 11 1 12 2 13 3 14 4 15 5 16 6 17 7 18 8 10 9 8 10 9 11 7 12
REMARK SMILES IDX 6 14 5 15 4 16 19 17 3 18 20 19 21 20 2 21 1 22 22 23
REMARK H PARENT 7 13 22 24
REMARK Flexibility Score: inf
ROOT
ATOM      1  C   UNL     1      12.893   8.246  15.789  1.00  0.00     0.010 C 
ENDROOT
BRANCH   1   2
ATOM      2  C   UNL     1      13.734   9.374  16.408  1.00  0.00     0.005 C 
BRANCH   2   3
ATOM      3  C   UNL     1      13.759   9.358  17.949  1.00  0.00     0.027 C 
BRANCH   3   4
ATOM      4  C   UNL     1      12.593   8.604  18.540  1.00  0.00    -0.031 C 
ATOM      5  C   UNL     1      12.296   8.548  19.853  1.00  0.00    -0.028 C 
BRANCH   5   6
ATOM      6  C   UNL     1      13.100   9.200  20.957  1.00  0.00     0.005 C 
ATOM      7  C   UNL     1      13.337   8.188  22.082  1.00  0.00     0.012 C 
ATOM      8  C   UNL     1      12.355  10.431  21.485  1.00  0.00     0.012 C 
ENDBRANCH   5   6
ENDBRANCH   3   4
ENDBRANCH   2   3
ENDBRANCH   1   2
BRANCH   1   9
ATOM      9  C   UNL     1      11.416   8.628  15.609  1.00  0.00     0.100 C 
BRANCH   9  10
ATOM     10  C   UNL     1      10.920   8.264  14.239  1.00  0.00     0.220 C 
ATOM     11  O   UNL     1      11.744   7.901  13.355  1.00  0.00    -0.275 OA
ATOM     12  N   UNL     1       9.513   8.274  13.954  1.00  0.00    -0.352 N 
ATOM     13  H   UNL     1       8.838   8.458  14.729  1.00  0.00     0.163 HD
BRANCH  12  14
ATOM     14  C   UNL     1       8.989   8.146  12.596  1.00  0.00     0.151 C 
BRANCH  14  15
ATOM     15  C   UNL     1       7.755   7.286  12.605  1.00  0.00    -0.025 A 
ATOM     16  C   UNL     1       6.479   7.873  12.622  1.00  0.00     0.056 A 
ATOM     17  C   UNL     1       7.874   5.891  12.674  1.00  0.00     0.009 A 
ATOM     18  C   UNL     1       5.323   7.070  12.690  1.00  0.00     0.160 A 
ATOM     19  C   UNL     1       6.734   5.091  12.736  1.00  0.00     0.050 A 
ATOM     20  C   UNL     1       5.459   5.676  12.744  1.00  0.00     0.157 A 
BRANCH  18  21
ATOM     21  O   UNL     1       4.030   7.618  12.711  1.00  0.00    -0.493 OA
ATOM     22  C   UNL     1       3.318   7.960  13.896  1.00  0.00     0.278 C 
ENDBRANCH  18  21
BRANCH  20  23
ATOM     23  O   UNL     1       4.320   4.875  12.809  1.00  0.00    -0.504 OA
ATOM     24  H   UNL     1       3.466   5.126  12.322  1.00  0.00     0.293 HD
ENDBRANCH  20  23
ENDBRANCH  14  15
ENDBRANCH  12  14
ENDBRANCH   9  10
ENDBRANCH   1   9
TORSDOF 10
ENDMDL
MODEL 2
REMARK VINA RESULT:     5.990      1.129      1.509
REMARK INTER + INTRA:           9.026
REMARK INTER:                   9.636
REMARK INTRA:                  -0.610
REMARK UNBOUND:                -0.290
REMARK SMILES COc1cc(CNC(=O)CCCCC=CC(C)C)ccc1O
REMARK SMILES IDX 11 1 12 2 13 3 14 4 15 5 16 6 17 7 18 8 10 9 8 10 9 11 7 12
REMARK SMILES IDX 6 14 5 15 4 16 19 17 3 18 20 19 21 20 2 21 1 22 22 23
REMARK H PARENT 7 13 22 24
REMARK Flexibility Score: inf
ROOT
ATOM      1  C   UNL     1      13.320   8.637  16.147  1.00  0.00     0.010 C 
ENDROOT
BRANCH   1   2
ATOM      2  C   UNL     1      13.885   9.047  17.517  1.00  0.00     0.005 C 
BRANCH   2   3
ATOM      3  C   UNL     1      12.804   9.306  18.584  1.00  0.00     0.027 C 
BRANCH   3   4
ATOM      4  C   UNL     1      13.122   8.646  19.904  1.00  0.00    -0.031 C 
ATOM      5  C   UNL     1      12.753   9.117  21.110  1.00  0.00    -0.028 C 
BRANCH   5   6
ATOM      6  C   UNL     1      11.990  10.403  21.349  1.00  0.00     0.005 C 
ATOM      7  C   UNL     1      12.972  11.576  21.411  1.00  0.00     0.012 C 
ATOM      8  C   UNL     1      11.189  10.298  22.651  1.00  0.00     0.012 C 
ENDBRANCH   5   6
ENDBRANCH   3   4
ENDBRANCH   2   3
ENDBRANCH   1   2
BRANCH   1   9
ATOM      9  C   UNL     1      11.784   8.651  16.103  1.00  0.00     0.100 C 
BRANCH   9  10
ATOM     10  C   UNL     1      11.274   8.347  14.724  1.00  0.00     0.220 C 
ATOM     11  O   UNL     1      12.067   7.900  13.851  1.00  0.00    -0.275 OA
ATOM     12  N   UNL     1       9.880   8.510  14.417  1.00  0.00    -0.352 N 
ATOM     13  H   UNL     1       9.217   8.763  15.182  1.00  0.00     0.163 HD
BRANCH  12  14
ATOM     14  C   UNL     1       9.367   8.443  13.051  1.00  0.00     0.151 C 
BRANCH  14  15
ATOM     15  C   UNL     1       8.048   7.722  13.037  1.00  0.00    -0.025 A 
ATOM     16  C   UNL     1       7.054   8.072  12.108  1.00  0.00     0.056 A 
ATOM     17  C   UNL     1       7.774   6.744  14.004  1.00  0.00     0.009 A 
ATOM     18  C   UNL     1       5.797   7.438  12.132  1.00  0.00     0.160 A 
ATOM     19  C   UNL     1       6.533   6.108  14.029  1.00  0.00     0.050 A 
ATOM     20  C   UNL     1       5.544   6.452  13.096  1.00  0.00     0.157 A 
BRANCH  18  21
ATOM     21  O   UNL     1       4.777   7.761  11.221  1.00  0.00    -0.493 OA
ATOM     22  C   UNL     1       4.397   9.089  10.875  1.00  0.00     0.278 C 
ENDBRANCH  18  21
BRANCH  20  23
ATOM     23  O   UNL     1       4.303   5.818  13.124  1.00  0.00    -0.504 OA
ATOM     24  H   UNL     1       4.221   4.818  13.272  1.00  0.00     0.293 HD
ENDBRANCH  20  23
ENDBRANCH  14  15
ENDBRANCH  12  14
ENDBRANCH   9  10
ENDBRANCH   1   9
TORSDOF 10
ENDMDL
MODEL 3
REMARK VINA RESULT:     6.758      4.822      9.225
REMARK INTER + INTRA:          10.221
REMARK INTER:                  10.747
REMARK INTRA:                  -0.526
REMARK UNBOUND:                -0.290
REMARK SMILES COc1cc(CNC(=O)CCCCC=CC(C)C)ccc1O
REMARK SMILES IDX 11 1 12 2 13 3 14 4 15 5 16 6 17 7 18 8 10 9 8 10 9 11 7 12
REMARK SMILES IDX 6 14 5 15 4 16 19 17 3 18 20 19 21 20 2 21 1 22 22 23
REMARK H PARENT 7 13 22 24
REMARK Flexibility Score: inf
ROOT
ATOM      1  C   UNL     1      12.539   8.269  15.257  1.00  0.00     0.010 C 
ENDROOT
BRANCH   1   2
ATOM      2  C   UNL     1      11.053   8.642  15.378  1.00  0.00     0.005 C 
BRANCH   2   3
ATOM      3  C   UNL     1      10.211   8.252  14.147  1.00  0.00     0.027 C 
BRANCH   3   4
ATOM      4  C   UNL     1       8.758   8.630  14.296  1.00  0.00    -0.031 C 
ATOM      5  C   UNL     1       7.725   7.938  13.777  1.00  0.00    -0.028 C 
BRANCH   5   6
ATOM      6  C   UNL     1       7.848   6.690  12.929  1.00  0.00     0.005 C 
ATOM      7  C   UNL     1       7.554   7.034  11.466  1.00  0.00     0.012 C 
ATOM      8  C   UNL     1       6.879   5.619  13.438  1.00  0.00     0.012 C 
ENDBRANCH   5   6
ENDBRANCH   3   4
ENDBRANCH   2   3
ENDBRANCH   1   2
BRANCH   1   9
ATOM      9  C   UNL     1      13.458   9.181  16.086  1.00  0.00     0.100 C 
BRANCH   9  10
ATOM     10  C   UNL     1      14.453   9.892  15.215  1.00  0.00     0.220 C 
ATOM     11  O   UNL     1      15.510   9.298  14.864  1.00  0.00    -0.275 OA
ATOM     12  N   UNL     1      14.177  11.217  14.737  1.00  0.00    -0.352 N 
ATOM     13  H   UNL     1      13.246  11.646  14.935  1.00  0.00     0.163 HD
BRANCH  12  14
ATOM     14  C   UNL     1      15.190  12.038  14.077  1.00  0.00     0.151 C 
BRANCH  14  15
ATOM     15  C   UNL     1      14.609  13.380  13.727  1.00  0.00    -0.025 A 
ATOM     16  C   UNL     1      13.898  13.558  12.529  1.00  0.00     0.056 A 
ATOM     17  C   UNL     1      14.840  14.482  14.563  1.00  0.00     0.009 A 
ATOM     18  C   UNL     1      13.404  14.828  12.172  1.00  0.00     0.160 A 
ATOM     19  C   UNL     1      14.349  15.741  14.217  1.00  0.00     0.050 A 
ATOM     20  C   UNL     1      13.631  15.917  13.025  1.00  0.00     0.157 A 
BRANCH  18  21
ATOM     21  O   UNL     1      12.690  15.047  10.982  1.00  0.00    -0.493 OA
ATOM     22  C   UNL     1      11.270  15.007  10.875  1.00  0.00     0.278 C 
ENDBRANCH  18  21
BRANCH  20  23
ATOM     23  O   UNL     1      13.144  17.176  12.679  1.00  0.00    -0.504 OA
ATOM     24  H   UNL     1      13.475  17.665  11.854  1.00  0.00     0.293 HD
ENDBRANCH  20  23
ENDBRANCH  14  15
ENDBRANCH  12  14
ENDBRANCH   9  10
ENDBRANCH   1   9
TORSDOF 10
ENDMDL
MODEL 4
REMARK VINA RESULT:     7.368      3.037      9.361
REMARK INTER + INTRA:          11.170
REMARK INTER:                  11.686
REMARK INTRA:                  -0.516
REMARK UNBOUND:                -0.290
REMARK SMILES COc1cc(CNC(=O)CCCCC=CC(C)C)ccc1O
REMARK SMILES IDX 11 1 12 2 13 3 14 4 15 5 16 6 17 7 18 8 10 9 8 10 9 11 7 12
REMARK SMILES IDX 6 14 5 15 4 16 19 17 3 18 20 19 21 20 2 21 1 22 22 23
REMARK H PARENT 7 13 22 24
REMARK Flexibility Score: inf
ROOT
ATOM      1  C   UNL     1      10.242   8.293  13.507  1.00  0.00     0.010 C 
ENDROOT
BRANCH   1   2
ATOM      2  C   UNL     1       8.766   8.357  13.083  1.00  0.00     0.005 C 
BRANCH   2   3
ATOM      3  C   UNL     1       7.880   7.286  13.750  1.00  0.00     0.027 C 
BRANCH   3   4
ATOM      4  C   UNL     1       7.653   6.087  12.863  1.00  0.00    -0.031 C 
ATOM      5  C   UNL     1       6.447   5.658  12.441  1.00  0.00    -0.028 C 
BRANCH   5   6
ATOM      6  C   UNL     1       5.120   6.281  12.814  1.00  0.00     0.005 C 
ATOM      7  C   UNL     1       3.986   5.307  12.483  1.00  0.00     0.012 C 
ATOM      8  C   UNL     1       4.936   7.602  12.059  1.00  0.00     0.012 C 
ENDBRANCH   5   6
ENDBRANCH   3   4
ENDBRANCH   2   3
ENDBRANCH   1   2
BRANCH   1   9
ATOM      9  C   UNL     1      10.463   8.694  14.974  1.00  0.00     0.100 C 
BRANCH   9  10
ATOM     10  C   UNL     1      11.878   8.430  15.406  1.00  0.00     0.220 C 
ATOM     11  O   UNL     1      12.591   7.627  14.745  1.00  0.00    -0.275 OA
ATOM     12  N   UNL     1      12.433   9.132  16.529  1.00  0.00    -0.352 N 
ATOM     13  H   UNL     1      11.870   9.882  16.989  1.00  0.00     0.163 HD
BRANCH  12  14
ATOM     14  C   UNL     1      13.713   8.764  17.127  1.00  0.00     0.151 C 
BRANCH  14  15
ATOM     15  C   UNL     1      13.532   8.502  18.597  1.00  0.00    -0.025 A 
ATOM     16  C   UNL     1      12.814   9.404  19.398  1.00  0.00     0.056 A 
ATOM     17  C   UNL     1      14.147   7.390  19.190  1.00  0.00     0.009 A 
ATOM     18  C   UNL     1      12.693   9.191  20.785  1.00  0.00     0.160 A 
ATOM     19  C   UNL     1      14.026   7.170  20.562  1.00  0.00     0.050 A 
ATOM     20  C   UNL     1      13.301   8.066  21.361  1.00  0.00     0.157 A 
BRANCH  18  21
ATOM     21  O   UNL     1      11.985  10.071  21.619  1.00  0.00    -0.493 OA
ATOM     22  C   UNL     1      12.322  11.440  21.818  1.00  0.00     0.278 C 
ENDBRANCH  18  21
BRANCH  20  23
ATOM     23  O   UNL     1      13.185   7.848  22.732  1.00  0.00    -0.504 OA
ATOM     24  H   UNL     1      12.410   8.229  23.266  1.00  0.00     0.293 HD
ENDBRANCH  20  23
ENDBRANCH  14  15
ENDBRANCH  12  14
ENDBRANCH   9  10
ENDBRANCH   1   9
TORSDOF 10
ENDMDL
