MODEL 1
REMARK VINA RESULT:    -5.031      0.000      0.000
REMARK INTER + INTRA:          -7.483
REMARK INTER:                  -7.678
REMARK INTRA:                   0.196
REMARK UNBOUND:                 0.196
REMARK SMILES CC1=CCC[C@@H](C)C(=O)C[C@H](C(C)C)C(=O)C1
REMARK SMILES IDX 8 1 9 2 6 3 7 4 5 5 4 6 3 7 2 8 1 9 10 11 11 12 15 13 16 14
REMARK SMILES IDX 17 15 12 17 13 18 14 19
REMARK H PARENT
REMARK Flexibility Score: 70.00
ROOT
ATOM      1  C   UNL     1      -7.740  33.918  22.163  1.00  0.00     0.136 C 
ATOM      2  O   UNL     1      -7.899  35.079  21.821  1.00  0.00    -0.299 OA
ENDROOT
BRANCH   1   3
ATOM      3  C   UNL     1      -7.821  32.855  21.073  1.00  0.00     0.053 C 
ATOM      4  C   UNL     1      -7.129  33.235  19.753  1.00  0.00     0.016 C 
BRANCH   3   5
ATOM      5  C   UNL     1      -9.264  32.349  20.872  1.00  0.00     0.015 C 
BRANCH   5   6
ATOM      6  C   UNL     1      -9.444  30.844  21.158  1.00  0.00     0.028 C 
BRANCH   6   7
ATOM      7  C   UNL     1      -8.415  30.320  22.129  1.00  0.00    -0.028 C 
ATOM      8  C   UNL     1      -8.519  30.388  23.477  1.00  0.00    -0.070 CG0
ATOM      9  C   UNL     1      -7.419  29.767  24.301  1.00  0.00     0.039 C 
ATOM     10  G   UNL     1      -9.684  31.062  24.189  1.00  0.00     0.000 G0
ENDBRANCH   6   7
ENDBRANCH   5   6
ENDBRANCH   3   5
ENDBRANCH   1   3
BRANCH   1  11
ATOM     11  C   UNL     1      -7.563  33.606  23.640  1.00  0.00     0.087 C 
BRANCH  11  12
ATOM     12  C   UNL     1      -8.838  33.583  24.541  1.00  0.00     0.066 C 
BRANCH  12  13
ATOM     13  C   UNL     1      -9.250  32.213  25.076  1.00  0.00     0.140 C 
ATOM     14  O   UNL     1      -9.135  32.004  26.277  1.00  0.00    -0.299 OA
BRANCH  13  15
ATOM     15  C   UNL     1      -9.689  31.068  24.194  1.00  0.00     0.106 CG0
ATOM     16  G   UNL     1      -8.522  30.388  23.489  1.00  0.00     0.000 G0
ENDBRANCH  13  15
ENDBRANCH  12  13
BRANCH  12  17
ATOM     17  C   UNL     1      -8.981  34.762  25.560  1.00  0.00    -0.006 C 
ATOM     18  C   UNL     1      -7.766  34.842  26.500  1.00  0.00     0.008 C 
ATOM     19  C   UNL     1      -9.260  36.140  24.945  1.00  0.00     0.008 C 
ENDBRANCH  12  17
ENDBRANCH  11  12
ENDBRANCH   1  11
TORSDOF 1
ENDMDL
MODEL 2
REMARK VINA RESULT:    -4.573      1.879      4.286
REMARK INTER + INTRA:          -6.783
REMARK INTER:                  -7.012
REMARK INTRA:                   0.229
REMARK UNBOUND:                 0.196
REMARK SMILES CC1=CCC[C@@H](C)C(=O)C[C@H](C(C)C)C(=O)C1
REMARK SMILES IDX 8 1 9 2 6 3 7 4 5 5 4 6 3 7 2 8 1 9 10 11 11 12 15 13 16 14
REMARK SMILES IDX 17 15 12 17 13 18 14 19
REMARK H PARENT
REMARK Flexibility Score: 70.00
ROOT
ATOM      1  C   UNL     1      -8.915  32.110  26.631  1.00  0.00     0.136 C 
ATOM      2  O   UNL     1      -7.866  32.528  27.092  1.00  0.00    -0.299 OA
ENDROOT
BRANCH   1   3
ATOM      3  C   UNL     1      -9.651  31.044  27.434  1.00  0.00     0.053 C 
ATOM      4  C   UNL     1      -9.544  31.202  28.960  1.00  0.00     0.016 C 
BRANCH   3   5
ATOM      5  C   UNL     1      -9.305  29.621  26.950  1.00  0.00     0.015 C 
BRANCH   5   6
ATOM      6  C   UNL     1      -8.147  29.571  25.934  1.00  0.00     0.028 C 
BRANCH   6   7
ATOM      7  C   UNL     1      -8.590  29.056  24.587  1.00  0.00    -0.028 C 
ATOM      8  C   UNL     1      -8.195  29.566  23.396  1.00  0.00    -0.070 CG0
ATOM      9  C   UNL     1      -8.698  28.896  22.141  1.00  0.00     0.039 C 
ATOM     10  G   UNL     1      -7.280  30.777  23.271  1.00  0.00     0.000 G0
ENDBRANCH   6   7
ENDBRANCH   5   6
ENDBRANCH   3   5
ENDBRANCH   1   3
BRANCH   1  11
ATOM     11  C   UNL     1      -9.368  32.608  25.268  1.00  0.00     0.087 C 
BRANCH  11  12
ATOM     12  C   UNL     1      -8.270  33.052  24.250  1.00  0.00     0.066 C 
BRANCH  12  13
ATOM     13  C   UNL     1      -7.996  32.083  23.101  1.00  0.00     0.140 C 
ATOM     14  O   UNL     1      -8.474  32.341  22.004  1.00  0.00    -0.299 OA
BRANCH  13  15
ATOM     15  C   UNL     1      -7.261  30.775  23.268  1.00  0.00     0.106 CG0
ATOM     16  G   UNL     1      -8.202  29.584  23.396  1.00  0.00     0.000 G0
ENDBRANCH  13  15
ENDBRANCH  12  13
BRANCH  12  17
ATOM     17  C   UNL     1      -8.273  34.566  23.853  1.00  0.00    -0.006 C 
ATOM     18  C   UNL     1      -8.728  35.453  25.025  1.00  0.00     0.008 C 
ATOM     19  C   UNL     1      -6.958  35.101  23.270  1.00  0.00     0.008 C 
ENDBRANCH  12  17
ENDBRANCH  11  12
ENDBRANCH   1  11
TORSDOF 1
ENDMDL
MODEL 3
REMARK VINA RESULT:    -4.506      2.123      4.608
REMARK INTER + INTRA:          -6.681
REMARK INTER:                  -6.841
REMARK INTRA:                   0.160
REMARK UNBOUND:                 0.196
REMARK SMILES CC1=CCC[C@@H](C)C(=O)C[C@H](C(C)C)C(=O)C1
REMARK SMILES IDX 8 1 9 2 6 3 7 4 5 5 4 6 3 7 2 8 1 9 10 11 11 12 15 13 16 14
REMARK SMILES IDX 17 15 12 17 13 18 14 19
REMARK H PARENT
REMARK Flexibility Score: 70.00
ROOT
ATOM      1  C   UNL     1      -8.487  33.550  24.179  1.00  0.00     0.136 C 
ATOM      2  O   UNL     1      -7.426  33.815  23.638  1.00  0.00    -0.299 OA
ENDROOT
BRANCH   1   3
ATOM      3  C   UNL     1      -9.009  34.547  25.208  1.00  0.00     0.053 C 
ATOM      4  C   UNL     1      -9.072  36.003  24.717  1.00  0.00     0.016 C 
BRANCH   3   5
ATOM      5  C   UNL     1      -8.290  34.401  26.565  1.00  0.00     0.015 C 
BRANCH   5   6
ATOM      6  C   UNL     1      -7.823  32.964  26.873  1.00  0.00     0.028 C 
BRANCH   6   7
ATOM      7  C   UNL     1      -8.871  32.167  27.608  1.00  0.00    -0.028 C 
ATOM      8  C   UNL     1      -9.054  30.830  27.486  1.00  0.00    -0.070 CG0
ATOM      9  C   UNL     1     -10.120  30.184  28.335  1.00  0.00     0.039 C 
ATOM     10  G   UNL     1      -8.243  29.963  26.532  1.00  0.00     0.000 G0
ENDBRANCH   6   7
ENDBRANCH   5   6
ENDBRANCH   3   5
ENDBRANCH   1   3
BRANCH   1  11
ATOM     11  C   UNL     1      -9.163  32.226  23.864  1.00  0.00     0.087 C 
BRANCH  11  12
ATOM     12  C   UNL     1      -8.327  30.919  24.037  1.00  0.00     0.066 C 
BRANCH  12  13
ATOM     13  C   UNL     1      -8.808  29.961  25.126  1.00  0.00     0.140 C 
ATOM     14  O   UNL     1      -9.748  29.221  24.868  1.00  0.00    -0.299 OA
BRANCH  13  15
ATOM     15  C   UNL     1      -8.258  29.950  26.532  1.00  0.00     0.106 CG0
ATOM     16  G   UNL     1      -9.067  30.820  27.485  1.00  0.00     0.000 G0
ENDBRANCH  13  15
ENDBRANCH  12  13
BRANCH  12  17
ATOM     17  C   UNL     1      -7.843  30.231  22.717  1.00  0.00    -0.006 C 
ATOM     18  C   UNL     1      -8.015  31.162  21.504  1.00  0.00     0.008 C 
ATOM     19  C   UNL     1      -6.417  29.666  22.747  1.00  0.00     0.008 C 
ENDBRANCH  12  17
ENDBRANCH  11  12
ENDBRANCH   1  11
TORSDOF 1
ENDMDL
MODEL 4
REMARK VINA RESULT:    -4.483      1.824      4.558
REMARK INTER + INTRA:          -6.646
REMARK INTER:                  -7.219
REMARK INTRA:                   0.574
REMARK UNBOUND:                 0.196
REMARK SMILES CC1=CCC[C@@H](C)C(=O)C[C@H](C(C)C)C(=O)C1
REMARK SMILES IDX 8 1 9 2 6 3 7 4 5 5 4 6 3 7 2 8 1 9 10 11 11 12 15 13 16 14
REMARK SMILES IDX 17 15 12 17 13 18 14 19
REMARK H PARENT
REMARK Flexibility Score: 70.00
ROOT
ATOM      1  C   UNL     1      -9.420  32.395  25.800  1.00  0.00     0.136 C 
ATOM      2  O   UNL     1      -9.787  32.218  26.950  1.00  0.00    -0.299 OA
ENDROOT
BRANCH   1   3
ATOM      3  C   UNL     1      -8.380  33.484  25.563  1.00  0.00     0.053 C 
ATOM      4  C   UNL     1      -7.904  34.205  26.835  1.00  0.00     0.016 C 
BRANCH   3   5
ATOM      5  C   UNL     1      -8.813  34.458  24.446  1.00  0.00     0.015 C 
BRANCH   5   6
ATOM      6  C   UNL     1      -7.778  34.609  23.314  1.00  0.00     0.028 C 
BRANCH   6   7
ATOM      7  C   UNL     1      -8.225  33.942  22.037  1.00  0.00    -0.028 C 
ATOM      8  C   UNL     1      -8.165  32.611  21.796  1.00  0.00    -0.070 CG0
ATOM      9  C   UNL     1      -8.703  32.107  20.481  1.00  0.00     0.039 C 
ATOM     10  G   UNL     1      -7.576  31.613  22.785  1.00  0.00     0.000 G0
ENDBRANCH   6   7
ENDBRANCH   5   6
ENDBRANCH   3   5
ENDBRANCH   1   3
BRANCH   1  11
ATOM     11  C   UNL     1     -10.076  31.593  24.688  1.00  0.00     0.087 C 
BRANCH  11  12
ATOM     12  C   UNL     1      -9.375  30.277  24.224  1.00  0.00     0.066 C 
BRANCH  12  13
ATOM     13  C   UNL     1      -8.434  30.411  23.028  1.00  0.00     0.140 C 
ATOM     14  O   UNL     1      -8.325  29.456  22.270  1.00  0.00    -0.299 OA
BRANCH  13  15
ATOM     15  C   UNL     1      -7.551  31.613  22.788  1.00  0.00     0.106 CG0
ATOM     16  G   UNL     1      -8.158  32.599  21.798  1.00  0.00     0.000 G0
ENDBRANCH  13  15
ENDBRANCH  12  13
BRANCH  12  17
ATOM     17  C   UNL     1      -8.868  29.330  25.361  1.00  0.00    -0.006 C 
ATOM     18  C   UNL     1      -7.582  29.870  26.010  1.00  0.00     0.008 C 
ATOM     19  C   UNL     1      -9.899  28.986  26.446  1.00  0.00     0.008 C 
ENDBRANCH  12  17
ENDBRANCH  11  12
ENDBRANCH   1  11
TORSDOF 1
ENDMDL
MODEL 5
REMARK VINA RESULT:    -4.469      2.082      3.965
REMARK INTER + INTRA:          -6.624
REMARK INTER:                  -7.563
REMARK INTRA:                   0.939
REMARK UNBOUND:                 0.196
REMARK SMILES CC1=CCC[C@@H](C)C(=O)C[C@H](C(C)C)C(=O)C1
REMARK SMILES IDX 8 1 9 2 6 3 7 4 5 5 4 6 3 7 2 8 1 9 10 11 11 12 15 13 16 14
REMARK SMILES IDX 17 15 12 17 13 18 14 19
REMARK H PARENT
REMARK Flexibility Score: 70.00
ROOT
ATOM      1  C   UNL     1      -7.190  30.059  23.474  1.00  0.00     0.136 C 
ATOM      2  O   UNL     1      -6.094  29.552  23.643  1.00  0.00    -0.299 OA
ENDROOT
BRANCH   1   3
ATOM      3  C   UNL     1      -8.388  29.118  23.409  1.00  0.00     0.053 C 
ATOM      4  C   UNL     1      -8.938  28.875  21.993  1.00  0.00     0.016 C 
BRANCH   3   5
ATOM      5  C   UNL     1      -9.484  29.514  24.420  1.00  0.00     0.015 C 
BRANCH   5   6
ATOM      6  C   UNL     1      -9.235  28.990  25.848  1.00  0.00     0.028 C 
BRANCH   6   7
ATOM      7  C   UNL     1      -8.432  29.958  26.681  1.00  0.00    -0.028 C 
ATOM      8  C   UNL     1      -8.623  31.299  26.708  1.00  0.00    -0.070 CG0
ATOM      9  C   UNL     1      -7.761  32.115  27.638  1.00  0.00     0.039 C 
ATOM     10  G   UNL     1      -9.657  32.010  25.844  1.00  0.00     0.000 G0
ENDBRANCH   6   7
ENDBRANCH   5   6
ENDBRANCH   3   5
ENDBRANCH   1   3
BRANCH   1  11
ATOM     11  C   UNL     1      -7.279  31.560  23.254  1.00  0.00     0.087 C 
BRANCH  11  12
ATOM     12  C   UNL     1      -8.683  32.234  23.371  1.00  0.00     0.066 C 
BRANCH  12  13
ATOM     13  C   UNL     1      -9.022  32.833  24.736  1.00  0.00     0.140 C 
ATOM     14  O   UNL     1      -8.689  33.990  24.956  1.00  0.00    -0.299 OA
BRANCH  13  15
ATOM     15  C   UNL     1      -9.648  32.046  25.862  1.00  0.00     0.106 CG0
ATOM     16  G   UNL     1      -8.620  31.289  26.693  1.00  0.00     0.000 G0
ENDBRANCH  13  15
ENDBRANCH  12  13
BRANCH  12  17
ATOM     17  C   UNL     1      -9.141  33.087  22.143  1.00  0.00    -0.006 C 
ATOM     18  C   UNL     1      -7.991  33.952  21.600  1.00  0.00     0.008 C 
ATOM     19  C   UNL     1      -9.793  32.302  20.996  1.00  0.00     0.008 C 
ENDBRANCH  12  17
ENDBRANCH  11  12
ENDBRANCH   1  11
TORSDOF 1
ENDMDL
MODEL 6
REMARK VINA RESULT:    -4.450      1.711      4.164
REMARK INTER + INTRA:          -6.596
REMARK INTER:                  -7.021
REMARK INTRA:                   0.425
REMARK UNBOUND:                 0.196
REMARK SMILES CC1=CCC[C@@H](C)C(=O)C[C@H](C(C)C)C(=O)C1
REMARK SMILES IDX 8 1 9 2 6 3 7 4 5 5 4 6 3 7 2 8 1 9 10 11 11 12 15 13 16 14
REMARK SMILES IDX 17 15 12 17 13 18 14 19
REMARK H PARENT
REMARK Flexibility Score: 70.00
ROOT
ATOM      1  C   UNL     1      -8.189  34.393  23.859  1.00  0.00     0.136 C 
ATOM      2  O   UNL     1      -7.100  34.877  23.597  1.00  0.00    -0.299 OA
ENDROOT
BRANCH   1   3
ATOM      3  C   UNL     1      -8.796  34.742  25.213  1.00  0.00     0.053 C 
ATOM      4  C   UNL     1      -8.015  35.796  26.015  1.00  0.00     0.016 C 
BRANCH   3   5
ATOM      5  C   UNL     1      -9.122  33.479  26.038  1.00  0.00     0.015 C 
BRANCH   5   6
ATOM      6  C   UNL     1      -7.878  32.693  26.496  1.00  0.00     0.028 C 
BRANCH   6   7
ATOM      7  C   UNL     1      -8.179  31.235  26.738  1.00  0.00    -0.028 C 
ATOM      8  C   UNL     1      -8.769  30.408  25.843  1.00  0.00    -0.070 CG0
ATOM      9  C   UNL     1      -8.950  28.962  26.232  1.00  0.00     0.039 C 
ATOM     10  G   UNL     1      -9.257  30.871  24.476  1.00  0.00     0.000 G0
ENDBRANCH   6   7
ENDBRANCH   5   6
ENDBRANCH   3   5
ENDBRANCH   1   3
BRANCH   1  11
ATOM     11  C   UNL     1      -8.817  33.422  22.873  1.00  0.00     0.087 C 
BRANCH  11  12
ATOM     12  C   UNL     1      -8.008  32.143  22.490  1.00  0.00     0.066 C 
BRANCH  12  13
ATOM     13  C   UNL     1      -8.161  30.951  23.434  1.00  0.00     0.140 C 
ATOM     14  O   UNL     1      -7.400  30.003  23.294  1.00  0.00    -0.299 OA
BRANCH  13  15
ATOM     15  C   UNL     1      -9.263  30.833  24.460  1.00  0.00     0.106 CG0
ATOM     16  G   UNL     1      -8.750  30.399  25.827  1.00  0.00     0.000 G0
ENDBRANCH  13  15
ENDBRANCH  12  13
BRANCH  12  17
ATOM     17  C   UNL     1      -7.973  31.781  20.969  1.00  0.00    -0.006 C 
ATOM     18  C   UNL     1      -9.374  31.422  20.445  1.00  0.00     0.008 C 
ATOM     19  C   UNL     1      -7.322  32.826  20.053  1.00  0.00     0.008 C 
ENDBRANCH  12  17
ENDBRANCH  11  12
ENDBRANCH   1  11
TORSDOF 1
ENDMDL
MODEL 7
REMARK VINA RESULT:    -4.391      1.949      4.076
REMARK INTER + INTRA:          -6.506
REMARK INTER:                  -7.144
REMARK INTRA:                   0.638
REMARK UNBOUND:                 0.196
REMARK SMILES CC1=CCC[C@@H](C)C(=O)C[C@H](C(C)C)C(=O)C1
REMARK SMILES IDX 8 1 9 2 6 3 7 4 5 5 4 6 3 7 2 8 1 9 10 11 11 12 15 13 16 14
REMARK SMILES IDX 17 15 12 17 13 18 14 19
REMARK H PARENT
REMARK Flexibility Score: 70.00
ROOT
ATOM      1  C   UNL     1      -8.086  31.520  22.122  1.00  0.00     0.136 C 
ATOM      2  O   UNL     1      -7.117  30.780  22.081  1.00  0.00    -0.299 OA
ENDROOT
BRANCH   1   3
ATOM      3  C   UNL     1      -8.153  32.636  21.086  1.00  0.00     0.053 C 
ATOM      4  C   UNL     1      -7.228  32.443  19.873  1.00  0.00     0.016 C 
BRANCH   3   5
ATOM      5  C   UNL     1      -8.012  34.029  21.734  1.00  0.00     0.015 C 
BRANCH   5   6
ATOM      6  C   UNL     1      -7.125  34.044  22.995  1.00  0.00     0.028 C 
BRANCH   6   7
ATOM      7  C   UNL     1      -7.522  35.132  23.961  1.00  0.00    -0.028 C 
ATOM      8  C   UNL     1      -8.490  35.016  24.902  1.00  0.00    -0.070 CG0
ATOM      9  C   UNL     1      -8.724  36.189  25.820  1.00  0.00     0.039 C 
ATOM     10  G   UNL     1      -9.347  33.768  25.064  1.00  0.00     0.000 G0
ENDBRANCH   6   7
ENDBRANCH   5   6
ENDBRANCH   3   5
ENDBRANCH   1   3
BRANCH   1  11
ATOM     11  C   UNL     1      -9.103  31.337  23.237  1.00  0.00     0.087 C 
BRANCH  11  12
ATOM     12  C   UNL     1      -8.571  31.251  24.703  1.00  0.00     0.066 C 
BRANCH  12  13
ATOM     13  C   UNL     1      -8.543  32.567  25.478  1.00  0.00     0.140 C 
ATOM     14  O   UNL     1      -7.901  32.610  26.520  1.00  0.00    -0.299 OA
BRANCH  13  15
ATOM     15  C   UNL     1      -9.348  33.785  25.089  1.00  0.00     0.106 CG0
ATOM     16  G   UNL     1      -8.484  35.026  24.906  1.00  0.00     0.000 G0
ENDBRANCH  13  15
ENDBRANCH  12  13
BRANCH  12  17
ATOM     17  C   UNL     1      -9.033  30.006  25.530  1.00  0.00    -0.006 C 
ATOM     18  C   UNL     1      -9.529  28.875  24.613  1.00  0.00     0.008 C 
ATOM     19  C   UNL     1      -8.006  29.457  26.531  1.00  0.00     0.008 C 
ENDBRANCH  12  17
ENDBRANCH  11  12
ENDBRANCH   1  11
TORSDOF 1
ENDMDL
MODEL 8
REMARK VINA RESULT:    -3.562     17.314     19.286
REMARK INTER + INTRA:          -5.240
REMARK INTER:                  -5.106
REMARK INTRA:                  -0.134
REMARK UNBOUND:                 0.196
REMARK SMILES CC1=CCC[C@@H](C)C(=O)C[C@H](C(C)C)C(=O)C1
REMARK SMILES IDX 8 1 9 2 6 3 7 4 5 5 4 6 3 7 2 8 1 9 10 11 11 12 15 13 16 14
REMARK SMILES IDX 17 15 12 17 13 18 14 19
REMARK H PARENT
REMARK Flexibility Score: 70.00
ROOT
ATOM      1  C   UNL     1      -0.136  48.318  21.012  1.00  0.00     0.136 C 
ATOM      2  O   UNL     1      -0.066  47.649  22.030  1.00  0.00    -0.299 OA
ENDROOT
BRANCH   1   3
ATOM      3  C   UNL     1      -1.502  48.425  20.343  1.00  0.00     0.053 C 
ATOM      4  C   UNL     1      -2.682  47.970  21.218  1.00  0.00     0.016 C 
BRANCH   3   5
ATOM      5  C   UNL     1      -1.506  47.778  18.943  1.00  0.00     0.015 C 
BRANCH   5   6
ATOM      6  C   UNL     1      -1.495  48.796  17.785  1.00  0.00     0.028 C 
BRANCH   6   7
ATOM      7  C   UNL     1      -0.736  48.288  16.584  1.00  0.00    -0.028 C 
ATOM      8  C   UNL     1       0.603  48.401  16.412  1.00  0.00    -0.070 CG0
ATOM      9  C   UNL     1       1.207  47.792  15.171  1.00  0.00     0.039 C 
ATOM     10  G   UNL     1       1.513  49.113  17.404  1.00  0.00     0.000 G0
ENDBRANCH   6   7
ENDBRANCH   5   6
ENDBRANCH   3   5
ENDBRANCH   1   3
BRANCH   1  11
ATOM     11  C   UNL     1       1.137  48.920  20.440  1.00  0.00     0.087 C 
BRANCH  11  12
ATOM     12  C   UNL     1       2.152  47.957  19.746  1.00  0.00     0.066 C 
BRANCH  12  13
ATOM     13  C   UNL     1       2.367  48.183  18.250  1.00  0.00     0.140 C 
ATOM     14  O   UNL     1       3.325  47.638  17.717  1.00  0.00    -0.299 OA
BRANCH  13  15
ATOM     15  C   UNL     1       1.528  49.122  17.417  1.00  0.00     0.106 CG0
ATOM     16  G   UNL     1       0.632  48.389  16.428  1.00  0.00     0.000 G0
ENDBRANCH  13  15
ENDBRANCH  12  13
BRANCH  12  17
ATOM     17  C   UNL     1       3.447  47.622  20.557  1.00  0.00    -0.006 C 
ATOM     18  C   UNL     1       3.813  48.760  21.526  1.00  0.00     0.008 C 
ATOM     19  C   UNL     1       3.434  46.281  21.304  1.00  0.00     0.008 C 
ENDBRANCH  12  17
ENDBRANCH  11  12
ENDBRANCH   1  11
TORSDOF 1
ENDMDL
MODEL 9
REMARK VINA RESULT:    -3.537     17.453     19.067
REMARK INTER + INTRA:          -5.202
REMARK INTER:                  -5.534
REMARK INTRA:                   0.331
REMARK UNBOUND:                 0.196
REMARK SMILES CC1=CCC[C@@H](C)C(=O)C[C@H](C(C)C)C(=O)C1
REMARK SMILES IDX 8 1 9 2 6 3 7 4 5 5 4 6 3 7 2 8 1 9 10 11 11 12 15 13 16 14
REMARK SMILES IDX 17 15 12 17 13 18 14 19
REMARK H PARENT
REMARK Flexibility Score: 70.00
ROOT
ATOM      1  C   UNL     1      -2.131  47.194  15.694  1.00  0.00     0.136 C 
ATOM      2  O   UNL     1      -3.035  46.505  16.139  1.00  0.00    -0.299 OA
ENDROOT
BRANCH   1   3
ATOM      3  C   UNL     1      -1.575  46.811  14.327  1.00  0.00     0.053 C 
ATOM      4  C   UNL     1      -2.476  45.872  13.507  1.00  0.00     0.016 C 
BRANCH   3   5
ATOM      5  C   UNL     1      -0.116  46.315  14.420  1.00  0.00     0.015 C 
BRANCH   5   6
ATOM      6  C   UNL     1       0.907  47.256  13.753  1.00  0.00     0.028 C 
BRANCH   6   7
ATOM      7  C   UNL     1       2.220  47.292  14.495  1.00  0.00    -0.028 C 
ATOM      8  C   UNL     1       2.459  48.025  15.608  1.00  0.00    -0.070 CG0
ATOM      9  C   UNL     1       3.817  47.905  16.252  1.00  0.00     0.039 C 
ATOM     10  G   UNL     1       1.428  48.960  16.227  1.00  0.00     0.000 G0
ENDBRANCH   6   7
ENDBRANCH   5   6
ENDBRANCH   3   5
ENDBRANCH   1   3
BRANCH   1  11
ATOM     11  C   UNL     1      -1.571  48.316  16.553  1.00  0.00     0.087 C 
BRANCH  11  12
ATOM     12  C   UNL     1      -0.568  47.936  17.687  1.00  0.00     0.066 C 
BRANCH  12  13
ATOM     13  C   UNL     1       0.851  48.480  17.531  1.00  0.00     0.140 C 
ATOM     14  O   UNL     1       1.535  48.607  18.538  1.00  0.00    -0.299 OA
BRANCH  13  15
ATOM     15  C   UNL     1       1.419  48.969  16.219  1.00  0.00     0.106 CG0
ATOM     16  G   UNL     1       2.454  48.016  15.635  1.00  0.00     0.000 G0
ENDBRANCH  13  15
ENDBRANCH  12  13
BRANCH  12  17
ATOM     17  C   UNL     1      -1.133  47.972  19.146  1.00  0.00    -0.006 C 
ATOM     18  C   UNL     1      -2.667  47.858  19.156  1.00  0.00     0.008 C 
ATOM     19  C   UNL     1      -0.524  46.952  20.119  1.00  0.00     0.008 C 
ENDBRANCH  12  17
ENDBRANCH  11  12
ENDBRANCH   1  11
TORSDOF 1
ENDMDL
