MODEL 1
REMARK VINA RESULT:    -4.085      0.000      0.000
REMARK INTER + INTRA:          -5.281
REMARK INTER:                  -5.040
REMARK INTRA:                  -0.241
REMARK UNBOUND:                -0.241
REMARK SMILES COC(=O)c1ccccc1C(=O)OC
REMARK SMILES IDX 5 1 6 2 7 3 8 4 9 5 10 6 3 7 4 8 2 9 1 10 11 11 12 12 13 13
REMARK SMILES IDX 14 14
REMARK H PARENT
REMARK Flexibility Score: inf
ROOT
ATOM      1  C   UNL     1       7.940 -32.870  15.379  1.00  0.00     0.074 A 
ATOM      2  C   UNL     1       6.546 -32.969  15.215  1.00  0.00     0.016 A 
ATOM      3  C   UNL     1       5.955 -32.737  13.972  1.00  0.00     0.001 A 
ATOM      4  C   UNL     1       6.745 -32.400  12.875  1.00  0.00     0.001 A 
ATOM      5  C   UNL     1       8.131 -32.317  13.010  1.00  0.00     0.016 A 
ATOM      6  C   UNL     1       8.750 -32.569  14.248  1.00  0.00     0.074 A 
ENDROOT
BRANCH   1   7
ATOM      7  C   UNL     1       8.496 -33.011  16.743  1.00  0.00     0.338 C 
ATOM      8  O   UNL     1       8.512 -34.142  17.301  1.00  0.00    -0.246 OA
BRANCH   7   9
ATOM      9  O   UNL     1       8.953 -31.882  17.433  1.00  0.00    -0.465 OA
ATOM     10  C   UNL     1       8.834 -31.745  18.844  1.00  0.00     0.282 C 
ENDBRANCH   7   9
ENDBRANCH   1   7
BRANCH   6  11
ATOM     11  C   UNL     1      10.230 -32.576  14.294  1.00  0.00     0.338 C 
ATOM     12  O   UNL     1      10.877 -33.562  13.845  1.00  0.00    -0.246 OA
BRANCH  11  13
ATOM     13  O   UNL     1      10.909 -31.458  14.789  1.00  0.00    -0.465 OA
ATOM     14  C   UNL     1      12.221 -31.107  14.366  1.00  0.00     0.282 C 
ENDBRANCH  11  13
ENDBRANCH   6  11
TORSDOF 4
ENDMDL
MODEL 2
REMARK VINA RESULT:    -4.061      0.156      3.385
REMARK INTER + INTRA:          -5.251
REMARK INTER:                  -5.089
REMARK INTRA:                  -0.163
REMARK UNBOUND:                -0.241
REMARK SMILES COC(=O)c1ccccc1C(=O)OC
REMARK SMILES IDX 5 1 6 2 7 3 8 4 9 5 10 6 3 7 4 8 2 9 1 10 11 11 12 12 13 13
REMARK SMILES IDX 14 14
REMARK H PARENT
REMARK Flexibility Score: inf
ROOT
ATOM      1  C   UNL     1       8.667 -32.666  14.198  1.00  0.00     0.074 A 
ATOM      2  C   UNL     1       8.007 -32.481  12.970  1.00  0.00     0.016 A 
ATOM      3  C   UNL     1       6.622 -32.622  12.875  1.00  0.00     0.001 A 
ATOM      4  C   UNL     1       5.875 -32.953  14.003  1.00  0.00     0.001 A 
ATOM      5  C   UNL     1       6.507 -33.121  15.236  1.00  0.00     0.016 A 
ATOM      6  C   UNL     1       7.899 -32.961  15.359  1.00  0.00     0.074 A 
ENDROOT
BRANCH   1   7
ATOM      7  C   UNL     1      10.147 -32.619  14.212  1.00  0.00     0.338 C 
ATOM      8  O   UNL     1      10.810 -33.610  13.798  1.00  0.00    -0.246 OA
BRANCH   7   9
ATOM      9  O   UNL     1      10.808 -31.501  14.732  1.00  0.00    -0.465 OA
ATOM     10  C   UNL     1      12.146 -31.168  14.382  1.00  0.00     0.282 C 
ENDBRANCH   7   9
ENDBRANCH   1   7
BRANCH   6  11
ATOM     11  C   UNL     1       8.489 -33.039  16.715  1.00  0.00     0.338 C 
ATOM     12  O   UNL     1       8.575 -34.149  17.309  1.00  0.00    -0.246 OA
BRANCH  11  13
ATOM     13  O   UNL     1       9.001 -31.882  17.312  1.00  0.00    -0.465 OA
ATOM     14  C   UNL     1       8.806 -31.577  18.687  1.00  0.00     0.282 C 
ENDBRANCH  11  13
ENDBRANCH   6  11
TORSDOF 4
ENDMDL
MODEL 3
REMARK VINA RESULT:    -3.661      2.117      3.730
REMARK INTER + INTRA:          -4.758
REMARK INTER:                  -4.457
REMARK INTRA:                  -0.300
REMARK UNBOUND:                -0.241
REMARK SMILES COC(=O)c1ccccc1C(=O)OC
REMARK SMILES IDX 5 1 6 2 7 3 8 4 9 5 10 6 3 7 4 8 2 9 1 10 11 11 12 12 13 13
REMARK SMILES IDX 14 14
REMARK H PARENT
REMARK Flexibility Score: inf
ROOT
ATOM      1  C   UNL     1       9.052 -32.737  14.957  1.00  0.00     0.074 A 
ATOM      2  C   UNL     1      10.188 -31.909  14.894  1.00  0.00     0.016 A 
ATOM      3  C   UNL     1      11.151 -32.092  13.901  1.00  0.00     0.001 A 
ATOM      4  C   UNL     1      10.999 -33.107  12.960  1.00  0.00     0.001 A 
ATOM      5  C   UNL     1       9.871 -33.928  12.992  1.00  0.00     0.016 A 
ATOM      6  C   UNL     1       8.875 -33.745  13.968  1.00  0.00     0.074 A 
ENDROOT
BRANCH   1   7
ATOM      7  C   UNL     1       8.127 -32.570  16.100  1.00  0.00     0.338 C 
ATOM      8  O   UNL     1       6.976 -32.088  15.910  1.00  0.00    -0.246 OA
BRANCH   7   9
ATOM      9  O   UNL     1       8.546 -32.894  17.395  1.00  0.00    -0.465 OA
ATOM     10  C   UNL     1       8.646 -31.929  18.434  1.00  0.00     0.282 C 
ENDBRANCH   7   9
ENDBRANCH   1   7
BRANCH   6  11
ATOM     11  C   UNL     1       7.652 -34.573  13.875  1.00  0.00     0.338 C 
ATOM     12  O   UNL     1       6.699 -34.220  13.129  1.00  0.00    -0.246 OA
BRANCH  11  13
ATOM     13  O   UNL     1       7.582 -35.781  14.578  1.00  0.00    -0.465 OA
ATOM     14  C   UNL     1       6.694 -35.983  15.670  1.00  0.00     0.282 C 
ENDBRANCH  11  13
ENDBRANCH   6  11
TORSDOF 4
ENDMDL
MODEL 4
REMARK VINA RESULT:    -3.652      2.082      4.126
REMARK INTER + INTRA:          -4.747
REMARK INTER:                  -4.456
REMARK INTRA:                  -0.291
REMARK UNBOUND:                -0.241
REMARK SMILES COC(=O)c1ccccc1C(=O)OC
REMARK SMILES IDX 5 1 6 2 7 3 8 4 9 5 10 6 3 7 4 8 2 9 1 10 11 11 12 12 13 13
REMARK SMILES IDX 14 14
REMARK H PARENT
REMARK Flexibility Score: inf
ROOT
ATOM      1  C   UNL     1       8.963 -33.778  14.017  1.00  0.00     0.074 A 
ATOM      2  C   UNL     1       9.981 -33.971  13.065  1.00  0.00     0.016 A 
ATOM      3  C   UNL     1      11.081 -33.114  13.012  1.00  0.00     0.001 A 
ATOM      4  C   UNL     1      11.181 -32.049  13.905  1.00  0.00     0.001 A 
ATOM      5  C   UNL     1      10.193 -31.852  14.870  1.00  0.00     0.016 A 
ATOM      6  C   UNL     1       9.088 -32.717  14.958  1.00  0.00     0.074 A 
ENDROOT
BRANCH   1   7
ATOM      7  C   UNL     1       7.767 -34.647  13.948  1.00  0.00     0.338 C 
ATOM      8  O   UNL     1       6.824 -34.355  13.161  1.00  0.00    -0.246 OA
BRANCH   7   9
ATOM      9  O   UNL     1       7.658 -35.757  14.792  1.00  0.00    -0.465 OA
ATOM     10  C   UNL     1       6.523 -35.986  15.618  1.00  0.00     0.282 C 
ENDBRANCH   7   9
ENDBRANCH   1   7
BRANCH   6  11
ATOM     11  C   UNL     1       8.139 -32.519  16.076  1.00  0.00     0.338 C 
ATOM     12  O   UNL     1       6.967 -32.109  15.853  1.00  0.00    -0.246 OA
BRANCH  11  13
ATOM     13  O   UNL     1       8.532 -32.844  17.380  1.00  0.00    -0.465 OA
ATOM     14  C   UNL     1       8.747 -31.859  18.383  1.00  0.00     0.282 C 
ENDBRANCH  11  13
ENDBRANCH   6  11
TORSDOF 4
ENDMDL
MODEL 5
REMARK VINA RESULT:    -3.562      1.770      3.592
REMARK INTER + INTRA:          -4.637
REMARK INTER:                  -4.240
REMARK INTRA:                  -0.397
REMARK UNBOUND:                -0.241
REMARK SMILES COC(=O)c1ccccc1C(=O)OC
REMARK SMILES IDX 5 1 6 2 7 3 8 4 9 5 10 6 3 7 4 8 2 9 1 10 11 11 12 12 13 13
REMARK SMILES IDX 14 14
REMARK H PARENT
REMARK Flexibility Score: inf
ROOT
ATOM      1  C   UNL     1       8.461 -32.471  16.179  1.00  0.00     0.074 A 
ATOM      2  C   UNL     1       8.327 -32.048  17.514  1.00  0.00     0.016 A 
ATOM      3  C   UNL     1       9.287 -31.222  18.101  1.00  0.00     0.001 A 
ATOM      4  C   UNL     1      10.396 -30.809  17.366  1.00  0.00     0.001 A 
ATOM      5  C   UNL     1      10.538 -31.200  16.034  1.00  0.00     0.016 A 
ATOM      6  C   UNL     1       9.572 -32.013  15.416  1.00  0.00     0.074 A 
ENDROOT
BRANCH   1   7
ATOM      7  C   UNL     1       7.475 -33.440  15.649  1.00  0.00     0.338 C 
ATOM      8  O   UNL     1       7.713 -34.677  15.715  1.00  0.00    -0.246 OA
BRANCH   7   9
ATOM      9  O   UNL     1       6.307 -32.983  15.030  1.00  0.00    -0.465 OA
ATOM     10  C   UNL     1       5.896 -33.427  13.742  1.00  0.00     0.282 C 
ENDBRANCH   7   9
ENDBRANCH   1   7
BRANCH   6  11
ATOM     11  C   UNL     1       9.725 -32.295  13.971  1.00  0.00     0.338 C 
ATOM     12  O   UNL     1       8.970 -31.737  13.129  1.00  0.00    -0.246 OA
BRANCH  11  13
ATOM     13  O   UNL     1      10.751 -33.144  13.539  1.00  0.00    -0.465 OA
ATOM     14  C   UNL     1      10.561 -34.539  13.344  1.00  0.00     0.282 C 
ENDBRANCH  11  13
ENDBRANCH   6  11
TORSDOF 4
ENDMDL
MODEL 6
REMARK VINA RESULT:    -3.505      1.758      4.650
REMARK INTER + INTRA:          -4.566
REMARK INTER:                  -4.114
REMARK INTRA:                  -0.452
REMARK UNBOUND:                -0.241
REMARK SMILES COC(=O)c1ccccc1C(=O)OC
REMARK SMILES IDX 5 1 6 2 7 3 8 4 9 5 10 6 3 7 4 8 2 9 1 10 11 11 12 12 13 13
REMARK SMILES IDX 14 14
REMARK H PARENT
REMARK Flexibility Score: inf
ROOT
ATOM      1  C   UNL     1       9.670 -31.969  15.384  1.00  0.00     0.074 A 
ATOM      2  C   UNL     1      10.593 -31.134  16.040  1.00  0.00     0.016 A 
ATOM      3  C   UNL     1      10.390 -30.746  17.365  1.00  0.00     0.001 A 
ATOM      4  C   UNL     1       9.260 -31.182  18.054  1.00  0.00     0.001 A 
ATOM      5  C   UNL     1       8.342 -32.027  17.429  1.00  0.00     0.016 A 
ATOM      6  C   UNL     1       8.540 -32.450  16.103  1.00  0.00     0.074 A 
ENDROOT
BRANCH   1   7
ATOM      7  C   UNL     1       9.879 -32.250  13.945  1.00  0.00     0.338 C 
ATOM      8  O   UNL     1       9.289 -31.549  13.077  1.00  0.00    -0.246 OA
BRANCH   7   9
ATOM      9  O   UNL     1      10.686 -33.323  13.551  1.00  0.00    -0.465 OA
ATOM     10  C   UNL     1      10.154 -34.519  12.996  1.00  0.00     0.282 C 
ENDBRANCH   7   9
ENDBRANCH   1   7
BRANCH   6  11
ATOM     11  C   UNL     1       7.589 -33.436  15.540  1.00  0.00     0.338 C 
ATOM     12  O   UNL     1       7.816 -34.672  15.648  1.00  0.00    -0.246 OA
BRANCH  11  13
ATOM     13  O   UNL     1       6.409 -32.988  14.937  1.00  0.00    -0.465 OA
ATOM     14  C   UNL     1       6.203 -33.029  13.531  1.00  0.00     0.282 C 
ENDBRANCH  11  13
ENDBRANCH   6  11
TORSDOF 4
ENDMDL
MODEL 7
REMARK VINA RESULT:    -3.489      2.027      2.186
REMARK INTER + INTRA:          -4.546
REMARK INTER:                  -4.224
REMARK INTRA:                  -0.321
REMARK UNBOUND:                -0.241
REMARK SMILES COC(=O)c1ccccc1C(=O)OC
REMARK SMILES IDX 5 1 6 2 7 3 8 4 9 5 10 6 3 7 4 8 2 9 1 10 11 11 12 12 13 13
REMARK SMILES IDX 14 14
REMARK H PARENT
REMARK Flexibility Score: inf
ROOT
ATOM      1  C   UNL     1       7.983 -33.910  15.165  1.00  0.00     0.074 A 
ATOM      2  C   UNL     1       7.293 -35.089  15.503  1.00  0.00     0.016 A 
ATOM      3  C   UNL     1       7.275 -36.181  14.634  1.00  0.00     0.001 A 
ATOM      4  C   UNL     1       7.943 -36.112  13.413  1.00  0.00     0.001 A 
ATOM      5  C   UNL     1       8.650 -34.960  13.067  1.00  0.00     0.016 A 
ATOM      6  C   UNL     1       8.701 -33.857  13.938  1.00  0.00     0.074 A 
ENDROOT
BRANCH   1   7
ATOM      7  C   UNL     1       7.867 -32.747  16.073  1.00  0.00     0.338 C 
ATOM      8  O   UNL     1       6.900 -31.946  15.947  1.00  0.00    -0.246 OA
BRANCH   7   9
ATOM      9  O   UNL     1       8.856 -32.507  17.034  1.00  0.00    -0.465 OA
ATOM     10  C   UNL     1       8.560 -32.005  18.331  1.00  0.00     0.282 C 
ENDBRANCH   7   9
ENDBRANCH   1   7
BRANCH   6  11
ATOM     11  C   UNL     1       9.563 -32.714  13.560  1.00  0.00     0.338 C 
ATOM     12  O   UNL     1       9.097 -31.764  12.875  1.00  0.00    -0.246 OA
BRANCH  11  13
ATOM     13  O   UNL     1      10.885 -32.668  14.016  1.00  0.00    -0.465 OA
ATOM     14  C   UNL     1      11.586 -31.447  14.213  1.00  0.00     0.282 C 
ENDBRANCH  11  13
ENDBRANCH   6  11
TORSDOF 4
ENDMDL
MODEL 8
REMARK VINA RESULT:    -3.429      2.020      3.960
REMARK INTER + INTRA:          -4.472
REMARK INTER:                  -4.153
REMARK INTRA:                  -0.318
REMARK UNBOUND:                -0.241
REMARK SMILES COC(=O)c1ccccc1C(=O)OC
REMARK SMILES IDX 5 1 6 2 7 3 8 4 9 5 10 6 3 7 4 8 2 9 1 10 11 11 12 12 13 13
REMARK SMILES IDX 14 14
REMARK H PARENT
REMARK Flexibility Score: inf
ROOT
ATOM      1  C   UNL     1       8.685 -33.827  13.926  1.00  0.00     0.074 A 
ATOM      2  C   UNL     1       8.605 -34.902  13.021  1.00  0.00     0.016 A 
ATOM      3  C   UNL     1       7.913 -36.067  13.356  1.00  0.00     0.001 A 
ATOM      4  C   UNL     1       7.293 -36.178  14.598  1.00  0.00     0.001 A 
ATOM      5  C   UNL     1       7.343 -35.117  15.503  1.00  0.00     0.016 A 
ATOM      6  C   UNL     1       8.015 -33.925  15.177  1.00  0.00     0.074 A 
ENDROOT
BRANCH   1   7
ATOM      7  C   UNL     1       9.531 -32.668  13.562  1.00  0.00     0.338 C 
ATOM      8  O   UNL     1       9.044 -31.728  12.875  1.00  0.00    -0.246 OA
BRANCH   7   9
ATOM      9  O   UNL     1      10.880 -32.641  13.932  1.00  0.00    -0.465 OA
ATOM     10  C   UNL     1      11.539 -31.450  14.344  1.00  0.00     0.282 C 
ENDBRANCH   7   9
ENDBRANCH   1   7
BRANCH   6  11
ATOM     11  C   UNL     1       7.931 -32.798  16.134  1.00  0.00     0.338 C 
ATOM     12  O   UNL     1       6.977 -31.976  16.068  1.00  0.00    -0.246 OA
BRANCH  11  13
ATOM     13  O   UNL     1       8.889 -32.682  17.148  1.00  0.00    -0.465 OA
ATOM     14  C   UNL     1       8.683 -31.890  18.311  1.00  0.00     0.282 C 
ENDBRANCH  11  13
ENDBRANCH   6  11
TORSDOF 4
ENDMDL
MODEL 9
REMARK VINA RESULT:    -3.166      2.045      3.562
REMARK INTER + INTRA:          -4.147
REMARK INTER:                  -4.107
REMARK INTRA:                  -0.040
REMARK UNBOUND:                -0.241
REMARK SMILES COC(=O)c1ccccc1C(=O)OC
REMARK SMILES IDX 5 1 6 2 7 3 8 4 9 5 10 6 3 7 4 8 2 9 1 10 11 11 12 12 13 13
REMARK SMILES IDX 14 14
REMARK H PARENT
REMARK Flexibility Score: inf
ROOT
ATOM      1  C   UNL     1       8.703 -32.700  15.460  1.00  0.00     0.074 A 
ATOM      2  C   UNL     1       8.045 -32.625  16.702  1.00  0.00     0.016 A 
ATOM      3  C   UNL     1       8.570 -31.860  17.744  1.00  0.00     0.001 A 
ATOM      4  C   UNL     1       9.761 -31.161  17.565  1.00  0.00     0.001 A 
ATOM      5  C   UNL     1      10.420 -31.204  16.335  1.00  0.00     0.016 A 
ATOM      6  C   UNL     1       9.896 -31.950  15.264  1.00  0.00     0.074 A 
ENDROOT
BRANCH   1   7
ATOM      7  C   UNL     1       8.161 -33.619  14.434  1.00  0.00     0.338 C 
ATOM      8  O   UNL     1       7.109 -33.311  13.809  1.00  0.00    -0.246 OA
BRANCH   7   9
ATOM      9  O   UNL     1       8.783 -34.850  14.198  1.00  0.00    -0.465 OA
ATOM     10  C   UNL     1       9.174 -35.276  12.899  1.00  0.00     0.282 C 
ENDBRANCH   7   9
ENDBRANCH   1   7
BRANCH   6  11
ATOM     11  C   UNL     1      10.583 -31.859  13.955  1.00  0.00     0.338 C 
ATOM     12  O   UNL     1       9.957 -31.468  12.933  1.00  0.00    -0.246 OA
BRANCH  11  13
ATOM     13  O   UNL     1      11.947 -32.158  13.871  1.00  0.00    -0.465 OA
ATOM     14  C   UNL     1      12.961 -31.194  14.123  1.00  0.00     0.282 C 
ENDBRANCH  11  13
ENDBRANCH   6  11
TORSDOF 4
ENDMDL
