MODEL 1
REMARK VINA RESULT:    -4.432      0.000      0.000
REMARK INTER + INTRA:          -7.408
REMARK INTER:                  -6.505
REMARK INTRA:                  -0.902
REMARK UNBOUND:                -0.902
REMARK SMILES O=C([O-])CCCCCCCC(=O)[O-]
REMARK SMILES IDX 7 1 6 2 5 3 4 4 2 5 1 6 3 7 8 8 9 9 10 10 11 11 12 12 13 13
REMARK H PARENT
REMARK Flexibility Score: inf
ROOT
ATOM      1  C   UNL     1      13.137  16.891  70.995  1.00  0.00     0.000 C 
ENDROOT
BRANCH   1   2
ATOM      2  C   UNL     1      11.614  16.842  70.791  1.00  0.00     0.000 C 
BRANCH   2   3
ATOM      3  C   UNL     1      11.146  17.720  69.617  1.00  0.00     0.006 C 
BRANCH   3   4
ATOM      4  C   UNL     1      10.713  16.883  68.406  1.00  0.00     0.053 C 
BRANCH   4   5
ATOM      5  C   UNL     1      11.629  17.080  67.238  1.00  0.00     0.041 C 
ATOM      6  O   UNL     1      12.464  16.189  66.930  1.00  0.00    -0.550 OA
ATOM      7  O   UNL     1      11.587  18.263  66.511  1.00  0.00    -0.550 OA
ENDBRANCH   4   5
ENDBRANCH   3   4
ENDBRANCH   2   3
ENDBRANCH   1   2
BRANCH   1   8
ATOM      8  C   UNL     1      13.876  15.818  70.183  1.00  0.00     0.000 C 
BRANCH   8   9
ATOM      9  C   UNL     1      13.400  14.410  70.571  1.00  0.00     0.006 C 
BRANCH   9  10
ATOM     10  C   UNL     1      13.083  13.545  69.344  1.00  0.00     0.053 C 
BRANCH  10  11
ATOM     11  C   UNL     1      11.607  13.389  69.142  1.00  0.00     0.041 C 
ATOM     12  O   UNL     1      11.129  13.312  67.979  1.00  0.00    -0.550 OA
ATOM     13  O   UNL     1      10.755  13.363  70.238  1.00  0.00    -0.550 OA
ENDBRANCH  10  11
ENDBRANCH   9  10
ENDBRANCH   8   9
ENDBRANCH   1   8
TORSDOF 8
ENDMDL
MODEL 2
REMARK VINA RESULT:    -4.415      2.069      3.996
REMARK INTER + INTRA:          -7.383
REMARK INTER:                  -6.505
REMARK INTRA:                  -0.877
REMARK UNBOUND:                -0.902
REMARK SMILES O=C([O-])CCCCCCCC(=O)[O-]
REMARK SMILES IDX 7 1 6 2 5 3 4 4 2 5 1 6 3 7 8 8 9 9 10 10 11 11 12 12 13 13
REMARK H PARENT
REMARK Flexibility Score: inf
ROOT
ATOM      1  C   UNL     1      13.902  15.353  68.756  1.00  0.00     0.000 C 
ENDROOT
BRANCH   1   2
ATOM      2  C   UNL     1      12.822  14.319  68.402  1.00  0.00     0.000 C 
BRANCH   2   3
ATOM      3  C   UNL     1      12.564  13.318  69.541  1.00  0.00     0.006 C 
BRANCH   3   4
ATOM      4  C   UNL     1      11.116  13.377  70.046  1.00  0.00     0.053 C 
BRANCH   4   5
ATOM      5  C   UNL     1      10.131  13.311  68.919  1.00  0.00     0.041 C 
ATOM      6  O   UNL     1       9.321  14.256  68.731  1.00  0.00    -0.550 OA
ATOM      7  O   UNL     1      10.086  12.192  68.098  1.00  0.00    -0.550 OA
ENDBRANCH   4   5
ENDBRANCH   3   4
ENDBRANCH   2   3
ENDBRANCH   1   2
BRANCH   1   8
ATOM      8  C   UNL     1      14.111  15.494  70.271  1.00  0.00     0.000 C 
BRANCH   8   9
ATOM      9  C   UNL     1      13.478  16.791  70.794  1.00  0.00     0.006 C 
BRANCH   9  10
ATOM     10  C   UNL     1      12.274  16.524  71.708  1.00  0.00     0.053 C 
BRANCH  10  11
ATOM     11  C   UNL     1      10.982  16.889  71.044  1.00  0.00     0.041 C 
ATOM     12  O   UNL     1      10.926  17.017  69.792  1.00  0.00    -0.550 OA
ATOM     13  O   UNL     1       9.848  17.122  71.810  1.00  0.00    -0.550 OA
ENDBRANCH  10  11
ENDBRANCH   9  10
ENDBRANCH   8   9
ENDBRANCH   1   8
TORSDOF 8
ENDMDL
MODEL 3
REMARK VINA RESULT:    -4.389      1.245      3.844
REMARK INTER + INTRA:          -7.344
REMARK INTER:                  -6.362
REMARK INTRA:                  -0.982
REMARK UNBOUND:                -0.902
REMARK SMILES O=C([O-])CCCCCCCC(=O)[O-]
REMARK SMILES IDX 7 1 6 2 5 3 4 4 2 5 1 6 3 7 8 8 9 9 10 10 11 11 12 12 13 13
REMARK H PARENT
REMARK Flexibility Score: inf
ROOT
ATOM      1  C   UNL     1      13.289  16.888  70.703  1.00  0.00     0.000 C 
ENDROOT
BRANCH   1   2
ATOM      2  C   UNL     1      14.199  15.736  70.247  1.00  0.00     0.000 C 
BRANCH   2   3
ATOM      3  C   UNL     1      13.614  14.955  69.058  1.00  0.00     0.006 C 
BRANCH   3   4
ATOM      4  C   UNL     1      13.126  13.558  69.467  1.00  0.00     0.053 C 
BRANCH   4   5
ATOM      5  C   UNL     1      11.657  13.391  69.225  1.00  0.00     0.041 C 
ATOM      6  O   UNL     1      11.213  13.319  68.049  1.00  0.00    -0.550 OA
ATOM      7  O   UNL     1      10.775  13.349  70.297  1.00  0.00    -0.550 OA
ENDBRANCH   4   5
ENDBRANCH   3   4
ENDBRANCH   2   3
ENDBRANCH   1   2
BRANCH   1   8
ATOM      8  C   UNL     1      12.124  16.409  71.580  1.00  0.00     0.000 C 
BRANCH   8   9
ATOM      9  C   UNL     1      10.777  16.862  70.999  1.00  0.00     0.006 C 
BRANCH   9  10
ATOM     10  C   UNL     1      10.924  17.488  69.606  1.00  0.00     0.053 C 
BRANCH  10  11
ATOM     11  C   UNL     1      10.185  16.705  68.565  1.00  0.00     0.041 C 
ATOM     12  O   UNL     1       9.116  16.108  68.859  1.00  0.00    -0.550 OA
ATOM     13  O   UNL     1      10.696  16.605  67.277  1.00  0.00    -0.550 OA
ENDBRANCH  10  11
ENDBRANCH   9  10
ENDBRANCH   8   9
ENDBRANCH   1   8
TORSDOF 8
ENDMDL
MODEL 4
REMARK VINA RESULT:    -4.385      2.234      3.393
REMARK INTER + INTRA:          -7.338
REMARK INTER:                  -6.442
REMARK INTRA:                  -0.896
REMARK UNBOUND:                -0.902
REMARK SMILES O=C([O-])CCCCCCCC(=O)[O-]
REMARK SMILES IDX 7 1 6 2 5 3 4 4 2 5 1 6 3 7 8 8 9 9 10 10 11 11 12 12 13 13
REMARK H PARENT
REMARK Flexibility Score: inf
ROOT
ATOM      1  C   UNL     1      11.238  13.028  69.110  1.00  0.00     0.000 C 
ENDROOT
BRANCH   1   2
ATOM      2  C   UNL     1      10.067  13.573  68.276  1.00  0.00     0.000 C 
BRANCH   2   3
ATOM      3  C   UNL     1       9.529  14.910  68.813  1.00  0.00     0.006 C 
BRANCH   3   4
ATOM      4  C   UNL     1       9.969  16.100  67.949  1.00  0.00     0.053 C 
BRANCH   4   5
ATOM      5  C   UNL     1      11.385  16.499  68.233  1.00  0.00     0.041 C 
ATOM      6  O   UNL     1      11.654  17.200  69.244  1.00  0.00    -0.550 OA
ATOM      7  O   UNL     1      12.401  16.126  67.363  1.00  0.00    -0.550 OA
ENDBRANCH   4   5
ENDBRANCH   3   4
ENDBRANCH   2   3
ENDBRANCH   1   2
BRANCH   1   8
ATOM      8  C   UNL     1      11.216  13.535  70.559  1.00  0.00     0.000 C 
BRANCH   8   9
ATOM      9  C   UNL     1      12.565  14.161  70.942  1.00  0.00     0.006 C 
BRANCH   9  10
ATOM     10  C   UNL     1      13.641  13.925  69.873  1.00  0.00     0.053 C 
BRANCH  10  11
ATOM     11  C   UNL     1      14.801  14.858  70.038  1.00  0.00     0.041 C 
ATOM     12  O   UNL     1      14.609  16.101  70.119  1.00  0.00    -0.550 OA
ATOM     13  O   UNL     1      16.096  14.359  70.069  1.00  0.00    -0.550 OA
ENDBRANCH  10  11
ENDBRANCH   9  10
ENDBRANCH   8   9
ENDBRANCH   1   8
TORSDOF 8
ENDMDL
MODEL 5
REMARK VINA RESULT:    -4.349      2.251      3.433
REMARK INTER + INTRA:          -7.286
REMARK INTER:                  -6.503
REMARK INTRA:                  -0.783
REMARK UNBOUND:                -0.902
REMARK SMILES O=C([O-])CCCCCCCC(=O)[O-]
REMARK SMILES IDX 7 1 6 2 5 3 4 4 2 5 1 6 3 7 8 8 9 9 10 10 11 11 12 12 13 13
REMARK H PARENT
REMARK Flexibility Score: inf
ROOT
ATOM      1  C   UNL     1      14.598  14.932  70.544  1.00  0.00     0.000 C 
ENDROOT
BRANCH   1   2
ATOM      2  C   UNL     1      13.838  16.183  70.075  1.00  0.00     0.000 C 
BRANCH   2   3
ATOM      3  C   UNL     1      13.055  16.862  71.212  1.00  0.00     0.006 C 
BRANCH   3   4
ATOM      4  C   UNL     1      11.544  16.614  71.103  1.00  0.00     0.053 C 
BRANCH   4   5
ATOM      5  C   UNL     1      11.076  15.592  72.094  1.00  0.00     0.041 C 
ATOM      6  O   UNL     1      11.306  14.370  71.899  1.00  0.00    -0.550 OA
ATOM      7  O   UNL     1      10.355  15.987  73.213  1.00  0.00    -0.550 OA
ENDBRANCH   4   5
ENDBRANCH   3   4
ENDBRANCH   2   3
ENDBRANCH   1   2
BRANCH   1   8
ATOM      8  C   UNL     1      14.114  13.651  69.849  1.00  0.00     0.000 C 
BRANCH   8   9
ATOM      9  C   UNL     1      12.944  13.949  68.901  1.00  0.00     0.006 C 
BRANCH   9  10
ATOM     10  C   UNL     1      12.001  12.748  68.745  1.00  0.00     0.053 C 
BRANCH  10  11
ATOM     11  C   UNL     1      10.578  13.181  68.561  1.00  0.00     0.041 C 
ATOM     12  O   UNL     1       9.682  12.328  68.324  1.00  0.00    -0.550 OA
ATOM     13  O   UNL     1      10.249  14.528  68.617  1.00  0.00    -0.550 OA
ENDBRANCH  10  11
ENDBRANCH   9  10
ENDBRANCH   8   9
ENDBRANCH   1   8
TORSDOF 8
ENDMDL
MODEL 6
REMARK VINA RESULT:    -4.328      2.073      4.272
REMARK INTER + INTRA:          -7.254
REMARK INTER:                  -6.262
REMARK INTRA:                  -0.992
REMARK UNBOUND:                -0.902
REMARK SMILES O=C([O-])CCCCCCCC(=O)[O-]
REMARK SMILES IDX 7 1 6 2 5 3 4 4 2 5 1 6 3 7 8 8 9 9 10 10 11 11 12 12 13 13
REMARK H PARENT
REMARK Flexibility Score: inf
ROOT
ATOM      1  C   UNL     1       9.355  15.514  69.000  1.00  0.00     0.000 C 
ENDROOT
BRANCH   1   2
ATOM      2  C   UNL     1       9.715  14.041  68.750  1.00  0.00     0.000 C 
BRANCH   2   3
ATOM      3  C   UNL     1      10.835  13.540  69.679  1.00  0.00     0.006 C 
BRANCH   3   4
ATOM      4  C   UNL     1      12.072  13.078  68.896  1.00  0.00     0.053 C 
BRANCH   4   5
ATOM      5  C   UNL     1      13.216  14.032  69.050  1.00  0.00     0.041 C 
ATOM      6  O   UNL     1      13.396  14.946  68.203  1.00  0.00    -0.550 OA
ATOM      7  O   UNL     1      14.103  13.891  70.109  1.00  0.00    -0.550 OA
ENDBRANCH   4   5
ENDBRANCH   3   4
ENDBRANCH   2   3
ENDBRANCH   1   2
BRANCH   1   8
ATOM      8  C   UNL     1      10.164  16.478  68.120  1.00  0.00     0.000 C 
BRANCH   8   9
ATOM      9  C   UNL     1      11.048  17.394  68.977  1.00  0.00     0.006 C 
BRANCH   9  10
ATOM     10  C   UNL     1      10.811  17.192  70.480  1.00  0.00     0.053 C 
BRANCH  10  11
ATOM     11  C   UNL     1      12.058  16.751  71.184  1.00  0.00     0.041 C 
ATOM     12  O   UNL     1      13.177  17.222  70.849  1.00  0.00    -0.550 OA
ATOM     13  O   UNL     1      11.987  15.793  72.186  1.00  0.00    -0.550 OA
ENDBRANCH  10  11
ENDBRANCH   9  10
ENDBRANCH   8   9
ENDBRANCH   1   8
TORSDOF 8
ENDMDL
MODEL 7
REMARK VINA RESULT:    -4.318      1.811      3.704
REMARK INTER + INTRA:          -7.240
REMARK INTER:                  -6.262
REMARK INTRA:                  -0.979
REMARK UNBOUND:                -0.902
REMARK SMILES O=C([O-])CCCCCCCC(=O)[O-]
REMARK SMILES IDX 7 1 6 2 5 3 4 4 2 5 1 6 3 7 8 8 9 9 10 10 11 11 12 12 13 13
REMARK H PARENT
REMARK Flexibility Score: inf
ROOT
ATOM      1  C   UNL     1      10.404  17.303  70.251  1.00  0.00     0.000 C 
ENDROOT
BRANCH   1   2
ATOM      2  C   UNL     1       9.447  16.542  69.320  1.00  0.00     0.000 C 
BRANCH   2   3
ATOM      3  C   UNL     1      10.168  15.487  68.463  1.00  0.00     0.006 C 
BRANCH   3   4
ATOM      4  C   UNL     1       9.753  14.056  68.837  1.00  0.00     0.053 C 
BRANCH   4   5
ATOM      5  C   UNL     1      10.895  13.280  69.417  1.00  0.00     0.041 C 
ATOM      6  O   UNL     1      11.705  12.684  68.660  1.00  0.00    -0.550 OA
ATOM      7  O   UNL     1      11.044  13.186  70.795  1.00  0.00    -0.550 OA
ENDBRANCH   4   5
ENDBRANCH   3   4
ENDBRANCH   2   3
ENDBRANCH   1   2
BRANCH   1   8
ATOM      8  C   UNL     1      10.662  16.559  71.569  1.00  0.00     0.000 C 
BRANCH   8   9
ATOM      9  C   UNL     1      12.168  16.398  71.824  1.00  0.00     0.006 C 
BRANCH   9  10
ATOM     10  C   UNL     1      13.010  16.786  70.601  1.00  0.00     0.053 C 
BRANCH  10  11
ATOM     11  C   UNL     1      13.651  15.589  69.967  1.00  0.00     0.041 C 
ATOM     12  O   UNL     1      13.718  15.494  68.713  1.00  0.00    -0.550 OA
ATOM     13  O   UNL     1      14.144  14.563  70.761  1.00  0.00    -0.550 OA
ENDBRANCH  10  11
ENDBRANCH   9  10
ENDBRANCH   8   9
ENDBRANCH   1   8
TORSDOF 8
ENDMDL
MODEL 8
REMARK VINA RESULT:    -4.312      2.045      3.612
REMARK INTER + INTRA:          -7.231
REMARK INTER:                  -6.254
REMARK INTRA:                  -0.977
REMARK UNBOUND:                -0.902
REMARK SMILES O=C([O-])CCCCCCCC(=O)[O-]
REMARK SMILES IDX 7 1 6 2 5 3 4 4 2 5 1 6 3 7 8 8 9 9 10 10 11 11 12 12 13 13
REMARK H PARENT
REMARK Flexibility Score: inf
ROOT
ATOM      1  C   UNL     1       9.381  15.512  68.962  1.00  0.00     0.000 C 
ENDROOT
BRANCH   1   2
ATOM      2  C   UNL     1      10.348  16.448  68.220  1.00  0.00     0.000 C 
BRANCH   2   3
ATOM      3  C   UNL     1      10.959  17.519  69.140  1.00  0.00     0.006 C 
BRANCH   3   4
ATOM      4  C   UNL     1      10.779  17.176  70.625  1.00  0.00     0.053 C 
BRANCH   4   5
ATOM      5  C   UNL     1      12.059  16.707  71.246  1.00  0.00     0.041 C 
ATOM      6  O   UNL     1      13.157  17.210  70.890  1.00  0.00    -0.550 OA
ATOM      7  O   UNL     1      12.042  15.689  72.191  1.00  0.00    -0.550 OA
ENDBRANCH   4   5
ENDBRANCH   3   4
ENDBRANCH   2   3
ENDBRANCH   1   2
BRANCH   1   8
ATOM      8  C   UNL     1       9.691  14.029  68.717  1.00  0.00     0.000 C 
BRANCH   8   9
ATOM      9  C   UNL     1      10.837  13.551  69.620  1.00  0.00     0.006 C 
BRANCH   9  10
ATOM     10  C   UNL     1      12.073  13.125  68.815  1.00  0.00     0.053 C 
BRANCH  10  11
ATOM     11  C   UNL     1      13.246  14.016  69.088  1.00  0.00     0.041 C 
ATOM     12  O   UNL     1      13.964  13.827  70.105  1.00  0.00    -0.550 OA
ATOM     13  O   UNL     1      13.525  15.077  68.236  1.00  0.00    -0.550 OA
ENDBRANCH  10  11
ENDBRANCH   9  10
ENDBRANCH   8   9
ENDBRANCH   1   8
TORSDOF 8
ENDMDL
MODEL 9
REMARK VINA RESULT:    -4.251      2.324      4.692
REMARK INTER + INTRA:          -7.142
REMARK INTER:                  -6.468
REMARK INTRA:                  -0.673
REMARK UNBOUND:                -0.902
REMARK SMILES O=C([O-])CCCCCCCC(=O)[O-]
REMARK SMILES IDX 7 1 6 2 5 3 4 4 2 5 1 6 3 7 8 8 9 9 10 10 11 11 12 12 13 13
REMARK H PARENT
REMARK Flexibility Score: inf
ROOT
ATOM      1  C   UNL     1      10.974  13.834  68.015  1.00  0.00     0.000 C 
ENDROOT
BRANCH   1   2
ATOM      2  C   UNL     1      11.884  12.860  68.780  1.00  0.00     0.000 C 
BRANCH   2   3
ATOM      3  C   UNL     1      12.875  13.581  69.710  1.00  0.00     0.006 C 
BRANCH   3   4
ATOM      4  C   UNL     1      13.635  14.703  68.988  1.00  0.00     0.053 C 
BRANCH   4   5
ATOM      5  C   UNL     1      14.563  15.429  69.912  1.00  0.00     0.041 C 
ATOM      6  O   UNL     1      14.150  16.417  70.576  1.00  0.00    -0.550 OA
ATOM      7  O   UNL     1      15.891  15.039  70.014  1.00  0.00    -0.550 OA
ENDBRANCH   4   5
ENDBRANCH   3   4
ENDBRANCH   2   3
ENDBRANCH   1   2
BRANCH   1   8
ATOM      8  C   UNL     1       9.624  14.053  68.713  1.00  0.00     0.000 C 
BRANCH   8   9
ATOM      9  C   UNL     1       9.180  15.518  68.602  1.00  0.00     0.006 C 
BRANCH   9  10
ATOM     10  C   UNL     1      10.219  16.389  67.884  1.00  0.00     0.053 C 
BRANCH  10  11
ATOM     11  C   UNL     1      10.777  17.446  68.788  1.00  0.00     0.041 C 
ATOM     12  O   UNL     1      10.959  17.203  70.011  1.00  0.00    -0.550 OA
ATOM     13  O   UNL     1      11.064  18.708  68.287  1.00  0.00    -0.550 OA
ENDBRANCH  10  11
ENDBRANCH   9  10
ENDBRANCH   8   9
ENDBRANCH   1   8
TORSDOF 8
ENDMDL
