MODEL 1
REMARK VINA RESULT:    -5.988      0.000      0.000
REMARK INTER + INTRA:          -7.576
REMARK INTER:                  -6.863
REMARK INTRA:                  -0.713
REMARK UNBOUND:                -0.713
REMARK SMILES C=C(C)[C@H]1CC[C@]2(C(=O)[O-])CC[C@@]3(C)[C@H](CC[C@H]4[C@]5(C)CC[C@H](O)C(C)(C)[C@@H]5CC[C@]43C)[C@H]12
REMARK SMILES IDX 7 1 6 2 33 3 11 4 5 5 15 6 4 7 12 8 16 9 13 10 17 11 31 12
REMARK SMILES IDX 14 13 18 14 30 15 32 16 19 17 29 18 21 19 20 20 28 21 22 22
REMARK SMILES IDX 25 23 23 24 26 25 27 26 8 27 9 28 10 29 2 30 3 31 1 32 24 33
REMARK H PARENT 24 34
REMARK Flexibility Score: inf
ROOT
ATOM      1  C   UNL     1    -100.105 -18.366 -62.568  1.00  0.00     0.014 C 
ATOM      2  C   UNL     1    -101.015 -18.589 -61.337  1.00  0.00     0.014 C 
ATOM      3  C   UNL     1     -99.319 -17.054 -62.242  1.00  0.00     0.012 C 
ATOM      4  C   UNL     1     -99.168 -19.593 -62.775  1.00  0.00     0.014 C 
ATOM      5  C   UNL     1    -101.240 -17.218 -60.718  1.00  0.00     0.009 C 
ATOM      6  C   UNL     1     -97.759 -17.221 -62.228  1.00  0.00     0.000 C 
ATOM      7  C   UNL     1     -99.926 -16.470 -60.936  1.00  0.00     0.018 C 
ATOM      8  C   UNL     1     -97.939 -19.332 -63.680  1.00  0.00     0.008 C 
ATOM      9  C   UNL     1     -97.221 -17.902 -60.936  1.00  0.00     0.005 C 
ATOM     10  C   UNL     1     -97.244 -17.917 -63.541  1.00  0.00    -0.024 C 
ATOM     11  C   UNL     1     -96.052 -18.864 -61.148  1.00  0.00     0.005 C 
ATOM     12  C   UNL     1     -95.610 -17.975 -63.539  1.00  0.00    -0.024 C 
ATOM     13  C   UNL     1     -97.734 -17.081 -64.778  1.00  0.00     0.012 C 
ATOM     14  C   UNL     1     -94.981 -18.283 -62.110  1.00  0.00     0.002 C 
ATOM     15  C   UNL     1     -95.090 -18.990 -64.614  1.00  0.00     0.008 C 
ATOM     16  C   UNL     1     -95.067 -16.555 -63.952  1.00  0.00     0.012 C 
ATOM     17  C   UNL     1     -93.616 -19.125 -62.089  1.00  0.00    -0.026 C 
ATOM     18  C   UNL     1     -94.625 -20.385 -64.143  1.00  0.00     0.005 C 
ATOM     19  C   UNL     1     -92.437 -18.389 -62.806  1.00  0.00     0.010 C 
ATOM     20  C   UNL     1     -93.205 -19.265 -60.581  1.00  0.00     0.012 C 
ATOM     21  C   UNL     1     -93.838 -20.518 -62.788  1.00  0.00     0.003 C 
ATOM     22  C   UNL     1     -91.143 -19.222 -62.923  1.00  0.00     0.033 C 
ATOM     23  C   UNL     1     -92.521 -21.411 -62.935  1.00  0.00    -0.006 C 
ATOM     24  C   UNL     1     -91.369 -20.590 -63.599  1.00  0.00     0.120 C 
ATOM     25  C   UNL     1     -92.044 -21.957 -61.554  1.00  0.00     0.014 C 
ATOM     26  C   UNL     1     -92.801 -22.701 -63.772  1.00  0.00     0.014 C 
ENDROOT
BRANCH   1  27
ATOM     27  C   UNL     1    -100.996 -18.170 -63.795  1.00  0.00     0.048 C 
ATOM     28  O   UNL     1    -101.256 -17.010 -64.213  1.00  0.00    -0.550 OA
ATOM     29  O   UNL     1    -101.541 -19.259 -64.472  1.00  0.00    -0.550 OA
ENDBRANCH   1  27
BRANCH   7  30
ATOM     30  C   UNL     1    -100.086 -14.952 -60.959  1.00  0.00    -0.077 C 
ATOM     31  C   UNL     1    -100.612 -14.271 -62.196  1.00  0.00     0.039 C 
ATOM     32  C   UNL     1     -99.791 -14.193 -59.889  1.00  0.00     0.008 C 
ENDBRANCH   7  30
BRANCH  24  33
ATOM     33  O   UNL     1     -91.625 -20.388 -64.967  1.00  0.00    -0.393 OA
ATOM     34  H   UNL     1     -92.172 -21.156 -65.279  1.00  0.00     0.210 HD
ENDBRANCH  24  33
TORSDOF 3
ENDMDL
MODEL 2
REMARK VINA RESULT:    -5.603     12.357     15.943
REMARK INTER + INTRA:          -7.136
REMARK INTER:                  -6.400
REMARK INTRA:                  -0.736
REMARK UNBOUND:                -0.713
REMARK SMILES C=C(C)[C@H]1CC[C@]2(C(=O)[O-])CC[C@@]3(C)[C@H](CC[C@H]4[C@]5(C)CC[C@H](O)C(C)(C)[C@@H]5CC[C@]43C)[C@H]12
REMARK SMILES IDX 7 1 6 2 33 3 11 4 5 5 15 6 4 7 12 8 16 9 13 10 17 11 31 12
REMARK SMILES IDX 14 13 18 14 30 15 32 16 19 17 29 18 21 19 20 20 28 21 22 22
REMARK SMILES IDX 25 23 23 24 26 25 27 26 8 27 9 28 10 29 2 30 3 31 1 32 24 33
REMARK H PARENT 24 34
REMARK Flexibility Score: inf
ROOT
ATOM      1  C   UNL     1    -105.145  -7.576 -73.356  1.00  0.00     0.014 C 
ATOM      2  C   UNL     1    -106.057  -6.451 -73.903  1.00  0.00     0.014 C 
ATOM      3  C   UNL     1    -103.707  -7.177 -73.822  1.00  0.00     0.012 C 
ATOM      4  C   UNL     1    -105.272  -7.666 -71.806  1.00  0.00     0.014 C 
ATOM      5  C   UNL     1    -105.341  -5.874 -75.115  1.00  0.00     0.009 C 
ATOM      6  C   UNL     1    -102.677  -6.989 -72.653  1.00  0.00     0.000 C 
ATOM      7  C   UNL     1    -103.856  -5.952 -74.766  1.00  0.00     0.018 C 
ATOM      8  C   UNL     1    -104.126  -8.433 -71.100  1.00  0.00     0.008 C 
ATOM      9  C   UNL     1    -102.840  -5.639 -71.896  1.00  0.00     0.005 C 
ATOM     10  C   UNL     1    -102.671  -8.231 -71.689  1.00  0.00    -0.024 C 
ATOM     11  C   UNL     1    -102.617  -5.712 -70.386  1.00  0.00     0.005 C 
ATOM     12  C   UNL     1    -101.512  -8.048 -70.550  1.00  0.00    -0.024 C 
ATOM     13  C   UNL     1    -102.372  -9.522 -72.532  1.00  0.00     0.012 C 
ATOM     14  C   UNL     1    -101.367  -6.555 -70.017  1.00  0.00     0.002 C 
ATOM     15  C   UNL     1    -101.736  -9.050 -69.365  1.00  0.00     0.008 C 
ATOM     16  C   UNL     1    -100.123  -8.411 -71.198  1.00  0.00     0.012 C 
ATOM     17  C   UNL     1    -100.936  -6.376 -68.482  1.00  0.00    -0.026 C 
ATOM     18  C   UNL     1    -102.373  -8.517 -68.064  1.00  0.00     0.005 C 
ATOM     19  C   UNL     1     -99.521  -6.965 -68.175  1.00  0.00     0.010 C 
ATOM     20  C   UNL     1    -100.844  -4.830 -68.226  1.00  0.00     0.012 C 
ATOM     21  C   UNL     1    -101.988  -7.083 -67.548  1.00  0.00     0.003 C 
ATOM     22  C   UNL     1     -99.126  -6.930 -66.684  1.00  0.00     0.033 C 
ATOM     23  C   UNL     1    -101.615  -7.075 -65.995  1.00  0.00    -0.006 C 
ATOM     24  C   UNL     1    -100.165  -7.615 -65.772  1.00  0.00     0.120 C 
ATOM     25  C   UNL     1    -101.738  -5.644 -65.384  1.00  0.00     0.014 C 
ATOM     26  C   UNL     1    -102.629  -7.925 -65.162  1.00  0.00     0.014 C 
ENDROOT
BRANCH   1  27
ATOM     27  C   UNL     1    -105.574  -8.896 -73.998  1.00  0.00     0.048 C 
ATOM     28  O   UNL     1    -106.577  -9.519 -73.559  1.00  0.00    -0.550 OA
ATOM     29  O   UNL     1    -104.871  -9.438 -75.071  1.00  0.00    -0.550 OA
ENDBRANCH   1  27
BRANCH   7  30
ATOM     30  C   UNL     1    -102.945  -6.006 -75.991  1.00  0.00    -0.077 C 
ATOM     31  C   UNL     1    -102.489  -4.726 -76.644  1.00  0.00     0.039 C 
ATOM     32  C   UNL     1    -102.512  -7.171 -76.500  1.00  0.00     0.008 C 
ENDBRANCH   7  30
BRANCH  24  33
ATOM     33  O   UNL     1    -100.114  -9.005 -65.981  1.00  0.00    -0.393 OA
ATOM     34  H   UNL     1     -99.601  -9.396 -65.226  1.00  0.00     0.210 HD
ENDBRANCH  24  33
TORSDOF 3
ENDMDL
MODEL 3
REMARK VINA RESULT:    -5.190      2.032      3.667
REMARK INTER + INTRA:          -6.662
REMARK INTER:                  -5.927
REMARK INTRA:                  -0.735
REMARK UNBOUND:                -0.713
REMARK SMILES C=C(C)[C@H]1CC[C@]2(C(=O)[O-])CC[C@@]3(C)[C@H](CC[C@H]4[C@]5(C)CC[C@H](O)C(C)(C)[C@@H]5CC[C@]43C)[C@H]12
REMARK SMILES IDX 7 1 6 2 33 3 11 4 5 5 15 6 4 7 12 8 16 9 13 10 17 11 31 12
REMARK SMILES IDX 14 13 18 14 30 15 32 16 19 17 29 18 21 19 20 20 28 21 22 22
REMARK SMILES IDX 25 23 23 24 26 25 27 26 8 27 9 28 10 29 2 30 3 31 1 32 24 33
REMARK H PARENT 24 34
REMARK Flexibility Score: inf
ROOT
ATOM      1  C   UNL     1    -101.972 -16.790 -60.926  1.00  0.00     0.014 C 
ATOM      2  C   UNL     1    -102.262 -15.576 -60.011  1.00  0.00     0.014 C 
ATOM      3  C   UNL     1    -101.894 -16.187 -62.366  1.00  0.00     0.012 C 
ATOM      4  C   UNL     1    -100.648 -17.487 -60.493  1.00  0.00     0.014 C 
ATOM      5  C   UNL     1    -102.960 -14.543 -60.882  1.00  0.00     0.009 C 
ATOM      6  C   UNL     1    -100.528 -16.435 -63.098  1.00  0.00     0.000 C 
ATOM      7  C   UNL     1    -102.318 -14.696 -62.260  1.00  0.00     0.018 C 
ATOM      8  C   UNL     1    -100.025 -18.425 -61.555  1.00  0.00     0.008 C 
ATOM      9  C   UNL     1     -99.385 -15.498 -62.609  1.00  0.00     0.005 C 
ATOM     10  C   UNL     1    -100.126 -17.954 -63.063  1.00  0.00    -0.024 C 
ATOM     11  C   UNL     1     -98.006 -16.149 -62.520  1.00  0.00     0.005 C 
ATOM     12  C   UNL     1     -98.757 -18.189 -63.926  1.00  0.00    -0.024 C 
ATOM     13  C   UNL     1    -101.291 -18.798 -63.694  1.00  0.00     0.012 C 
ATOM     14  C   UNL     1     -97.688 -17.022 -63.765  1.00  0.00     0.002 C 
ATOM     15  C   UNL     1     -98.123 -19.584 -63.592  1.00  0.00     0.008 C 
ATOM     16  C   UNL     1     -99.138 -18.216 -65.454  1.00  0.00     0.012 C 
ATOM     17  C   UNL     1     -96.142 -17.443 -63.840  1.00  0.00    -0.026 C 
ATOM     18  C   UNL     1     -96.913 -19.629 -62.635  1.00  0.00     0.005 C 
ATOM     19  C   UNL     1     -95.745 -18.052 -65.225  1.00  0.00     0.010 C 
ATOM     20  C   UNL     1     -95.314 -16.120 -63.678  1.00  0.00     0.012 C 
ATOM     21  C   UNL     1     -95.822 -18.499 -62.717  1.00  0.00     0.003 C 
ATOM     22  C   UNL     1     -94.300 -18.591 -65.293  1.00  0.00     0.033 C 
ATOM     23  C   UNL     1     -94.338 -19.088 -62.755  1.00  0.00    -0.006 C 
ATOM     24  C   UNL     1     -93.990 -19.617 -64.184  1.00  0.00     0.120 C 
ATOM     25  C   UNL     1     -93.287 -18.018 -62.325  1.00  0.00     0.014 C 
ATOM     26  C   UNL     1     -94.154 -20.234 -61.707  1.00  0.00     0.014 C 
ENDROOT
BRANCH   1  27
ATOM     27  C   UNL     1    -103.144 -17.767 -60.813  1.00  0.00     0.048 C 
ATOM     28  O   UNL     1    -103.178 -18.611 -59.878  1.00  0.00    -0.550 OA
ATOM     29  O   UNL     1    -104.187 -17.751 -61.735  1.00  0.00    -0.550 OA
ENDBRANCH   1  27
BRANCH   7  30
ATOM     30  C   UNL     1    -103.216 -14.230 -63.405  1.00  0.00    -0.077 C 
ATOM     31  C   UNL     1    -103.794 -15.240 -64.363  1.00  0.00     0.039 C 
ATOM     32  C   UNL     1    -103.530 -12.935 -63.576  1.00  0.00     0.008 C 
ENDBRANCH   7  30
BRANCH  24  33
ATOM     33  O   UNL     1     -94.683 -20.810 -64.456  1.00  0.00    -0.393 OA
ATOM     34  H   UNL     1     -94.727 -20.905 -65.443  1.00  0.00     0.210 HD
ENDBRANCH  24  33
TORSDOF 3
ENDMDL
MODEL 4
REMARK VINA RESULT:    -4.990      2.090      7.989
REMARK INTER + INTRA:          -6.432
REMARK INTER:                  -5.818
REMARK INTRA:                  -0.614
REMARK UNBOUND:                -0.713
REMARK SMILES C=C(C)[C@H]1CC[C@]2(C(=O)[O-])CC[C@@]3(C)[C@H](CC[C@H]4[C@]5(C)CC[C@H](O)C(C)(C)[C@@H]5CC[C@]43C)[C@H]12
REMARK SMILES IDX 7 1 6 2 33 3 11 4 5 5 15 6 4 7 12 8 16 9 13 10 17 11 31 12
REMARK SMILES IDX 14 13 18 14 30 15 32 16 19 17 29 18 21 19 20 20 28 21 22 22
REMARK SMILES IDX 25 23 23 24 26 25 27 26 8 27 9 28 10 29 2 30 3 31 1 32 24 33
REMARK H PARENT 24 34
REMARK Flexibility Score: inf
ROOT
ATOM      1  C   UNL     1     -96.128 -19.266 -64.618  1.00  0.00     0.014 C 
ATOM      2  C   UNL     1     -94.926 -18.640 -65.366  1.00  0.00     0.014 C 
ATOM      3  C   UNL     1     -95.834 -18.996 -63.106  1.00  0.00     0.012 C 
ATOM      4  C   UNL     1     -97.459 -18.613 -65.098  1.00  0.00     0.014 C 
ATOM      5  C   UNL     1     -93.764 -18.647 -64.384  1.00  0.00     0.009 C 
ATOM      6  C   UNL     1     -96.943 -18.166 -62.369  1.00  0.00     0.000 C 
ATOM      7  C   UNL     1     -94.403 -18.397 -63.019  1.00  0.00     0.018 C 
ATOM      8  C   UNL     1     -98.668 -18.825 -64.154  1.00  0.00     0.008 C 
ATOM      9  C   UNL     1     -96.888 -16.643 -62.684  1.00  0.00     0.005 C 
ATOM     10  C   UNL     1     -98.370 -18.784 -62.601  1.00  0.00    -0.024 C 
ATOM     11  C   UNL     1     -98.249 -15.959 -62.814  1.00  0.00     0.005 C 
ATOM     12  C   UNL     1     -99.483 -17.960 -61.731  1.00  0.00    -0.024 C 
ATOM     13  C   UNL     1     -98.352 -20.284 -62.133  1.00  0.00     0.012 C 
ATOM     14  C   UNL     1     -99.232 -16.389 -61.692  1.00  0.00     0.002 C 
ATOM     15  C   UNL     1    -100.932 -18.286 -62.233  1.00  0.00     0.008 C 
ATOM     16  C   UNL     1     -99.399 -18.447 -60.235  1.00  0.00     0.012 C 
ATOM     17  C   UNL     1    -100.532 -15.452 -61.622  1.00  0.00    -0.026 C 
ATOM     18  C   UNL     1    -101.641 -17.262 -63.145  1.00  0.00     0.005 C 
ATOM     19  C   UNL     1    -101.372 -15.674 -60.322  1.00  0.00     0.010 C 
ATOM     20  C   UNL     1    -100.009 -13.973 -61.571  1.00  0.00     0.012 C 
ATOM     21  C   UNL     1    -101.453 -15.725 -62.869  1.00  0.00     0.003 C 
ATOM     22  C   UNL     1    -102.699 -14.887 -60.279  1.00  0.00     0.033 C 
ATOM     23  C   UNL     1    -102.841 -14.934 -62.862  1.00  0.00    -0.006 C 
ATOM     24  C   UNL     1    -103.593 -15.151 -61.509  1.00  0.00     0.120 C 
ATOM     25  C   UNL     1    -102.631 -13.407 -63.103  1.00  0.00     0.014 C 
ATOM     26  C   UNL     1    -103.754 -15.378 -64.051  1.00  0.00     0.014 C 
ENDROOT
BRANCH   1  27
ATOM     27  C   UNL     1     -96.144 -20.767 -64.906  1.00  0.00     0.048 C 
ATOM     28  O   UNL     1     -96.783 -21.218 -65.894  1.00  0.00    -0.550 OA
ATOM     29  O   UNL     1     -95.464 -21.666 -64.088  1.00  0.00    -0.550 OA
ENDBRANCH   1  27
BRANCH   7  30
ATOM     30  C   UNL     1     -93.580 -18.940 -61.853  1.00  0.00    -0.077 C 
ATOM     31  C   UNL     1     -94.024 -18.680 -60.436  1.00  0.00     0.039 C 
ATOM     32  C   UNL     1     -92.470 -19.671 -62.050  1.00  0.00     0.008 C 
ENDBRANCH   7  30
BRANCH  24  33
ATOM     33  O   UNL     1    -104.109 -16.457 -61.429  1.00  0.00    -0.393 OA
ATOM     34  H   UNL     1    -103.333 -17.075 -61.376  1.00  0.00     0.210 HD
ENDBRANCH  24  33
TORSDOF 3
ENDMDL
MODEL 5
REMARK VINA RESULT:    -4.864     12.314     15.673
REMARK INTER + INTRA:          -6.289
REMARK INTER:                  -5.542
REMARK INTRA:                  -0.747
REMARK UNBOUND:                -0.713
REMARK SMILES C=C(C)[C@H]1CC[C@]2(C(=O)[O-])CC[C@@]3(C)[C@H](CC[C@H]4[C@]5(C)CC[C@H](O)C(C)(C)[C@@H]5CC[C@]43C)[C@H]12
REMARK SMILES IDX 7 1 6 2 33 3 11 4 5 5 15 6 4 7 12 8 16 9 13 10 17 11 31 12
REMARK SMILES IDX 14 13 18 14 30 15 32 16 19 17 29 18 21 19 20 20 28 21 22 22
REMARK SMILES IDX 25 23 23 24 26 25 27 26 8 27 9 28 10 29 2 30 3 31 1 32 24 33
REMARK H PARENT 24 34
REMARK Flexibility Score: inf
ROOT
ATOM      1  C   UNL     1    -100.516  -6.629 -67.415  1.00  0.00     0.014 C 
ATOM      2  C   UNL     1    -100.274  -5.203 -66.863  1.00  0.00     0.014 C 
ATOM      3  C   UNL     1    -102.021  -6.919 -67.105  1.00  0.00     0.012 C 
ATOM      4  C   UNL     1    -100.195  -6.678 -68.938  1.00  0.00     0.014 C 
ATOM      5  C   UNL     1    -101.299  -4.994 -65.759  1.00  0.00     0.009 C 
ATOM      6  C   UNL     1    -102.892  -7.239 -68.371  1.00  0.00     0.000 C 
ATOM      7  C   UNL     1    -102.543  -5.744 -66.232  1.00  0.00     0.018 C 
ATOM      8  C   UNL     1    -100.789  -7.893 -69.693  1.00  0.00     0.008 C 
ATOM      9  C   UNL     1    -103.272  -5.975 -69.196  1.00  0.00     0.005 C 
ATOM     10  C   UNL     1    -102.234  -8.364 -69.250  1.00  0.00    -0.024 C 
ATOM     11  C   UNL     1    -103.273  -6.167 -70.712  1.00  0.00     0.005 C 
ATOM     12  C   UNL     1    -103.220  -8.747 -70.497  1.00  0.00    -0.024 C 
ATOM     13  C   UNL     1    -102.009  -9.636 -68.355  1.00  0.00     0.012 C 
ATOM     14  C   UNL     1    -103.962  -7.492 -71.136  1.00  0.00     0.002 C 
ATOM     15  C   UNL     1    -102.442  -9.558 -71.591  1.00  0.00     0.008 C 
ATOM     16  C   UNL     1    -104.358  -9.690 -69.953  1.00  0.00     0.012 C 
ATOM     17  C   UNL     1    -104.259  -7.554 -72.711  1.00  0.00    -0.026 C 
ATOM     18  C   UNL     1    -101.976  -8.815 -72.862  1.00  0.00     0.005 C 
ATOM     19  C   UNL     1    -105.215  -8.727 -73.105  1.00  0.00     0.010 C 
ATOM     20  C   UNL     1    -105.008  -6.224 -73.073  1.00  0.00     0.012 C 
ATOM     21  C   UNL     1    -102.907  -7.722 -73.501  1.00  0.00     0.003 C 
ATOM     22  C   UNL     1    -105.419  -8.900 -74.624  1.00  0.00     0.033 C 
ATOM     23  C   UNL     1    -103.073  -7.910 -75.079  1.00  0.00    -0.006 C 
ATOM     24  C   UNL     1    -104.091  -9.054 -75.394  1.00  0.00     0.120 C 
ATOM     25  C   UNL     1    -103.541  -6.591 -75.766  1.00  0.00     0.014 C 
ATOM     26  C   UNL     1    -101.700  -8.221 -75.761  1.00  0.00     0.014 C 
ENDROOT
BRANCH   1  27
ATOM     27  C   UNL     1     -99.612  -7.599 -66.654  1.00  0.00     0.048 C 
ATOM     28  O   UNL     1     -98.400  -7.723 -66.977  1.00  0.00    -0.550 OA
ATOM     29  O   UNL     1    -100.101  -8.365 -65.598  1.00  0.00    -0.550 OA
ENDBRANCH   1  27
BRANCH   7  30
ATOM     30  C   UNL     1    -103.458  -6.185 -65.093  1.00  0.00    -0.077 C 
ATOM     31  C   UNL     1    -103.444  -7.619 -64.631  1.00  0.00     0.039 C 
ATOM     32  C   UNL     1    -104.272  -5.320 -64.464  1.00  0.00     0.008 C 
ENDBRANCH   7  30
BRANCH  24  33
ATOM     33  O   UNL     1    -103.533 -10.312 -75.101  1.00  0.00    -0.393 OA
ATOM     34  H   UNL     1    -104.250 -10.987 -75.232  1.00  0.00     0.210 HD
ENDBRANCH  24  33
TORSDOF 3
ENDMDL
MODEL 6
REMARK VINA RESULT:    -4.836     11.518     14.421
REMARK INTER + INTRA:          -6.256
REMARK INTER:                  -5.530
REMARK INTRA:                  -0.727
REMARK UNBOUND:                -0.713
REMARK SMILES C=C(C)[C@H]1CC[C@]2(C(=O)[O-])CC[C@@]3(C)[C@H](CC[C@H]4[C@]5(C)CC[C@H](O)C(C)(C)[C@@H]5CC[C@]43C)[C@H]12
REMARK SMILES IDX 7 1 6 2 33 3 11 4 5 5 15 6 4 7 12 8 16 9 13 10 17 11 31 12
REMARK SMILES IDX 14 13 18 14 30 15 32 16 19 17 29 18 21 19 20 20 28 21 22 22
REMARK SMILES IDX 25 23 23 24 26 25 27 26 8 27 9 28 10 29 2 30 3 31 1 32 24 33
REMARK H PARENT 24 34
REMARK Flexibility Score: inf
ROOT
ATOM      1  C   UNL     1    -100.619  -6.342 -66.482  1.00  0.00     0.014 C 
ATOM      2  C   UNL     1     -99.135  -6.770 -66.595  1.00  0.00     0.014 C 
ATOM      3  C   UNL     1    -101.301  -6.949 -67.751  1.00  0.00     0.012 C 
ATOM      4  C   UNL     1    -101.233  -6.878 -65.155  1.00  0.00     0.014 C 
ATOM      5  C   UNL     1     -98.864  -6.980 -68.077  1.00  0.00     0.009 C 
ATOM      6  C   UNL     1    -102.482  -7.935 -67.443  1.00  0.00     0.000 C 
ATOM      7  C   UNL     1    -100.170  -7.541 -68.638  1.00  0.00     0.018 C 
ATOM      8  C   UNL     1    -102.781  -6.898 -65.112  1.00  0.00     0.008 C 
ATOM      9  C   UNL     1    -102.008  -9.345 -66.984  1.00  0.00     0.005 C 
ATOM     10  C   UNL     1    -103.522  -7.292 -66.454  1.00  0.00    -0.024 C 
ATOM     11  C   UNL     1    -102.860  -9.992 -65.893  1.00  0.00     0.005 C 
ATOM     12  C   UNL     1    -104.790  -8.302 -66.243  1.00  0.00    -0.024 C 
ATOM     13  C   UNL     1    -104.032  -5.939 -67.070  1.00  0.00     0.012 C 
ATOM     14  C   UNL     1    -104.381  -9.838 -66.166  1.00  0.00     0.002 C 
ATOM     15  C   UNL     1    -105.632  -7.880 -64.989  1.00  0.00     0.008 C 
ATOM     16  C   UNL     1    -105.738  -8.171 -67.493  1.00  0.00     0.012 C 
ATOM     17  C   UNL     1    -105.272 -10.777 -65.219  1.00  0.00    -0.026 C 
ATOM     18  C   UNL     1    -105.444  -8.674 -63.678  1.00  0.00     0.005 C 
ATOM     19  C   UNL     1    -106.764 -10.865 -65.682  1.00  0.00     0.010 C 
ATOM     20  C   UNL     1    -104.678 -12.223 -65.343  1.00  0.00     0.012 C 
ATOM     21  C   UNL     1    -105.236 -10.231 -63.743  1.00  0.00     0.003 C 
ATOM     22  C   UNL     1    -107.683 -11.651 -64.723  1.00  0.00     0.033 C 
ATOM     23  C   UNL     1    -106.179 -11.014 -62.717  1.00  0.00    -0.006 C 
ATOM     24  C   UNL     1    -107.635 -11.119 -63.276  1.00  0.00     0.120 C 
ATOM     25  C   UNL     1    -105.632 -12.443 -62.414  1.00  0.00     0.014 C 
ATOM     26  C   UNL     1    -106.199 -10.316 -61.318  1.00  0.00     0.014 C 
ENDROOT
BRANCH   1  27
ATOM     27  C   UNL     1    -100.682  -4.815 -66.513  1.00  0.00     0.048 C 
ATOM     28  O   UNL     1    -100.416  -4.147 -65.478  1.00  0.00    -0.550 OA
ATOM     29  O   UNL     1    -101.036  -4.131 -67.674  1.00  0.00    -0.550 OA
ENDBRANCH   1  27
BRANCH   7  30
ATOM     30  C   UNL     1    -100.356  -7.274 -70.130  1.00  0.00    -0.077 C 
ATOM     31  C   UNL     1    -100.160  -8.391 -71.123  1.00  0.00     0.039 C 
ATOM     32  C   UNL     1    -100.717  -6.065 -70.593  1.00  0.00     0.008 C 
ENDBRANCH   7  30
BRANCH  24  33
ATOM     33  O   UNL     1    -108.280  -9.870 -63.225  1.00  0.00    -0.393 OA
ATOM     34  H   UNL     1    -108.864  -9.810 -64.026  1.00  0.00     0.210 HD
ENDBRANCH  24  33
TORSDOF 3
ENDMDL
MODEL 7
REMARK VINA RESULT:    -4.775     11.590     14.509
REMARK INTER + INTRA:          -6.186
REMARK INTER:                  -5.438
REMARK INTRA:                  -0.748
REMARK UNBOUND:                -0.713
REMARK SMILES C=C(C)[C@H]1CC[C@]2(C(=O)[O-])CC[C@@]3(C)[C@H](CC[C@H]4[C@]5(C)CC[C@H](O)C(C)(C)[C@@H]5CC[C@]43C)[C@H]12
REMARK SMILES IDX 7 1 6 2 33 3 11 4 5 5 15 6 4 7 12 8 16 9 13 10 17 11 31 12
REMARK SMILES IDX 14 13 18 14 30 15 32 16 19 17 29 18 21 19 20 20 28 21 22 22
REMARK SMILES IDX 25 23 23 24 26 25 27 26 8 27 9 28 10 29 2 30 3 31 1 32 24 33
REMARK H PARENT 24 34
REMARK Flexibility Score: inf
ROOT
ATOM      1  C   UNL     1    -104.054 -10.717 -72.855  1.00  0.00     0.014 C 
ATOM      2  C   UNL     1    -103.994 -12.228 -73.187  1.00  0.00     0.014 C 
ATOM      3  C   UNL     1    -105.261 -10.580 -71.869  1.00  0.00     0.012 C 
ATOM      4  C   UNL     1    -102.708 -10.250 -72.226  1.00  0.00     0.014 C 
ATOM      5  C   UNL     1    -105.403 -12.764 -72.987  1.00  0.00     0.009 C 
ATOM      6  C   UNL     1    -104.889  -9.968 -70.473  1.00  0.00     0.000 C 
ATOM      7  C   UNL     1    -105.963 -11.965 -71.811  1.00  0.00     0.018 C 
ATOM      8  C   UNL     1    -102.774  -8.903 -71.466  1.00  0.00     0.008 C 
ATOM      9  C   UNL     1    -104.186 -10.980 -69.522  1.00  0.00     0.005 C 
ATOM     10  C   UNL     1    -104.088  -8.624 -70.630  1.00  0.00    -0.024 C 
ATOM     11  C   UNL     1    -103.072 -10.391 -68.658  1.00  0.00     0.005 C 
ATOM     12  C   UNL     1    -103.815  -7.962 -69.160  1.00  0.00    -0.024 C 
ATOM     13  C   UNL     1    -104.939  -7.629 -71.499  1.00  0.00     0.012 C 
ATOM     14  C   UNL     1    -103.474  -9.029 -68.030  1.00  0.00     0.002 C 
ATOM     15  C   UNL     1    -102.704  -6.859 -69.247  1.00  0.00     0.008 C 
ATOM     16  C   UNL     1    -105.135  -7.244 -68.690  1.00  0.00     0.012 C 
ATOM     17  C   UNL     1    -102.460  -8.561 -66.878  1.00  0.00    -0.026 C 
ATOM     18  C   UNL     1    -101.277  -7.216 -68.779  1.00  0.00     0.005 C 
ATOM     19  C   UNL     1    -103.009  -7.364 -66.034  1.00  0.00     0.010 C 
ATOM     20  C   UNL     1    -102.317  -9.775 -65.894  1.00  0.00     0.012 C 
ATOM     21  C   UNL     1    -101.086  -8.135 -67.519  1.00  0.00     0.003 C 
ATOM     22  C   UNL     1    -102.009  -6.799 -65.004  1.00  0.00     0.033 C 
ATOM     23  C   UNL     1    -100.022  -7.539 -66.486  1.00  0.00    -0.006 C 
ATOM     24  C   UNL     1    -100.661  -6.394 -65.635  1.00  0.00     0.120 C 
ATOM     25  C   UNL     1     -99.464  -8.645 -65.538  1.00  0.00     0.014 C 
ATOM     26  C   UNL     1     -98.753  -7.004 -67.225  1.00  0.00     0.014 C 
ENDROOT
BRANCH   1  27
ATOM     27  C   UNL     1    -104.325  -9.950 -74.150  1.00  0.00     0.048 C 
ATOM     28  O   UNL     1    -103.381  -9.695 -74.945  1.00  0.00    -0.550 OA
ATOM     29  O   UNL     1    -105.607  -9.516 -74.476  1.00  0.00    -0.550 OA
ENDBRANCH   1  27
BRANCH   7  30
ATOM     30  C   UNL     1    -107.487 -11.880 -71.803  1.00  0.00    -0.077 C 
ATOM     31  C   UNL     1    -108.171 -10.610 -72.241  1.00  0.00     0.039 C 
ATOM     32  C   UNL     1    -108.252 -12.922 -71.436  1.00  0.00     0.008 C 
ENDBRANCH   7  30
BRANCH  24  33
ATOM     33  O   UNL     1    -100.849  -5.239 -66.416  1.00  0.00    -0.393 OA
ATOM     34  H   UNL     1    -100.672  -4.458 -65.829  1.00  0.00     0.210 HD
ENDBRANCH  24  33
TORSDOF 3
ENDMDL
MODEL 8
REMARK VINA RESULT:    -4.761     11.556     14.101
REMARK INTER + INTRA:          -6.171
REMARK INTER:                  -5.438
REMARK INTRA:                  -0.732
REMARK UNBOUND:                -0.713
REMARK SMILES C=C(C)[C@H]1CC[C@]2(C(=O)[O-])CC[C@@]3(C)[C@H](CC[C@H]4[C@]5(C)CC[C@H](O)C(C)(C)[C@@H]5CC[C@]43C)[C@H]12
REMARK SMILES IDX 7 1 6 2 33 3 11 4 5 5 15 6 4 7 12 8 16 9 13 10 17 11 31 12
REMARK SMILES IDX 14 13 18 14 30 15 32 16 19 17 29 18 21 19 20 20 28 21 22 22
REMARK SMILES IDX 25 23 23 24 26 25 27 26 8 27 9 28 10 29 2 30 3 31 1 32 24 33
REMARK H PARENT 24 34
REMARK Flexibility Score: inf
ROOT
ATOM      1  C   UNL     1    -101.130  -7.402 -66.445  1.00  0.00     0.014 C 
ATOM      2  C   UNL     1     -99.596  -7.575 -66.554  1.00  0.00     0.014 C 
ATOM      3  C   UNL     1    -101.602  -7.146 -67.914  1.00  0.00     0.012 C 
ATOM      4  C   UNL     1    -101.773  -8.676 -65.820  1.00  0.00     0.014 C 
ATOM      5  C   UNL     1     -99.169  -6.815 -67.800  1.00  0.00     0.009 C 
ATOM      6  C   UNL     1    -102.647  -8.187 -68.448  1.00  0.00     0.000 C 
ATOM      7  C   UNL     1    -100.323  -6.997 -68.784  1.00  0.00     0.018 C 
ATOM      8  C   UNL     1    -103.299  -8.816 -66.045  1.00  0.00     0.008 C 
ATOM      9  C   UNL     1    -102.013  -9.548 -68.855  1.00  0.00     0.005 C 
ATOM     10  C   UNL     1    -103.853  -8.351 -67.452  1.00  0.00    -0.024 C 
ATOM     11  C   UNL     1    -102.852 -10.781 -68.520  1.00  0.00     0.005 C 
ATOM     12  C   UNL     1    -104.972  -9.358 -68.092  1.00  0.00    -0.024 C 
ATOM     13  C   UNL     1    -104.501  -6.941 -67.208  1.00  0.00     0.012 C 
ATOM     14  C   UNL     1    -104.349 -10.589 -68.885  1.00  0.00     0.002 C 
ATOM     15  C   UNL     1    -105.973  -9.847 -66.989  1.00  0.00     0.008 C 
ATOM     16  C   UNL     1    -105.816  -8.549 -69.147  1.00  0.00     0.012 C 
ATOM     17  C   UNL     1    -105.172 -11.965 -68.844  1.00  0.00    -0.026 C 
ATOM     18  C   UNL     1    -105.785 -11.263 -66.404  1.00  0.00     0.005 C 
ATOM     19  C   UNL     1    -106.587 -11.846 -69.498  1.00  0.00     0.010 C 
ATOM     20  C   UNL     1    -104.362 -12.991 -69.712  1.00  0.00     0.012 C 
ATOM     21  C   UNL     1    -105.346 -12.437 -67.352  1.00  0.00     0.003 C 
ATOM     22  C   UNL     1    -107.461 -13.111 -69.360  1.00  0.00     0.033 C 
ATOM     23  C   UNL     1    -106.249 -13.742 -67.164  1.00  0.00    -0.006 C 
ATOM     24  C   UNL     1    -107.619 -13.576 -67.898  1.00  0.00     0.120 C 
ATOM     25  C   UNL     1    -105.526 -15.019 -67.693  1.00  0.00     0.014 C 
ATOM     26  C   UNL     1    -106.493 -14.050 -65.651  1.00  0.00     0.014 C 
ENDROOT
BRANCH   1  27
ATOM     27  C   UNL     1    -101.415  -6.183 -65.566  1.00  0.00     0.048 C 
ATOM     28  O   UNL     1    -101.399  -6.288 -64.311  1.00  0.00    -0.550 OA
ATOM     29  O   UNL     1    -101.701  -4.941 -66.127  1.00  0.00    -0.550 OA
ENDBRANCH   1  27
BRANCH   7  30
ATOM     30  C   UNL     1    -100.416  -5.885 -69.826  1.00  0.00    -0.077 C 
ATOM     31  C   UNL     1     -99.655  -6.005 -71.122  1.00  0.00     0.039 C 
ATOM     32  C   UNL     1    -101.182  -4.797 -69.634  1.00  0.00     0.008 C 
ENDBRANCH   7  30
BRANCH  24  33
ATOM     33  O   UNL     1    -108.443 -12.663 -67.214  1.00  0.00    -0.393 OA
ATOM     34  H   UNL     1    -108.513 -11.851 -67.781  1.00  0.00     0.210 HD
ENDBRANCH  24  33
TORSDOF 3
ENDMDL
MODEL 9
REMARK VINA RESULT:    -4.616     12.112     16.182
REMARK INTER + INTRA:          -6.004
REMARK INTER:                  -5.261
REMARK INTRA:                  -0.744
REMARK UNBOUND:                -0.713
REMARK SMILES C=C(C)[C@H]1CC[C@]2(C(=O)[O-])CC[C@@]3(C)[C@H](CC[C@H]4[C@]5(C)CC[C@H](O)C(C)(C)[C@@H]5CC[C@]43C)[C@H]12
REMARK SMILES IDX 7 1 6 2 33 3 11 4 5 5 15 6 4 7 12 8 16 9 13 10 17 11 31 12
REMARK SMILES IDX 14 13 18 14 30 15 32 16 19 17 29 18 21 19 20 20 28 21 22 22
REMARK SMILES IDX 25 23 23 24 26 25 27 26 8 27 9 28 10 29 2 30 3 31 1 32 24 33
REMARK H PARENT 24 34
REMARK Flexibility Score: inf
ROOT
ATOM      1  C   UNL     1    -104.384  -5.911 -73.322  1.00  0.00     0.014 C 
ATOM      2  C   UNL     1    -103.811  -4.967 -74.407  1.00  0.00     0.014 C 
ATOM      3  C   UNL     1    -103.492  -7.192 -73.406  1.00  0.00     0.012 C 
ATOM      4  C   UNL     1    -104.320  -5.225 -71.925  1.00  0.00     0.014 C 
ATOM      5  C   UNL     1    -103.150  -5.862 -75.444  1.00  0.00     0.009 C 
ATOM      6  C   UNL     1    -102.752  -7.554 -72.071  1.00  0.00     0.000 C 
ATOM      7  C   UNL     1    -102.567  -7.025 -74.643  1.00  0.00     0.018 C 
ATOM      8  C   UNL     1    -104.452  -6.186 -70.718  1.00  0.00     0.008 C 
ATOM      9  C   UNL     1    -101.504  -6.666 -71.795  1.00  0.00     0.005 C 
ATOM     10  C   UNL     1    -103.748  -7.596 -70.855  1.00  0.00    -0.024 C 
ATOM     11  C   UNL     1    -101.286  -6.290 -70.330  1.00  0.00     0.005 C 
ATOM     12  C   UNL     1    -102.962  -8.082 -69.506  1.00  0.00    -0.024 C 
ATOM     13  C   UNL     1    -104.899  -8.615 -71.182  1.00  0.00     0.012 C 
ATOM     14  C   UNL     1    -101.487  -7.499 -69.377  1.00  0.00     0.002 C 
ATOM     15  C   UNL     1    -103.808  -7.761 -68.225  1.00  0.00     0.008 C 
ATOM     16  C   UNL     1    -102.803  -9.648 -69.566  1.00  0.00     0.012 C 
ATOM     17  C   UNL     1    -100.953  -7.206 -67.893  1.00  0.00    -0.026 C 
ATOM     18  C   UNL     1    -103.423  -6.526 -67.382  1.00  0.00     0.005 C 
ATOM     19  C   UNL     1    -100.866  -8.496 -67.013  1.00  0.00     0.010 C 
ATOM     20  C   UNL     1     -99.487  -6.668 -68.048  1.00  0.00     0.012 C 
ATOM     21  C   UNL     1    -101.905  -6.175 -67.179  1.00  0.00     0.003 C 
ATOM     22  C   UNL     1    -100.483  -8.238 -65.541  1.00  0.00     0.033 C 
ATOM     23  C   UNL     1    -101.547  -5.883 -65.649  1.00  0.00    -0.006 C 
ATOM     24  C   UNL     1    -101.411  -7.219 -64.849  1.00  0.00     0.120 C 
ATOM     25  C   UNL     1    -100.228  -5.060 -65.517  1.00  0.00     0.014 C 
ATOM     26  C   UNL     1    -102.626  -4.972 -64.978  1.00  0.00     0.014 C 
ENDROOT
BRANCH   1  27
ATOM     27  C   UNL     1    -105.833  -6.236 -73.684  1.00  0.00     0.048 C 
ATOM     28  O   UNL     1    -106.745  -5.392 -73.474  1.00  0.00    -0.550 OA
ATOM     29  O   UNL     1    -106.178  -7.462 -74.246  1.00  0.00    -0.550 OA
ENDBRANCH   1  27
BRANCH   7  30
ATOM     30  C   UNL     1    -102.398  -8.303 -75.460  1.00  0.00    -0.077 C 
ATOM     31  C   UNL     1    -103.342  -9.459 -75.251  1.00  0.00     0.039 C 
ATOM     32  C   UNL     1    -101.435  -8.427 -76.390  1.00  0.00     0.008 C 
ENDBRANCH   7  30
BRANCH  24  33
ATOM     33  O   UNL     1    -102.673  -7.810 -64.649  1.00  0.00    -0.393 OA
ATOM     34  H   UNL     1    -102.996  -8.116 -65.537  1.00  0.00     0.210 HD
ENDBRANCH  24  33
TORSDOF 3
ENDMDL
