MODEL 1
REMARK VINA RESULT:    -4.202      0.000      0.000
REMARK INTER + INTRA:         -10.044
REMARK INTER:                  -7.641
REMARK INTRA:                  -2.403
REMARK UNBOUND:                -2.403
REMARK SMILES CCCCCCCCCCCCCC[C@H](C)C(=O)[O-]
REMARK SMILES IDX 9 1 10 2 11 3 12 4 13 5 14 6 15 7 16 8 17 9 18 10 19 11 8 12
REMARK SMILES IDX 7 13 6 14 5 15 4 16 3 17 2 18 1 19
REMARK H PARENT
REMARK Flexibility Score: inf
ROOT
ATOM      1  C   UNL     1     -12.751 -34.091 -27.165  1.00  0.00     0.000 C 
ENDROOT
BRANCH   1   2
ATOM      2  C   UNL     1     -14.114 -34.727 -27.500  1.00  0.00     0.000 C 
BRANCH   2   3
ATOM      3  C   UNL     1     -14.330 -36.146 -26.940  1.00  0.00     0.000 C 
BRANCH   3   4
ATOM      4  C   UNL     1     -13.629 -37.230 -27.777  1.00  0.00     0.000 C 
BRANCH   4   5
ATOM      5  C   UNL     1     -13.984 -37.144 -29.270  1.00  0.00     0.001 C 
BRANCH   5   6
ATOM      6  C   UNL     1     -12.773 -36.785 -30.149  1.00  0.00     0.009 C 
BRANCH   6   7
ATOM      7  C   UNL     1     -12.885 -37.386 -31.566  1.00  0.00     0.032 C 
ATOM      8  C   UNL     1     -11.631 -37.073 -32.388  1.00  0.00     0.014 C 
BRANCH   7   9
ATOM      9  C   UNL     1     -14.103 -36.870 -32.285  1.00  0.00     0.044 C 
ATOM     10  O   UNL     1     -14.211 -35.642 -32.545  1.00  0.00    -0.550 OA
ATOM     11  O   UNL     1     -15.117 -37.741 -32.664  1.00  0.00    -0.550 OA
ENDBRANCH   7   9
ENDBRANCH   6   7
ENDBRANCH   5   6
ENDBRANCH   4   5
ENDBRANCH   3   4
ENDBRANCH   2   3
ENDBRANCH   1   2
BRANCH   1  12
ATOM     12  C   UNL     1     -12.205 -34.416 -25.760  1.00  0.00     0.000 C 
BRANCH  12  13
ATOM     13  C   UNL     1     -10.843 -35.137 -25.742  1.00  0.00    -0.000 C 
BRANCH  13  14
ATOM     14  C   UNL     1     -10.888 -36.592 -25.243  1.00  0.00    -0.000 C 
BRANCH  14  15
ATOM     15  C   UNL     1     -10.354 -37.596 -26.280  1.00  0.00    -0.000 C 
BRANCH  15  16
ATOM     16  C   UNL     1      -9.371 -36.940 -27.272  1.00  0.00    -0.000 C 
BRANCH  16  17
ATOM     17  C   UNL     1      -9.533 -37.440 -28.719  1.00  0.00    -0.000 C 
BRANCH  17  18
ATOM     18  C   UNL     1      -9.068 -36.413 -29.760  1.00  0.00    -0.003 C 
ATOM     19  C   UNL     1      -9.563 -35.012 -29.410  1.00  0.00     0.004 C 
ENDBRANCH  17  18
ENDBRANCH  16  17
ENDBRANCH  15  16
ENDBRANCH  14  15
ENDBRANCH  13  14
ENDBRANCH  12  13
ENDBRANCH   1  12
TORSDOF 14
ENDMDL
MODEL 2
REMARK VINA RESULT:    -4.164      3.106      5.205
REMARK INTER + INTRA:          -9.976
REMARK INTER:                  -7.845
REMARK INTRA:                  -2.131
REMARK UNBOUND:                -2.403
REMARK SMILES CCCCCCCCCCCCCC[C@H](C)C(=O)[O-]
REMARK SMILES IDX 9 1 10 2 11 3 12 4 13 5 14 6 15 7 16 8 17 9 18 10 19 11 8 12
REMARK SMILES IDX 7 13 6 14 5 15 4 16 3 17 2 18 1 19
REMARK H PARENT
REMARK Flexibility Score: inf
ROOT
ATOM      1  C   UNL     1     -13.077 -34.749 -29.162  1.00  0.00     0.000 C 
ENDROOT
BRANCH   1   2
ATOM      2  C   UNL     1     -14.109 -34.758 -28.017  1.00  0.00     0.000 C 
BRANCH   2   3
ATOM      3  C   UNL     1     -15.005 -36.009 -27.954  1.00  0.00     0.000 C 
BRANCH   3   4
ATOM      4  C   UNL     1     -15.083 -36.616 -26.543  1.00  0.00     0.000 C 
BRANCH   4   5
ATOM      5  C   UNL     1     -13.977 -37.653 -26.286  1.00  0.00     0.001 C 
BRANCH   5   6
ATOM      6  C   UNL     1     -13.167 -37.354 -25.012  1.00  0.00     0.009 C 
BRANCH   6   7
ATOM      7  C   UNL     1     -11.779 -36.763 -25.332  1.00  0.00     0.032 C 
ATOM      8  C   UNL     1     -10.668 -37.724 -24.895  1.00  0.00     0.014 C 
BRANCH   7   9
ATOM      9  C   UNL     1     -11.584 -35.428 -24.665  1.00  0.00     0.044 C 
ATOM     10  O   UNL     1     -10.876 -35.337 -23.627  1.00  0.00    -0.550 OA
ATOM     11  O   UNL     1     -12.186 -34.288 -25.184  1.00  0.00    -0.550 OA
ENDBRANCH   7   9
ENDBRANCH   6   7
ENDBRANCH   5   6
ENDBRANCH   4   5
ENDBRANCH   3   4
ENDBRANCH   2   3
ENDBRANCH   1   2
BRANCH   1  12
ATOM     12  C   UNL     1     -11.622 -34.475 -28.730  1.00  0.00     0.000 C 
BRANCH  12  13
ATOM     13  C   UNL     1     -10.775 -35.735 -28.462  1.00  0.00    -0.000 C 
BRANCH  13  14
ATOM     14  C   UNL     1      -9.458 -35.810 -29.255  1.00  0.00    -0.000 C 
BRANCH  14  15
ATOM     15  C   UNL     1      -9.671 -36.183 -30.733  1.00  0.00    -0.000 C 
BRANCH  15  16
ATOM     16  C   UNL     1     -10.753 -37.269 -30.908  1.00  0.00    -0.000 C 
BRANCH  16  17
ATOM     17  C   UNL     1     -11.583 -37.108 -32.194  1.00  0.00    -0.000 C 
BRANCH  17  18
ATOM     18  C   UNL     1     -13.093 -37.213 -31.947  1.00  0.00    -0.003 C 
ATOM     19  C   UNL     1     -13.390 -38.040 -30.699  1.00  0.00     0.004 C 
ENDBRANCH  17  18
ENDBRANCH  16  17
ENDBRANCH  15  16
ENDBRANCH  14  15
ENDBRANCH  13  14
ENDBRANCH  12  13
ENDBRANCH   1  12
TORSDOF 14
ENDMDL
MODEL 3
REMARK VINA RESULT:    -4.148      3.702      6.163
REMARK INTER + INTRA:          -9.946
REMARK INTER:                  -7.175
REMARK INTRA:                  -2.772
REMARK UNBOUND:                -2.403
REMARK SMILES CCCCCCCCCCCCCC[C@H](C)C(=O)[O-]
REMARK SMILES IDX 9 1 10 2 11 3 12 4 13 5 14 6 15 7 16 8 17 9 18 10 19 11 8 12
REMARK SMILES IDX 7 13 6 14 5 15 4 16 3 17 2 18 1 19
REMARK H PARENT
REMARK Flexibility Score: inf
ROOT
ATOM      1  C   UNL     1     -10.430 -35.072 -29.506  1.00  0.00     0.000 C 
ENDROOT
BRANCH   1   2
ATOM      2  C   UNL     1      -9.457 -35.437 -28.368  1.00  0.00     0.000 C 
BRANCH   2   3
ATOM      3  C   UNL     1      -9.237 -36.946 -28.153  1.00  0.00     0.000 C 
BRANCH   3   4
ATOM      4  C   UNL     1     -10.438 -37.634 -27.481  1.00  0.00     0.000 C 
BRANCH   4   5
ATOM      5  C   UNL     1     -10.433 -37.468 -25.952  1.00  0.00     0.001 C 
BRANCH   5   6
ATOM      6  C   UNL     1     -11.850 -37.461 -25.351  1.00  0.00     0.009 C 
BRANCH   6   7
ATOM      7  C   UNL     1     -11.995 -36.423 -24.219  1.00  0.00     0.032 C 
ATOM      8  C   UNL     1     -11.190 -35.159 -24.538  1.00  0.00     0.014 C 
BRANCH   7   9
ATOM      9  C   UNL     1     -11.547 -36.988 -22.898  1.00  0.00     0.044 C 
ATOM     10  O   UNL     1     -12.312 -37.742 -22.241  1.00  0.00    -0.550 OA
ATOM     11  O   UNL     1     -10.290 -36.679 -22.390  1.00  0.00    -0.550 OA
ENDBRANCH   7   9
ENDBRANCH   6   7
ENDBRANCH   5   6
ENDBRANCH   4   5
ENDBRANCH   3   4
ENDBRANCH   2   3
ENDBRANCH   1   2
BRANCH   1  12
ATOM     12  C   UNL     1     -11.508 -34.034 -29.137  1.00  0.00     0.000 C 
BRANCH  12  13
ATOM     13  C   UNL     1     -12.383 -34.408 -27.924  1.00  0.00    -0.000 C 
BRANCH  13  14
ATOM     14  C   UNL     1     -13.813 -34.859 -28.271  1.00  0.00    -0.000 C 
BRANCH  14  15
ATOM     15  C   UNL     1     -14.058 -36.349 -27.973  1.00  0.00    -0.000 C 
BRANCH  15  16
ATOM     16  C   UNL     1     -13.744 -37.245 -29.190  1.00  0.00    -0.000 C 
BRANCH  16  17
ATOM     17  C   UNL     1     -13.937 -36.535 -30.542  1.00  0.00    -0.000 C 
BRANCH  17  18
ATOM     18  C   UNL     1     -12.856 -36.901 -31.567  1.00  0.00    -0.003 C 
ATOM     19  C   UNL     1     -11.970 -38.032 -31.052  1.00  0.00     0.004 C 
ENDBRANCH  17  18
ENDBRANCH  16  17
ENDBRANCH  15  16
ENDBRANCH  14  15
ENDBRANCH  13  14
ENDBRANCH  12  13
ENDBRANCH   1  12
TORSDOF 14
ENDMDL
MODEL 4
REMARK VINA RESULT:    -4.066     14.769     17.940
REMARK INTER + INTRA:          -9.797
REMARK INTER:                  -8.617
REMARK INTRA:                  -1.180
REMARK UNBOUND:                -2.403
REMARK SMILES CCCCCCCCCCCCCC[C@H](C)C(=O)[O-]
REMARK SMILES IDX 9 1 10 2 11 3 12 4 13 5 14 6 15 7 16 8 17 9 18 10 19 11 8 12
REMARK SMILES IDX 7 13 6 14 5 15 4 16 3 17 2 18 1 19
REMARK H PARENT
REMARK Flexibility Score: inf
ROOT
ATOM      1  C   UNL     1     -19.655 -26.223 -19.769  1.00  0.00     0.000 C 
ENDROOT
BRANCH   1   2
ATOM      2  C   UNL     1     -18.495 -26.043 -18.770  1.00  0.00     0.000 C 
BRANCH   2   3
ATOM      3  C   UNL     1     -18.320 -27.189 -17.756  1.00  0.00     0.000 C 
BRANCH   3   4
ATOM      4  C   UNL     1     -17.436 -26.797 -16.560  1.00  0.00     0.000 C 
BRANCH   4   5
ATOM      5  C   UNL     1     -16.288 -25.856 -16.958  1.00  0.00     0.001 C 
BRANCH   5   6
ATOM      6  C   UNL     1     -14.900 -26.486 -16.740  1.00  0.00     0.009 C 
BRANCH   6   7
ATOM      7  C   UNL     1     -14.129 -26.663 -18.064  1.00  0.00     0.032 C 
ATOM      8  C   UNL     1     -14.858 -27.644 -18.989  1.00  0.00     0.014 C 
BRANCH   7   9
ATOM      9  C   UNL     1     -12.725 -27.147 -17.820  1.00  0.00     0.044 C 
ATOM     10  O   UNL     1     -11.743 -26.463 -18.213  1.00  0.00    -0.550 OA
ATOM     11  O   UNL     1     -12.501 -28.351 -17.164  1.00  0.00    -0.550 OA
ENDBRANCH   7   9
ENDBRANCH   6   7
ENDBRANCH   5   6
ENDBRANCH   4   5
ENDBRANCH   3   4
ENDBRANCH   2   3
ENDBRANCH   1   2
BRANCH   1  12
ATOM     12  C   UNL     1     -21.066 -26.163 -19.150  1.00  0.00     0.000 C 
BRANCH  12  13
ATOM     13  C   UNL     1     -21.310 -24.973 -18.201  1.00  0.00    -0.000 C 
BRANCH  13  14
ATOM     14  C   UNL     1     -21.675 -25.360 -16.757  1.00  0.00    -0.000 C 
BRANCH  14  15
ATOM     15  C   UNL     1     -23.190 -25.545 -16.553  1.00  0.00    -0.000 C 
BRANCH  15  16
ATOM     16  C   UNL     1     -24.017 -24.690 -17.537  1.00  0.00    -0.000 C 
BRANCH  16  17
ATOM     17  C   UNL     1     -25.072 -25.496 -18.314  1.00  0.00    -0.000 C 
BRANCH  17  18
ATOM     18  C   UNL     1     -26.429 -24.785 -18.391  1.00  0.00    -0.003 C 
ATOM     19  C   UNL     1     -26.605 -23.810 -17.231  1.00  0.00     0.004 C 
ENDBRANCH  17  18
ENDBRANCH  16  17
ENDBRANCH  15  16
ENDBRANCH  14  15
ENDBRANCH  13  14
ENDBRANCH  12  13
ENDBRANCH   1  12
TORSDOF 14
ENDMDL
MODEL 5
REMARK VINA RESULT:    -4.056      2.636      4.579
REMARK INTER + INTRA:          -9.779
REMARK INTER:                  -7.695
REMARK INTRA:                  -2.085
REMARK UNBOUND:                -2.403
REMARK SMILES CCCCCCCCCCCCCC[C@H](C)C(=O)[O-]
REMARK SMILES IDX 9 1 10 2 11 3 12 4 13 5 14 6 15 7 16 8 17 9 18 10 19 11 8 12
REMARK SMILES IDX 7 13 6 14 5 15 4 16 3 17 2 18 1 19
REMARK H PARENT
REMARK Flexibility Score: inf
ROOT
ATOM      1  C   UNL     1     -15.445 -34.606 -28.775  1.00  0.00     0.000 C 
ENDROOT
BRANCH   1   2
ATOM      2  C   UNL     1     -15.382 -35.790 -29.760  1.00  0.00     0.000 C 
BRANCH   2   3
ATOM      3  C   UNL     1     -14.501 -35.561 -31.003  1.00  0.00     0.000 C 
BRANCH   3   4
ATOM      4  C   UNL     1     -13.525 -36.721 -31.265  1.00  0.00     0.000 C 
BRANCH   4   5
ATOM      5  C   UNL     1     -12.093 -36.401 -30.804  1.00  0.00     0.001 C 
BRANCH   5   6
ATOM      6  C   UNL     1     -11.872 -36.690 -29.309  1.00  0.00     0.009 C 
BRANCH   6   7
ATOM      7  C   UNL     1     -11.265 -35.481 -28.568  1.00  0.00     0.032 C 
ATOM      8  C   UNL     1     -11.761 -34.167 -29.181  1.00  0.00     0.014 C 
BRANCH   7   9
ATOM      9  C   UNL     1      -9.761 -35.517 -28.599  1.00  0.00     0.044 C 
ATOM     10  O   UNL     1      -9.132 -34.897 -29.497  1.00  0.00    -0.550 OA
ATOM     11  O   UNL     1      -9.055 -36.236 -27.642  1.00  0.00    -0.550 OA
ENDBRANCH   7   9
ENDBRANCH   6   7
ENDBRANCH   5   6
ENDBRANCH   4   5
ENDBRANCH   3   4
ENDBRANCH   2   3
ENDBRANCH   1   2
BRANCH   1  12
ATOM     12  C   UNL     1     -14.980 -34.924 -27.340  1.00  0.00     0.000 C 
BRANCH  12  13
ATOM     13  C   UNL     1     -15.348 -36.332 -26.834  1.00  0.00    -0.000 C 
BRANCH  13  14
ATOM     14  C   UNL     1     -14.156 -37.288 -26.653  1.00  0.00    -0.000 C 
BRANCH  14  15
ATOM     15  C   UNL     1     -13.833 -37.567 -25.174  1.00  0.00    -0.000 C 
BRANCH  15  16
ATOM     16  C   UNL     1     -12.315 -37.671 -24.920  1.00  0.00    -0.000 C 
BRANCH  16  17
ATOM     17  C   UNL     1     -11.891 -37.194 -23.520  1.00  0.00    -0.000 C 
BRANCH  17  18
ATOM     18  C   UNL     1     -11.409 -35.738 -23.506  1.00  0.00    -0.003 C 
ATOM     19  C   UNL     1     -11.126 -35.239 -24.920  1.00  0.00     0.004 C 
ENDBRANCH  17  18
ENDBRANCH  16  17
ENDBRANCH  15  16
ENDBRANCH  14  15
ENDBRANCH  13  14
ENDBRANCH  12  13
ENDBRANCH   1  12
TORSDOF 14
ENDMDL
MODEL 6
REMARK VINA RESULT:    -4.053      1.429      3.473
REMARK INTER + INTRA:          -9.774
REMARK INTER:                  -7.462
REMARK INTRA:                  -2.312
REMARK UNBOUND:                -2.403
REMARK SMILES CCCCCCCCCCCCCC[C@H](C)C(=O)[O-]
REMARK SMILES IDX 9 1 10 2 11 3 12 4 13 5 14 6 15 7 16 8 17 9 18 10 19 11 8 12
REMARK SMILES IDX 7 13 6 14 5 15 4 16 3 17 2 18 1 19
REMARK H PARENT
REMARK Flexibility Score: inf
ROOT
ATOM      1  C   UNL     1     -13.210 -34.236 -27.250  1.00  0.00     0.000 C 
ENDROOT
BRANCH   1   2
ATOM      2  C   UNL     1     -12.191 -34.167 -28.404  1.00  0.00     0.000 C 
BRANCH   2   3
ATOM      3  C   UNL     1     -11.085 -35.238 -28.366  1.00  0.00     0.000 C 
BRANCH   3   4
ATOM      4  C   UNL     1     -10.181 -35.207 -29.610  1.00  0.00     0.000 C 
BRANCH   4   5
ATOM      5  C   UNL     1     -10.115 -36.567 -30.325  1.00  0.00     0.001 C 
BRANCH   5   6
ATOM      6  C   UNL     1     -11.275 -37.500 -29.934  1.00  0.00     0.009 C 
BRANCH   6   7
ATOM      7  C   UNL     1     -12.293 -37.672 -31.080  1.00  0.00     0.032 C 
ATOM      8  C   UNL     1     -11.731 -37.114 -32.392  1.00  0.00     0.014 C 
BRANCH   7   9
ATOM      9  C   UNL     1     -13.597 -36.992 -30.760  1.00  0.00     0.044 C 
ATOM     10  O   UNL     1     -14.530 -37.638 -30.212  1.00  0.00    -0.550 OA
ATOM     11  O   UNL     1     -13.785 -35.650 -31.068  1.00  0.00    -0.550 OA
ENDBRANCH   7   9
ENDBRANCH   6   7
ENDBRANCH   5   6
ENDBRANCH   4   5
ENDBRANCH   3   4
ENDBRANCH   2   3
ENDBRANCH   1   2
BRANCH   1  12
ATOM     12  C   UNL     1     -14.628 -34.685 -27.654  1.00  0.00     0.000 C 
BRANCH  12  13
ATOM     13  C   UNL     1     -15.059 -36.057 -27.098  1.00  0.00    -0.000 C 
BRANCH  13  14
ATOM     14  C   UNL     1     -13.900 -36.996 -26.719  1.00  0.00    -0.000 C 
BRANCH  14  15
ATOM     15  C   UNL     1     -14.124 -37.710 -25.375  1.00  0.00    -0.000 C 
BRANCH  15  16
ATOM     16  C   UNL     1     -12.800 -37.977 -24.630  1.00  0.00    -0.000 C 
BRANCH  16  17
ATOM     17  C   UNL     1     -11.557 -37.473 -25.385  1.00  0.00    -0.000 C 
BRANCH  17  18
ATOM     18  C   UNL     1     -10.711 -36.497 -24.558  1.00  0.00    -0.003 C 
ATOM     19  C   UNL     1     -11.455 -35.185 -24.324  1.00  0.00     0.004 C 
ENDBRANCH  17  18
ENDBRANCH  16  17
ENDBRANCH  15  16
ENDBRANCH  14  15
ENDBRANCH  13  14
ENDBRANCH  12  13
ENDBRANCH   1  12
TORSDOF 14
ENDMDL
MODEL 7
REMARK VINA RESULT:    -4.009      1.452      3.015
REMARK INTER + INTRA:          -9.693
REMARK INTER:                  -6.874
REMARK INTRA:                  -2.819
REMARK UNBOUND:                -2.403
REMARK SMILES CCCCCCCCCCCCCC[C@H](C)C(=O)[O-]
REMARK SMILES IDX 9 1 10 2 11 3 12 4 13 5 14 6 15 7 16 8 17 9 18 10 19 11 8 12
REMARK SMILES IDX 7 13 6 14 5 15 4 16 3 17 2 18 1 19
REMARK H PARENT
REMARK Flexibility Score: inf
ROOT
ATOM      1  C   UNL     1     -12.517 -33.996 -27.799  1.00  0.00     0.000 C 
ENDROOT
BRANCH   1   2
ATOM      2  C   UNL     1     -13.991 -34.397 -27.594  1.00  0.00     0.000 C 
BRANCH   2   3
ATOM      3  C   UNL     1     -14.212 -35.674 -26.762  1.00  0.00     0.000 C 
BRANCH   3   4
ATOM      4  C   UNL     1     -14.857 -36.811 -27.573  1.00  0.00     0.000 C 
BRANCH   4   5
ATOM      5  C   UNL     1     -13.841 -37.555 -28.456  1.00  0.00     0.001 C 
BRANCH   5   6
ATOM      6  C   UNL     1     -14.121 -37.381 -29.959  1.00  0.00     0.009 C 
BRANCH   6   7
ATOM      7  C   UNL     1     -15.434 -36.615 -30.220  1.00  0.00     0.032 C 
ATOM      8  C   UNL     1     -16.440 -37.501 -30.963  1.00  0.00     0.014 C 
BRANCH   7   9
ATOM      9  C   UNL     1     -15.188 -35.358 -31.010  1.00  0.00     0.044 C 
ATOM     10  O   UNL     1     -14.191 -35.278 -31.776  1.00  0.00    -0.550 OA
ATOM     11  O   UNL     1     -16.054 -34.276 -30.899  1.00  0.00    -0.550 OA
ENDBRANCH   7   9
ENDBRANCH   6   7
ENDBRANCH   5   6
ENDBRANCH   4   5
ENDBRANCH   3   4
ENDBRANCH   2   3
ENDBRANCH   1   2
BRANCH   1  12
ATOM     12  C   UNL     1     -11.925 -34.360 -29.175  1.00  0.00     0.000 C 
BRANCH  12  13
ATOM     13  C   UNL     1     -10.522 -34.998 -29.133  1.00  0.00    -0.000 C 
BRANCH  13  14
ATOM     14  C   UNL     1     -10.458 -36.455 -29.624  1.00  0.00    -0.000 C 
BRANCH  14  15
ATOM     15  C   UNL     1     -10.137 -37.452 -28.498  1.00  0.00    -0.000 C 
BRANCH  15  16
ATOM     16  C   UNL     1      -9.991 -36.756 -27.129  1.00  0.00    -0.000 C 
BRANCH  16  17
ATOM     17  C   UNL     1     -10.999 -37.251 -26.076  1.00  0.00    -0.000 C 
BRANCH  17  18
ATOM     18  C   UNL     1     -10.763 -36.638 -24.690  1.00  0.00    -0.003 C 
ATOM     19  C   UNL     1     -11.138 -35.159 -24.671  1.00  0.00     0.004 C 
ENDBRANCH  17  18
ENDBRANCH  16  17
ENDBRANCH  15  16
ENDBRANCH  14  15
ENDBRANCH  13  14
ENDBRANCH  12  13
ENDBRANCH   1  12
TORSDOF 14
ENDMDL
MODEL 8
REMARK VINA RESULT:    -3.958      1.015      2.302
REMARK INTER + INTRA:          -9.602
REMARK INTER:                  -6.886
REMARK INTRA:                  -2.716
REMARK UNBOUND:                -2.403
REMARK SMILES CCCCCCCCCCCCCC[C@H](C)C(=O)[O-]
REMARK SMILES IDX 9 1 10 2 11 3 12 4 13 5 14 6 15 7 16 8 17 9 18 10 19 11 8 12
REMARK SMILES IDX 7 13 6 14 5 15 4 16 3 17 2 18 1 19
REMARK H PARENT
REMARK Flexibility Score: inf
ROOT
ATOM      1  C   UNL     1     -14.593 -34.732 -28.002  1.00  0.00     0.000 C 
ENDROOT
BRANCH   1   2
ATOM      2  C   UNL     1     -15.262 -36.106 -27.804  1.00  0.00     0.000 C 
BRANCH   2   3
ATOM      3  C   UNL     1     -14.516 -37.066 -26.858  1.00  0.00     0.000 C 
BRANCH   3   4
ATOM      4  C   UNL     1     -13.658 -38.098 -27.610  1.00  0.00     0.000 C 
BRANCH   4   5
ATOM      5  C   UNL     1     -13.913 -38.083 -29.127  1.00  0.00     0.001 C 
BRANCH   5   6
ATOM      6  C   UNL     1     -12.655 -37.721 -29.937  1.00  0.00     0.009 C 
BRANCH   6   7
ATOM      7  C   UNL     1     -12.943 -37.640 -31.450  1.00  0.00     0.032 C 
ATOM      8  C   UNL     1     -11.712 -37.131 -32.209  1.00  0.00     0.014 C 
BRANCH   7   9
ATOM      9  C   UNL     1     -14.118 -36.745 -31.737  1.00  0.00     0.044 C 
ATOM     10  O   UNL     1     -15.168 -37.222 -32.244  1.00  0.00    -0.550 OA
ATOM     11  O   UNL     1     -14.055 -35.387 -31.448  1.00  0.00    -0.550 OA
ENDBRANCH   7   9
ENDBRANCH   6   7
ENDBRANCH   5   6
ENDBRANCH   4   5
ENDBRANCH   3   4
ENDBRANCH   2   3
ENDBRANCH   1   2
BRANCH   1  12
ATOM     12  C   UNL     1     -13.547 -34.353 -26.936  1.00  0.00     0.000 C 
BRANCH  12  13
ATOM     13  C   UNL     1     -12.149 -34.011 -27.488  1.00  0.00    -0.000 C 
BRANCH  13  14
ATOM     14  C   UNL     1     -11.940 -34.347 -28.975  1.00  0.00    -0.000 C 
BRANCH  14  15
ATOM     15  C   UNL     1     -10.516 -34.843 -29.281  1.00  0.00    -0.000 C 
BRANCH  15  16
ATOM     16  C   UNL     1      -9.840 -35.469 -28.044  1.00  0.00    -0.000 C 
BRANCH  16  17
ATOM     17  C   UNL     1      -9.594 -36.983 -28.177  1.00  0.00    -0.000 C 
BRANCH  17  18
ATOM     18  C   UNL     1      -9.828 -37.743 -26.865  1.00  0.00    -0.003 C 
ATOM     19  C   UNL     1     -10.597 -36.887 -25.863  1.00  0.00     0.004 C 
ENDBRANCH  17  18
ENDBRANCH  16  17
ENDBRANCH  15  16
ENDBRANCH  14  15
ENDBRANCH  13  14
ENDBRANCH  12  13
ENDBRANCH   1  12
TORSDOF 14
ENDMDL
MODEL 9
REMARK VINA RESULT:    -3.863     18.268     20.623
REMARK INTER + INTRA:          -9.428
REMARK INTER:                  -6.566
REMARK INTRA:                  -2.862
REMARK UNBOUND:                -2.403
REMARK SMILES CCCCCCCCCCCCCC[C@H](C)C(=O)[O-]
REMARK SMILES IDX 9 1 10 2 11 3 12 4 13 5 14 6 15 7 16 8 17 9 18 10 19 11 8 12
REMARK SMILES IDX 7 13 6 14 5 15 4 16 3 17 2 18 1 19
REMARK H PARENT
REMARK Flexibility Score: inf
ROOT
ATOM      1  C   UNL     1     -25.471 -19.008 -31.537  1.00  0.00     0.000 C 
ENDROOT
BRANCH   1   2
ATOM      2  C   UNL     1     -26.332 -19.438 -32.741  1.00  0.00     0.000 C 
BRANCH   2   3
ATOM      3  C   UNL     1     -27.350 -20.557 -32.450  1.00  0.00     0.000 C 
BRANCH   3   4
ATOM      4  C   UNL     1     -27.015 -21.871 -33.176  1.00  0.00     0.000 C 
BRANCH   4   5
ATOM      5  C   UNL     1     -26.146 -21.649 -34.425  1.00  0.00     0.001 C 
BRANCH   5   6
ATOM      6  C   UNL     1     -24.975 -22.644 -34.518  1.00  0.00     0.009 C 
BRANCH   6   7
ATOM      7  C   UNL     1     -23.684 -22.080 -33.890  1.00  0.00     0.032 C 
ATOM      8  C   UNL     1     -23.197 -20.851 -34.665  1.00  0.00     0.014 C 
BRANCH   7   9
ATOM      9  C   UNL     1     -22.594 -23.117 -33.852  1.00  0.00     0.044 C 
ATOM     10  O   UNL     1     -22.881 -24.329 -33.660  1.00  0.00    -0.550 OA
ATOM     11  O   UNL     1     -21.265 -22.748 -34.024  1.00  0.00    -0.550 OA
ENDBRANCH   7   9
ENDBRANCH   6   7
ENDBRANCH   5   6
ENDBRANCH   4   5
ENDBRANCH   3   4
ENDBRANCH   2   3
ENDBRANCH   1   2
BRANCH   1  12
ATOM     12  C   UNL     1     -24.234 -19.889 -31.270  1.00  0.00     0.000 C 
BRANCH  12  13
ATOM     13  C   UNL     1     -24.329 -20.782 -30.018  1.00  0.00    -0.000 C 
BRANCH  13  14
ATOM     14  C   UNL     1     -24.722 -22.244 -30.293  1.00  0.00    -0.000 C 
BRANCH  14  15
ATOM     15  C   UNL     1     -26.072 -22.629 -29.662  1.00  0.00    -0.000 C 
BRANCH  15  16
ATOM     16  C   UNL     1     -26.493 -21.649 -28.547  1.00  0.00    -0.000 C 
BRANCH  16  17
ATOM     17  C   UNL     1     -27.849 -20.968 -28.805  1.00  0.00    -0.000 C 
BRANCH  17  18
ATOM     18  C   UNL     1     -27.894 -19.519 -28.303  1.00  0.00    -0.003 C 
ATOM     19  C   UNL     1     -28.435 -18.581 -29.378  1.00  0.00     0.004 C 
ENDBRANCH  17  18
ENDBRANCH  16  17
ENDBRANCH  15  16
ENDBRANCH  14  15
ENDBRANCH  13  14
ENDBRANCH  12  13
ENDBRANCH   1  12
TORSDOF 14
ENDMDL
