MODEL 1
REMARK VINA RESULT:    -7.862      0.000      0.000
REMARK INTER + INTRA:         -12.893
REMARK INTER:                 -11.538
REMARK INTRA:                  -1.355
REMARK UNBOUND:                -1.355
REMARK SMILES O=c1c(O[C@H]2O[C@H](CO)[C@H](O)[C@@H](O)[C@H]2O)c(-c2ccc(O)c(O)c2)oc2cc(O)cc(O)c12
REMARK SMILES IDX 4 1 3 2 16 3 25 4 2 5 26 6 1 7 33 8 27 9 31 10 28 11 30 12
REMARK SMILES IDX 17 13 18 14 19 15 20 16 24 17 22 18 21 19 23 21 32 23 29 25
REMARK SMILES IDX 5 27 14 28 6 29 12 30 7 31 10 32 15 33 13 35 8 37 9 38 11 40
REMARK H PARENT 21 20 23 22 32 24 29 26 15 34 13 36 9 39 11 41
REMARK Flexibility Score: inf
ROOT
ATOM      1  O   UNL     1     -13.763  41.895  30.954  1.00  0.00    -0.454 OA
ENDROOT
BRANCH   1   2
ATOM      2  C   UNL     1     -14.357  40.864  30.195  1.00  0.00     0.214 A 
ATOM      3  C   UNL     1     -15.762  40.783  30.176  1.00  0.00     0.180 A 
ATOM      4  O   UNL     1     -16.367  39.793  29.534  1.00  0.00    -0.452 OA
ATOM      5  C   UNL     1     -13.622  39.892  29.474  1.00  0.00     0.239 A 
ATOM      6  C   UNL     1     -15.718  38.841  28.879  1.00  0.00     0.146 A 
ATOM      7  O   UNL     1     -12.375  40.008  29.365  1.00  0.00    -0.285 OA
ATOM      8  C   UNL     1     -14.301  38.822  28.840  1.00  0.00     0.111 A 
ATOM      9  C   UNL     1     -16.462  37.865  28.212  1.00  0.00     0.094 A 
ATOM     10  C   UNL     1     -13.655  37.754  28.145  1.00  0.00     0.134 A 
ATOM     11  C   UNL     1     -15.821  36.862  27.484  1.00  0.00     0.123 A 
ATOM     12  C   UNL     1     -14.428  36.816  27.449  1.00  0.00     0.093 A 
BRANCH   3  13
ATOM     13  C   UNL     1     -16.608  41.782  30.861  1.00  0.00     0.025 A 
ATOM     14  C   UNL     1     -17.432  41.382  31.923  1.00  0.00     0.016 A 
ATOM     15  C   UNL     1     -18.255  42.311  32.565  1.00  0.00     0.051 A 
ATOM     16  C   UNL     1     -18.277  43.647  32.143  1.00  0.00     0.157 A 
ATOM     17  C   UNL     1     -16.649  43.116  30.424  1.00  0.00     0.062 A 
ATOM     18  C   UNL     1     -17.473  44.050  31.064  1.00  0.00     0.158 A 
BRANCH  16  19
ATOM     19  O   UNL     1     -19.097  44.572  32.787  1.00  0.00    -0.504 OA
ATOM     20  H   UNL     1     -19.260  44.531  33.786  1.00  0.00     0.293 HD
ENDBRANCH  16  19
BRANCH  18  21
ATOM     21  O   UNL     1     -17.482  45.368  30.610  1.00  0.00    -0.504 OA
ATOM     22  H   UNL     1     -17.245  46.147  31.212  1.00  0.00     0.293 HD
ENDBRANCH  18  21
ENDBRANCH   3  13
BRANCH  10  23
ATOM     23  O   UNL     1     -12.272  37.552  28.135  1.00  0.00    -0.507 OA
ATOM     24  H   UNL     1     -11.585  38.290  28.099  1.00  0.00     0.293 HD
ENDBRANCH  10  23
BRANCH  11  25
ATOM     25  O   UNL     1     -16.558  35.900  26.796  1.00  0.00    -0.508 OA
ATOM     26  H   UNL     1     -17.422  36.134  26.322  1.00  0.00     0.293 HD
ENDBRANCH  11  25
ENDBRANCH   1   2
BRANCH   1  27
ATOM     27  C   UNL     1     -12.902  41.747  32.089  1.00  0.00     0.339 C 
ATOM     28  C   UNL     1     -13.182  42.849  33.137  1.00  0.00     0.214 C 
ATOM     29  O   UNL     1     -11.535  41.737  31.706  1.00  0.00    -0.332 OA
ATOM     30  C   UNL     1     -12.689  44.224  32.657  1.00  0.00     0.180 C 
ATOM     31  C   UNL     1     -11.154  42.964  31.105  1.00  0.00     0.179 C 
ATOM     32  C   UNL     1     -11.244  44.118  32.128  1.00  0.00     0.177 C 
BRANCH  28  33
ATOM     33  O   UNL     1     -14.556  42.913  33.426  1.00  0.00    -0.384 OA
ATOM     34  H   UNL     1     -14.694  43.721  33.987  1.00  0.00     0.211 HD
ENDBRANCH  28  33
BRANCH  30  35
ATOM     35  O   UNL     1     -13.538  44.713  31.651  1.00  0.00    -0.387 OA
ATOM     36  H   UNL     1     -13.154  45.575  31.343  1.00  0.00     0.211 HD
ENDBRANCH  30  35
BRANCH  31  37
ATOM     37  C   UNL     1      -9.731  42.813  30.545  1.00  0.00     0.191 C 
BRANCH  37  38
ATOM     38  O   UNL     1      -9.070  44.050  30.506  1.00  0.00    -0.394 OA
ATOM     39  H   UNL     1      -9.650  44.697  30.986  1.00  0.00     0.210 HD
ENDBRANCH  37  38
ENDBRANCH  31  37
BRANCH  32  40
ATOM     40  O   UNL     1     -10.361  43.878  33.195  1.00  0.00    -0.387 OA
ATOM     41  H   UNL     1      -9.565  44.452  33.044  1.00  0.00     0.211 HD
ENDBRANCH  32  40
ENDBRANCH   1  27
TORSDOF 12
ENDMDL
MODEL 2
REMARK VINA RESULT:    -7.861      1.996      6.065
REMARK INTER + INTRA:         -12.893
REMARK INTER:                 -10.877
REMARK INTRA:                  -2.015
REMARK UNBOUND:                -1.355
REMARK SMILES O=c1c(O[C@H]2O[C@H](CO)[C@H](O)[C@@H](O)[C@H]2O)c(-c2ccc(O)c(O)c2)oc2cc(O)cc(O)c12
REMARK SMILES IDX 4 1 3 2 16 3 25 4 2 5 26 6 1 7 33 8 27 9 31 10 28 11 30 12
REMARK SMILES IDX 17 13 18 14 19 15 20 16 24 17 22 18 21 19 23 21 32 23 29 25
REMARK SMILES IDX 5 27 14 28 6 29 12 30 7 31 10 32 15 33 13 35 8 37 9 38 11 40
REMARK H PARENT 21 20 23 22 32 24 29 26 15 34 13 36 9 39 11 41
REMARK Flexibility Score: inf
ROOT
ATOM      1  O   UNL     1     -13.345  41.877  30.677  1.00  0.00    -0.454 OA
ENDROOT
BRANCH   1   2
ATOM      2  C   UNL     1     -14.614  42.308  31.121  1.00  0.00     0.214 A 
ATOM      3  C   UNL     1     -15.742  41.921  30.373  1.00  0.00     0.180 A 
ATOM      4  O   UNL     1     -16.949  42.356  30.708  1.00  0.00    -0.452 OA
ATOM      5  C   UNL     1     -14.816  43.126  32.258  1.00  0.00     0.239 A 
ATOM      6  C   UNL     1     -17.179  43.153  31.742  1.00  0.00     0.146 A 
ATOM      7  O   UNL     1     -13.849  43.383  33.019  1.00  0.00    -0.285 OA
ATOM      8  C   UNL     1     -16.113  43.610  32.558  1.00  0.00     0.111 A 
ATOM      9  C   UNL     1     -18.497  43.522  32.019  1.00  0.00     0.094 A 
ATOM     10  C   UNL     1     -16.417  44.492  33.639  1.00  0.00     0.134 A 
ATOM     11  C   UNL     1     -18.788  44.334  33.115  1.00  0.00     0.123 A 
ATOM     12  C   UNL     1     -17.753  44.807  33.920  1.00  0.00     0.093 A 
BRANCH   3  13
ATOM     13  C   UNL     1     -15.629  41.031  29.199  1.00  0.00     0.025 A 
ATOM     14  C   UNL     1     -15.869  39.657  29.344  1.00  0.00     0.016 A 
ATOM     15  C   UNL     1     -15.744  38.800  28.248  1.00  0.00     0.051 A 
ATOM     16  C   UNL     1     -15.361  39.303  26.997  1.00  0.00     0.157 A 
ATOM     17  C   UNL     1     -15.223  41.529  27.950  1.00  0.00     0.062 A 
ATOM     18  C   UNL     1     -15.094  40.674  26.850  1.00  0.00     0.158 A 
BRANCH  16  19
ATOM     19  O   UNL     1     -15.239  38.446  25.904  1.00  0.00    -0.504 OA
ATOM     20  H   UNL     1     -15.605  38.694  24.992  1.00  0.00     0.293 HD
ENDBRANCH  16  19
BRANCH  18  21
ATOM     21  O   UNL     1     -14.697  41.204  25.623  1.00  0.00    -0.504 OA
ATOM     22  H   UNL     1     -13.836  41.728  25.515  1.00  0.00     0.293 HD
ENDBRANCH  18  21
ENDBRANCH   3  13
BRANCH  10  23
ATOM     23  O   UNL     1     -15.450  45.107  34.440  1.00  0.00    -0.507 OA
ATOM     24  H   UNL     1     -14.455  44.986  34.334  1.00  0.00     0.293 HD
ENDBRANCH  10  23
BRANCH  11  25
ATOM     25  O   UNL     1     -20.104  44.684  33.411  1.00  0.00    -0.508 OA
ATOM     26  H   UNL     1     -20.357  45.086  34.307  1.00  0.00     0.293 HD
ENDBRANCH  11  25
ENDBRANCH   1   2
BRANCH   1  27
ATOM     27  C   UNL     1     -12.659  40.678  31.053  1.00  0.00     0.339 C 
ATOM     28  C   UNL     1     -11.309  41.008  31.731  1.00  0.00     0.214 C 
ATOM     29  O   UNL     1     -12.478  39.812  29.942  1.00  0.00    -0.332 OA
ATOM     30  C   UNL     1     -10.285  41.547  30.718  1.00  0.00     0.180 C 
ATOM     31  C   UNL     1     -11.667  40.410  28.943  1.00  0.00     0.179 C 
ATOM     32  C   UNL     1     -10.234  40.635  29.474  1.00  0.00     0.177 C 
BRANCH  28  33
ATOM     33  O   UNL     1     -11.494  41.946  32.761  1.00  0.00    -0.384 OA
ATOM     34  H   UNL     1     -11.840  42.774  32.336  1.00  0.00     0.211 HD
ENDBRANCH  28  33
BRANCH  30  35
ATOM     35  O   UNL     1     -10.624  42.857  30.345  1.00  0.00    -0.387 OA
ATOM     36  H   UNL     1     -10.880  42.827  29.385  1.00  0.00     0.211 HD
ENDBRANCH  30  35
BRANCH  31  37
ATOM     37  C   UNL     1     -11.676  39.505  27.701  1.00  0.00     0.191 C 
BRANCH  37  38
ATOM     38  O   UNL     1     -11.958  38.175  28.047  1.00  0.00    -0.394 OA
ATOM     39  H   UNL     1     -12.845  37.963  27.654  1.00  0.00     0.210 HD
ENDBRANCH  37  38
ENDBRANCH  31  37
BRANCH  32  40
ATOM     40  O   UNL     1      -9.651  39.401  29.810  1.00  0.00    -0.387 OA
ATOM     41  H   UNL     1      -9.852  39.239  30.768  1.00  0.00     0.211 HD
ENDBRANCH  32  40
ENDBRANCH   1  27
TORSDOF 12
ENDMDL
MODEL 3
REMARK VINA RESULT:    -7.716      2.277      6.183
REMARK INTER + INTRA:         -12.679
REMARK INTER:                 -11.276
REMARK INTRA:                  -1.403
REMARK UNBOUND:                -1.355
REMARK SMILES O=c1c(O[C@H]2O[C@H](CO)[C@H](O)[C@@H](O)[C@H]2O)c(-c2ccc(O)c(O)c2)oc2cc(O)cc(O)c12
REMARK SMILES IDX 4 1 3 2 16 3 25 4 2 5 26 6 1 7 33 8 27 9 31 10 28 11 30 12
REMARK SMILES IDX 17 13 18 14 19 15 20 16 24 17 22 18 21 19 23 21 32 23 29 25
REMARK SMILES IDX 5 27 14 28 6 29 12 30 7 31 10 32 15 33 13 35 8 37 9 38 11 40
REMARK H PARENT 21 20 23 22 32 24 29 26 15 34 13 36 9 39 11 41
REMARK Flexibility Score: inf
ROOT
ATOM      1  O   UNL     1     -15.164  42.111  30.507  1.00  0.00    -0.454 OA
ENDROOT
BRANCH   1   2
ATOM      2  C   UNL     1     -14.068  42.454  29.685  1.00  0.00     0.214 A 
ATOM      3  C   UNL     1     -13.753  41.598  28.614  1.00  0.00     0.180 A 
ATOM      4  O   UNL     1     -12.692  41.837  27.855  1.00  0.00    -0.452 OA
ATOM      5  C   UNL     1     -13.253  43.592  29.892  1.00  0.00     0.239 A 
ATOM      6  C   UNL     1     -11.881  42.870  28.036  1.00  0.00     0.146 A 
ATOM      7  O   UNL     1     -13.581  44.444  30.758  1.00  0.00    -0.285 OA
ATOM      8  C   UNL     1     -12.101  43.791  29.091  1.00  0.00     0.111 A 
ATOM      9  C   UNL     1     -10.812  43.040  27.153  1.00  0.00     0.094 A 
ATOM     10  C   UNL     1     -11.177  44.866  29.257  1.00  0.00     0.134 A 
ATOM     11  C   UNL     1      -9.951  44.130  27.288  1.00  0.00     0.123 A 
ATOM     12  C   UNL     1     -10.141  45.037  28.330  1.00  0.00     0.093 A 
BRANCH   3  13
ATOM     13  C   UNL     1     -14.577  40.413  28.296  1.00  0.00     0.025 A 
ATOM     14  C   UNL     1     -14.317  39.194  28.939  1.00  0.00     0.016 A 
ATOM     15  C   UNL     1     -15.072  38.059  28.632  1.00  0.00     0.051 A 
ATOM     16  C   UNL     1     -16.086  38.125  27.666  1.00  0.00     0.157 A 
ATOM     17  C   UNL     1     -15.577  40.471  27.312  1.00  0.00     0.062 A 
ATOM     18  C   UNL     1     -16.335  39.336  27.000  1.00  0.00     0.158 A 
BRANCH  16  19
ATOM     19  O   UNL     1     -16.840  36.993  27.363  1.00  0.00    -0.504 OA
ATOM     20  H   UNL     1     -16.810  36.566  26.444  1.00  0.00     0.293 HD
ENDBRANCH  16  19
BRANCH  18  21
ATOM     21  O   UNL     1     -17.327  39.432  26.024  1.00  0.00    -0.504 OA
ATOM     22  H   UNL     1     -17.656  38.624  25.508  1.00  0.00     0.293 HD
ENDBRANCH  18  21
ENDBRANCH   3  13
BRANCH  10  23
ATOM     23  O   UNL     1     -11.211  45.767  30.326  1.00  0.00    -0.507 OA
ATOM     24  H   UNL     1     -11.861  46.534  30.409  1.00  0.00     0.293 HD
ENDBRANCH  10  23
BRANCH  11  25
ATOM     25  O   UNL     1      -8.898  44.319  26.396  1.00  0.00    -0.508 OA
ATOM     26  H   UNL     1      -9.009  44.871  25.553  1.00  0.00     0.293 HD
ENDBRANCH  11  25
ENDBRANCH   1   2
BRANCH   1  27
ATOM     27  C   UNL     1     -15.137  41.311  31.693  1.00  0.00     0.339 C 
ATOM     28  C   UNL     1     -16.530  40.699  31.974  1.00  0.00     0.214 C 
ATOM     29  O   UNL     1     -14.667  42.051  32.810  1.00  0.00    -0.332 OA
ATOM     30  C   UNL     1     -17.532  41.767  32.444  1.00  0.00     0.180 C 
ATOM     31  C   UNL     1     -15.526  43.139  33.112  1.00  0.00     0.179 C 
ATOM     32  C   UNL     1     -16.910  42.625  33.565  1.00  0.00     0.177 C 
BRANCH  28  33
ATOM     33  O   UNL     1     -17.025  40.059  30.825  1.00  0.00    -0.384 OA
ATOM     34  H   UNL     1     -17.606  39.317  31.137  1.00  0.00     0.211 HD
ENDBRANCH  28  33
BRANCH  30  35
ATOM     35  O   UNL     1     -17.907  42.580  31.363  1.00  0.00    -0.387 OA
ATOM     36  H   UNL     1     -18.306  43.405  31.746  1.00  0.00     0.211 HD
ENDBRANCH  30  35
BRANCH  31  37
ATOM     37  C   UNL     1     -14.860  44.002  34.194  1.00  0.00     0.191 C 
BRANCH  37  38
ATOM     38  O   UNL     1     -13.646  43.438  34.614  1.00  0.00    -0.394 OA
ATOM     39  H   UNL     1     -13.137  43.216  33.790  1.00  0.00     0.210 HD
ENDBRANCH  37  38
ENDBRANCH  31  37
BRANCH  32  40
ATOM     40  O   UNL     1     -16.774  41.857  34.734  1.00  0.00    -0.387 OA
ATOM     41  H   UNL     1     -15.800  41.776  34.912  1.00  0.00     0.211 HD
ENDBRANCH  32  40
ENDBRANCH   1  27
TORSDOF 12
ENDMDL
MODEL 4
REMARK VINA RESULT:    -7.635      2.455      5.283
REMARK INTER + INTRA:         -12.561
REMARK INTER:                 -10.802
REMARK INTRA:                  -1.759
REMARK UNBOUND:                -1.355
REMARK SMILES O=c1c(O[C@H]2O[C@H](CO)[C@H](O)[C@@H](O)[C@H]2O)c(-c2ccc(O)c(O)c2)oc2cc(O)cc(O)c12
REMARK SMILES IDX 4 1 3 2 16 3 25 4 2 5 26 6 1 7 33 8 27 9 31 10 28 11 30 12
REMARK SMILES IDX 17 13 18 14 19 15 20 16 24 17 22 18 21 19 23 21 32 23 29 25
REMARK SMILES IDX 5 27 14 28 6 29 12 30 7 31 10 32 15 33 13 35 8 37 9 38 11 40
REMARK H PARENT 21 20 23 22 32 24 29 26 15 34 13 36 9 39 11 41
REMARK Flexibility Score: inf
ROOT
ATOM      1  O   UNL     1     -15.034  41.935  30.234  1.00  0.00    -0.454 OA
ENDROOT
BRANCH   1   2
ATOM      2  C   UNL     1     -14.368  41.544  29.053  1.00  0.00     0.214 A 
ATOM      3  C   UNL     1     -12.984  41.783  28.965  1.00  0.00     0.180 A 
ATOM      4  O   UNL     1     -12.324  41.497  27.851  1.00  0.00    -0.452 OA
ATOM      5  C   UNL     1     -15.015  40.950  27.942  1.00  0.00     0.239 A 
ATOM      6  C   UNL     1     -12.897  40.975  26.775  1.00  0.00     0.146 A 
ATOM      7  O   UNL     1     -16.221  40.607  28.034  1.00  0.00    -0.285 OA
ATOM      8  C   UNL     1     -14.287  40.702  26.752  1.00  0.00     0.111 A 
ATOM      9  C   UNL     1     -12.095  40.686  25.668  1.00  0.00     0.094 A 
ATOM     10  C   UNL     1     -14.854  40.170  25.554  1.00  0.00     0.134 A 
ATOM     11  C   UNL     1     -12.650  40.108  24.526  1.00  0.00     0.123 A 
ATOM     12  C   UNL     1     -14.019  39.848  24.478  1.00  0.00     0.093 A 
BRANCH   3  13
ATOM     13  C   UNL     1     -12.220  42.356  30.093  1.00  0.00     0.025 A 
ATOM     14  C   UNL     1     -12.180  43.746  30.270  1.00  0.00     0.016 A 
ATOM     15  C   UNL     1     -11.443  44.303  31.317  1.00  0.00     0.051 A 
ATOM     16  C   UNL     1     -10.723  43.478  32.192  1.00  0.00     0.157 A 
ATOM     17  C   UNL     1     -11.479  41.532  30.956  1.00  0.00     0.062 A 
ATOM     18  C   UNL     1     -10.737  42.086  32.006  1.00  0.00     0.158 A 
BRANCH  16  19
ATOM     19  O   UNL     1      -9.990  44.036  33.239  1.00  0.00    -0.504 OA
ATOM     20  H   UNL     1     -10.319  44.853  33.740  1.00  0.00     0.293 HD
ENDBRANCH  16  19
BRANCH  18  21
ATOM     21  O   UNL     1     -10.021  41.238  32.849  1.00  0.00    -0.504 OA
ATOM     22  H   UNL     1      -9.729  40.311  32.561  1.00  0.00     0.293 HD
ENDBRANCH  18  21
ENDBRANCH   3  13
BRANCH  10  23
ATOM     23  O   UNL     1     -16.225  39.971  25.360  1.00  0.00    -0.507 OA
ATOM     24  H   UNL     1     -16.651  39.083  25.145  1.00  0.00     0.293 HD
ENDBRANCH  10  23
BRANCH  11  25
ATOM     25  O   UNL     1     -11.851  39.793  23.428  1.00  0.00    -0.508 OA
ATOM     26  H   UNL     1     -11.045  40.355  23.181  1.00  0.00     0.293 HD
ENDBRANCH  11  25
ENDBRANCH   1   2
BRANCH   1  27
ATOM     27  C   UNL     1     -15.014  41.266  31.500  1.00  0.00     0.339 C 
ATOM     28  C   UNL     1     -16.439  40.829  31.912  1.00  0.00     0.214 C 
ATOM     29  O   UNL     1     -14.412  42.070  32.503  1.00  0.00    -0.332 OA
ATOM     30  C   UNL     1     -17.307  42.036  32.308  1.00  0.00     0.180 C 
ATOM     31  C   UNL     1     -15.146  43.264  32.723  1.00  0.00     0.179 C 
ATOM     32  C   UNL     1     -16.544  42.941  33.296  1.00  0.00     0.177 C 
BRANCH  28  33
ATOM     33  O   UNL     1     -17.058  40.124  30.866  1.00  0.00    -0.384 OA
ATOM     34  H   UNL     1     -17.891  39.731  31.238  1.00  0.00     0.211 HD
ENDBRANCH  28  33
BRANCH  30  35
ATOM     35  O   UNL     1     -17.666  42.764  31.162  1.00  0.00    -0.387 OA
ATOM     36  H   UNL     1     -18.619  43.023  31.270  1.00  0.00     0.211 HD
ENDBRANCH  30  35
BRANCH  31  37
ATOM     37  C   UNL     1     -14.340  44.165  33.671  1.00  0.00     0.191 C 
BRANCH  37  38
ATOM     38  O   UNL     1     -13.588  43.402  34.577  1.00  0.00    -0.394 OA
ATOM     39  H   UNL     1     -14.124  42.591  34.777  1.00  0.00     0.210 HD
ENDBRANCH  37  38
ENDBRANCH  31  37
BRANCH  32  40
ATOM     40  O   UNL     1     -16.412  42.292  34.535  1.00  0.00    -0.387 OA
ATOM     41  H   UNL     1     -17.217  42.524  35.068  1.00  0.00     0.211 HD
ENDBRANCH  32  40
ENDBRANCH   1  27
TORSDOF 12
ENDMDL
MODEL 5
REMARK VINA RESULT:    -7.634      1.754      5.958
REMARK INTER + INTRA:         -12.559
REMARK INTER:                 -10.934
REMARK INTRA:                  -1.625
REMARK UNBOUND:                -1.355
REMARK SMILES O=c1c(O[C@H]2O[C@H](CO)[C@H](O)[C@@H](O)[C@H]2O)c(-c2ccc(O)c(O)c2)oc2cc(O)cc(O)c12
REMARK SMILES IDX 4 1 3 2 16 3 25 4 2 5 26 6 1 7 33 8 27 9 31 10 28 11 30 12
REMARK SMILES IDX 17 13 18 14 19 15 20 16 24 17 22 18 21 19 23 21 32 23 29 25
REMARK SMILES IDX 5 27 14 28 6 29 12 30 7 31 10 32 15 33 13 35 8 37 9 38 11 40
REMARK H PARENT 21 20 23 22 32 24 29 26 15 34 13 36 9 39 11 41
REMARK Flexibility Score: inf
ROOT
ATOM      1  O   UNL     1     -13.506  41.413  30.647  1.00  0.00    -0.454 OA
ENDROOT
BRANCH   1   2
ATOM      2  C   UNL     1     -14.742  41.904  31.119  1.00  0.00     0.214 A 
ATOM      3  C   UNL     1     -15.918  41.431  30.508  1.00  0.00     0.180 A 
ATOM      4  O   UNL     1     -17.101  41.912  30.867  1.00  0.00    -0.452 OA
ATOM      5  C   UNL     1     -14.867  42.864  32.152  1.00  0.00     0.239 A 
ATOM      6  C   UNL     1     -17.260  42.837  31.803  1.00  0.00     0.146 A 
ATOM      7  O   UNL     1     -13.850  43.213  32.804  1.00  0.00    -0.285 OA
ATOM      8  C   UNL     1     -16.142  43.389  32.477  1.00  0.00     0.111 A 
ATOM      9  C   UNL     1     -18.557  43.245  32.121  1.00  0.00     0.094 A 
ATOM     10  C   UNL     1     -16.373  44.406  33.453  1.00  0.00     0.134 A 
ATOM     11  C   UNL     1     -18.774  44.194  33.121  1.00  0.00     0.123 A 
ATOM     12  C   UNL     1     -17.686  44.762  33.783  1.00  0.00     0.093 A 
BRANCH   3  13
ATOM     13  C   UNL     1     -15.885  40.395  29.454  1.00  0.00     0.025 A 
ATOM     14  C   UNL     1     -15.844  39.040  29.813  1.00  0.00     0.016 A 
ATOM     15  C   UNL     1     -15.788  38.051  28.828  1.00  0.00     0.051 A 
ATOM     16  C   UNL     1     -15.757  38.405  27.472  1.00  0.00     0.157 A 
ATOM     17  C   UNL     1     -15.829  40.748  28.096  1.00  0.00     0.062 A 
ATOM     18  C   UNL     1     -15.772  39.761  27.105  1.00  0.00     0.158 A 
BRANCH  16  19
ATOM     19  O   UNL     1     -15.704  37.416  26.490  1.00  0.00    -0.504 OA
ATOM     20  H   UNL     1     -15.151  37.533  25.649  1.00  0.00     0.293 HD
ENDBRANCH  16  19
BRANCH  18  21
ATOM     21  O   UNL     1     -15.727  40.147  25.766  1.00  0.00    -0.504 OA
ATOM     22  H   UNL     1     -14.863  40.162  25.238  1.00  0.00     0.293 HD
ENDBRANCH  18  21
ENDBRANCH   3  13
BRANCH  10  23
ATOM     23  O   UNL     1     -15.354  45.115  34.098  1.00  0.00    -0.507 OA
ATOM     24  H   UNL     1     -15.022  46.025  33.818  1.00  0.00     0.293 HD
ENDBRANCH  10  23
BRANCH  11  25
ATOM     25  O   UNL     1     -20.067  44.587  33.461  1.00  0.00    -0.508 OA
ATOM     26  H   UNL     1     -20.413  45.515  33.245  1.00  0.00     0.293 HD
ENDBRANCH  11  25
ENDBRANCH   1   2
BRANCH   1  27
ATOM     27  C   UNL     1     -12.635  42.036  29.697  1.00  0.00     0.339 C 
ATOM     28  C   UNL     1     -11.751  40.982  28.989  1.00  0.00     0.214 C 
ATOM     29  O   UNL     1     -11.843  43.048  30.302  1.00  0.00    -0.332 OA
ATOM     30  C   UNL     1     -10.682  40.413  29.937  1.00  0.00     0.180 C 
ATOM     31  C   UNL     1     -10.988  42.512  31.299  1.00  0.00     0.179 C 
ATOM     32  C   UNL     1      -9.950  41.559  30.666  1.00  0.00     0.177 C 
BRANCH  28  33
ATOM     33  O   UNL     1     -12.543  39.936  28.486  1.00  0.00    -0.384 OA
ATOM     34  H   UNL     1     -13.379  40.347  28.144  1.00  0.00     0.211 HD
ENDBRANCH  28  33
BRANCH  30  35
ATOM     35  O   UNL     1     -11.280  39.551  30.870  1.00  0.00    -0.387 OA
ATOM     36  H   UNL     1     -11.080  38.623  30.575  1.00  0.00     0.211 HD
ENDBRANCH  30  35
BRANCH  31  37
ATOM     37  C   UNL     1     -10.311  43.676  32.039  1.00  0.00     0.191 C 
BRANCH  37  38
ATOM     38  O   UNL     1     -11.006  43.999  33.215  1.00  0.00    -0.394 OA
ATOM     39  H   UNL     1     -11.580  44.779  32.999  1.00  0.00     0.210 HD
ENDBRANCH  37  38
ENDBRANCH  31  37
BRANCH  32  40
ATOM     40  O   UNL     1      -9.147  42.268  29.756  1.00  0.00    -0.387 OA
ATOM     41  H   UNL     1      -9.083  41.712  28.935  1.00  0.00     0.211 HD
ENDBRANCH  32  40
ENDBRANCH   1  27
TORSDOF 12
ENDMDL
MODEL 6
REMARK VINA RESULT:    -7.437      1.354      2.259
REMARK INTER + INTRA:         -12.270
REMARK INTER:                 -10.275
REMARK INTRA:                  -1.995
REMARK UNBOUND:                -1.355
REMARK SMILES O=c1c(O[C@H]2O[C@H](CO)[C@H](O)[C@@H](O)[C@H]2O)c(-c2ccc(O)c(O)c2)oc2cc(O)cc(O)c12
REMARK SMILES IDX 4 1 3 2 16 3 25 4 2 5 26 6 1 7 33 8 27 9 31 10 28 11 30 12
REMARK SMILES IDX 17 13 18 14 19 15 20 16 24 17 22 18 21 19 23 21 32 23 29 25
REMARK SMILES IDX 5 27 14 28 6 29 12 30 7 31 10 32 15 33 13 35 8 37 9 38 11 40
REMARK H PARENT 21 20 23 22 32 24 29 26 15 34 13 36 9 39 11 41
REMARK Flexibility Score: inf
ROOT
ATOM      1  O   UNL     1     -13.236  40.986  30.294  1.00  0.00    -0.454 OA
ENDROOT
BRANCH   1   2
ATOM      2  C   UNL     1     -14.013  40.136  29.479  1.00  0.00     0.214 A 
ATOM      3  C   UNL     1     -15.389  40.408  29.364  1.00  0.00     0.180 A 
ATOM      4  O   UNL     1     -16.176  39.599  28.666  1.00  0.00    -0.452 OA
ATOM      5  C   UNL     1     -13.495  39.011  28.793  1.00  0.00     0.239 A 
ATOM      6  C   UNL     1     -15.740  38.516  28.040  1.00  0.00     0.146 A 
ATOM      7  O   UNL     1     -12.254  38.812  28.771  1.00  0.00    -0.285 OA
ATOM      8  C   UNL     1     -14.373  38.143  28.097  1.00  0.00     0.111 A 
ATOM      9  C   UNL     1     -16.655  37.756  27.308  1.00  0.00     0.094 A 
ATOM     10  C   UNL     1     -13.967  36.948  27.428  1.00  0.00     0.134 A 
ATOM     11  C   UNL     1     -16.235  36.625  26.608  1.00  0.00     0.123 A 
ATOM     12  C   UNL     1     -14.898  36.233  26.666  1.00  0.00     0.093 A 
BRANCH   3  13
ATOM     13  C   UNL     1     -16.006  41.586  30.007  1.00  0.00     0.025 A 
ATOM     14  C   UNL     1     -16.559  41.467  31.291  1.00  0.00     0.016 A 
ATOM     15  C   UNL     1     -17.166  42.566  31.902  1.00  0.00     0.051 A 
ATOM     16  C   UNL     1     -17.242  43.795  31.232  1.00  0.00     0.157 A 
ATOM     17  C   UNL     1     -16.105  42.811  29.328  1.00  0.00     0.062 A 
ATOM     18  C   UNL     1     -16.714  43.916  29.936  1.00  0.00     0.158 A 
BRANCH  16  19
ATOM     19  O   UNL     1     -17.846  44.892  31.845  1.00  0.00    -0.504 OA
ATOM     20  H   UNL     1     -18.732  44.807  32.329  1.00  0.00     0.293 HD
ENDBRANCH  16  19
BRANCH  18  21
ATOM     21  O   UNL     1     -16.786  45.119  29.236  1.00  0.00    -0.504 OA
ATOM     22  H   UNL     1     -16.575  46.010  29.671  1.00  0.00     0.293 HD
ENDBRANCH  18  21
ENDBRANCH   3  13
BRANCH  10  23
ATOM     23  O   UNL     1     -12.680  36.408  27.508  1.00  0.00    -0.507 OA
ATOM     24  H   UNL     1     -12.353  35.622  26.967  1.00  0.00     0.293 HD
ENDBRANCH  10  23
BRANCH  11  25
ATOM     25  O   UNL     1     -17.138  35.877  25.856  1.00  0.00    -0.508 OA
ATOM     26  H   UNL     1     -18.134  36.066  25.881  1.00  0.00     0.293 HD
ENDBRANCH  11  25
ENDBRANCH   1   2
BRANCH   1  27
ATOM     27  C   UNL     1     -12.321  41.999  29.861  1.00  0.00     0.339 C 
ATOM     28  C   UNL     1     -10.928  41.791  30.500  1.00  0.00     0.214 C 
ATOM     29  O   UNL     1     -12.821  43.301  30.131  1.00  0.00    -0.332 OA
ATOM     30  C   UNL     1     -10.940  42.124  32.002  1.00  0.00     0.180 C 
ATOM     31  C   UNL     1     -12.986  43.517  31.523  1.00  0.00     0.179 C 
ATOM     32  C   UNL     1     -11.618  43.489  32.240  1.00  0.00     0.177 C 
BRANCH  28  33
ATOM     33  O   UNL     1     -10.496  40.467  30.313  1.00  0.00    -0.384 OA
ATOM     34  H   UNL     1      -9.622  40.382  30.777  1.00  0.00     0.211 HD
ENDBRANCH  28  33
BRANCH  30  35
ATOM     35  O   UNL     1     -11.617  41.118  32.710  1.00  0.00    -0.387 OA
ATOM     36  H   UNL     1     -10.924  40.506  33.075  1.00  0.00     0.211 HD
ENDBRANCH  30  35
BRANCH  31  37
ATOM     37  C   UNL     1     -13.706  44.858  31.727  1.00  0.00     0.191 C 
BRANCH  37  38
ATOM     38  O   UNL     1     -13.949  45.493  30.500  1.00  0.00    -0.394 OA
ATOM     39  H   UNL     1     -14.418  46.343  30.709  1.00  0.00     0.210 HD
ENDBRANCH  37  38
ENDBRANCH  31  37
BRANCH  32  40
ATOM     40  O   UNL     1     -10.801  44.521  31.747  1.00  0.00    -0.387 OA
ATOM     41  H   UNL     1      -9.893  44.371  32.119  1.00  0.00     0.211 HD
ENDBRANCH  32  40
ENDBRANCH   1  27
TORSDOF 12
ENDMDL
MODEL 7
REMARK VINA RESULT:    -7.308      1.998      6.458
REMARK INTER + INTRA:         -12.081
REMARK INTER:                 -10.223
REMARK INTRA:                  -1.858
REMARK UNBOUND:                -1.355
REMARK SMILES O=c1c(O[C@H]2O[C@H](CO)[C@H](O)[C@@H](O)[C@H]2O)c(-c2ccc(O)c(O)c2)oc2cc(O)cc(O)c12
REMARK SMILES IDX 4 1 3 2 16 3 25 4 2 5 26 6 1 7 33 8 27 9 31 10 28 11 30 12
REMARK SMILES IDX 17 13 18 14 19 15 20 16 24 17 22 18 21 19 23 21 32 23 29 25
REMARK SMILES IDX 5 27 14 28 6 29 12 30 7 31 10 32 15 33 13 35 8 37 9 38 11 40
REMARK H PARENT 21 20 23 22 32 24 29 26 15 34 13 36 9 39 11 41
REMARK Flexibility Score: inf
ROOT
ATOM      1  O   UNL     1     -13.827  41.052  30.629  1.00  0.00    -0.454 OA
ENDROOT
BRANCH   1   2
ATOM      2  C   UNL     1     -14.755  41.925  31.237  1.00  0.00     0.214 A 
ATOM      3  C   UNL     1     -14.302  43.196  31.636  1.00  0.00     0.180 A 
ATOM      4  O   UNL     1     -15.115  44.027  32.273  1.00  0.00    -0.452 OA
ATOM      5  C   UNL     1     -16.105  41.587  31.493  1.00  0.00     0.239 A 
ATOM      6  C   UNL     1     -16.375  43.738  32.566  1.00  0.00     0.146 A 
ATOM      7  O   UNL     1     -16.576  40.513  31.038  1.00  0.00    -0.285 OA
ATOM      8  C   UNL     1     -16.931  42.481  32.218  1.00  0.00     0.111 A 
ATOM      9  C   UNL     1     -17.148  44.705  33.213  1.00  0.00     0.094 A 
ATOM     10  C   UNL     1     -18.285  42.213  32.587  1.00  0.00     0.134 A 
ATOM     11  C   UNL     1     -18.487  44.454  33.513  1.00  0.00     0.123 A 
ATOM     12  C   UNL     1     -19.048  43.218  33.194  1.00  0.00     0.093 A 
BRANCH   3  13
ATOM     13  C   UNL     1     -12.921  43.650  31.367  1.00  0.00     0.025 A 
ATOM     14  C   UNL     1     -11.892  43.305  32.255  1.00  0.00     0.016 A 
ATOM     15  C   UNL     1     -10.586  43.747  32.026  1.00  0.00     0.051 A 
ATOM     16  C   UNL     1     -10.296  44.552  30.916  1.00  0.00     0.157 A 
ATOM     17  C   UNL     1     -12.633  44.476  30.268  1.00  0.00     0.062 A 
ATOM     18  C   UNL     1     -11.327  44.922  30.036  1.00  0.00     0.158 A 
BRANCH  16  19
ATOM     19  O   UNL     1      -8.992  44.989  30.688  1.00  0.00    -0.504 OA
ATOM     20  H   UNL     1      -8.235  44.335  30.525  1.00  0.00     0.293 HD
ENDBRANCH  16  19
BRANCH  18  21
ATOM     21  O   UNL     1     -11.075  45.733  28.930  1.00  0.00    -0.504 OA
ATOM     22  H   UNL     1     -11.718  45.794  28.149  1.00  0.00     0.293 HD
ENDBRANCH  18  21
ENDBRANCH   3  13
BRANCH  10  23
ATOM     23  O   UNL     1     -18.911  40.975  32.412  1.00  0.00    -0.507 OA
ATOM     24  H   UNL     1     -19.465  40.721  31.608  1.00  0.00     0.293 HD
ENDBRANCH  10  23
BRANCH  11  25
ATOM     25  O   UNL     1     -19.270  45.424  34.135  1.00  0.00    -0.508 OA
ATOM     26  H   UNL     1     -19.263  46.390  33.826  1.00  0.00     0.293 HD
ENDBRANCH  11  25
ENDBRANCH   1   2
BRANCH   1  27
ATOM     27  C   UNL     1     -13.488  40.983  29.239  1.00  0.00     0.339 C 
ATOM     28  C   UNL     1     -13.811  39.584  28.665  1.00  0.00     0.214 C 
ATOM     29  O   UNL     1     -12.129  41.328  29.018  1.00  0.00    -0.332 OA
ATOM     30  C   UNL     1     -12.834  38.518  29.189  1.00  0.00     0.180 C 
ATOM     31  C   UNL     1     -11.250  40.420  29.664  1.00  0.00     0.179 C 
ATOM     32  C   UNL     1     -11.379  39.011  29.045  1.00  0.00     0.177 C 
BRANCH  28  33
ATOM     33  O   UNL     1     -15.129  39.215  28.983  1.00  0.00    -0.384 OA
ATOM     34  H   UNL     1     -15.461  39.877  29.645  1.00  0.00     0.211 HD
ENDBRANCH  28  33
BRANCH  30  35
ATOM     35  O   UNL     1     -13.117  38.230  30.534  1.00  0.00    -0.387 OA
ATOM     36  H   UNL     1     -14.012  37.799  30.556  1.00  0.00     0.211 HD
ENDBRANCH  30  35
BRANCH  31  37
ATOM     37  C   UNL     1      -9.817  40.961  29.546  1.00  0.00     0.191 C 
BRANCH  37  38
ATOM     38  O   UNL     1      -8.875  39.963  29.838  1.00  0.00    -0.394 OA
ATOM     39  H   UNL     1      -7.984  40.400  29.822  1.00  0.00     0.210 HD
ENDBRANCH  37  38
ENDBRANCH  31  37
BRANCH  32  40
ATOM     40  O   UNL     1     -11.021  39.052  27.687  1.00  0.00    -0.387 OA
ATOM     41  H   UNL     1     -11.404  38.239  27.264  1.00  0.00     0.211 HD
ENDBRANCH  32  40
ENDBRANCH   1  27
TORSDOF 12
ENDMDL
MODEL 8
REMARK VINA RESULT:    -7.263      1.579      4.629
REMARK INTER + INTRA:         -12.015
REMARK INTER:                  -9.956
REMARK INTRA:                  -2.059
REMARK UNBOUND:                -1.355
REMARK SMILES O=c1c(O[C@H]2O[C@H](CO)[C@H](O)[C@@H](O)[C@H]2O)c(-c2ccc(O)c(O)c2)oc2cc(O)cc(O)c12
REMARK SMILES IDX 4 1 3 2 16 3 25 4 2 5 26 6 1 7 33 8 27 9 31 10 28 11 30 12
REMARK SMILES IDX 17 13 18 14 19 15 20 16 24 17 22 18 21 19 23 21 32 23 29 25
REMARK SMILES IDX 5 27 14 28 6 29 12 30 7 31 10 32 15 33 13 35 8 37 9 38 11 40
REMARK H PARENT 21 20 23 22 32 24 29 26 15 34 13 36 9 39 11 41
REMARK Flexibility Score: inf
ROOT
ATOM      1  O   UNL     1     -15.302  41.760  30.650  1.00  0.00    -0.454 OA
ENDROOT
BRANCH   1   2
ATOM      2  C   UNL     1     -14.805  40.717  29.838  1.00  0.00     0.214 A 
ATOM      3  C   UNL     1     -13.468  40.796  29.407  1.00  0.00     0.180 A 
ATOM      4  O   UNL     1     -12.974  39.879  28.586  1.00  0.00    -0.452 OA
ATOM      5  C   UNL     1     -15.581  39.613  29.411  1.00  0.00     0.239 A 
ATOM      6  C   UNL     1     -13.675  38.849  28.133  1.00  0.00     0.146 A 
ATOM      7  O   UNL     1     -16.735  39.445  29.879  1.00  0.00    -0.285 OA
ATOM      8  C   UNL     1     -15.034  38.678  28.498  1.00  0.00     0.111 A 
ATOM      9  C   UNL     1     -13.039  37.927  27.298  1.00  0.00     0.094 A 
ATOM     10  C   UNL     1     -15.748  37.568  27.953  1.00  0.00     0.134 A 
ATOM     11  C   UNL     1     -13.730  36.812  26.822  1.00  0.00     0.123 A 
ATOM     12  C   UNL     1     -15.072  36.635  27.156  1.00  0.00     0.093 A 
BRANCH   3  13
ATOM     13  C   UNL     1     -12.573  41.889  29.841  1.00  0.00     0.025 A 
ATOM     14  C   UNL     1     -12.473  43.054  29.067  1.00  0.00     0.016 A 
ATOM     15  C   UNL     1     -11.614  44.086  29.452  1.00  0.00     0.051 A 
ATOM     16  C   UNL     1     -10.831  43.959  30.608  1.00  0.00     0.157 A 
ATOM     17  C   UNL     1     -11.770  41.754  30.985  1.00  0.00     0.062 A 
ATOM     18  C   UNL     1     -10.907  42.784  31.375  1.00  0.00     0.158 A 
BRANCH  16  19
ATOM     19  O   UNL     1      -9.976  44.991  30.993  1.00  0.00    -0.504 OA
ATOM     20  H   UNL     1     -10.324  45.823  31.456  1.00  0.00     0.293 HD
ENDBRANCH  16  19
BRANCH  18  21
ATOM     21  O   UNL     1     -10.131  42.620  32.522  1.00  0.00    -0.504 OA
ATOM     22  H   UNL     1     -10.038  43.350  33.219  1.00  0.00     0.293 HD
ENDBRANCH  18  21
ENDBRANCH   3  13
BRANCH  10  23
ATOM     23  O   UNL     1     -17.118  37.355  28.135  1.00  0.00    -0.507 OA
ATOM     24  H   UNL     1     -17.679  36.727  27.580  1.00  0.00     0.293 HD
ENDBRANCH  10  23
BRANCH  11  25
ATOM     25  O   UNL     1     -13.094  35.875  26.010  1.00  0.00    -0.508 OA
ATOM     26  H   UNL     1     -13.105  35.955  25.000  1.00  0.00     0.293 HD
ENDBRANCH  11  25
ENDBRANCH   1   2
BRANCH   1  27
ATOM     27  C   UNL     1     -15.469  41.743  32.072  1.00  0.00     0.339 C 
ATOM     28  C   UNL     1     -16.912  42.141  32.459  1.00  0.00     0.214 C 
ATOM     29  O   UNL     1     -14.516  42.574  32.718  1.00  0.00    -0.332 OA
ATOM     30  C   UNL     1     -17.170  43.638  32.219  1.00  0.00     0.180 C 
ATOM     31  C   UNL     1     -14.669  43.933  32.339  1.00  0.00     0.179 C 
ATOM     32  C   UNL     1     -16.029  44.480  32.828  1.00  0.00     0.177 C 
BRANCH  28  33
ATOM     33  O   UNL     1     -17.843  41.379  31.733  1.00  0.00    -0.384 OA
ATOM     34  H   UNL     1     -17.374  40.553  31.443  1.00  0.00     0.211 HD
ENDBRANCH  28  33
BRANCH  30  35
ATOM     35  O   UNL     1     -17.276  43.891  30.842  1.00  0.00    -0.387 OA
ATOM     36  H   UNL     1     -17.436  43.016  30.400  1.00  0.00     0.211 HD
ENDBRANCH  30  35
BRANCH  31  37
ATOM     37  C   UNL     1     -13.494  44.736  32.918  1.00  0.00     0.191 C 
BRANCH  37  38
ATOM     38  O   UNL     1     -13.004  44.142  34.090  1.00  0.00    -0.394 OA
ATOM     39  H   UNL     1     -13.508  43.295  34.210  1.00  0.00     0.210 HD
ENDBRANCH  37  38
ENDBRANCH  31  37
BRANCH  32  40
ATOM     40  O   UNL     1     -16.089  44.423  34.231  1.00  0.00    -0.387 OA
ATOM     41  H   UNL     1     -16.953  44.831  34.498  1.00  0.00     0.211 HD
ENDBRANCH  32  40
ENDBRANCH   1  27
TORSDOF 12
ENDMDL
MODEL 9
REMARK VINA RESULT:    -7.167      1.674      5.250
REMARK INTER + INTRA:         -11.874
REMARK INTER:                 -10.249
REMARK INTRA:                  -1.625
REMARK UNBOUND:                -1.355
REMARK SMILES O=c1c(O[C@H]2O[C@H](CO)[C@H](O)[C@@H](O)[C@H]2O)c(-c2ccc(O)c(O)c2)oc2cc(O)cc(O)c12
REMARK SMILES IDX 4 1 3 2 16 3 25 4 2 5 26 6 1 7 33 8 27 9 31 10 28 11 30 12
REMARK SMILES IDX 17 13 18 14 19 15 20 16 24 17 22 18 21 19 23 21 32 23 29 25
REMARK SMILES IDX 5 27 14 28 6 29 12 30 7 31 10 32 15 33 13 35 8 37 9 38 11 40
REMARK H PARENT 21 20 23 22 32 24 29 26 15 34 13 36 9 39 11 41
REMARK Flexibility Score: inf
ROOT
ATOM      1  O   UNL     1     -14.258  42.471  31.529  1.00  0.00    -0.454 OA
ENDROOT
BRANCH   1   2
ATOM      2  C   UNL     1     -13.971  41.432  30.617  1.00  0.00     0.214 A 
ATOM      3  C   UNL     1     -12.766  41.504  29.892  1.00  0.00     0.180 A 
ATOM      4  O   UNL     1     -12.482  40.591  28.974  1.00  0.00    -0.452 OA
ATOM      5  C   UNL     1     -14.834  40.339  30.370  1.00  0.00     0.239 A 
ATOM      6  C   UNL     1     -13.279  39.571  28.685  1.00  0.00     0.146 A 
ATOM      7  O   UNL     1     -15.854  40.175  31.088  1.00  0.00    -0.285 OA
ATOM      8  C   UNL     1     -14.520  39.408  29.349  1.00  0.00     0.111 A 
ATOM      9  C   UNL     1     -12.860  38.652  27.720  1.00  0.00     0.094 A 
ATOM     10  C   UNL     1     -15.351  38.309  28.973  1.00  0.00     0.134 A 
ATOM     11  C   UNL     1     -13.653  37.548  27.406  1.00  0.00     0.123 A 
ATOM     12  C   UNL     1     -14.885  37.379  28.036  1.00  0.00     0.093 A 
BRANCH   3  13
ATOM     13  C   UNL     1     -11.785  42.585  30.119  1.00  0.00     0.025 A 
ATOM     14  C   UNL     1     -10.926  42.523  31.226  1.00  0.00     0.016 A 
ATOM     15  C   UNL     1     -10.009  43.549  31.466  1.00  0.00     0.051 A 
ATOM     16  C   UNL     1      -9.950  44.659  30.611  1.00  0.00     0.157 A 
ATOM     17  C   UNL     1     -11.740  43.709  29.278  1.00  0.00     0.062 A 
ATOM     18  C   UNL     1     -10.824  44.740  29.515  1.00  0.00     0.158 A 
BRANCH  16  19
ATOM     19  O   UNL     1      -9.032  45.680  30.851  1.00  0.00    -0.504 OA
ATOM     20  H   UNL     1      -9.297  46.526  31.343  1.00  0.00     0.293 HD
ENDBRANCH  16  19
BRANCH  18  21
ATOM     21  O   UNL     1     -10.801  45.836  28.654  1.00  0.00    -0.504 OA
ATOM     22  H   UNL     1      -9.963  46.386  28.503  1.00  0.00     0.293 HD
ENDBRANCH  18  21
ENDBRANCH   3  13
BRANCH  10  23
ATOM     23  O   UNL     1     -16.645  38.106  29.462  1.00  0.00    -0.507 OA
ATOM     24  H   UNL     1     -16.928  38.259  30.418  1.00  0.00     0.293 HD
ENDBRANCH  10  23
BRANCH  11  25
ATOM     25  O   UNL     1     -13.229  36.613  26.463  1.00  0.00    -0.508 OA
ATOM     26  H   UNL     1     -12.253  36.354  26.374  1.00  0.00     0.293 HD
ENDBRANCH  11  25
ENDBRANCH   1   2
BRANCH   1  27
ATOM     27  C   UNL     1     -14.963  43.688  31.259  1.00  0.00     0.339 C 
ATOM     28  C   UNL     1     -14.622  44.765  32.315  1.00  0.00     0.214 C 
ATOM     29  O   UNL     1     -16.364  43.470  31.180  1.00  0.00    -0.332 OA
ATOM     30  C   UNL     1     -15.251  44.438  33.680  1.00  0.00     0.180 C 
ATOM     31  C   UNL     1     -16.888  43.000  32.411  1.00  0.00     0.179 C 
ATOM     32  C   UNL     1     -16.742  44.078  33.507  1.00  0.00     0.177 C 
BRANCH  28  33
ATOM     33  O   UNL     1     -13.229  44.892  32.454  1.00  0.00    -0.384 OA
ATOM     34  H   UNL     1     -13.035  45.864  32.519  1.00  0.00     0.211 HD
ENDBRANCH  28  33
BRANCH  30  35
ATOM     35  O   UNL     1     -14.563  43.372  34.280  1.00  0.00    -0.387 OA
ATOM     36  H   UNL     1     -14.101  43.740  35.079  1.00  0.00     0.211 HD
ENDBRANCH  30  35
BRANCH  31  37
ATOM     37  C   UNL     1     -18.357  42.604  32.198  1.00  0.00     0.191 C 
BRANCH  37  38
ATOM     38  O   UNL     1     -18.976  43.446  31.261  1.00  0.00    -0.394 OA
ATOM     39  H   UNL     1     -18.917  42.985  30.384  1.00  0.00     0.210 HD
ENDBRANCH  37  38
ENDBRANCH  31  37
BRANCH  32  40
ATOM     40  O   UNL     1     -17.471  45.225  33.148  1.00  0.00    -0.387 OA
ATOM     41  H   UNL     1     -16.810  45.949  32.993  1.00  0.00     0.211 HD
ENDBRANCH  32  40
ENDBRANCH   1  27
TORSDOF 12
ENDMDL
