MODEL 1
REMARK VINA RESULT:    -4.191      0.000      0.000
REMARK INTER + INTRA:          -5.264
REMARK INTER:                  -5.171
REMARK INTRA:                  -0.093
REMARK UNBOUND:                -0.093
REMARK SMILES CCCCCC(=O)[O-]
REMARK SMILES IDX 4 1 5 2 6 3 7 4 8 5 3 6 2 7 1 8
REMARK H PARENT
REMARK Flexibility Score: inf
ROOT
ATOM      1  C   UNL     1      -9.149  22.741 -23.797  1.00  0.00     0.006 C 
ENDROOT
BRANCH   1   2
ATOM      2  C   UNL     1     -10.061  22.108 -24.855  1.00  0.00     0.053 C 
BRANCH   2   3
ATOM      3  C   UNL     1     -10.660  23.165 -25.729  1.00  0.00     0.041 C 
ATOM      4  O   UNL     1     -11.910  23.283 -25.814  1.00  0.00    -0.550 OA
ATOM      5  O   UNL     1      -9.837  23.988 -26.488  1.00  0.00    -0.550 OA
ENDBRANCH   2   3
ENDBRANCH   1   2
BRANCH   1   6
ATOM      6  C   UNL     1      -9.913  23.163 -22.532  1.00  0.00     0.000 C 
BRANCH   6   7
ATOM      7  C   UNL     1      -9.167  22.796 -21.241  1.00  0.00    -0.003 C 
ATOM      8  C   UNL     1     -10.142  22.393 -20.139  1.00  0.00     0.004 C 
ENDBRANCH   6   7
ENDBRANCH   1   6
TORSDOF 4
ENDMDL
MODEL 2
REMARK VINA RESULT:    -3.877      3.199      4.635
REMARK INTER + INTRA:          -4.876
REMARK INTER:                  -4.794
REMARK INTRA:                  -0.083
REMARK UNBOUND:                -0.093
REMARK SMILES CCCCCC(=O)[O-]
REMARK SMILES IDX 4 1 5 2 6 3 7 4 8 5 3 6 2 7 1 8
REMARK H PARENT
REMARK Flexibility Score: inf
ROOT
ATOM      1  C   UNL     1      -9.291  22.918 -23.262  1.00  0.00     0.006 C 
ENDROOT
BRANCH   1   2
ATOM      2  C   UNL     1     -10.265  23.152 -22.101  1.00  0.00     0.053 C 
BRANCH   2   3
ATOM      3  C   UNL     1      -9.629  22.773 -20.801  1.00  0.00     0.041 C 
ATOM      4  O   UNL     1     -10.265  22.086 -19.960  1.00  0.00    -0.550 OA
ATOM      5  O   UNL     1      -8.350  23.223 -20.496  1.00  0.00    -0.550 OA
ENDBRANCH   2   3
ENDBRANCH   1   2
BRANCH   1   6
ATOM      6  C   UNL     1      -9.715  23.647 -24.547  1.00  0.00     0.000 C 
BRANCH   6   7
ATOM      7  C   UNL     1     -10.718  22.838 -25.382  1.00  0.00    -0.003 C 
ATOM      8  C   UNL     1     -10.024  21.698 -26.121  1.00  0.00     0.004 C 
ENDBRANCH   6   7
ENDBRANCH   1   6
TORSDOF 4
ENDMDL
MODEL 3
REMARK VINA RESULT:    -3.635      8.570      9.468
REMARK INTER + INTRA:          -4.578
REMARK INTER:                  -4.382
REMARK INTRA:                  -0.196
REMARK UNBOUND:                -0.093
REMARK SMILES CCCCCC(=O)[O-]
REMARK SMILES IDX 4 1 5 2 6 3 7 4 8 5 3 6 2 7 1 8
REMARK H PARENT
REMARK Flexibility Score: inf
ROOT
ATOM      1  C   UNL     1      -4.539  26.715 -20.201  1.00  0.00     0.006 C 
ENDROOT
BRANCH   1   2
ATOM      2  C   UNL     1      -3.377  27.625 -20.618  1.00  0.00     0.053 C 
BRANCH   2   3
ATOM      3  C   UNL     1      -2.847  28.371 -19.434  1.00  0.00     0.041 C 
ATOM      4  O   UNL     1      -2.790  27.813 -18.307  1.00  0.00    -0.550 OA
ATOM      5  O   UNL     1      -2.464  29.700 -19.565  1.00  0.00    -0.550 OA
ENDBRANCH   2   3
ENDBRANCH   1   2
BRANCH   1   6
ATOM      6  C   UNL     1      -5.897  27.434 -20.238  1.00  0.00     0.000 C 
BRANCH   6   7
ATOM      7  C   UNL     1      -6.015  28.413 -21.416  1.00  0.00    -0.003 C 
ATOM      8  C   UNL     1      -6.345  29.821 -20.927  1.00  0.00     0.004 C 
ENDBRANCH   6   7
ENDBRANCH   1   6
TORSDOF 4
ENDMDL
MODEL 4
REMARK VINA RESULT:    -3.610      2.798      3.946
REMARK INTER + INTRA:          -4.547
REMARK INTER:                  -4.471
REMARK INTRA:                  -0.076
REMARK UNBOUND:                -0.093
REMARK SMILES CCCCCC(=O)[O-]
REMARK SMILES IDX 4 1 5 2 6 3 7 4 8 5 3 6 2 7 1 8
REMARK H PARENT
REMARK Flexibility Score: inf
ROOT
ATOM      1  C   UNL     1      -9.342  24.058 -26.327  1.00  0.00     0.006 C 
ENDROOT
BRANCH   1   2
ATOM      2  C   UNL     1      -9.639  25.181 -27.328  1.00  0.00     0.053 C 
BRANCH   2   3
ATOM      3  C   UNL     1      -8.477  26.119 -27.422  1.00  0.00     0.041 C 
ATOM      4  O   UNL     1      -7.469  25.812 -28.110  1.00  0.00    -0.550 OA
ATOM      5  O   UNL     1      -8.486  27.310 -26.707  1.00  0.00    -0.550 OA
ENDBRANCH   2   3
ENDBRANCH   1   2
BRANCH   1   6
ATOM      6  C   UNL     1     -10.603  23.283 -25.913  1.00  0.00     0.000 C 
BRANCH   6   7
ATOM      7  C   UNL     1     -10.333  22.271 -24.790  1.00  0.00    -0.003 C 
ATOM      8  C   UNL     1      -9.371  22.844 -23.754  1.00  0.00     0.004 C 
ENDBRANCH   6   7
ENDBRANCH   1   6
TORSDOF 4
ENDMDL
MODEL 5
REMARK VINA RESULT:    -3.539      8.047      9.035
REMARK INTER + INTRA:          -4.460
REMARK INTER:                  -4.222
REMARK INTRA:                  -0.238
REMARK UNBOUND:                -0.093
REMARK SMILES CCCCCC(=O)[O-]
REMARK SMILES IDX 4 1 5 2 6 3 7 4 8 5 3 6 2 7 1 8
REMARK H PARENT
REMARK Flexibility Score: inf
ROOT
ATOM      1  C   UNL     1      -3.330  27.422 -20.454  1.00  0.00     0.006 C 
ENDROOT
BRANCH   1   2
ATOM      2  C   UNL     1      -4.569  26.569 -20.152  1.00  0.00     0.053 C 
BRANCH   2   3
ATOM      3  C   UNL     1      -5.805  27.412 -20.189  1.00  0.00     0.041 C 
ATOM      4  O   UNL     1      -6.219  27.884 -21.279  1.00  0.00    -0.550 OA
ATOM      5  O   UNL     1      -6.471  27.719 -19.008  1.00  0.00    -0.550 OA
ENDBRANCH   2   3
ENDBRANCH   1   2
BRANCH   1   6
ATOM      6  C   UNL     1      -2.913  28.302 -19.265  1.00  0.00     0.000 C 
BRANCH   6   7
ATOM      7  C   UNL     1      -2.562  29.737 -19.687  1.00  0.00    -0.003 C 
ATOM      8  C   UNL     1      -3.500  30.231 -20.785  1.00  0.00     0.004 C 
ENDBRANCH   6   7
ENDBRANCH   1   6
TORSDOF 4
ENDMDL
MODEL 6
REMARK VINA RESULT:    -3.524      8.123      9.097
REMARK INTER + INTRA:          -4.441
REMARK INTER:                  -4.254
REMARK INTRA:                  -0.187
REMARK UNBOUND:                -0.093
REMARK SMILES CCCCCC(=O)[O-]
REMARK SMILES IDX 4 1 5 2 6 3 7 4 8 5 3 6 2 7 1 8
REMARK H PARENT
REMARK Flexibility Score: inf
ROOT
ATOM      1  C   UNL     1      -5.676  28.223 -21.034  1.00  0.00     0.006 C 
ENDROOT
BRANCH   1   2
ATOM      2  C   UNL     1      -5.890  27.462 -19.720  1.00  0.00     0.053 C 
BRANCH   2   3
ATOM      3  C   UNL     1      -6.484  28.364 -18.684  1.00  0.00     0.041 C 
ATOM      4  O   UNL     1      -6.255  29.601 -18.714  1.00  0.00    -0.550 OA
ATOM      5  O   UNL     1      -7.251  27.830 -17.655  1.00  0.00    -0.550 OA
ENDBRANCH   2   3
ENDBRANCH   1   2
BRANCH   1   6
ATOM      6  C   UNL     1      -4.190  28.454 -21.350  1.00  0.00     0.000 C 
BRANCH   6   7
ATOM      7  C   UNL     1      -3.259  27.841 -20.293  1.00  0.00    -0.003 C 
ATOM      8  C   UNL     1      -2.562  28.927 -19.478  1.00  0.00     0.004 C 
ENDBRANCH   6   7
ENDBRANCH   1   6
TORSDOF 4
ENDMDL
MODEL 7
REMARK VINA RESULT:    -3.506      8.283      9.213
REMARK INTER + INTRA:          -4.418
REMARK INTER:                  -4.244
REMARK INTRA:                  -0.174
REMARK UNBOUND:                -0.093
REMARK SMILES CCCCCC(=O)[O-]
REMARK SMILES IDX 4 1 5 2 6 3 7 4 8 5 3 6 2 7 1 8
REMARK H PARENT
REMARK Flexibility Score: inf
ROOT
ATOM      1  C   UNL     1      -5.824  27.933 -20.572  1.00  0.00     0.006 C 
ENDROOT
BRANCH   1   2
ATOM      2  C   UNL     1      -4.394  28.348 -20.941  1.00  0.00     0.053 C 
BRANCH   2   3
ATOM      3  C   UNL     1      -3.406  27.657 -20.055  1.00  0.00     0.041 C 
ATOM      4  O   UNL     1      -3.277  26.406 -20.103  1.00  0.00    -0.550 OA
ATOM      5  O   UNL     1      -2.661  28.391 -19.140  1.00  0.00    -0.550 OA
ENDBRANCH   2   3
ENDBRANCH   1   2
BRANCH   1   6
ATOM      6  C   UNL     1      -6.253  28.449 -19.190  1.00  0.00     0.000 C 
BRANCH   6   7
ATOM      7  C   UNL     1      -6.245  29.982 -19.102  1.00  0.00    -0.003 C 
ATOM      8  C   UNL     1      -6.989  30.466 -17.861  1.00  0.00     0.004 C 
ENDBRANCH   6   7
ENDBRANCH   1   6
TORSDOF 4
ENDMDL
MODEL 8
REMARK VINA RESULT:    -3.448      8.078      9.100
REMARK INTER + INTRA:          -4.348
REMARK INTER:                  -4.197
REMARK INTRA:                  -0.151
REMARK UNBOUND:                -0.093
REMARK SMILES CCCCCC(=O)[O-]
REMARK SMILES IDX 4 1 5 2 6 3 7 4 8 5 3 6 2 7 1 8
REMARK H PARENT
REMARK Flexibility Score: inf
ROOT
ATOM      1  C   UNL     1      -5.940  27.776 -20.089  1.00  0.00     0.006 C 
ENDROOT
BRANCH   1   2
ATOM      2  C   UNL     1      -6.486  28.206 -18.722  1.00  0.00     0.053 C 
BRANCH   2   3
ATOM      3  C   UNL     1      -6.544  29.698 -18.628  1.00  0.00     0.041 C 
ATOM      4  O   UNL     1      -5.987  30.411 -19.503  1.00  0.00    -0.550 OA
ATOM      5  O   UNL     1      -7.170  30.302 -17.544  1.00  0.00    -0.550 OA
ENDBRANCH   2   3
ENDBRANCH   1   2
BRANCH   1   6
ATOM      6  C   UNL     1      -5.206  26.427 -20.036  1.00  0.00     0.000 C 
BRANCH   6   7
ATOM      7  C   UNL     1      -3.679  26.581 -20.101  1.00  0.00    -0.003 C 
ATOM      8  C   UNL     1      -3.289  27.932 -20.693  1.00  0.00     0.004 C 
ENDBRANCH   6   7
ENDBRANCH   1   6
TORSDOF 4
ENDMDL
MODEL 9
REMARK VINA RESULT:    -3.399      7.360      8.274
REMARK INTER + INTRA:          -4.287
REMARK INTER:                  -4.135
REMARK INTRA:                  -0.152
REMARK UNBOUND:                -0.093
REMARK SMILES CCCCCC(=O)[O-]
REMARK SMILES IDX 4 1 5 2 6 3 7 4 8 5 3 6 2 7 1 8
REMARK H PARENT
REMARK Flexibility Score: inf
ROOT
ATOM      1  C   UNL     1      -5.493  27.317 -20.416  1.00  0.00     0.006 C 
ENDROOT
BRANCH   1   2
ATOM      2  C   UNL     1      -6.019  28.712 -20.775  1.00  0.00     0.053 C 
BRANCH   2   3
ATOM      3  C   UNL     1      -5.949  28.933 -22.253  1.00  0.00     0.041 C 
ATOM      4  O   UNL     1      -5.041  29.651 -22.745  1.00  0.00    -0.550 OA
ATOM      5  O   UNL     1      -6.920  28.385 -23.083  1.00  0.00    -0.550 OA
ENDBRANCH   2   3
ENDBRANCH   1   2
BRANCH   1   6
ATOM      6  C   UNL     1      -3.962  27.220 -20.506  1.00  0.00     0.000 C 
BRANCH   6   7
ATOM      7  C   UNL     1      -3.263  27.704 -19.227  1.00  0.00    -0.003 C 
ATOM      8  C   UNL     1      -2.540  29.027 -19.464  1.00  0.00     0.004 C 
ENDBRANCH   6   7
ENDBRANCH   1   6
TORSDOF 4
ENDMDL
