MODEL 1
REMARK VINA RESULT:    -3.897      0.000      0.000
REMARK INTER + INTRA:          -5.477
REMARK INTER:                  -5.036
REMARK INTRA:                  -0.441
REMARK UNBOUND:                -0.441
REMARK SMILES CCO[C@@H]1O[C@H](CO)[C@@H](O)[C@@H](O)[C@@H]1O
REMARK SMILES IDX 4 1 13 2 11 3 9 4 6 5 5 6 3 7 2 8 1 9 14 10 12 12 7 14 8 15
REMARK SMILES IDX 10 17
REMARK H PARENT 14 11 12 13 8 16 10 18
REMARK Flexibility Score: inf
ROOT
ATOM      1  C   UNL     1       8.740   5.196   3.215  1.00  0.00     0.281 C 
ATOM      2  C   UNL     1       8.809   5.166   1.652  1.00  0.00     0.202 C 
ATOM      3  C   UNL     1       8.391   3.779   1.111  1.00  0.00     0.179 C 
ATOM      4  C   UNL     1       6.990   3.378   1.646  1.00  0.00     0.177 C 
ATOM      5  C   UNL     1       6.745   3.976   3.062  1.00  0.00     0.178 C 
ATOM      6  O   UNL     1       7.979   4.113   3.744  1.00  0.00    -0.341 OA
ENDROOT
BRANCH   1   7
ATOM      7  O   UNL     1      10.049   5.127   3.750  1.00  0.00    -0.350 OA
BRANCH   7   8
ATOM      8  C   UNL     1      10.386   3.802   4.125  1.00  0.00     0.160 C 
ATOM      9  C   UNL     1      11.895   3.615   4.000  1.00  0.00     0.035 C 
ENDBRANCH   7   8
ENDBRANCH   1   7
BRANCH   2  10
ATOM     10  O   UNL     1      10.075   5.549   1.171  1.00  0.00    -0.385 OA
ATOM     11  H   UNL     1      10.124   6.540   1.192  1.00  0.00     0.211 HD
ENDBRANCH   2  10
BRANCH   3  12
ATOM     12  O   UNL     1       8.449   3.719  -0.294  1.00  0.00    -0.387 OA
ATOM     13  H   UNL     1       7.835   4.410  -0.658  1.00  0.00     0.211 HD
ENDBRANCH   3  12
BRANCH   5  14
ATOM     14  C   UNL     1       5.812   3.081   3.887  1.00  0.00     0.191 C 
BRANCH  14  15
ATOM     15  O   UNL     1       5.317   2.036   3.094  1.00  0.00    -0.394 OA
ATOM     16  H   UNL     1       5.868   1.234   3.303  1.00  0.00     0.210 HD
ENDBRANCH  14  15
ENDBRANCH   5  14
BRANCH   4  17
ATOM     17  O   UNL     1       5.961   3.762   0.766  1.00  0.00    -0.387 OA
ATOM     18  H   UNL     1       5.257   4.215   1.300  1.00  0.00     0.211 HD
ENDBRANCH   4  17
TORSDOF 7
ENDMDL
MODEL 2
REMARK VINA RESULT:    -3.793      2.390      3.622
REMARK INTER + INTRA:          -5.342
REMARK INTER:                  -5.105
REMARK INTRA:                  -0.238
REMARK UNBOUND:                -0.441
REMARK SMILES CCO[C@@H]1O[C@H](CO)[C@@H](O)[C@@H](O)[C@@H]1O
REMARK SMILES IDX 4 1 13 2 11 3 9 4 6 5 5 6 3 7 2 8 1 9 14 10 12 12 7 14 8 15
REMARK SMILES IDX 10 17
REMARK H PARENT 14 11 12 13 8 16 10 18
REMARK Flexibility Score: inf
ROOT
ATOM      1  C   UNL     1       7.136   6.737   2.651  1.00  0.00     0.281 C 
ATOM      2  C   UNL     1       8.622   6.669   2.168  1.00  0.00     0.202 C 
ATOM      3  C   UNL     1       9.191   5.242   2.344  1.00  0.00     0.179 C 
ATOM      4  C   UNL     1       8.291   4.199   1.628  1.00  0.00     0.177 C 
ATOM      5  C   UNL     1       6.803   4.652   1.635  1.00  0.00     0.178 C 
ATOM      6  O   UNL     1       6.549   5.445   2.781  1.00  0.00    -0.341 OA
ENDROOT
BRANCH   1   7
ATOM      7  O   UNL     1       7.073   7.387   3.907  1.00  0.00    -0.350 OA
BRANCH   7   8
ATOM      8  C   UNL     1       5.948   8.246   3.989  1.00  0.00     0.160 C 
ATOM      9  C   UNL     1       6.053   9.313   2.903  1.00  0.00     0.035 C 
ENDBRANCH   7   8
ENDBRANCH   1   7
BRANCH   2  10
ATOM     10  O   UNL     1       9.430   7.630   2.805  1.00  0.00    -0.385 OA
ATOM     11  H   UNL     1      10.057   7.999   2.130  1.00  0.00     0.211 HD
ENDBRANCH   2  10
BRANCH   3  12
ATOM     12  O   UNL     1      10.531   5.150   1.923  1.00  0.00    -0.387 OA
ATOM     13  H   UNL     1      10.679   4.238   1.559  1.00  0.00     0.211 HD
ENDBRANCH   3  12
BRANCH   5  14
ATOM     14  C   UNL     1       5.857   3.446   1.639  1.00  0.00     0.191 C 
BRANCH  14  15
ATOM     15  O   UNL     1       5.060   3.449   0.484  1.00  0.00    -0.394 OA
ATOM     16  H   UNL     1       5.347   2.669  -0.062  1.00  0.00     0.210 HD
ENDBRANCH  14  15
ENDBRANCH   5  14
BRANCH   4  17
ATOM     17  O   UNL     1       8.722   3.946   0.312  1.00  0.00    -0.387 OA
ATOM     18  H   UNL     1       8.258   3.130  -0.009  1.00  0.00     0.211 HD
ENDBRANCH   4  17
TORSDOF 7
ENDMDL
MODEL 3
REMARK VINA RESULT:    -3.613      1.843      3.871
REMARK INTER + INTRA:          -5.110
REMARK INTER:                  -4.578
REMARK INTRA:                  -0.532
REMARK UNBOUND:                -0.441
REMARK SMILES CCO[C@@H]1O[C@H](CO)[C@@H](O)[C@@H](O)[C@@H]1O
REMARK SMILES IDX 4 1 13 2 11 3 9 4 6 5 5 6 3 7 2 8 1 9 14 10 12 12 7 14 8 15
REMARK SMILES IDX 10 17
REMARK H PARENT 14 11 12 13 8 16 10 18
REMARK Flexibility Score: inf
ROOT
ATOM      1  C   UNL     1       7.564   3.264   3.880  1.00  0.00     0.281 C 
ATOM      2  C   UNL     1       8.394   2.994   2.582  1.00  0.00     0.202 C 
ATOM      3  C   UNL     1       7.905   3.890   1.421  1.00  0.00     0.179 C 
ATOM      4  C   UNL     1       7.928   5.386   1.833  1.00  0.00     0.177 C 
ATOM      5  C   UNL     1       7.656   5.546   3.357  1.00  0.00     0.178 C 
ATOM      6  O   UNL     1       6.834   4.486   3.811  1.00  0.00    -0.341 OA
ENDROOT
BRANCH   1   7
ATOM      7  O   UNL     1       6.648   2.206   4.088  1.00  0.00    -0.350 OA
BRANCH   7   8
ATOM      8  C   UNL     1       5.308   2.645   3.941  1.00  0.00     0.160 C 
ATOM      9  C   UNL     1       4.703   2.001   2.697  1.00  0.00     0.035 C 
ENDBRANCH   7   8
ENDBRANCH   1   7
BRANCH   2  10
ATOM     10  O   UNL     1       8.386   1.632   2.224  1.00  0.00    -0.385 OA
ATOM     11  H   UNL     1       8.183   1.102   3.039  1.00  0.00     0.211 HD
ENDBRANCH   2  10
BRANCH   3  12
ATOM     12  O   UNL     1       8.629   3.665   0.236  1.00  0.00    -0.387 OA
ATOM     13  H   UNL     1       8.267   2.847  -0.197  1.00  0.00     0.211 HD
ENDBRANCH   3  12
BRANCH   5  14
ATOM     14  C   UNL     1       6.966   6.882   3.659  1.00  0.00     0.191 C 
BRANCH  14  15
ATOM     15  O   UNL     1       6.810   7.625   2.480  1.00  0.00    -0.394 OA
ATOM     16  H   UNL     1       6.171   7.121   1.908  1.00  0.00     0.210 HD
ENDBRANCH  14  15
ENDBRANCH   5  14
BRANCH   4  17
ATOM     17  O   UNL     1       9.140   6.010   1.482  1.00  0.00    -0.387 OA
ATOM     18  H   UNL     1       9.056   6.332   0.546  1.00  0.00     0.211 HD
ENDBRANCH   4  17
TORSDOF 7
ENDMDL
MODEL 4
REMARK VINA RESULT:    -3.333      1.662      4.532
REMARK INTER + INTRA:          -4.748
REMARK INTER:                  -4.419
REMARK INTRA:                  -0.329
REMARK UNBOUND:                -0.441
REMARK SMILES CCO[C@@H]1O[C@H](CO)[C@@H](O)[C@@H](O)[C@@H]1O
REMARK SMILES IDX 4 1 13 2 11 3 9 4 6 5 5 6 3 7 2 8 1 9 14 10 12 12 7 14 8 15
REMARK SMILES IDX 10 17
REMARK H PARENT 14 11 12 13 8 16 10 18
REMARK Flexibility Score: inf
ROOT
ATOM      1  C   UNL     1       8.629   3.541   2.892  1.00  0.00     0.281 C 
ATOM      2  C   UNL     1       8.486   4.732   1.888  1.00  0.00     0.202 C 
ATOM      3  C   UNL     1       9.241   5.979   2.404  1.00  0.00     0.179 C 
ATOM      4  C   UNL     1      10.726   5.638   2.706  1.00  0.00     0.177 C 
ATOM      5  C   UNL     1      10.872   4.160   3.169  1.00  0.00     0.178 C 
ATOM      6  O   UNL     1       9.688   3.744   3.825  1.00  0.00    -0.341 OA
ENDROOT
BRANCH   1   7
ATOM      7  O   UNL     1       7.421   3.379   3.613  1.00  0.00    -0.350 OA
BRANCH   7   8
ATOM      8  C   UNL     1       6.962   2.039   3.557  1.00  0.00     0.160 C 
ATOM      9  C   UNL     1       5.436   2.034   3.546  1.00  0.00     0.035 C 
ENDBRANCH   7   8
ENDBRANCH   1   7
BRANCH   2  10
ATOM     10  O   UNL     1       7.139   5.024   1.602  1.00  0.00    -0.385 OA
ATOM     11  H   UNL     1       7.058   6.007   1.482  1.00  0.00     0.211 HD
ENDBRANCH   2  10
BRANCH   3  12
ATOM     12  O   UNL     1       9.126   7.071   1.523  1.00  0.00    -0.387 OA
ATOM     13  H   UNL     1       8.164   7.199   1.315  1.00  0.00     0.211 HD
ENDBRANCH   3  12
BRANCH   5  14
ATOM     14  C   UNL     1      12.060   3.995   4.125  1.00  0.00     0.191 C 
BRANCH  14  15
ATOM     15  O   UNL     1      13.258   3.916   3.401  1.00  0.00    -0.394 OA
ATOM     16  H   UNL     1      13.637   4.836   3.376  1.00  0.00     0.210 HD
ENDBRANCH  14  15
ENDBRANCH   5  14
BRANCH   4  17
ATOM     17  O   UNL     1      11.559   5.891   1.600  1.00  0.00    -0.387 OA
ATOM     18  H   UNL     1      10.991   6.242   0.865  1.00  0.00     0.211 HD
ENDBRANCH   4  17
TORSDOF 7
ENDMDL
MODEL 5
REMARK VINA RESULT:    -3.327      3.634      5.392
REMARK INTER + INTRA:          -4.740
REMARK INTER:                  -4.340
REMARK INTRA:                  -0.400
REMARK UNBOUND:                -0.441
REMARK SMILES CCO[C@@H]1O[C@H](CO)[C@@H](O)[C@@H](O)[C@@H]1O
REMARK SMILES IDX 4 1 13 2 11 3 9 4 6 5 5 6 3 7 2 8 1 9 14 10 12 12 7 14 8 15
REMARK SMILES IDX 10 17
REMARK H PARENT 14 11 12 13 8 16 10 18
REMARK Flexibility Score: inf
ROOT
ATOM      1  C   UNL     1      13.275   6.829   2.180  1.00  0.00     0.281 C 
ATOM      2  C   UNL     1      12.798   5.343   2.276  1.00  0.00     0.202 C 
ATOM      3  C   UNL     1      11.439   5.249   3.009  1.00  0.00     0.179 C 
ATOM      4  C   UNL     1      10.384   6.163   2.331  1.00  0.00     0.177 C 
ATOM      5  C   UNL     1      11.058   7.418   1.703  1.00  0.00     0.178 C 
ATOM      6  O   UNL     1      12.221   7.754   2.437  1.00  0.00    -0.341 OA
ENDROOT
BRANCH   1   7
ATOM      7  O   UNL     1      14.311   7.058   3.117  1.00  0.00    -0.350 OA
BRANCH   7   8
ATOM      8  C   UNL     1      15.211   8.054   2.660  1.00  0.00     0.160 C 
ATOM      9  C   UNL     1      16.338   7.387   1.876  1.00  0.00     0.035 C 
ENDBRANCH   7   8
ENDBRANCH   1   7
BRANCH   2  10
ATOM     10  O   UNL     1      13.766   4.514   2.874  1.00  0.00    -0.385 OA
ATOM     11  H   UNL     1      13.869   4.797   3.821  1.00  0.00     0.211 HD
ENDBRANCH   2  10
BRANCH   3  12
ATOM     12  O   UNL     1      10.986   3.921   3.117  1.00  0.00    -0.387 OA
ATOM     13  H   UNL     1      11.624   3.423   3.692  1.00  0.00     0.211 HD
ENDBRANCH   3  12
BRANCH   5  14
ATOM     14  C   UNL     1      10.101   8.616   1.700  1.00  0.00     0.191 C 
BRANCH  14  15
ATOM     15  O   UNL     1       8.892   8.271   1.080  1.00  0.00    -0.394 OA
ATOM     16  H   UNL     1       9.025   8.399   0.103  1.00  0.00     0.210 HD
ENDBRANCH  14  15
ENDBRANCH   5  14
BRANCH   4  17
ATOM     17  O   UNL     1       9.633   5.472   1.362  1.00  0.00    -0.387 OA
ATOM     18  H   UNL     1       8.672   5.590   1.579  1.00  0.00     0.211 HD
ENDBRANCH   4  17
TORSDOF 7
ENDMDL
MODEL 6
REMARK VINA RESULT:    -3.237      2.276      4.587
REMARK INTER + INTRA:          -4.624
REMARK INTER:                  -4.219
REMARK INTRA:                  -0.405
REMARK UNBOUND:                -0.441
REMARK SMILES CCO[C@@H]1O[C@H](CO)[C@@H](O)[C@@H](O)[C@@H]1O
REMARK SMILES IDX 4 1 13 2 11 3 9 4 6 5 5 6 3 7 2 8 1 9 14 10 12 12 7 14 8 15
REMARK SMILES IDX 10 17
REMARK H PARENT 14 11 12 13 8 16 10 18
REMARK Flexibility Score: inf
ROOT
ATOM      1  C   UNL     1       7.556   4.680   2.654  1.00  0.00     0.281 C 
ATOM      2  C   UNL     1       9.110   4.652   2.833  1.00  0.00     0.202 C 
ATOM      3  C   UNL     1       9.792   5.639   1.857  1.00  0.00     0.179 C 
ATOM      4  C   UNL     1       9.206   7.067   2.019  1.00  0.00     0.177 C 
ATOM      5  C   UNL     1       7.710   7.008   2.444  1.00  0.00     0.178 C 
ATOM      6  O   UNL     1       7.114   5.828   1.935  1.00  0.00    -0.341 OA
ENDROOT
BRANCH   1   7
ATOM      7  O   UNL     1       7.137   3.523   1.953  1.00  0.00    -0.350 OA
BRANCH   7   8
ATOM      8  C   UNL     1       5.905   3.741   1.286  1.00  0.00     0.160 C 
ATOM      9  C   UNL     1       4.798   2.992   2.022  1.00  0.00     0.035 C 
ENDBRANCH   7   8
ENDBRANCH   1   7
BRANCH   2  10
ATOM     10  O   UNL     1       9.634   3.352   2.705  1.00  0.00    -0.385 OA
ATOM     11  H   UNL     1      10.408   3.395   2.084  1.00  0.00     0.211 HD
ENDBRANCH   2  10
BRANCH   3  12
ATOM     12  O   UNL     1      11.193   5.633   1.990  1.00  0.00    -0.387 OA
ATOM     13  H   UNL     1      11.581   5.264   1.153  1.00  0.00     0.211 HD
ENDBRANCH   3  12
BRANCH   5  14
ATOM     14  C   UNL     1       6.938   8.226   1.922  1.00  0.00     0.191 C 
BRANCH  14  15
ATOM     15  O   UNL     1       7.783   9.048   1.162  1.00  0.00    -0.394 OA
ATOM     16  H   UNL     1       7.841   8.638   0.258  1.00  0.00     0.210 HD
ENDBRANCH  14  15
ENDBRANCH   5  14
BRANCH   4  17
ATOM     17  O   UNL     1       9.946   7.839   2.934  1.00  0.00    -0.387 OA
ATOM     18  H   UNL     1      10.093   7.289   3.747  1.00  0.00     0.211 HD
ENDBRANCH   4  17
TORSDOF 7
ENDMDL
MODEL 7
REMARK VINA RESULT:    -3.206      8.885     11.859
REMARK INTER + INTRA:          -4.585
REMARK INTER:                  -4.208
REMARK INTRA:                  -0.376
REMARK UNBOUND:                -0.441
REMARK SMILES CCO[C@@H]1O[C@H](CO)[C@@H](O)[C@@H](O)[C@@H]1O
REMARK SMILES IDX 4 1 13 2 11 3 9 4 6 5 5 6 3 7 2 8 1 9 14 10 12 12 7 14 8 15
REMARK SMILES IDX 10 17
REMARK H PARENT 14 11 12 13 8 16 10 18
REMARK Flexibility Score: inf
ROOT
ATOM      1  C   UNL     1      17.469   7.996   1.534  1.00  0.00     0.281 C 
ATOM      2  C   UNL     1      18.364   9.141   2.114  1.00  0.00     0.202 C 
ATOM      3  C   UNL     1      19.617   8.559   2.809  1.00  0.00     0.179 C 
ATOM      4  C   UNL     1      20.401   7.630   1.842  1.00  0.00     0.177 C 
ATOM      5  C   UNL     1      19.436   6.927   0.844  1.00  0.00     0.178 C 
ATOM      6  O   UNL     1      18.165   6.756   1.446  1.00  0.00    -0.341 OA
ENDROOT
BRANCH   1   7
ATOM      7  O   UNL     1      16.334   7.815   2.361  1.00  0.00    -0.350 OA
BRANCH   7   8
ATOM      8  C   UNL     1      15.149   7.686   1.592  1.00  0.00     0.160 C 
ATOM      9  C   UNL     1      14.217   6.687   2.274  1.00  0.00     0.035 C 
ENDBRANCH   7   8
ENDBRANCH   1   7
BRANCH   2  10
ATOM     10  O   UNL     1      17.644   9.992   2.974  1.00  0.00    -0.385 OA
ATOM     11  H   UNL     1      18.292  10.604   3.411  1.00  0.00     0.211 HD
ENDBRANCH   2  10
BRANCH   3  12
ATOM     12  O   UNL     1      20.440   9.565   3.347  1.00  0.00    -0.387 OA
ATOM     13  H   UNL     1      19.969  10.434   3.251  1.00  0.00     0.211 HD
ENDBRANCH   3  12
BRANCH   5  14
ATOM     14  C   UNL     1      19.980   5.557   0.420  1.00  0.00     0.191 C 
BRANCH  14  15
ATOM     15  O   UNL     1      21.335   5.446   0.765  1.00  0.00    -0.394 OA
ATOM     16  H   UNL     1      21.791   5.019  -0.009  1.00  0.00     0.210 HD
ENDBRANCH  14  15
ENDBRANCH   5  14
BRANCH   4  17
ATOM     17  O   UNL     1      21.408   8.325   1.146  1.00  0.00    -0.387 OA
ATOM     18  H   UNL     1      21.515   7.895   0.258  1.00  0.00     0.211 HD
ENDBRANCH   4  17
TORSDOF 7
ENDMDL
MODEL 8
REMARK VINA RESULT:    -3.184      2.759      4.870
REMARK INTER + INTRA:          -4.555
REMARK INTER:                  -4.127
REMARK INTRA:                  -0.428
REMARK UNBOUND:                -0.441
REMARK SMILES CCO[C@@H]1O[C@H](CO)[C@@H](O)[C@@H](O)[C@@H]1O
REMARK SMILES IDX 4 1 13 2 11 3 9 4 6 5 5 6 3 7 2 8 1 9 14 10 12 12 7 14 8 15
REMARK SMILES IDX 10 17
REMARK H PARENT 14 11 12 13 8 16 10 18
REMARK Flexibility Score: inf
ROOT
ATOM      1  C   UNL     1       7.480   7.024   3.387  1.00  0.00     0.281 C 
ATOM      2  C   UNL     1       6.919   5.565   3.326  1.00  0.00     0.202 C 
ATOM      3  C   UNL     1       7.319   4.878   1.999  1.00  0.00     0.179 C 
ATOM      4  C   UNL     1       8.858   4.927   1.796  1.00  0.00     0.177 C 
ATOM      5  C   UNL     1       9.462   6.207   2.441  1.00  0.00     0.178 C 
ATOM      6  O   UNL     1       8.505   7.251   2.422  1.00  0.00    -0.341 OA
ENDROOT
BRANCH   1   7
ATOM      7  O   UNL     1       6.432   7.947   3.152  1.00  0.00    -0.350 OA
BRANCH   7   8
ATOM      8  C   UNL     1       6.610   8.629   1.922  1.00  0.00     0.160 C 
ATOM      9  C   UNL     1       5.971  10.012   2.020  1.00  0.00     0.035 C 
ENDBRANCH   7   8
ENDBRANCH   1   7
BRANCH   2  10
ATOM     10  O   UNL     1       5.527   5.525   3.530  1.00  0.00    -0.385 OA
ATOM     11  H   UNL     1       5.336   5.930   4.416  1.00  0.00     0.211 HD
ENDBRANCH   2  10
BRANCH   3  12
ATOM     12  O   UNL     1       6.823   3.564   1.912  1.00  0.00    -0.387 OA
ATOM     13  H   UNL     1       5.905   3.605   1.536  1.00  0.00     0.211 HD
ENDBRANCH   3  12
BRANCH   5  14
ATOM     14  C   UNL     1      10.719   6.664   1.691  1.00  0.00     0.191 C 
BRANCH  14  15
ATOM     15  O   UNL     1      10.854   5.951   0.491  1.00  0.00    -0.394 OA
ATOM     16  H   UNL     1      10.052   5.367   0.415  1.00  0.00     0.210 HD
ENDBRANCH  14  15
ENDBRANCH   5  14
BRANCH   4  17
ATOM     17  O   UNL     1       9.491   3.776   2.301  1.00  0.00    -0.387 OA
ATOM     18  H   UNL     1      10.054   3.395   1.577  1.00  0.00     0.211 HD
ENDBRANCH   4  17
TORSDOF 7
ENDMDL
MODEL 9
REMARK VINA RESULT:    -3.139      2.553      5.254
REMARK INTER + INTRA:          -4.498
REMARK INTER:                  -4.134
REMARK INTRA:                  -0.364
REMARK UNBOUND:                -0.441
REMARK SMILES CCO[C@@H]1O[C@H](CO)[C@@H](O)[C@@H](O)[C@@H]1O
REMARK SMILES IDX 4 1 13 2 11 3 9 4 6 5 5 6 3 7 2 8 1 9 14 10 12 12 7 14 8 15
REMARK SMILES IDX 10 17
REMARK H PARENT 14 11 12 13 8 16 10 18
REMARK Flexibility Score: inf
ROOT
ATOM      1  C   UNL     1       9.723   5.645   2.082  1.00  0.00     0.281 C 
ATOM      2  C   UNL     1      10.374   6.951   1.519  1.00  0.00     0.202 C 
ATOM      3  C   UNL     1      11.379   7.545   2.534  1.00  0.00     0.179 C 
ATOM      4  C   UNL     1      12.439   6.487   2.942  1.00  0.00     0.177 C 
ATOM      5  C   UNL     1      11.835   5.054   2.907  1.00  0.00     0.178 C 
ATOM      6  O   UNL     1      10.448   5.112   3.187  1.00  0.00    -0.341 OA
ENDROOT
BRANCH   1   7
ATOM      7  O   UNL     1       8.399   5.917   2.503  1.00  0.00    -0.350 OA
BRANCH   7   8
ATOM      8  C   UNL     1       7.589   4.755   2.442  1.00  0.00     0.160 C 
ATOM      9  C   UNL     1       7.875   4.013   1.139  1.00  0.00     0.035 C 
ENDBRANCH   7   8
ENDBRANCH   1   7
BRANCH   2  10
ATOM     10  O   UNL     1       9.408   7.900   1.133  1.00  0.00    -0.385 OA
ATOM     11  H   UNL     1       9.596   8.744   1.622  1.00  0.00     0.211 HD
ENDBRANCH   2  10
BRANCH   3  12
ATOM     12  O   UNL     1      11.978   8.726   2.058  1.00  0.00    -0.387 OA
ATOM     13  H   UNL     1      11.562   9.495   2.530  1.00  0.00     0.211 HD
ENDBRANCH   3  12
BRANCH   5  14
ATOM     14  C   UNL     1      12.517   4.140   3.933  1.00  0.00     0.191 C 
BRANCH  14  15
ATOM     15  O   UNL     1      13.741   3.675   3.431  1.00  0.00    -0.394 OA
ATOM     16  H   UNL     1      14.156   3.130   4.152  1.00  0.00     0.210 HD
ENDBRANCH  14  15
ENDBRANCH   5  14
BRANCH   4  17
ATOM     17  O   UNL     1      13.589   6.555   2.133  1.00  0.00    -0.387 OA
ATOM     18  H   UNL     1      13.309   6.863   1.231  1.00  0.00     0.211 HD
ENDBRANCH   4  17
TORSDOF 7
ENDMDL
