MODEL 1
REMARK VINA RESULT:    -8.275      0.000      0.000
REMARK INTER + INTRA:         -15.054
REMARK INTER:                 -13.596
REMARK INTRA:                  -1.458
REMARK UNBOUND:                -1.458
REMARK SMILES COc1ccc([C@H]2CC(=O)c3c(O)cc(O[C@@H]4O[C@@H](CO[C@H]5O[C@H](C)[C@@H](O)[C@@H](O)[C@H]5O)[C@H](O)[C@H](O)[C@@H]4O)cc3O2)cc1O
REMARK SMILES IDX 19 1 32 2 34 3 36 4 17 5 18 6 20 7 21 8 22 9 25 10 24 11
REMARK SMILES IDX 26 12 23 13 28 14 30 15 27 16 29 18 31 20 33 22 35 24 16 26
REMARK SMILES IDX 15 27 14 28 38 29 12 30 39 31 11 32 40 33 9 34 7 35 10 36
REMARK SMILES IDX 8 37 13 38 6 40 41 41 5 42 42 43 4 44 3 45 43 46 2 48 1 49
REMARK SMILES IDX 37 50
REMARK H PARENT 27 17 29 19 31 21 33 23 35 25 13 39 43 47 37 51
REMARK Flexibility Score: inf
ROOT
ATOM      1  C   UNL     1      -1.031  36.120 -18.490  1.00  0.00     0.180 C 
ATOM      2  C   UNL     1      -0.231  36.348 -19.858  1.00  0.00     0.177 C 
ATOM      3  C   UNL     1       0.771  35.054 -19.827  1.00  0.00     0.180 C 
ATOM      4  C   UNL     1       1.291  34.713 -18.311  1.00  0.00     0.214 C 
ATOM      5  C   UNL     1       1.087  35.922 -17.398  1.00  0.00     0.339 C 
ATOM      6  O   UNL     1      -0.224  36.372 -17.329  1.00  0.00    -0.332 OA
ENDROOT
BRANCH   1   7
ATOM      7  C   UNL     1      -2.552  36.161 -18.378  1.00  0.00     0.198 C 
BRANCH   7   8
ATOM      8  O   UNL     1      -3.004  35.806 -17.130  1.00  0.00    -0.347 OA
BRANCH   8   9
ATOM      9  C   UNL     1      -3.699  34.485 -17.057  1.00  0.00     0.281 C 
ATOM     10  C   UNL     1      -7.295  33.680 -17.426  1.00  0.00     0.041 C 
ATOM     11  C   UNL     1      -5.777  33.417 -17.686  1.00  0.00     0.150 C 
ATOM     12  C   UNL     1      -5.234  32.274 -16.868  1.00  0.00     0.174 C 
ATOM     13  O   UNL     1      -5.106  34.643 -17.488  1.00  0.00    -0.344 OA
ATOM     14  C   UNL     1      -3.862  31.996 -17.412  1.00  0.00     0.179 C 
ATOM     15  C   UNL     1      -3.011  33.200 -17.580  1.00  0.00     0.202 C 
BRANCH  12  16
ATOM     16  O   UNL     1      -6.093  31.136 -16.706  1.00  0.00    -0.388 OA
ATOM     17  H   UNL     1      -5.411  30.314 -16.826  1.00  0.00     0.211 HD
ENDBRANCH  12  16
BRANCH  14  18
ATOM     18  O   UNL     1      -3.804  31.138 -18.536  1.00  0.00    -0.387 OA
ATOM     19  H   UNL     1      -4.013  30.179 -18.209  1.00  0.00     0.211 HD
ENDBRANCH  14  18
BRANCH  15  20
ATOM     20  O   UNL     1      -2.429  33.195 -18.882  1.00  0.00    -0.385 OA
ATOM     21  H   UNL     1      -1.527  32.774 -18.819  1.00  0.00     0.211 HD
ENDBRANCH  15  20
ENDBRANCH   8   9
ENDBRANCH   7   8
ENDBRANCH   1   7
BRANCH   2  22
ATOM     22  O   UNL     1      -1.123  36.459 -20.930  1.00  0.00    -0.387 OA
ATOM     23  H   UNL     1      -1.307  35.517 -21.214  1.00  0.00     0.211 HD
ENDBRANCH   2  22
BRANCH   3  24
ATOM     24  O   UNL     1       0.118  34.040 -20.399  1.00  0.00    -0.387 OA
ATOM     25  H   UNL     1      -0.310  34.324 -21.256  1.00  0.00     0.211 HD
ENDBRANCH   3  24
BRANCH   5  26
ATOM     26  O   UNL     1       1.492  35.620 -16.095  1.00  0.00    -0.462 OA
BRANCH  26  27
ATOM     27  C   UNL     1       2.888  35.371 -15.886  1.00  0.00     0.130 A 
ATOM     28  C   UNL     1       3.994  36.037 -16.575  1.00  0.00     0.093 A 
ATOM     29  C   UNL     1       3.237  34.509 -14.771  1.00  0.00     0.094 A 
ATOM     30  C   UNL     1       5.258  35.942 -15.815  1.00  0.00     0.133 A 
ATOM     31  C   UNL     1       4.535  34.012 -14.900  1.00  0.00     0.138 A 
ATOM     32  C   UNL     1       5.587  34.897 -14.717  1.00  0.00     0.102 A 
ATOM     33  O   UNL     1       4.705  32.600 -14.859  1.00  0.00    -0.484 OA
ATOM     34  C   UNL     1       5.580  34.709 -13.137  1.00  0.00     0.174 C 
ATOM     35  C   UNL     1       5.145  32.040 -13.610  1.00  0.00     0.211 C 
ATOM     36  O   UNL     1       5.382  35.733 -12.372  1.00  0.00    -0.294 OA
ATOM     37  C   UNL     1       5.199  33.260 -12.495  1.00  0.00     0.131 C 
BRANCH  30  38
ATOM     38  O   UNL     1       6.346  36.395 -16.598  1.00  0.00    -0.507 OA
ATOM     39  H   UNL     1       6.039  36.159 -17.588  1.00  0.00     0.293 HD
ENDBRANCH  30  38
BRANCH  35  40
ATOM     40  C   UNL     1       6.622  31.437 -13.680  1.00  0.00    -0.003 A 
ATOM     41  C   UNL     1       6.763  30.870 -14.980  1.00  0.00     0.057 A 
ATOM     42  C   UNL     1       7.437  30.680 -12.684  1.00  0.00     0.011 A 
ATOM     43  C   UNL     1       6.959  29.468 -14.988  1.00  0.00     0.158 A 
ATOM     44  C   UNL     1       8.369  29.575 -13.115  1.00  0.00     0.051 A 
ATOM     45  C   UNL     1       8.202  29.212 -14.464  1.00  0.00     0.160 A 
BRANCH  43  46
ATOM     46  O   UNL     1       5.887  28.754 -14.616  1.00  0.00    -0.504 OA
ATOM     47  H   UNL     1       5.208  29.089 -13.886  1.00  0.00     0.293 HD
ENDBRANCH  43  46
BRANCH  45  48
ATOM     48  O   UNL     1       9.341  28.823 -15.211  1.00  0.00    -0.493 OA
ATOM     49  C   UNL     1      10.322  27.970 -14.623  1.00  0.00     0.278 C 
ENDBRANCH  45  48
ENDBRANCH  35  40
ENDBRANCH  26  27
ENDBRANCH   5  26
BRANCH   4  50
ATOM     50  O   UNL     1       0.425  33.713 -17.728  1.00  0.00    -0.384 OA
ATOM     51  H   UNL     1      -0.527  33.995 -17.724  1.00  0.00     0.211 HD
ENDBRANCH   4  50
TORSDOF 15
ENDMDL
MODEL 2
REMARK VINA RESULT:    -8.141      2.042      2.954
REMARK INTER + INTRA:         -14.835
REMARK INTER:                 -12.931
REMARK INTRA:                  -1.904
REMARK UNBOUND:                -1.458
REMARK SMILES COc1ccc([C@H]2CC(=O)c3c(O)cc(O[C@@H]4O[C@@H](CO[C@H]5O[C@H](C)[C@@H](O)[C@@H](O)[C@H]5O)[C@H](O)[C@H](O)[C@@H]4O)cc3O2)cc1O
REMARK SMILES IDX 19 1 32 2 34 3 36 4 17 5 18 6 20 7 21 8 22 9 25 10 24 11
REMARK SMILES IDX 26 12 23 13 28 14 30 15 27 16 29 18 31 20 33 22 35 24 16 26
REMARK SMILES IDX 15 27 14 28 38 29 12 30 39 31 11 32 40 33 9 34 7 35 10 36
REMARK SMILES IDX 8 37 13 38 6 40 41 41 5 42 42 43 4 44 3 45 43 46 2 48 1 49
REMARK SMILES IDX 37 50
REMARK H PARENT 27 17 29 19 31 21 33 23 35 25 13 39 43 47 37 51
REMARK Flexibility Score: inf
ROOT
ATOM      1  C   UNL     1       2.464  36.337 -19.130  1.00  0.00     0.180 C 
ATOM      2  C   UNL     1       3.144  35.617 -20.387  1.00  0.00     0.177 C 
ATOM      3  C   UNL     1       3.477  34.152 -19.737  1.00  0.00     0.180 C 
ATOM      4  C   UNL     1       3.941  34.264 -18.170  1.00  0.00     0.214 C 
ATOM      5  C   UNL     1       4.377  35.693 -17.849  1.00  0.00     0.339 C 
ATOM      6  O   UNL     1       3.409  36.656 -18.096  1.00  0.00    -0.332 OA
ENDROOT
BRANCH   1   7
ATOM      7  C   UNL     1       1.133  37.081 -19.193  1.00  0.00     0.198 C 
BRANCH   7   8
ATOM      8  O   UNL     1       0.163  36.384 -19.872  1.00  0.00    -0.347 OA
BRANCH   8   9
ATOM      9  C   UNL     1      -0.770  35.593 -19.013  1.00  0.00     0.281 C 
ATOM     10  C   UNL     1      -4.417  35.983 -18.503  1.00  0.00     0.041 C 
ATOM     11  C   UNL     1      -3.128  35.131 -18.732  1.00  0.00     0.150 C 
ATOM     12  C   UNL     1      -2.663  34.428 -17.483  1.00  0.00     0.174 C 
ATOM     13  O   UNL     1      -2.166  35.986 -19.311  1.00  0.00    -0.344 OA
ATOM     14  C   UNL     1      -1.590  33.475 -17.925  1.00  0.00     0.179 C 
ATOM     15  C   UNL     1      -0.563  34.072 -18.813  1.00  0.00     0.202 C 
BRANCH  12  16
ATOM     16  O   UNL     1      -3.684  33.884 -16.634  1.00  0.00    -0.388 OA
ATOM     17  H   UNL     1      -3.157  33.109 -16.108  1.00  0.00     0.211 HD
ENDBRANCH  12  16
BRANCH  14  18
ATOM     18  O   UNL     1      -2.036  32.215 -18.391  1.00  0.00    -0.387 OA
ATOM     19  H   UNL     1      -3.062  32.268 -18.505  1.00  0.00     0.211 HD
ENDBRANCH  14  18
BRANCH  15  20
ATOM     20  O   UNL     1      -0.371  33.233 -19.950  1.00  0.00    -0.385 OA
ATOM     21  H   UNL     1      -0.036  33.798 -20.701  1.00  0.00     0.211 HD
ENDBRANCH  15  20
ENDBRANCH   8   9
ENDBRANCH   7   8
ENDBRANCH   1   7
BRANCH   2  22
ATOM     22  O   UNL     1       2.290  35.663 -21.495  1.00  0.00    -0.387 OA
ATOM     23  H   UNL     1       1.517  35.075 -21.252  1.00  0.00     0.211 HD
ENDBRANCH   2  22
BRANCH   3  24
ATOM     24  O   UNL     1       2.394  33.392 -19.911  1.00  0.00    -0.387 OA
ATOM     25  H   UNL     1       1.654  33.910 -20.339  1.00  0.00     0.211 HD
ENDBRANCH   3  24
BRANCH   5  26
ATOM     26  O   UNL     1       4.735  35.800 -16.502  1.00  0.00    -0.462 OA
BRANCH  26  27
ATOM     27  C   UNL     1       5.957  35.170 -16.098  1.00  0.00     0.130 A 
ATOM     28  C   UNL     1       7.307  35.586 -16.481  1.00  0.00     0.093 A 
ATOM     29  C   UNL     1       5.855  34.137 -15.083  1.00  0.00     0.094 A 
ATOM     30  C   UNL     1       8.330  35.082 -15.540  1.00  0.00     0.133 A 
ATOM     31  C   UNL     1       6.993  33.330 -15.064  1.00  0.00     0.138 A 
ATOM     32  C   UNL     1       8.168  33.881 -14.573  1.00  0.00     0.102 A 
ATOM     33  O   UNL     1       6.806  31.927 -15.208  1.00  0.00    -0.484 OA
ATOM     34  C   UNL     1       7.794  33.540 -13.063  1.00  0.00     0.174 C 
ATOM     35  C   UNL     1       6.836  31.145 -14.001  1.00  0.00     0.211 C 
ATOM     36  O   UNL     1       7.698  34.497 -12.198  1.00  0.00    -0.294 OA
ATOM     37  C   UNL     1       6.953  32.187 -12.722  1.00  0.00     0.131 C 
BRANCH  30  38
ATOM     38  O   UNL     1       9.631  35.308 -16.049  1.00  0.00    -0.507 OA
ATOM     39  H   UNL     1      10.107  35.833 -15.256  1.00  0.00     0.293 HD
ENDBRANCH  30  38
BRANCH  35  40
ATOM     40  C   UNL     1       8.106  30.183 -13.909  1.00  0.00    -0.003 A 
ATOM     41  C   UNL     1       7.729  28.959 -14.533  1.00  0.00     0.057 A 
ATOM     42  C   UNL     1       9.089  29.933 -12.813  1.00  0.00     0.011 A 
ATOM     43  C   UNL     1       7.712  27.840 -13.666  1.00  0.00     0.158 A 
ATOM     44  C   UNL     1       9.662  28.559 -12.574  1.00  0.00     0.051 A 
ATOM     45  C   UNL     1       9.009  27.557 -13.317  1.00  0.00     0.160 A 
BRANCH  43  46
ATOM     46  O   UNL     1       6.735  27.862 -12.749  1.00  0.00    -0.504 OA
ATOM     47  H   UNL     1       6.923  27.781 -11.718  1.00  0.00     0.293 HD
ENDBRANCH  43  46
BRANCH  45  48
ATOM     48  O   UNL     1       9.771  26.470 -13.810  1.00  0.00    -0.493 OA
ATOM     49  C   UNL     1       9.399  25.131 -13.484  1.00  0.00     0.278 C 
ENDBRANCH  45  48
ENDBRANCH  35  40
ENDBRANCH  26  27
ENDBRANCH   5  26
BRANCH   4  50
ATOM     50  O   UNL     1       2.786  34.075 -17.321  1.00  0.00    -0.384 OA
ATOM     51  H   UNL     1       1.943  34.354 -17.764  1.00  0.00     0.211 HD
ENDBRANCH   4  50
TORSDOF 15
ENDMDL
MODEL 3
REMARK VINA RESULT:    -8.062      1.570      2.127
REMARK INTER + INTRA:         -14.704
REMARK INTER:                 -12.983
REMARK INTRA:                  -1.722
REMARK UNBOUND:                -1.458
REMARK SMILES COc1ccc([C@H]2CC(=O)c3c(O)cc(O[C@@H]4O[C@@H](CO[C@H]5O[C@H](C)[C@@H](O)[C@@H](O)[C@H]5O)[C@H](O)[C@H](O)[C@@H]4O)cc3O2)cc1O
REMARK SMILES IDX 19 1 32 2 34 3 36 4 17 5 18 6 20 7 21 8 22 9 25 10 24 11
REMARK SMILES IDX 26 12 23 13 28 14 30 15 27 16 29 18 31 20 33 22 35 24 16 26
REMARK SMILES IDX 15 27 14 28 38 29 12 30 39 31 11 32 40 33 9 34 7 35 10 36
REMARK SMILES IDX 8 37 13 38 6 40 41 41 5 42 42 43 4 44 3 45 43 46 2 48 1 49
REMARK SMILES IDX 37 50
REMARK H PARENT 27 17 29 19 31 21 33 23 35 25 13 39 43 47 37 51
REMARK Flexibility Score: inf
ROOT
ATOM      1  C   UNL     1      -0.078  34.954 -18.074  1.00  0.00     0.180 C 
ATOM      2  C   UNL     1      -0.543  36.481 -18.207  1.00  0.00     0.177 C 
ATOM      3  C   UNL     1       0.034  36.831 -19.698  1.00  0.00     0.180 C 
ATOM      4  C   UNL     1       1.475  36.108 -19.988  1.00  0.00     0.214 C 
ATOM      5  C   UNL     1       2.122  35.674 -18.673  1.00  0.00     0.339 C 
ATOM      6  O   UNL     1       1.342  34.821 -17.905  1.00  0.00    -0.332 OA
ENDROOT
BRANCH   1   7
ATOM      7  C   UNL     1      -1.001  33.819 -17.643  1.00  0.00     0.198 C 
BRANCH   7   8
ATOM      8  O   UNL     1      -1.946  33.509 -18.590  1.00  0.00    -0.347 OA
BRANCH   8   9
ATOM      9  C   UNL     1      -3.327  33.290 -18.063  1.00  0.00     0.281 C 
ATOM     10  C   UNL     1      -5.335  35.374 -15.753  1.00  0.00     0.041 C 
ATOM     11  C   UNL     1      -5.155  34.490 -17.028  1.00  0.00     0.150 C 
ATOM     12  C   UNL     1      -5.740  33.110 -16.869  1.00  0.00     0.174 C 
ATOM     13  O   UNL     1      -3.781  34.505 -17.350  1.00  0.00    -0.344 OA
ATOM     14  C   UNL     1      -5.710  32.492 -18.237  1.00  0.00     0.179 C 
ATOM     15  C   UNL     1      -4.412  32.623 -18.944  1.00  0.00     0.202 C 
BRANCH  12  16
ATOM     16  O   UNL     1      -6.984  33.018 -16.159  1.00  0.00    -0.388 OA
ATOM     17  H   UNL     1      -7.073  33.997 -15.725  1.00  0.00     0.211 HD
ENDBRANCH  12  16
BRANCH  14  18
ATOM     18  O   UNL     1      -6.810  32.793 -19.076  1.00  0.00    -0.387 OA
ATOM     19  H   UNL     1      -7.670  32.498 -18.583  1.00  0.00     0.211 HD
ENDBRANCH  14  18
BRANCH  15  20
ATOM     20  O   UNL     1      -4.636  33.103 -20.267  1.00  0.00    -0.385 OA
ATOM     21  H   UNL     1      -5.274  33.869 -20.218  1.00  0.00     0.211 HD
ENDBRANCH  15  20
ENDBRANCH   8   9
ENDBRANCH   7   8
ENDBRANCH   1   7
BRANCH   2  22
ATOM     22  O   UNL     1      -1.922  36.589 -17.996  1.00  0.00    -0.387 OA
ATOM     23  H   UNL     1      -2.164  37.503 -18.323  1.00  0.00     0.211 HD
ENDBRANCH   2  22
BRANCH   3  24
ATOM     24  O   UNL     1      -0.913  36.486 -20.574  1.00  0.00    -0.387 OA
ATOM     25  H   UNL     1      -1.775  36.948 -20.373  1.00  0.00     0.211 HD
ENDBRANCH   3  24
BRANCH   5  26
ATOM     26  O   UNL     1       3.332  35.020 -18.920  1.00  0.00    -0.462 OA
BRANCH  26  27
ATOM     27  C   UNL     1       4.252  34.912 -17.825  1.00  0.00     0.130 A 
ATOM     28  C   UNL     1       5.098  35.986 -17.302  1.00  0.00     0.093 A 
ATOM     29  C   UNL     1       4.214  33.679 -17.060  1.00  0.00     0.094 A 
ATOM     30  C   UNL     1       5.533  35.722 -15.914  1.00  0.00     0.133 A 
ATOM     31  C   UNL     1       5.381  33.509 -16.313  1.00  0.00     0.138 A 
ATOM     32  C   UNL     1       5.574  34.338 -15.218  1.00  0.00     0.102 A 
ATOM     33  O   UNL     1       6.108  32.299 -16.498  1.00  0.00    -0.484 OA
ATOM     34  C   UNL     1       4.718  33.403 -14.255  1.00  0.00     0.174 C 
ATOM     35  C   UNL     1       5.915  31.274 -15.508  1.00  0.00     0.211 C 
ATOM     36  O   UNL     1       3.670  33.882 -13.666  1.00  0.00    -0.294 OA
ATOM     37  C   UNL     1       4.738  31.787 -14.465  1.00  0.00     0.131 C 
BRANCH  30  38
ATOM     38  O   UNL     1       6.518  36.657 -15.515  1.00  0.00    -0.507 OA
ATOM     39  H   UNL     1       6.540  36.539 -14.458  1.00  0.00     0.293 HD
ENDBRANCH  30  38
BRANCH  35  40
ATOM     40  C   UNL     1       7.214  31.010 -14.618  1.00  0.00    -0.003 A 
ATOM     41  C   UNL     1       7.773  29.783 -15.078  1.00  0.00     0.057 A 
ATOM     42  C   UNL     1       7.476  31.194 -13.160  1.00  0.00     0.011 A 
ATOM     43  C   UNL     1       7.776  28.744 -14.116  1.00  0.00     0.158 A 
ATOM     44  C   UNL     1       8.352  30.233 -12.395  1.00  0.00     0.051 A 
ATOM     45  C   UNL     1       8.676  29.080 -13.135  1.00  0.00     0.160 A 
BRANCH  43  46
ATOM     46  O   UNL     1       6.562  28.264 -13.812  1.00  0.00    -0.504 OA
ATOM     47  H   UNL     1       6.423  27.431 -13.186  1.00  0.00     0.293 HD
ENDBRANCH  43  46
BRANCH  45  48
ATOM     48  O   UNL     1       9.955  28.498 -12.962  1.00  0.00    -0.493 OA
ATOM     49  C   UNL     1      10.074  27.185 -12.417  1.00  0.00     0.278 C 
ENDBRANCH  45  48
ENDBRANCH  35  40
ENDBRANCH  26  27
ENDBRANCH   5  26
BRANCH   4  50
ATOM     50  O   UNL     1       1.245  34.853 -20.669  1.00  0.00    -0.384 OA
ATOM     51  H   UNL     1       0.663  34.242 -20.147  1.00  0.00     0.211 HD
ENDBRANCH   4  50
TORSDOF 15
ENDMDL
MODEL 4
REMARK VINA RESULT:    -7.964      2.496     10.160
REMARK INTER + INTRA:         -14.544
REMARK INTER:                 -12.858
REMARK INTRA:                  -1.686
REMARK UNBOUND:                -1.458
REMARK SMILES COc1ccc([C@H]2CC(=O)c3c(O)cc(O[C@@H]4O[C@@H](CO[C@H]5O[C@H](C)[C@@H](O)[C@@H](O)[C@H]5O)[C@H](O)[C@H](O)[C@@H]4O)cc3O2)cc1O
REMARK SMILES IDX 19 1 32 2 34 3 36 4 17 5 18 6 20 7 21 8 22 9 25 10 24 11
REMARK SMILES IDX 26 12 23 13 28 14 30 15 27 16 29 18 31 20 33 22 35 24 16 26
REMARK SMILES IDX 15 27 14 28 38 29 12 30 39 31 11 32 40 33 9 34 7 35 10 36
REMARK SMILES IDX 8 37 13 38 6 40 41 41 5 42 42 43 4 44 3 45 43 46 2 48 1 49
REMARK SMILES IDX 37 50
REMARK H PARENT 27 17 29 19 31 21 33 23 35 25 13 39 43 47 37 51
REMARK Flexibility Score: inf
ROOT
ATOM      1  C   UNL     1       4.811  34.244 -14.317  1.00  0.00     0.180 C 
ATOM      2  C   UNL     1       4.840  32.759 -14.913  1.00  0.00     0.177 C 
ATOM      3  C   UNL     1       5.197  33.082 -16.478  1.00  0.00     0.180 C 
ATOM      4  C   UNL     1       4.465  34.448 -17.008  1.00  0.00     0.214 C 
ATOM      5  C   UNL     1       3.306  34.819 -16.084  1.00  0.00     0.339 C 
ATOM      6  O   UNL     1       3.666  34.994 -14.755  1.00  0.00    -0.332 OA
ENDROOT
BRANCH   1   7
ATOM      7  C   UNL     1       5.554  34.669 -13.054  1.00  0.00     0.198 C 
BRANCH   7   8
ATOM      8  O   UNL     1       5.308  33.842 -11.986  1.00  0.00    -0.347 OA
BRANCH   8   9
ATOM      9  C   UNL     1       4.448  34.428 -10.913  1.00  0.00     0.281 C 
ATOM     10  C   UNL     1       0.924  35.557 -11.058  1.00  0.00     0.041 C 
ATOM     11  C   UNL     1       2.123  34.824 -10.374  1.00  0.00     0.150 C 
ATOM     12  C   UNL     1       2.704  35.603  -9.223  1.00  0.00     0.174 C 
ATOM     13  O   UNL     1       3.050  34.513 -11.392  1.00  0.00    -0.344 OA
ATOM     14  C   UNL     1       3.655  34.668  -8.534  1.00  0.00     0.179 C 
ATOM     15  C   UNL     1       4.593  33.963  -9.442  1.00  0.00     0.202 C 
BRANCH  12  16
ATOM     16  O   UNL     1       1.769  36.292  -8.378  1.00  0.00    -0.388 OA
ATOM     17  H   UNL     1       1.065  36.686  -9.088  1.00  0.00     0.211 HD
ENDBRANCH  12  16
BRANCH  14  18
ATOM     18  O   UNL     1       3.083  33.798  -7.575  1.00  0.00    -0.387 OA
ATOM     19  H   UNL     1       3.166  34.253  -6.650  1.00  0.00     0.211 HD
ENDBRANCH  14  18
BRANCH  15  20
ATOM     20  O   UNL     1       4.590  32.569  -9.143  1.00  0.00    -0.385 OA
ATOM     21  H   UNL     1       4.706  32.066  -9.997  1.00  0.00     0.211 HD
ENDBRANCH  15  20
ENDBRANCH   8   9
ENDBRANCH   7   8
ENDBRANCH   1   7
BRANCH   2  22
ATOM     22  O   UNL     1       5.734  31.963 -14.189  1.00  0.00    -0.387 OA
ATOM     23  H   UNL     1       5.422  31.023 -14.334  1.00  0.00     0.211 HD
ENDBRANCH   2  22
BRANCH   3  24
ATOM     24  O   UNL     1       6.527  33.127 -16.574  1.00  0.00    -0.387 OA
ATOM     25  H   UNL     1       6.961  32.765 -15.750  1.00  0.00     0.211 HD
ENDBRANCH   3  24
BRANCH   5  26
ATOM     26  O   UNL     1       2.705  36.006 -16.511  1.00  0.00    -0.462 OA
BRANCH  26  27
ATOM     27  C   UNL     1       1.579  35.890 -17.391  1.00  0.00     0.130 A 
ATOM     28  C   UNL     1       1.314  36.723 -18.564  1.00  0.00     0.093 A 
ATOM     29  C   UNL     1       0.720  34.735 -17.202  1.00  0.00     0.094 A 
ATOM     30  C   UNL     1       0.396  36.062 -19.517  1.00  0.00     0.133 A 
ATOM     31  C   UNL     1      -0.525  34.925 -17.803  1.00  0.00     0.138 A 
ATOM     32  C   UNL     1      -0.583  34.907 -19.189  1.00  0.00     0.102 A 
ATOM     33  O   UNL     1      -1.680  34.772 -16.985  1.00  0.00    -0.484 OA
ATOM     34  C   UNL     1      -0.701  33.321 -19.246  1.00  0.00     0.174 C 
ATOM     35  C   UNL     1      -2.377  33.518 -17.081  1.00  0.00     0.211 C 
ATOM     36  O   UNL     1       0.195  32.636 -19.880  1.00  0.00    -0.294 OA
ATOM     37  C   UNL     1      -1.503  32.524 -18.072  1.00  0.00     0.131 C 
BRANCH  30  38
ATOM     38  O   UNL     1      -0.014  36.968 -20.524  1.00  0.00    -0.507 OA
ATOM     39  H   UNL     1       0.910  37.331 -20.906  1.00  0.00     0.293 HD
ENDBRANCH  30  38
BRANCH  35  40
ATOM     40  C   UNL     1      -3.821  33.654 -17.749  1.00  0.00    -0.003 A 
ATOM     41  C   UNL     1      -4.762  33.630 -16.680  1.00  0.00     0.057 A 
ATOM     42  C   UNL     1      -4.409  33.050 -18.981  1.00  0.00     0.011 A 
ATOM     43  C   UNL     1      -5.643  32.522 -16.700  1.00  0.00     0.158 A 
ATOM     44  C   UNL     1      -5.858  32.637 -19.035  1.00  0.00     0.051 A 
ATOM     45  C   UNL     1      -6.484  32.671 -17.775  1.00  0.00     0.160 A 
BRANCH  43  46
ATOM     46  O   UNL     1      -5.061  31.344 -16.431  1.00  0.00    -0.504 OA
ATOM     47  H   UNL     1      -4.359  31.221 -15.659  1.00  0.00     0.293 HD
ENDBRANCH  43  46
BRANCH  45  48
ATOM     48  O   UNL     1      -7.846  33.053 -17.701  1.00  0.00    -0.493 OA
ATOM     49  C   UNL     1      -8.407  33.461 -16.454  1.00  0.00     0.278 C 
ENDBRANCH  45  48
ENDBRANCH  35  40
ENDBRANCH  26  27
ENDBRANCH   5  26
BRANCH   4  50
ATOM     50  O   UNL     1       5.375  35.562 -16.856  1.00  0.00    -0.384 OA
ATOM     51  H   UNL     1       5.875  35.524 -15.999  1.00  0.00     0.211 HD
ENDBRANCH   4  50
TORSDOF 15
ENDMDL
MODEL 5
REMARK VINA RESULT:    -7.961      3.945      7.448
REMARK INTER + INTRA:         -14.538
REMARK INTER:                 -13.126
REMARK INTRA:                  -1.413
REMARK UNBOUND:                -1.458
REMARK SMILES COc1ccc([C@H]2CC(=O)c3c(O)cc(O[C@@H]4O[C@@H](CO[C@H]5O[C@H](C)[C@@H](O)[C@@H](O)[C@H]5O)[C@H](O)[C@H](O)[C@@H]4O)cc3O2)cc1O
REMARK SMILES IDX 19 1 32 2 34 3 36 4 17 5 18 6 20 7 21 8 22 9 25 10 24 11
REMARK SMILES IDX 26 12 23 13 28 14 30 15 27 16 29 18 31 20 33 22 35 24 16 26
REMARK SMILES IDX 15 27 14 28 38 29 12 30 39 31 11 32 40 33 9 34 7 35 10 36
REMARK SMILES IDX 8 37 13 38 6 40 41 41 5 42 42 43 4 44 3 45 43 46 2 48 1 49
REMARK SMILES IDX 37 50
REMARK H PARENT 27 17 29 19 31 21 33 23 35 25 13 39 43 47 37 51
REMARK Flexibility Score: inf
ROOT
ATOM      1  C   UNL     1       7.273  35.126 -15.690  1.00  0.00     0.180 C 
ATOM      2  C   UNL     1       7.580  36.675 -15.951  1.00  0.00     0.177 C 
ATOM      3  C   UNL     1       9.215  36.638 -16.023  1.00  0.00     0.180 C 
ATOM      4  C   UNL     1       9.856  35.572 -14.958  1.00  0.00     0.214 C 
ATOM      5  C   UNL     1       8.831  35.223 -13.879  1.00  0.00     0.339 C 
ATOM      6  O   UNL     1       7.640  34.705 -14.366  1.00  0.00    -0.332 OA
ENDROOT
BRANCH   1   7
ATOM      7  C   UNL     1       6.258  34.314 -16.488  1.00  0.00     0.198 C 
BRANCH   7   8
ATOM      8  O   UNL     1       4.961  34.701 -16.252  1.00  0.00    -0.347 OA
BRANCH   8   9
ATOM      9  C   UNL     1       4.137  34.945 -17.475  1.00  0.00     0.281 C 
ATOM     10  C   UNL     1       3.981  33.031 -20.641  1.00  0.00     0.041 C 
ATOM     11  C   UNL     1       3.331  33.811 -19.454  1.00  0.00     0.150 C 
ATOM     12  C   UNL     1       2.871  35.192 -19.844  1.00  0.00     0.174 C 
ATOM     13  O   UNL     1       4.256  33.786 -18.388  1.00  0.00    -0.344 OA
ATOM     14  C   UNL     1       2.060  35.697 -18.685  1.00  0.00     0.179 C 
ATOM     15  C   UNL     1       2.706  35.525 -17.361  1.00  0.00     0.202 C 
BRANCH  12  16
ATOM     16  O   UNL     1       2.272  35.326 -21.142  1.00  0.00    -0.388 OA
ATOM     17  H   UNL     1       1.999  34.313 -21.375  1.00  0.00     0.211 HD
ENDBRANCH  12  16
BRANCH  14  18
ATOM     18  O   UNL     1       0.697  35.315 -18.671  1.00  0.00    -0.387 OA
ATOM     19  H   UNL     1       0.177  35.988 -19.259  1.00  0.00     0.211 HD
ENDBRANCH  14  18
BRANCH  15  20
ATOM     20  O   UNL     1       1.779  34.936 -16.451  1.00  0.00    -0.385 OA
ATOM     21  H   UNL     1       2.099  35.111 -15.523  1.00  0.00     0.211 HD
ENDBRANCH  15  20
ENDBRANCH   8   9
ENDBRANCH   7   8
ENDBRANCH   1   7
BRANCH   2  22
ATOM     22  O   UNL     1       6.886  37.125 -17.080  1.00  0.00    -0.387 OA
ATOM     23  H   UNL     1       6.093  37.617 -16.718  1.00  0.00     0.211 HD
ENDBRANCH   2  22
BRANCH   3  24
ATOM     24  O   UNL     1       9.545  36.378 -17.290  1.00  0.00    -0.387 OA
ATOM     25  H   UNL     1       8.816  35.880 -17.758  1.00  0.00     0.211 HD
ENDBRANCH   3  24
BRANCH   5  26
ATOM     26  O   UNL     1       9.361  34.282 -12.992  1.00  0.00    -0.462 OA
BRANCH  26  27
ATOM     27  C   UNL     1       8.551  33.138 -12.692  1.00  0.00     0.130 A 
ATOM     28  C   UNL     1       7.323  33.137 -11.895  1.00  0.00     0.093 A 
ATOM     29  C   UNL     1       8.882  31.905 -13.383  1.00  0.00     0.094 A 
ATOM     30  C   UNL     1       6.478  31.958 -12.180  1.00  0.00     0.133 A 
ATOM     31  C   UNL     1       8.328  30.797 -12.738  1.00  0.00     0.138 A 
ATOM     32  C   UNL     1       6.954  30.626 -12.814  1.00  0.00     0.102 A 
ATOM     33  O   UNL     1       9.212  29.749 -12.358  1.00  0.00    -0.484 OA
ATOM     34  C   UNL     1       7.042  29.876 -14.215  1.00  0.00     0.174 C 
ATOM     35  C   UNL     1       9.261  28.600 -13.221  1.00  0.00     0.211 C 
ATOM     36  O   UNL     1       6.427  30.366 -15.242  1.00  0.00    -0.294 OA
ATOM     37  C   UNL     1       8.319  28.918 -14.543  1.00  0.00     0.131 C 
BRANCH  30  38
ATOM     38  O   UNL     1       5.417  31.868 -11.248  1.00  0.00    -0.507 OA
ATOM     39  H   UNL     1       4.709  32.564 -11.628  1.00  0.00     0.293 HD
ENDBRANCH  30  38
BRANCH  35  40
ATOM     40  C   UNL     1       8.654  27.285 -12.549  1.00  0.00    -0.003 A 
ATOM     41  C   UNL     1       9.735  26.365 -12.422  1.00  0.00     0.057 A 
ATOM     42  C   UNL     1       7.368  26.559 -12.764  1.00  0.00     0.011 A 
ATOM     43  C   UNL     1       9.588  25.181 -13.184  1.00  0.00     0.158 A 
ATOM     44  C   UNL     1       7.297  25.054 -12.690  1.00  0.00     0.051 A 
ATOM     45  C   UNL     1       8.566  24.449 -12.633  1.00  0.00     0.160 A 
BRANCH  43  46
ATOM     46  O   UNL     1       9.680  25.357 -14.510  1.00  0.00    -0.504 OA
ATOM     47  H   UNL     1      10.542  25.106 -15.057  1.00  0.00     0.293 HD
ENDBRANCH  43  46
BRANCH  45  48
ATOM     48  O   UNL     1       8.726  23.275 -11.857  1.00  0.00    -0.493 OA
ATOM     49  C   UNL     1       8.164  23.203 -10.547  1.00  0.00     0.278 C 
ENDBRANCH  45  48
ENDBRANCH  35  40
ENDBRANCH  26  27
ENDBRANCH   5  26
BRANCH   4  50
ATOM     50  O   UNL     1      10.070  34.307 -15.626  1.00  0.00    -0.384 OA
ATOM     51  H   UNL     1      10.694  34.388 -16.394  1.00  0.00     0.211 HD
ENDBRANCH   4  50
TORSDOF 15
ENDMDL
MODEL 6
REMARK VINA RESULT:    -7.924      2.474      3.892
REMARK INTER + INTRA:         -14.477
REMARK INTER:                 -12.955
REMARK INTRA:                  -1.522
REMARK UNBOUND:                -1.458
REMARK SMILES COc1ccc([C@H]2CC(=O)c3c(O)cc(O[C@@H]4O[C@@H](CO[C@H]5O[C@H](C)[C@@H](O)[C@@H](O)[C@H]5O)[C@H](O)[C@H](O)[C@@H]4O)cc3O2)cc1O
REMARK SMILES IDX 19 1 32 2 34 3 36 4 17 5 18 6 20 7 21 8 22 9 25 10 24 11
REMARK SMILES IDX 26 12 23 13 28 14 30 15 27 16 29 18 31 20 33 22 35 24 16 26
REMARK SMILES IDX 15 27 14 28 38 29 12 30 39 31 11 32 40 33 9 34 7 35 10 36
REMARK SMILES IDX 8 37 13 38 6 40 41 41 5 42 42 43 4 44 3 45 43 46 2 48 1 49
REMARK SMILES IDX 37 50
REMARK H PARENT 27 17 29 19 31 21 33 23 35 25 13 39 43 47 37 51
REMARK Flexibility Score: inf
ROOT
ATOM      1  C   UNL     1      -0.361  35.065 -18.261  1.00  0.00     0.180 C 
ATOM      2  C   UNL     1      -0.974  36.542 -18.335  1.00  0.00     0.177 C 
ATOM      3  C   UNL     1      -0.639  36.917 -19.893  1.00  0.00     0.180 C 
ATOM      4  C   UNL     1       0.808  36.319 -20.374  1.00  0.00     0.214 C 
ATOM      5  C   UNL     1       1.664  35.966 -19.158  1.00  0.00     0.339 C 
ATOM      6  O   UNL     1       1.076  35.060 -18.287  1.00  0.00    -0.332 OA
ENDROOT
BRANCH   1   7
ATOM      7  C   UNL     1      -1.111  33.859 -17.703  1.00  0.00     0.198 C 
BRANCH   7   8
ATOM      8  O   UNL     1      -1.989  33.312 -18.605  1.00  0.00    -0.347 OA
BRANCH   8   9
ATOM      9  C   UNL     1      -3.387  33.139 -18.108  1.00  0.00     0.281 C 
ATOM     10  C   UNL     1      -5.323  35.209 -15.724  1.00  0.00     0.041 C 
ATOM     11  C   UNL     1      -5.169  34.379 -17.039  1.00  0.00     0.150 C 
ATOM     12  C   UNL     1      -5.825  33.025 -16.955  1.00  0.00     0.174 C 
ATOM     13  O   UNL     1      -3.791  34.340 -17.342  1.00  0.00    -0.344 OA
ATOM     14  C   UNL     1      -5.805  32.473 -18.352  1.00  0.00     0.179 C 
ATOM     15  C   UNL     1      -4.491  32.571 -19.034  1.00  0.00     0.202 C 
BRANCH  12  16
ATOM     16  O   UNL     1      -7.083  32.963 -16.267  1.00  0.00    -0.388 OA
ATOM     17  H   UNL     1      -7.766  33.343 -17.004  1.00  0.00     0.211 HD
ENDBRANCH  12  16
BRANCH  14  18
ATOM     18  O   UNL     1      -6.875  32.870 -19.189  1.00  0.00    -0.387 OA
ATOM     19  H   UNL     1      -7.435  33.569 -18.672  1.00  0.00     0.211 HD
ENDBRANCH  14  18
BRANCH  15  20
ATOM     20  O   UNL     1      -4.670  33.126 -20.336  1.00  0.00    -0.385 OA
ATOM     21  H   UNL     1      -3.833  32.975 -20.857  1.00  0.00     0.211 HD
ENDBRANCH  15  20
ENDBRANCH   8   9
ENDBRANCH   7   8
ENDBRANCH   1   7
BRANCH   2  22
ATOM     22  O   UNL     1      -2.316  36.531 -17.938  1.00  0.00    -0.387 OA
ATOM     23  H   UNL     1      -2.675  37.424 -18.213  1.00  0.00     0.211 HD
ENDBRANCH   2  22
BRANCH   3  24
ATOM     24  O   UNL     1      -1.661  36.475 -20.630  1.00  0.00    -0.387 OA
ATOM     25  H   UNL     1      -2.257  37.228 -20.908  1.00  0.00     0.211 HD
ENDBRANCH   3  24
BRANCH   5  26
ATOM     26  O   UNL     1       2.883  35.418 -19.566  1.00  0.00    -0.462 OA
BRANCH  26  27
ATOM     27  C   UNL     1       3.603  34.636 -18.603  1.00  0.00     0.130 A 
ATOM     28  C   UNL     1       4.343  33.403 -18.876  1.00  0.00     0.093 A 
ATOM     29  C   UNL     1       3.755  35.210 -17.279  1.00  0.00     0.094 A 
ATOM     30  C   UNL     1       5.356  33.123 -17.836  1.00  0.00     0.133 A 
ATOM     31  C   UNL     1       4.090  34.234 -16.338  1.00  0.00     0.138 A 
ATOM     32  C   UNL     1       5.366  33.693 -16.395  1.00  0.00     0.102 A 
ATOM     33  O   UNL     1       3.255  34.113 -15.192  1.00  0.00    -0.484 OA
ATOM     34  C   UNL     1       5.993  34.870 -15.526  1.00  0.00     0.174 C 
ATOM     35  C   UNL     1       3.726  34.734 -13.983  1.00  0.00     0.211 C 
ATOM     36  O   UNL     1       6.938  35.599 -16.025  1.00  0.00    -0.294 OA
ATOM     37  C   UNL     1       5.112  35.562 -14.342  1.00  0.00     0.131 C 
BRANCH  30  38
ATOM     38  O   UNL     1       5.898  31.827 -18.004  1.00  0.00    -0.507 OA
ATOM     39  H   UNL     1       6.823  31.888 -17.482  1.00  0.00     0.293 HD
ENDBRANCH  30  38
BRANCH  35  40
ATOM     40  C   UNL     1       4.119  33.681 -12.849  1.00  0.00    -0.003 A 
ATOM     41  C   UNL     1       3.622  34.208 -11.622  1.00  0.00     0.057 A 
ATOM     42  C   UNL     1       5.360  32.885 -12.616  1.00  0.00     0.011 A 
ATOM     43  C   UNL     1       4.624  34.526 -10.674  1.00  0.00     0.158 A 
ATOM     44  C   UNL     1       5.860  32.606 -11.221  1.00  0.00     0.051 A 
ATOM     45  C   UNL     1       5.180  33.349 -10.237  1.00  0.00     0.160 A 
BRANCH  43  46
ATOM     46  O   UNL     1       5.390  35.576 -11.004  1.00  0.00    -0.504 OA
ATOM     47  H   UNL     1       5.185  36.553 -10.674  1.00  0.00     0.293 HD
ENDBRANCH  43  46
BRANCH  45  48
ATOM     48  O   UNL     1       4.948  32.752  -8.974  1.00  0.00    -0.493 OA
ATOM     49  C   UNL     1       5.499  33.338  -7.796  1.00  0.00     0.278 C 
ENDBRANCH  45  48
ENDBRANCH  35  40
ENDBRANCH  26  27
ENDBRANCH   5  26
BRANCH   4  50
ATOM     50  O   UNL     1       0.602  35.038 -21.013  1.00  0.00    -0.384 OA
ATOM     51  H   UNL     1       1.244  34.878 -21.752  1.00  0.00     0.211 HD
ENDBRANCH   4  50
TORSDOF 15
ENDMDL
MODEL 7
REMARK VINA RESULT:    -7.601      2.157      2.774
REMARK INTER + INTRA:         -13.948
REMARK INTER:                 -12.684
REMARK INTRA:                  -1.264
REMARK UNBOUND:                -1.458
REMARK SMILES COc1ccc([C@H]2CC(=O)c3c(O)cc(O[C@@H]4O[C@@H](CO[C@H]5O[C@H](C)[C@@H](O)[C@@H](O)[C@H]5O)[C@H](O)[C@H](O)[C@@H]4O)cc3O2)cc1O
REMARK SMILES IDX 19 1 32 2 34 3 36 4 17 5 18 6 20 7 21 8 22 9 25 10 24 11
REMARK SMILES IDX 26 12 23 13 28 14 30 15 27 16 29 18 31 20 33 22 35 24 16 26
REMARK SMILES IDX 15 27 14 28 38 29 12 30 39 31 11 32 40 33 9 34 7 35 10 36
REMARK SMILES IDX 8 37 13 38 6 40 41 41 5 42 42 43 4 44 3 45 43 46 2 48 1 49
REMARK SMILES IDX 37 50
REMARK H PARENT 27 17 29 19 31 21 33 23 35 25 13 39 43 47 37 51
REMARK Flexibility Score: inf
ROOT
ATOM      1  C   UNL     1       0.646  35.212 -18.304  1.00  0.00     0.180 C 
ATOM      2  C   UNL     1       0.621  36.532 -19.209  1.00  0.00     0.177 C 
ATOM      3  C   UNL     1       1.346  35.968 -20.564  1.00  0.00     0.180 C 
ATOM      4  C   UNL     1       2.549  34.909 -20.225  1.00  0.00     0.214 C 
ATOM      5  C   UNL     1       2.986  35.055 -18.768  1.00  0.00     0.339 C 
ATOM      6  O   UNL     1       1.966  34.881 -17.844  1.00  0.00    -0.332 OA
ENDROOT
BRANCH   1   7
ATOM      7  C   UNL     1      -0.572  34.664 -17.566  1.00  0.00     0.198 C 
BRANCH   7   8
ATOM      8  O   UNL     1      -1.550  34.208 -18.415  1.00  0.00    -0.347 OA
BRANCH   8   9
ATOM      9  C   UNL     1      -2.908  34.071 -17.805  1.00  0.00     0.281 C 
ATOM     10  C   UNL     1      -4.899  36.534 -15.887  1.00  0.00     0.041 C 
ATOM     11  C   UNL     1      -4.736  35.415 -16.965  1.00  0.00     0.150 C 
ATOM     12  C   UNL     1      -5.276  34.084 -16.512  1.00  0.00     0.174 C 
ATOM     13  O   UNL     1      -3.373  35.394 -17.334  1.00  0.00    -0.344 OA
ATOM     14  C   UNL     1      -5.272  33.204 -17.729  1.00  0.00     0.179 C 
ATOM     15  C   UNL     1      -4.001  33.217 -18.494  1.00  0.00     0.202 C 
BRANCH  12  16
ATOM     16  O   UNL     1      -6.495  34.110 -15.754  1.00  0.00    -0.388 OA
ATOM     17  H   UNL     1      -6.369  33.275 -15.089  1.00  0.00     0.211 HD
ENDBRANCH  12  16
BRANCH  14  18
ATOM     18  O   UNL     1      -6.406  33.307 -18.571  1.00  0.00    -0.387 OA
ATOM     19  H   UNL     1      -6.083  33.653 -19.490  1.00  0.00     0.211 HD
ENDBRANCH  14  18
BRANCH  15  20
ATOM     20  O   UNL     1      -4.280  33.417 -19.878  1.00  0.00    -0.385 OA
ATOM     21  H   UNL     1      -5.270  33.433 -19.998  1.00  0.00     0.211 HD
ENDBRANCH  15  20
ENDBRANCH   8   9
ENDBRANCH   7   8
ENDBRANCH   1   7
BRANCH   2  22
ATOM     22  O   UNL     1      -0.685  37.021 -19.320  1.00  0.00    -0.387 OA
ATOM     23  H   UNL     1      -1.235  36.429 -18.730  1.00  0.00     0.211 HD
ENDBRANCH   2  22
BRANCH   3  24
ATOM     24  O   UNL     1       0.387  35.446 -21.332  1.00  0.00    -0.387 OA
ATOM     25  H   UNL     1       0.057  36.112 -22.000  1.00  0.00     0.211 HD
ENDBRANCH   3  24
BRANCH   5  26
ATOM     26  O   UNL     1       3.984  34.124 -18.465  1.00  0.00    -0.462 OA
BRANCH  26  27
ATOM     27  C   UNL     1       4.756  34.356 -17.279  1.00  0.00     0.130 A 
ATOM     28  C   UNL     1       5.430  35.605 -16.922  1.00  0.00     0.093 A 
ATOM     29  C   UNL     1       4.721  33.319 -16.264  1.00  0.00     0.094 A 
ATOM     30  C   UNL     1       5.698  35.694 -15.471  1.00  0.00     0.133 A 
ATOM     31  C   UNL     1       5.789  33.444 -15.374  1.00  0.00     0.138 A 
ATOM     32  C   UNL     1       5.763  34.504 -14.480  1.00  0.00     0.102 A 
ATOM     33  O   UNL     1       6.633  32.312 -15.199  1.00  0.00    -0.484 OA
ATOM     34  C   UNL     1       4.869  33.707 -13.432  1.00  0.00     0.174 C 
ATOM     35  C   UNL     1       6.398  31.506 -14.031  1.00  0.00     0.211 C 
ATOM     36  O   UNL     1       3.716  34.179 -13.086  1.00  0.00    -0.294 OA
ATOM     37  C   UNL     1       5.054  32.096 -13.268  1.00  0.00     0.131 C 
BRANCH  30  38
ATOM     38  O   UNL     1       6.538  36.797 -15.186  1.00  0.00    -0.507 OA
ATOM     39  H   UNL     1       7.507  36.418 -15.405  1.00  0.00     0.293 HD
ENDBRANCH  30  38
BRANCH  35  40
ATOM     40  C   UNL     1       7.585  31.586 -12.965  1.00  0.00    -0.003 A 
ATOM     41  C   UNL     1       8.156  32.885 -13.098  1.00  0.00     0.057 A 
ATOM     42  C   UNL     1       8.621  30.595 -12.553  1.00  0.00     0.011 A 
ATOM     43  C   UNL     1       9.503  32.889 -13.533  1.00  0.00     0.158 A 
ATOM     44  C   UNL     1      10.022  31.028 -12.200  1.00  0.00     0.051 A 
ATOM     45  C   UNL     1      10.275  32.375 -12.521  1.00  0.00     0.160 A 
BRANCH  43  46
ATOM     46  O   UNL     1       9.678  32.505 -14.805  1.00  0.00    -0.504 OA
ATOM     47  H   UNL     1      10.596  32.141 -15.167  1.00  0.00     0.293 HD
ENDBRANCH  43  46
BRANCH  45  48
ATOM     48  O   UNL     1      11.122  33.130 -11.673  1.00  0.00    -0.493 OA
ATOM     49  C   UNL     1      10.749  33.362 -10.315  1.00  0.00     0.278 C 
ENDBRANCH  45  48
ENDBRANCH  35  40
ENDBRANCH  26  27
ENDBRANCH   5  26
BRANCH   4  50
ATOM     50  O   UNL     1       2.021  33.563 -20.275  1.00  0.00    -0.384 OA
ATOM     51  H   UNL     1       2.689  32.909 -20.609  1.00  0.00     0.211 HD
ENDBRANCH   4  50
TORSDOF 15
ENDMDL
MODEL 8
REMARK VINA RESULT:    -7.575      3.387     11.181
REMARK INTER + INTRA:         -13.905
REMARK INTER:                 -12.551
REMARK INTRA:                  -1.354
REMARK UNBOUND:                -1.458
REMARK SMILES COc1ccc([C@H]2CC(=O)c3c(O)cc(O[C@@H]4O[C@@H](CO[C@H]5O[C@H](C)[C@@H](O)[C@@H](O)[C@H]5O)[C@H](O)[C@H](O)[C@@H]4O)cc3O2)cc1O
REMARK SMILES IDX 19 1 32 2 34 3 36 4 17 5 18 6 20 7 21 8 22 9 25 10 24 11
REMARK SMILES IDX 26 12 23 13 28 14 30 15 27 16 29 18 31 20 33 22 35 24 16 26
REMARK SMILES IDX 15 27 14 28 38 29 12 30 39 31 11 32 40 33 9 34 7 35 10 36
REMARK SMILES IDX 8 37 13 38 6 40 41 41 5 42 42 43 4 44 3 45 43 46 2 48 1 49
REMARK SMILES IDX 37 50
REMARK H PARENT 27 17 29 19 31 21 33 23 35 25 13 39 43 47 37 51
REMARK Flexibility Score: inf
ROOT
ATOM      1  C   UNL     1       8.300  30.331 -13.242  1.00  0.00     0.180 C 
ATOM      2  C   UNL     1       9.221  31.178 -14.240  1.00  0.00     0.177 C 
ATOM      3  C   UNL     1       9.164  32.643 -13.512  1.00  0.00     0.180 C 
ATOM      4  C   UNL     1       7.691  32.957 -12.869  1.00  0.00     0.214 C 
ATOM      5  C   UNL     1       6.639  32.034 -13.484  1.00  0.00     0.339 C 
ATOM      6  O   UNL     1       6.909  30.681 -13.340  1.00  0.00    -0.332 OA
ENDROOT
BRANCH   1   7
ATOM      7  C   UNL     1       8.700  28.981 -12.655  1.00  0.00     0.198 C 
BRANCH   7   8
ATOM      8  O   UNL     1       8.712  27.975 -13.590  1.00  0.00    -0.347 OA
BRANCH   8   9
ATOM      9  C   UNL     1       8.608  26.591 -13.036  1.00  0.00     0.281 C 
ATOM     10  C   UNL     1       5.624  24.719 -11.892  1.00  0.00     0.041 C 
ATOM     11  C   UNL     1       6.986  24.838 -12.650  1.00  0.00     0.150 C 
ATOM     12  C   UNL     1       8.125  24.186 -11.910  1.00  0.00     0.174 C 
ATOM     13  O   UNL     1       7.182  26.207 -12.931  1.00  0.00    -0.344 OA
ATOM     14  C   UNL     1       9.280  24.168 -12.870  1.00  0.00     0.179 C 
ATOM     15  C   UNL     1       9.538  25.462 -13.548  1.00  0.00     0.202 C 
BRANCH  12  16
ATOM     16  O   UNL     1       7.834  22.948 -11.246  1.00  0.00    -0.388 OA
ATOM     17  H   UNL     1       8.029  23.188 -10.217  1.00  0.00     0.211 HD
ENDBRANCH  12  16
BRANCH  14  18
ATOM     18  O   UNL     1       9.321  23.075 -13.768  1.00  0.00    -0.387 OA
ATOM     19  H   UNL     1       8.396  22.614 -13.743  1.00  0.00     0.211 HD
ENDBRANCH  14  18
BRANCH  15  20
ATOM     20  O   UNL     1       9.674  25.247 -14.950  1.00  0.00    -0.385 OA
ATOM     21  H   UNL     1       9.584  24.269 -15.126  1.00  0.00     0.211 HD
ENDBRANCH  15  20
ENDBRANCH   8   9
ENDBRANCH   7   8
ENDBRANCH   1   7
BRANCH   2  22
ATOM     22  O   UNL     1      10.471  30.567 -14.384  1.00  0.00    -0.387 OA
ATOM     23  H   UNL     1      11.027  30.933 -13.637  1.00  0.00     0.211 HD
ENDBRANCH   2  22
BRANCH   3  24
ATOM     24  O   UNL     1      10.148  32.670 -12.611  1.00  0.00    -0.387 OA
ATOM     25  H   UNL     1      10.187  33.554 -12.145  1.00  0.00     0.211 HD
ENDBRANCH   3  24
BRANCH   5  26
ATOM     26  O   UNL     1       5.388  32.271 -12.907  1.00  0.00    -0.462 OA
BRANCH  26  27
ATOM     27  C   UNL     1       4.615  33.353 -13.444  1.00  0.00     0.130 A 
ATOM     28  C   UNL     1       3.629  34.151 -12.714  1.00  0.00     0.093 A 
ATOM     29  C   UNL     1       4.967  33.807 -14.777  1.00  0.00     0.094 A 
ATOM     30  C   UNL     1       3.387  35.458 -13.361  1.00  0.00     0.133 A 
ATOM     31  C   UNL     1       3.931  34.548 -15.350  1.00  0.00     0.138 A 
ATOM     32  C   UNL     1       3.684  35.814 -14.840  1.00  0.00     0.102 A 
ATOM     33  O   UNL     1       3.442  34.121 -16.617  1.00  0.00    -0.484 OA
ATOM     34  C   UNL     1       4.794  36.491 -15.759  1.00  0.00     0.174 C 
ATOM     35  C   UNL     1       3.924  34.835 -17.768  1.00  0.00     0.211 C 
ATOM     36  O   UNL     1       5.778  37.125 -15.209  1.00  0.00    -0.294 OA
ATOM     37  C   UNL     1       5.071  35.912 -17.257  1.00  0.00     0.131 C 
BRANCH  30  38
ATOM     38  O   UNL     1       2.281  36.111 -12.767  1.00  0.00    -0.507 OA
ATOM     39  H   UNL     1       2.729  36.948 -12.289  1.00  0.00     0.293 HD
ENDBRANCH  30  38
BRANCH  35  40
ATOM     40  C   UNL     1       2.793  35.700 -18.489  1.00  0.00    -0.003 A 
ATOM     41  C   UNL     1       1.555  35.048 -18.218  1.00  0.00     0.057 A 
ATOM     42  C   UNL     1       2.751  36.374 -19.820  1.00  0.00     0.011 A 
ATOM     43  C   UNL     1       0.897  34.542 -19.364  1.00  0.00     0.158 A 
ATOM     44  C   UNL     1       1.479  36.432 -20.629  1.00  0.00     0.051 A 
ATOM     45  C   UNL     1       0.461  35.611 -20.107  1.00  0.00     0.160 A 
BRANCH  43  46
ATOM     46  O   UNL     1       1.507  33.497 -19.941  1.00  0.00    -0.504 OA
ATOM     47  H   UNL     1       2.552  33.430 -20.030  1.00  0.00     0.293 HD
ENDBRANCH  43  46
BRANCH  45  48
ATOM     48  O   UNL     1      -0.882  36.048 -20.204  1.00  0.00    -0.493 OA
ATOM     49  C   UNL     1      -1.248  37.020 -21.183  1.00  0.00     0.278 C 
ENDBRANCH  45  48
ENDBRANCH  35  40
ENDBRANCH  26  27
ENDBRANCH   5  26
BRANCH   4  50
ATOM     50  O   UNL     1       7.692  32.568 -11.475  1.00  0.00    -0.384 OA
ATOM     51  H   UNL     1       7.655  33.351 -10.867  1.00  0.00     0.211 HD
ENDBRANCH   4  50
TORSDOF 15
ENDMDL
MODEL 9
REMARK VINA RESULT:    -7.446      1.468      2.209
REMARK INTER + INTRA:         -13.693
REMARK INTER:                 -11.664
REMARK INTRA:                  -2.030
REMARK UNBOUND:                -1.458
REMARK SMILES COc1ccc([C@H]2CC(=O)c3c(O)cc(O[C@@H]4O[C@@H](CO[C@H]5O[C@H](C)[C@@H](O)[C@@H](O)[C@H]5O)[C@H](O)[C@H](O)[C@@H]4O)cc3O2)cc1O
REMARK SMILES IDX 19 1 32 2 34 3 36 4 17 5 18 6 20 7 21 8 22 9 25 10 24 11
REMARK SMILES IDX 26 12 23 13 28 14 30 15 27 16 29 18 31 20 33 22 35 24 16 26
REMARK SMILES IDX 15 27 14 28 38 29 12 30 39 31 11 32 40 33 9 34 7 35 10 36
REMARK SMILES IDX 8 37 13 38 6 40 41 41 5 42 42 43 4 44 3 45 43 46 2 48 1 49
REMARK SMILES IDX 37 50
REMARK H PARENT 27 17 29 19 31 21 33 23 35 25 13 39 43 47 37 51
REMARK Flexibility Score: inf
ROOT
ATOM      1  C   UNL     1       0.713  36.345 -19.373  1.00  0.00     0.180 C 
ATOM      2  C   UNL     1       1.713  35.869 -20.530  1.00  0.00     0.177 C 
ATOM      3  C   UNL     1       2.330  34.519 -19.842  1.00  0.00     0.180 C 
ATOM      4  C   UNL     1       2.545  34.691 -18.227  1.00  0.00     0.214 C 
ATOM      5  C   UNL     1       2.548  36.172 -17.850  1.00  0.00     0.339 C 
ATOM      6  O   UNL     1       1.402  36.861 -18.223  1.00  0.00    -0.332 OA
ENDROOT
BRANCH   1   7
ATOM      7  C   UNL     1      -0.746  36.721 -19.612  1.00  0.00     0.198 C 
BRANCH   7   8
ATOM      8  O   UNL     1      -1.612  35.685 -19.363  1.00  0.00    -0.347 OA
BRANCH   8   9
ATOM      9  C   UNL     1      -2.495  35.866 -18.171  1.00  0.00     0.281 C 
ATOM     10  C   UNL     1      -5.447  33.906 -17.095  1.00  0.00     0.041 C 
ATOM     11  C   UNL     1      -4.107  34.663 -16.826  1.00  0.00     0.150 C 
ATOM     12  C   UNL     1      -4.316  36.010 -16.185  1.00  0.00     0.174 C 
ATOM     13  O   UNL     1      -3.405  34.704 -18.050  1.00  0.00    -0.344 OA
ATOM     14  C   UNL     1      -2.952  36.483 -15.772  1.00  0.00     0.179 C 
ATOM     15  C   UNL     1      -1.914  36.366 -16.825  1.00  0.00     0.202 C 
BRANCH  12  16
ATOM     16  O   UNL     1      -5.344  36.093 -15.187  1.00  0.00    -0.388 OA
ATOM     17  H   UNL     1      -5.245  35.153 -14.676  1.00  0.00     0.211 HD
ENDBRANCH  12  16
BRANCH  14  18
ATOM     18  O   UNL     1      -2.493  36.026 -14.514  1.00  0.00    -0.387 OA
ATOM     19  H   UNL     1      -2.604  36.801 -13.839  1.00  0.00     0.211 HD
ENDBRANCH  14  18
BRANCH  15  20
ATOM     20  O   UNL     1      -0.755  35.737 -16.284  1.00  0.00    -0.385 OA
ATOM     21  H   UNL     1      -1.010  34.823 -15.977  1.00  0.00     0.211 HD
ENDBRANCH  15  20
ENDBRANCH   8   9
ENDBRANCH   7   8
ENDBRANCH   1   7
BRANCH   2  22
ATOM     22  O   UNL     1       1.025  35.732 -21.740  1.00  0.00    -0.387 OA
ATOM     23  H   UNL     1       0.170  35.269 -21.503  1.00  0.00     0.211 HD
ENDBRANCH   2  22
BRANCH   3  24
ATOM     24  O   UNL     1       1.514  33.511 -20.159  1.00  0.00    -0.387 OA
ATOM     25  H   UNL     1       0.868  33.324 -19.420  1.00  0.00     0.211 HD
ENDBRANCH   3  24
BRANCH   5  26
ATOM     26  O   UNL     1       2.690  36.321 -16.468  1.00  0.00    -0.462 OA
BRANCH  26  27
ATOM     27  C   UNL     1       3.943  35.926 -15.893  1.00  0.00     0.130 A 
ATOM     28  C   UNL     1       5.199  36.672 -15.971  1.00  0.00     0.093 A 
ATOM     29  C   UNL     1       3.921  34.772 -15.012  1.00  0.00     0.094 A 
ATOM     30  C   UNL     1       6.140  36.286 -14.898  1.00  0.00     0.133 A 
ATOM     31  C   UNL     1       5.200  34.238 -14.844  1.00  0.00     0.138 A 
ATOM     32  C   UNL     1       6.110  34.963 -14.090  1.00  0.00     0.102 A 
ATOM     33  O   UNL     1       5.379  32.858 -15.145  1.00  0.00    -0.484 OA
ATOM     34  C   UNL     1       5.581  34.356 -12.717  1.00  0.00     0.174 C 
ATOM     35  C   UNL     1       5.392  31.951 -14.029  1.00  0.00     0.211 C 
ATOM     36  O   UNL     1       5.117  35.147 -11.805  1.00  0.00    -0.294 OA
ATOM     37  C   UNL     1       5.043  32.818 -12.664  1.00  0.00     0.131 C 
BRANCH  30  38
ATOM     38  O   UNL     1       7.416  36.855 -15.125  1.00  0.00    -0.507 OA
ATOM     39  H   UNL     1       7.416  37.699 -14.478  1.00  0.00     0.293 HD
ENDBRANCH  30  38
BRANCH  35  40
ATOM     40  C   UNL     1       6.822  31.286 -13.778  1.00  0.00    -0.003 A 
ATOM     41  C   UNL     1       7.173  30.622 -14.989  1.00  0.00     0.057 A 
ATOM     42  C   UNL     1       7.395  30.571 -12.600  1.00  0.00     0.011 A 
ATOM     43  C   UNL     1       7.292  29.217 -14.872  1.00  0.00     0.158 A 
ATOM     44  C   UNL     1       8.331  29.401 -12.775  1.00  0.00     0.051 A 
ATOM     45  C   UNL     1       8.400  28.949 -14.106  1.00  0.00     0.160 A 
BRANCH  43  46
ATOM     46  O   UNL     1       6.133  28.575 -14.665  1.00  0.00    -0.504 OA
ATOM     47  H   UNL     1       6.055  27.527 -14.676  1.00  0.00     0.293 HD
ENDBRANCH  43  46
BRANCH  45  48
ATOM     48  O   UNL     1       9.636  28.462 -14.596  1.00  0.00    -0.493 OA
ATOM     49  C   UNL     1      10.054  27.134 -14.283  1.00  0.00     0.278 C 
ENDBRANCH  45  48
ENDBRANCH  35  40
ENDBRANCH  26  27
ENDBRANCH   5  26
BRANCH   4  50
ATOM     50  O   UNL     1       1.380  34.180 -17.538  1.00  0.00    -0.384 OA
ATOM     51  H   UNL     1       1.072  33.314 -17.912  1.00  0.00     0.211 HD
ENDBRANCH   4  50
TORSDOF 15
ENDMDL
