MODEL 1
REMARK VINA RESULT:    -4.538      0.000      0.000
REMARK INTER + INTRA:          -4.862
REMARK INTER:                  -4.936
REMARK INTRA:                   0.074
REMARK UNBOUND:                 0.074
REMARK SMILES C=C1C[C@@]2(O)O[C@@]3(C[C@H]2C(C)C)[C@@H](C)CC[C@@H]13
REMARK SMILES IDX 14 1 13 2 15 3 16 4 17 5 7 6 8 7 9 8 4 9 6 10 3 11 2 12 1 13
REMARK SMILES IDX 10 14 11 15 12 16 5 17
REMARK H PARENT 5 18
REMARK Flexibility Score: inf
ROOT
ATOM      1  C   UNL     1      24.044 -10.902  -5.776  1.00  0.00     0.011 C 
ATOM      2  C   UNL     1      24.986  -9.690  -5.717  1.00  0.00     0.019 C 
ATOM      3  C   UNL     1      24.257  -8.396  -5.320  1.00  0.00     0.007 C 
ATOM      4  C   UNL     1      25.187  -7.632  -4.373  1.00  0.00     0.011 C 
ATOM      5  C   UNL     1      26.515  -8.389  -4.376  1.00  0.00     0.047 C 
ATOM      6  C   UNL     1      26.126  -9.839  -4.700  1.00  0.00     0.081 C 
ATOM      7  C   UNL     1      27.330 -10.650  -5.201  1.00  0.00     0.046 C 
ATOM      8  C   UNL     1      27.772 -11.411  -3.955  1.00  0.00     0.054 C 
ATOM      9  C   UNL     1      26.869 -10.806  -2.849  1.00  0.00     0.173 C 
ATOM     10  O   UNL     1      25.677 -10.462  -3.515  1.00  0.00    -0.342 OA
ATOM     11  C   UNL     1      27.416  -9.513  -2.167  1.00  0.00     0.096 C 
ATOM     12  C   UNL     1      27.265  -8.293  -3.057  1.00  0.00    -0.066 C 
ATOM     13  C   UNL     1      27.788  -7.121  -2.670  1.00  0.00     0.008 C 
ENDROOT
BRANCH   8  14
ATOM     14  C   UNL     1      29.312 -11.411  -3.715  1.00  0.00    -0.009 C 
ATOM     15  C   UNL     1      29.672 -12.114  -2.394  1.00  0.00     0.008 C 
ATOM     16  C   UNL     1      30.048 -12.125  -4.863  1.00  0.00     0.008 C 
ENDBRANCH   8  14
BRANCH   9  17
ATOM     17  O   UNL     1      26.606 -11.788  -1.877  1.00  0.00    -0.365 OA
ATOM     18  H   UNL     1      26.448 -12.644  -2.355  1.00  0.00     0.214 HD
ENDBRANCH   9  17
TORSDOF 2
ENDMDL
MODEL 2
REMARK VINA RESULT:    -3.770      1.596      4.409
REMARK INTER + INTRA:          -4.027
REMARK INTER:                  -4.576
REMARK INTRA:                   0.549
REMARK UNBOUND:                 0.074
REMARK SMILES C=C1C[C@@]2(O)O[C@@]3(C[C@H]2C(C)C)[C@@H](C)CC[C@@H]13
REMARK SMILES IDX 14 1 13 2 15 3 16 4 17 5 7 6 8 7 9 8 4 9 6 10 3 11 2 12 1 13
REMARK SMILES IDX 10 14 11 15 12 16 5 17
REMARK H PARENT 5 18
REMARK Flexibility Score: inf
ROOT
ATOM      1  C   UNL     1      24.379  -7.794  -1.937  1.00  0.00     0.011 C 
ATOM      2  C   UNL     1      25.684  -7.894  -2.741  1.00  0.00     0.019 C 
ATOM      3  C   UNL     1      26.878  -8.326  -1.875  1.00  0.00     0.007 C 
ATOM      4  C   UNL     1      27.709  -9.300  -2.715  1.00  0.00     0.011 C 
ATOM      5  C   UNL     1      27.102  -9.281  -4.117  1.00  0.00     0.047 C 
ATOM      6  C   UNL     1      25.629  -8.912  -3.889  1.00  0.00     0.081 C 
ATOM      7  C   UNL     1      24.969  -8.393  -5.174  1.00  0.00     0.046 C 
ATOM      8  C   UNL     1      24.222  -9.618  -5.694  1.00  0.00     0.054 C 
ATOM      9  C   UNL     1      24.692 -10.737  -4.729  1.00  0.00     0.173 C 
ATOM     10  O   UNL     1      24.925 -10.076  -3.508  1.00  0.00    -0.342 OA
ATOM     11  C   UNL     1      26.016 -11.461  -5.130  1.00  0.00     0.096 C 
ATOM     12  C   UNL     1      27.239 -10.607  -4.849  1.00  0.00    -0.066 C 
ATOM     13  C   UNL     1      28.448 -11.032  -5.241  1.00  0.00     0.008 C 
ENDROOT
BRANCH   8  14
ATOM     14  C   UNL     1      24.383  -9.867  -7.225  1.00  0.00    -0.009 C 
ATOM     15  C   UNL     1      24.290 -11.366  -7.561  1.00  0.00     0.008 C 
ATOM     16  C   UNL     1      23.296  -9.120  -8.020  1.00  0.00     0.008 C 
ENDBRANCH   8  14
BRANCH   9  17
ATOM     17  O   UNL     1      23.659 -11.678  -4.573  1.00  0.00    -0.365 OA
ATOM     18  H   UNL     1      23.032 -11.320  -3.890  1.00  0.00     0.214 HD
ENDBRANCH   9  17
TORSDOF 2
ENDMDL
MODEL 3
REMARK VINA RESULT:    -3.515      2.327      3.238
REMARK INTER + INTRA:          -3.749
REMARK INTER:                  -4.301
REMARK INTRA:                   0.553
REMARK UNBOUND:                 0.074
REMARK SMILES C=C1C[C@@]2(O)O[C@@]3(C[C@H]2C(C)C)[C@@H](C)CC[C@@H]13
REMARK SMILES IDX 14 1 13 2 15 3 16 4 17 5 7 6 8 7 9 8 4 9 6 10 3 11 2 12 1 13
REMARK SMILES IDX 10 14 11 15 12 16 5 17
REMARK H PARENT 5 18
REMARK Flexibility Score: inf
ROOT
ATOM      1  C   UNL     1      22.517  -9.845  -8.711  1.00  0.00     0.011 C 
ATOM      2  C   UNL     1      23.498  -8.875  -8.036  1.00  0.00     0.019 C 
ATOM      3  C   UNL     1      22.820  -7.573  -7.581  1.00  0.00     0.007 C 
ATOM      4  C   UNL     1      23.418  -7.211  -6.218  1.00  0.00     0.011 C 
ATOM      5  C   UNL     1      24.565  -8.193  -5.980  1.00  0.00     0.047 C 
ATOM      6  C   UNL     1      24.165  -9.444  -6.776  1.00  0.00     0.081 C 
ATOM      7  C   UNL     1      25.373 -10.353  -7.046  1.00  0.00     0.046 C 
ATOM      8  C   UNL     1      25.244 -11.422  -5.965  1.00  0.00     0.054 C 
ATOM      9  C   UNL     1      24.072 -10.891  -5.100  1.00  0.00     0.173 C 
ATOM     10  O   UNL     1      23.250 -10.196  -6.007  1.00  0.00    -0.342 OA
ATOM     11  C   UNL     1      24.469  -9.893  -3.967  1.00  0.00     0.096 C 
ATOM     12  C   UNL     1      24.787  -8.513  -4.511  1.00  0.00    -0.066 C 
ATOM     13  C   UNL     1      25.258  -7.567  -3.685  1.00  0.00     0.008 C 
ENDROOT
BRANCH   8  14
ATOM     14  C   UNL     1      26.581 -11.768  -5.241  1.00  0.00    -0.009 C 
ATOM     15  C   UNL     1      27.569 -10.590  -5.298  1.00  0.00     0.008 C 
ATOM     16  C   UNL     1      26.330 -12.123  -3.763  1.00  0.00     0.008 C 
ENDBRANCH   8  14
BRANCH   9  17
ATOM     17  O   UNL     1      23.367 -11.980  -4.556  1.00  0.00    -0.365 OA
ATOM     18  H   UNL     1      24.007 -12.501  -4.002  1.00  0.00     0.214 HD
ENDBRANCH   9  17
TORSDOF 2
ENDMDL
MODEL 4
REMARK VINA RESULT:    -3.132      1.915      4.350
REMARK INTER + INTRA:          -3.333
REMARK INTER:                  -3.073
REMARK INTRA:                  -0.260
REMARK UNBOUND:                 0.074
REMARK SMILES C=C1C[C@@]2(O)O[C@@]3(C[C@H]2C(C)C)[C@@H](C)CC[C@@H]13
REMARK SMILES IDX 14 1 13 2 15 3 16 4 17 5 7 6 8 7 9 8 4 9 6 10 3 11 2 12 1 13
REMARK SMILES IDX 10 14 11 15 12 16 5 17
REMARK H PARENT 5 18
REMARK Flexibility Score: inf
ROOT
ATOM      1  C   UNL     1      23.773  -7.164  -5.199  1.00  0.00     0.011 C 
ATOM      2  C   UNL     1      25.152  -7.837  -5.257  1.00  0.00     0.019 C 
ATOM      3  C   UNL     1      25.933  -7.694  -3.942  1.00  0.00     0.007 C 
ATOM      4  C   UNL     1      26.638  -9.031  -3.693  1.00  0.00     0.011 C 
ATOM      5  C   UNL     1      26.417  -9.870  -4.950  1.00  0.00     0.047 C 
ATOM      6  C   UNL     1      25.095  -9.347  -5.531  1.00  0.00     0.081 C 
ATOM      7  C   UNL     1      24.936  -9.725  -7.010  1.00  0.00     0.046 C 
ATOM      8  C   UNL     1      24.027 -10.948  -6.955  1.00  0.00     0.054 C 
ATOM      9  C   UNL     1      23.920 -11.223  -5.433  1.00  0.00     0.173 C 
ATOM     10  O   UNL     1      24.025  -9.953  -4.835  1.00  0.00    -0.342 OA
ATOM     11  C   UNL     1      25.046 -12.120  -4.829  1.00  0.00     0.096 C 
ATOM     12  C   UNL     1      26.353 -11.364  -4.673  1.00  0.00    -0.066 C 
ATOM     13  C   UNL     1      27.453 -12.018  -4.276  1.00  0.00     0.008 C 
ENDROOT
BRANCH   8  14
ATOM     14  C   UNL     1      24.476 -12.125  -7.874  1.00  0.00    -0.009 C 
ATOM     15  C   UNL     1      23.712 -12.114  -9.210  1.00  0.00     0.008 C 
ATOM     16  C   UNL     1      25.984 -12.044  -8.174  1.00  0.00     0.008 C 
ENDBRANCH   8  14
BRANCH   9  17
ATOM     17  O   UNL     1      22.659 -11.780  -5.150  1.00  0.00    -0.365 OA
ATOM     18  H   UNL     1      21.979 -11.226  -5.617  1.00  0.00     0.214 HD
ENDBRANCH   9  17
TORSDOF 2
ENDMDL
MODEL 5
REMARK VINA RESULT:    -2.932      8.174     11.089
REMARK INTER + INTRA:          -3.116
REMARK INTER:                  -3.321
REMARK INTRA:                   0.206
REMARK UNBOUND:                 0.074
REMARK SMILES C=C1C[C@@]2(O)O[C@@]3(C[C@H]2C(C)C)[C@@H](C)CC[C@@H]13
REMARK SMILES IDX 14 1 13 2 15 3 16 4 17 5 7 6 8 7 9 8 4 9 6 10 3 11 2 12 1 13
REMARK SMILES IDX 10 14 11 15 12 16 5 17
REMARK H PARENT 5 18
REMARK Flexibility Score: inf
ROOT
ATOM      1  C   UNL     1      17.651  -0.521  -5.453  1.00  0.00     0.011 C 
ATOM      2  C   UNL     1      17.231  -1.877  -4.868  1.00  0.00     0.019 C 
ATOM      3  C   UNL     1      15.741  -2.181  -5.095  1.00  0.00     0.007 C 
ATOM      4  C   UNL     1      15.637  -3.669  -5.445  1.00  0.00     0.011 C 
ATOM      5  C   UNL     1      17.032  -4.255  -5.234  1.00  0.00     0.047 C 
ATOM      6  C   UNL     1      17.983  -3.073  -5.470  1.00  0.00     0.081 C 
ATOM      7  C   UNL     1      19.369  -3.330  -4.862  1.00  0.00     0.046 C 
ATOM      8  C   UNL     1      20.191  -3.783  -6.065  1.00  0.00     0.054 C 
ATOM      9  C   UNL     1      19.122  -3.897  -7.183  1.00  0.00     0.173 C 
ATOM     10  O   UNL     1      18.168  -2.913  -6.861  1.00  0.00    -0.342 OA
ATOM     11  C   UNL     1      18.376  -5.266  -7.266  1.00  0.00     0.096 C 
ATOM     12  C   UNL     1      17.342  -5.417  -6.164  1.00  0.00    -0.066 C 
ATOM     13  C   UNL     1      16.693  -6.580  -6.021  1.00  0.00     0.008 C 
ENDROOT
BRANCH   8  14
ATOM     14  C   UNL     1      21.092  -5.027  -5.795  1.00  0.00    -0.009 C 
ATOM     15  C   UNL     1      21.667  -5.595  -7.105  1.00  0.00     0.008 C 
ATOM     16  C   UNL     1      22.264  -4.665  -4.865  1.00  0.00     0.008 C 
ENDBRANCH   8  14
BRANCH   9  17
ATOM     17  O   UNL     1      19.716  -3.597  -8.422  1.00  0.00    -0.365 OA
ATOM     18  H   UNL     1      20.145  -2.705  -8.339  1.00  0.00     0.214 HD
ENDBRANCH   9  17
TORSDOF 2
ENDMDL
MODEL 6
REMARK VINA RESULT:    -2.796      2.480      4.516
REMARK INTER + INTRA:          -2.967
REMARK INTER:                  -2.623
REMARK INTRA:                  -0.343
REMARK UNBOUND:                 0.074
REMARK SMILES C=C1C[C@@]2(O)O[C@@]3(C[C@H]2C(C)C)[C@@H](C)CC[C@@H]13
REMARK SMILES IDX 14 1 13 2 15 3 16 4 17 5 7 6 8 7 9 8 4 9 6 10 3 11 2 12 1 13
REMARK SMILES IDX 10 14 11 15 12 16 5 17
REMARK H PARENT 5 18
REMARK Flexibility Score: inf
ROOT
ATOM      1  C   UNL     1      24.420  -7.527  -8.525  1.00  0.00     0.011 C 
ATOM      2  C   UNL     1      23.379  -8.174  -7.599  1.00  0.00     0.019 C 
ATOM      3  C   UNL     1      22.437  -9.129  -8.348  1.00  0.00     0.007 C 
ATOM      4  C   UNL     1      22.215 -10.342  -7.439  1.00  0.00     0.011 C 
ATOM      5  C   UNL     1      22.871  -9.999  -6.102  1.00  0.00     0.047 C 
ATOM      6  C   UNL     1      23.991  -9.014  -6.469  1.00  0.00     0.081 C 
ATOM      7  C   UNL     1      24.458  -8.207  -5.250  1.00  0.00     0.046 C 
ATOM      8  C   UNL     1      25.720  -8.943  -4.814  1.00  0.00     0.054 C 
ATOM      9  C   UNL     1      25.722 -10.189  -5.737  1.00  0.00     0.173 C 
ATOM     10  O   UNL     1      25.108  -9.750  -6.925  1.00  0.00    -0.342 OA
ATOM     11  C   UNL     1      24.911 -11.416  -5.215  1.00  0.00     0.096 C 
ATOM     12  C   UNL     1      23.414 -11.215  -5.370  1.00  0.00    -0.066 C 
ATOM     13  C   UNL     1      22.568 -12.125  -4.865  1.00  0.00     0.008 C 
ENDROOT
BRANCH   8  14
ATOM     14  C   UNL     1      25.828  -9.180  -3.277  1.00  0.00    -0.009 C 
ATOM     15  C   UNL     1      27.219  -8.792  -2.746  1.00  0.00     0.008 C 
ATOM     16  C   UNL     1      24.770  -8.358  -2.518  1.00  0.00     0.008 C 
ENDBRANCH   8  14
BRANCH   9  17
ATOM     17  O   UNL     1      27.051 -10.569  -6.000  1.00  0.00    -0.365 OA
ATOM     18  H   UNL     1      27.321 -10.134  -6.851  1.00  0.00     0.214 HD
ENDBRANCH   9  17
TORSDOF 2
ENDMDL
MODEL 7
REMARK VINA RESULT:    -2.640      1.896      3.795
REMARK INTER + INTRA:          -2.798
REMARK INTER:                  -3.572
REMARK INTRA:                   0.774
REMARK UNBOUND:                 0.074
REMARK SMILES C=C1C[C@@]2(O)O[C@@]3(C[C@H]2C(C)C)[C@@H](C)CC[C@@H]13
REMARK SMILES IDX 14 1 13 2 15 3 16 4 17 5 7 6 8 7 9 8 4 9 6 10 3 11 2 12 1 13
REMARK SMILES IDX 10 14 11 15 12 16 5 17
REMARK H PARENT 5 18
REMARK Flexibility Score: inf
ROOT
ATOM      1  C   UNL     1      22.774  -9.751  -6.761  1.00  0.00     0.011 C 
ATOM      2  C   UNL     1      23.685 -10.858  -6.210  1.00  0.00     0.019 C 
ATOM      3  C   UNL     1      24.400 -11.642  -7.322  1.00  0.00     0.007 C 
ATOM      4  C   UNL     1      25.829 -11.901  -6.838  1.00  0.00     0.011 C 
ATOM      5  C   UNL     1      25.878 -11.437  -5.383  1.00  0.00     0.047 C 
ATOM      6  C   UNL     1      24.806 -10.341  -5.297  1.00  0.00     0.081 C 
ATOM      7  C   UNL     1      24.380 -10.078  -3.845  1.00  0.00     0.046 C 
ATOM      8  C   UNL     1      25.185  -8.837  -3.472  1.00  0.00     0.054 C 
ATOM      9  C   UNL     1      26.106  -8.646  -4.705  1.00  0.00     0.173 C 
ATOM     10  O   UNL     1      25.352  -9.135  -5.789  1.00  0.00    -0.342 OA
ATOM     11  C   UNL     1      27.449  -9.441  -4.672  1.00  0.00     0.096 C 
ATOM     12  C   UNL     1      27.244 -10.917  -4.964  1.00  0.00    -0.066 C 
ATOM     13  C   UNL     1      28.279 -11.762  -4.862  1.00  0.00     0.008 C 
ENDROOT
BRANCH   8  14
ATOM     14  C   UNL     1      25.859  -8.906  -2.068  1.00  0.00    -0.009 C 
ATOM     15  C   UNL     1      26.615 -10.233  -1.875  1.00  0.00     0.008 C 
ATOM     16  C   UNL     1      26.853  -7.746  -1.877  1.00  0.00     0.008 C 
ENDBRANCH   8  14
BRANCH   9  17
ATOM     17  O   UNL     1      26.364  -7.275  -4.883  1.00  0.00    -0.365 OA
ATOM     18  H   UNL     1      25.502  -6.794  -4.771  1.00  0.00     0.214 HD
ENDBRANCH   9  17
TORSDOF 2
ENDMDL
MODEL 8
REMARK VINA RESULT:    -1.796      2.489      4.192
REMARK INTER + INTRA:          -1.879
REMARK INTER:                  -2.712
REMARK INTRA:                   0.833
REMARK UNBOUND:                 0.074
REMARK SMILES C=C1C[C@@]2(O)O[C@@]3(C[C@H]2C(C)C)[C@@H](C)CC[C@@H]13
REMARK SMILES IDX 14 1 13 2 15 3 16 4 17 5 7 6 8 7 9 8 4 9 6 10 3 11 2 12 1 13
REMARK SMILES IDX 10 14 11 15 12 16 5 17
REMARK H PARENT 5 18
REMARK Flexibility Score: inf
ROOT
ATOM      1  C   UNL     1      23.116  -6.959  -7.148  1.00  0.00     0.011 C 
ATOM      2  C   UNL     1      23.181  -8.334  -6.467  1.00  0.00     0.019 C 
ATOM      3  C   UNL     1      23.395  -9.479  -7.469  1.00  0.00     0.007 C 
ATOM      4  C   UNL     1      24.374 -10.462  -6.820  1.00  0.00     0.011 C 
ATOM      5  C   UNL     1      24.572  -9.982  -5.384  1.00  0.00     0.047 C 
ATOM      6  C   UNL     1      24.323  -8.469  -5.450  1.00  0.00     0.081 C 
ATOM      7  C   UNL     1      24.018  -7.884  -4.063  1.00  0.00     0.046 C 
ATOM      8  C   UNL     1      25.360  -7.294  -3.639  1.00  0.00     0.054 C 
ATOM      9  C   UNL     1      26.312  -7.771  -4.765  1.00  0.00     0.173 C 
ATOM     10  O   UNL     1      25.498  -7.837  -5.913  1.00  0.00    -0.342 OA
ATOM     11  C   UNL     1      26.947  -9.182  -4.559  1.00  0.00     0.096 C 
ATOM     12  C   UNL     1      25.953 -10.297  -4.829  1.00  0.00    -0.066 C 
ATOM     13  C   UNL     1      26.302 -11.568  -4.587  1.00  0.00     0.008 C 
ENDROOT
BRANCH   8  14
ATOM     14  C   UNL     1      25.763  -7.610  -2.166  1.00  0.00    -0.009 C 
ATOM     15  C   UNL     1      25.681  -9.120  -1.876  1.00  0.00     0.008 C 
ATOM     16  C   UNL     1      27.199  -7.135  -1.875  1.00  0.00     0.008 C 
ENDBRANCH   8  14
BRANCH   9  17
ATOM     17  O   UNL     1      27.324  -6.812  -4.953  1.00  0.00    -0.365 OA
ATOM     18  H   UNL     1      27.506  -6.395  -4.070  1.00  0.00     0.214 HD
ENDBRANCH   9  17
TORSDOF 2
ENDMDL
