MODEL 1
REMARK VINA RESULT:    -5.993      0.000      0.000
REMARK INTER + INTRA:         -11.714
REMARK INTER:                 -10.898
REMARK INTRA:                  -0.816
REMARK UNBOUND:                -0.816
REMARK SMILES CCCCCC=CCC=CCCCCCCCC(=O)[O-]
REMARK SMILES IDX 11 1 12 2 13 3 14 4 15 5 16 6 17 7 18 8 19 9 20 10 10 11
REMARK SMILES IDX 9 12 8 13 7 14 6 15 5 16 4 17 3 18 2 19 1 20
REMARK H PARENT
REMARK Flexibility Score: inf
ROOT
ATOM      1  C   UNL     1      21.066 -12.686  21.390  1.00  0.00     0.027 C 
ENDROOT
BRANCH   1   2
ATOM      2  C   UNL     1      22.330 -11.897  21.756  1.00  0.00     0.004 C 
BRANCH   2   3
ATOM      3  C   UNL     1      22.020 -10.678  22.642  1.00  0.00     0.000 C 
BRANCH   3   4
ATOM      4  C   UNL     1      20.826 -10.934  23.588  1.00  0.00     0.000 C 
BRANCH   4   5
ATOM      5  C   UNL     1      20.651  -9.859  24.677  1.00  0.00     0.000 C 
BRANCH   5   6
ATOM      6  C   UNL     1      20.928  -8.414  24.218  1.00  0.00     0.006 C 
BRANCH   6   7
ATOM      7  C   UNL     1      22.054  -7.708  24.994  1.00  0.00     0.053 C 
BRANCH   7   8
ATOM      8  C   UNL     1      21.521  -6.871  26.116  1.00  0.00     0.041 C 
ATOM      9  O   UNL     1      21.145  -7.412  27.190  1.00  0.00    -0.550 OA
ATOM     10  O   UNL     1      21.458  -5.489  25.982  1.00  0.00    -0.550 OA
ENDBRANCH   7   8
ENDBRANCH   6   7
ENDBRANCH   5   6
ENDBRANCH   4   5
ENDBRANCH   3   4
ENDBRANCH   2   3
ENDBRANCH   1   2
BRANCH   1  11
ATOM     11  C   UNL     1      21.323 -13.644  20.257  1.00  0.00    -0.031 C 
ATOM     12  C   UNL     1      22.467 -14.335  20.163  1.00  0.00    -0.027 C 
BRANCH  12  13
ATOM     13  C   UNL     1      22.719 -15.283  19.025  1.00  0.00     0.054 C 
BRANCH  13  14
ATOM     14  C   UNL     1      23.079 -16.657  19.532  1.00  0.00    -0.027 C 
ATOM     15  C   UNL     1      23.309 -17.726  18.745  1.00  0.00    -0.031 C 
BRANCH  15  16
ATOM     16  C   UNL     1      23.190 -17.725  17.239  1.00  0.00     0.027 C 
BRANCH  16  17
ATOM     17  C   UNL     1      22.334 -18.893  16.728  1.00  0.00     0.004 C 
BRANCH  17  18
ATOM     18  C   UNL     1      21.788 -19.756  17.874  1.00  0.00     0.000 C 
BRANCH  18  19
ATOM     19  C   UNL     1      20.894 -20.881  17.336  1.00  0.00    -0.003 C 
ATOM     20  C   UNL     1      19.448 -20.695  17.786  1.00  0.00     0.004 C 
ENDBRANCH  18  19
ENDBRANCH  17  18
ENDBRANCH  16  17
ENDBRANCH  15  16
ENDBRANCH  13  14
ENDBRANCH  12  13
ENDBRANCH   1  11
TORSDOF 14
ENDMDL
MODEL 2
REMARK VINA RESULT:    -5.903      1.091      1.595
REMARK INTER + INTRA:         -11.550
REMARK INTER:                 -10.875
REMARK INTRA:                  -0.676
REMARK UNBOUND:                -0.816
REMARK SMILES CCCCCC=CCC=CCCCCCCCC(=O)[O-]
REMARK SMILES IDX 11 1 12 2 13 3 14 4 15 5 16 6 17 7 18 8 19 9 20 10 10 11
REMARK SMILES IDX 9 12 8 13 7 14 6 15 5 16 4 17 3 18 2 19 1 20
REMARK H PARENT
REMARK Flexibility Score: inf
ROOT
ATOM      1  C   UNL     1      22.669 -12.952  21.435  1.00  0.00     0.027 C 
ENDROOT
BRANCH   1   2
ATOM      2  C   UNL     1      21.163 -12.727  21.254  1.00  0.00     0.004 C 
BRANCH   2   3
ATOM      3  C   UNL     1      20.560 -11.872  22.383  1.00  0.00     0.000 C 
BRANCH   3   4
ATOM      4  C   UNL     1      21.626 -11.004  23.088  1.00  0.00     0.000 C 
BRANCH   4   5
ATOM      5  C   UNL     1      21.744  -9.578  22.519  1.00  0.00     0.000 C 
BRANCH   5   6
ATOM      6  C   UNL     1      21.540  -8.447  23.547  1.00  0.00     0.006 C 
BRANCH   6   7
ATOM      7  C   UNL     1      20.788  -8.875  24.819  1.00  0.00     0.053 C 
BRANCH   7   8
ATOM      8  C   UNL     1      20.389  -7.699  25.656  1.00  0.00     0.041 C 
ATOM      9  O   UNL     1      19.424  -6.968  25.308  1.00  0.00    -0.550 OA
ATOM     10  O   UNL     1      21.073  -7.421  26.834  1.00  0.00    -0.550 OA
ENDBRANCH   7   8
ENDBRANCH   6   7
ENDBRANCH   5   6
ENDBRANCH   4   5
ENDBRANCH   3   4
ENDBRANCH   2   3
ENDBRANCH   1   2
BRANCH   1  11
ATOM     11  C   UNL     1      23.095 -14.295  20.903  1.00  0.00    -0.031 C 
ATOM     12  C   UNL     1      22.574 -14.804  19.778  1.00  0.00    -0.027 C 
BRANCH  12  13
ATOM     13  C   UNL     1      22.998 -16.149  19.257  1.00  0.00     0.054 C 
BRANCH  13  14
ATOM     14  C   UNL     1      22.976 -16.180  17.750  1.00  0.00    -0.027 C 
ATOM     15  C   UNL     1      22.846 -17.299  17.011  1.00  0.00    -0.031 C 
BRANCH  15  16
ATOM     16  C   UNL     1      22.758 -18.696  17.576  1.00  0.00     0.027 C 
BRANCH  16  17
ATOM     17  C   UNL     1      21.913 -19.624  16.691  1.00  0.00     0.004 C 
BRANCH  17  18
ATOM     18  C   UNL     1      21.014 -20.553  17.520  1.00  0.00     0.000 C 
BRANCH  18  19
ATOM     19  C   UNL     1      19.678 -20.800  16.808  1.00  0.00    -0.003 C 
ATOM     20  C   UNL     1      18.607 -21.261  17.793  1.00  0.00     0.004 C 
ENDBRANCH  18  19
ENDBRANCH  17  18
ENDBRANCH  16  17
ENDBRANCH  15  16
ENDBRANCH  13  14
ENDBRANCH  12  13
ENDBRANCH   1  11
TORSDOF 14
ENDMDL
MODEL 3
REMARK VINA RESULT:    -5.894      1.780      2.838
REMARK INTER + INTRA:         -11.533
REMARK INTER:                 -10.612
REMARK INTRA:                  -0.922
REMARK UNBOUND:                -0.816
REMARK SMILES CCCCCC=CCC=CCCCCCCCC(=O)[O-]
REMARK SMILES IDX 11 1 12 2 13 3 14 4 15 5 16 6 17 7 18 8 19 9 20 10 10 11
REMARK SMILES IDX 9 12 8 13 7 14 6 15 5 16 4 17 3 18 2 19 1 20
REMARK H PARENT
REMARK Flexibility Score: inf
ROOT
ATOM      1  C   UNL     1      21.785 -10.826  22.665  1.00  0.00     0.027 C 
ENDROOT
BRANCH   1   2
ATOM      2  C   UNL     1      20.616 -11.166  23.599  1.00  0.00     0.004 C 
BRANCH   2   3
ATOM      3  C   UNL     1      20.538 -10.215  24.805  1.00  0.00     0.000 C 
BRANCH   3   4
ATOM      4  C   UNL     1      21.302  -8.895  24.557  1.00  0.00     0.000 C 
BRANCH   4   5
ATOM      5  C   UNL     1      21.209  -7.892  25.722  1.00  0.00     0.000 C 
BRANCH   5   6
ATOM      6  C   UNL     1      20.089  -6.841  25.589  1.00  0.00     0.006 C 
BRANCH   6   7
ATOM      7  C   UNL     1      19.893  -6.302  24.161  1.00  0.00     0.053 C 
BRANCH   7   8
ATOM      8  C   UNL     1      18.775  -5.307  24.087  1.00  0.00     0.041 C 
ATOM      9  O   UNL     1      17.723  -5.481  24.759  1.00  0.00    -0.550 OA
ATOM     10  O   UNL     1      18.904  -4.176  23.290  1.00  0.00    -0.550 OA
ENDBRANCH   7   8
ENDBRANCH   6   7
ENDBRANCH   5   6
ENDBRANCH   4   5
ENDBRANCH   3   4
ENDBRANCH   2   3
ENDBRANCH   1   2
BRANCH   1  11
ATOM     11  C   UNL     1      21.973 -11.883  21.608  1.00  0.00    -0.031 C 
ATOM     12  C   UNL     1      20.944 -12.604  21.142  1.00  0.00    -0.027 C 
BRANCH  12  13
ATOM     13  C   UNL     1      21.140 -13.662  20.093  1.00  0.00     0.054 C 
BRANCH  13  14
ATOM     14  C   UNL     1      22.360 -14.500  20.386  1.00  0.00    -0.027 C 
ATOM     15  C   UNL     1      23.038 -15.210  19.465  1.00  0.00    -0.031 C 
BRANCH  15  16
ATOM     16  C   UNL     1      22.650 -15.322  18.010  1.00  0.00     0.027 C 
BRANCH  16  17
ATOM     17  C   UNL     1      22.986 -16.703  17.428  1.00  0.00     0.004 C 
BRANCH  17  18
ATOM     18  C   UNL     1      22.884 -17.816  18.481  1.00  0.00     0.000 C 
BRANCH  18  19
ATOM     19  C   UNL     1      22.547 -19.161  17.826  1.00  0.00    -0.003 C 
ATOM     20  C   UNL     1      22.327 -19.001  16.324  1.00  0.00     0.004 C 
ENDBRANCH  18  19
ENDBRANCH  17  18
ENDBRANCH  16  17
ENDBRANCH  15  16
ENDBRANCH  13  14
ENDBRANCH  12  13
ENDBRANCH   1  11
TORSDOF 14
ENDMDL
MODEL 4
REMARK VINA RESULT:    -5.863      5.574     11.509
REMARK INTER + INTRA:         -11.477
REMARK INTER:                 -10.641
REMARK INTRA:                  -0.837
REMARK UNBOUND:                -0.816
REMARK SMILES CCCCCC=CCC=CCCCCCCCC(=O)[O-]
REMARK SMILES IDX 11 1 12 2 13 3 14 4 15 5 16 6 17 7 18 8 19 9 20 10 10 11
REMARK SMILES IDX 9 12 8 13 7 14 6 15 5 16 4 17 3 18 2 19 1 20
REMARK H PARENT
REMARK Flexibility Score: inf
ROOT
ATOM      1  C   UNL     1      22.816 -15.230  19.450  1.00  0.00     0.027 C 
ENDROOT
BRANCH   1   2
ATOM      2  C   UNL     1      23.230 -16.547  20.118  1.00  0.00     0.004 C 
BRANCH   2   3
ATOM      3  C   UNL     1      23.597 -17.632  19.091  1.00  0.00     0.000 C 
BRANCH   3   4
ATOM      4  C   UNL     1      23.029 -17.323  17.688  1.00  0.00     0.000 C 
BRANCH   4   5
ATOM      5  C   UNL     1      23.216 -18.466  16.674  1.00  0.00     0.000 C 
BRANCH   5   6
ATOM      6  C   UNL     1      21.958 -19.319  16.414  1.00  0.00     0.006 C 
BRANCH   6   7
ATOM      7  C   UNL     1      21.725 -20.434  17.447  1.00  0.00     0.053 C 
BRANCH   7   8
ATOM      8  C   UNL     1      20.349 -21.018  17.340  1.00  0.00     0.041 C 
ATOM      9  O   UNL     1      19.523 -20.551  16.510  1.00  0.00    -0.550 OA
ATOM     10  O   UNL     1      19.986 -22.092  18.143  1.00  0.00    -0.550 OA
ENDBRANCH   7   8
ENDBRANCH   6   7
ENDBRANCH   5   6
ENDBRANCH   4   5
ENDBRANCH   3   4
ENDBRANCH   2   3
ENDBRANCH   1   2
BRANCH   1  11
ATOM     11  C   UNL     1      22.380 -14.208  20.466  1.00  0.00    -0.031 C 
ATOM     12  C   UNL     1      21.199 -13.582  20.374  1.00  0.00    -0.027 C 
BRANCH  12  13
ATOM     13  C   UNL     1      20.773 -12.558  21.389  1.00  0.00     0.054 C 
BRANCH  13  14
ATOM     14  C   UNL     1      21.966 -11.849  21.979  1.00  0.00    -0.027 C 
ATOM     15  C   UNL     1      21.930 -11.092  23.092  1.00  0.00    -0.031 C 
BRANCH  15  16
ATOM     16  C   UNL     1      20.683 -10.794  23.890  1.00  0.00     0.027 C 
BRANCH  16  17
ATOM     17  C   UNL     1      20.801  -9.480  24.676  1.00  0.00     0.004 C 
BRANCH  17  18
ATOM     18  C   UNL     1      21.233  -8.308  23.783  1.00  0.00     0.000 C 
BRANCH  18  19
ATOM     19  C   UNL     1      20.606  -6.993  24.263  1.00  0.00    -0.003 C 
ATOM     20  C   UNL     1      19.629  -7.237  25.410  1.00  0.00     0.004 C 
ENDBRANCH  18  19
ENDBRANCH  17  18
ENDBRANCH  16  17
ENDBRANCH  15  16
ENDBRANCH  13  14
ENDBRANCH  12  13
ENDBRANCH   1  11
TORSDOF 14
ENDMDL
MODEL 5
REMARK VINA RESULT:    -5.793      5.410     11.611
REMARK INTER + INTRA:         -11.351
REMARK INTER:                 -10.560
REMARK INTRA:                  -0.791
REMARK UNBOUND:                -0.816
REMARK SMILES CCCCCC=CCC=CCCCCCCCC(=O)[O-]
REMARK SMILES IDX 11 1 12 2 13 3 14 4 15 5 16 6 17 7 18 8 19 9 20 10 10 11
REMARK SMILES IDX 9 12 8 13 7 14 6 15 5 16 4 17 3 18 2 19 1 20
REMARK H PARENT
REMARK Flexibility Score: inf
ROOT
ATOM      1  C   UNL     1      21.278 -13.431  20.652  1.00  0.00     0.027 C 
ENDROOT
BRANCH   1   2
ATOM      2  C   UNL     1      22.643 -14.130  20.707  1.00  0.00     0.004 C 
BRANCH   2   3
ATOM      3  C   UNL     1      22.797 -15.194  19.607  1.00  0.00     0.000 C 
BRANCH   3   4
ATOM      4  C   UNL     1      23.171 -16.578  20.182  1.00  0.00     0.000 C 
BRANCH   4   5
ATOM      5  C   UNL     1      23.430 -17.651  19.109  1.00  0.00     0.000 C 
BRANCH   5   6
ATOM      6  C   UNL     1      23.187 -17.193  17.657  1.00  0.00     0.006 C 
BRANCH   6   7
ATOM      7  C   UNL     1      23.481 -18.268  16.596  1.00  0.00     0.053 C 
BRANCH   7   8
ATOM      8  C   UNL     1      22.721 -19.533  16.856  1.00  0.00     0.041 C 
ATOM      9  O   UNL     1      21.469 -19.563  16.714  1.00  0.00    -0.550 OA
ATOM     10  O   UNL     1      23.399 -20.685  17.235  1.00  0.00    -0.550 OA
ENDBRANCH   7   8
ENDBRANCH   6   7
ENDBRANCH   5   6
ENDBRANCH   4   5
ENDBRANCH   3   4
ENDBRANCH   2   3
ENDBRANCH   1   2
BRANCH   1  11
ATOM     11  C   UNL     1      21.209 -12.279  21.620  1.00  0.00    -0.031 C 
ATOM     12  C   UNL     1      22.238 -11.439  21.791  1.00  0.00    -0.027 C 
BRANCH  12  13
ATOM     13  C   UNL     1      22.164 -10.297  22.765  1.00  0.00     0.054 C 
BRANCH  13  14
ATOM     14  C   UNL     1      21.039 -10.493  23.749  1.00  0.00    -0.027 C 
ATOM     15  C   UNL     1      20.669  -9.590  24.677  1.00  0.00    -0.031 C 
BRANCH  15  16
ATOM     16  C   UNL     1      21.359  -8.266  24.911  1.00  0.00     0.027 C 
BRANCH  16  17
ATOM     17  C   UNL     1      20.687  -7.121  24.139  1.00  0.00     0.004 C 
BRANCH  17  18
ATOM     18  C   UNL     1      19.381  -6.663  24.802  1.00  0.00     0.000 C 
BRANCH  18  19
ATOM     19  C   UNL     1      18.884  -5.349  24.185  1.00  0.00    -0.003 C 
ATOM     20  C   UNL     1      17.480  -5.008  24.676  1.00  0.00     0.004 C 
ENDBRANCH  18  19
ENDBRANCH  17  18
ENDBRANCH  16  17
ENDBRANCH  15  16
ENDBRANCH  13  14
ENDBRANCH  12  13
ENDBRANCH   1  11
TORSDOF 14
ENDMDL
MODEL 6
REMARK VINA RESULT:    -5.778      5.734     11.644
REMARK INTER + INTRA:         -11.324
REMARK INTER:                 -10.610
REMARK INTRA:                  -0.714
REMARK UNBOUND:                -0.816
REMARK SMILES CCCCCC=CCC=CCCCCCCCC(=O)[O-]
REMARK SMILES IDX 11 1 12 2 13 3 14 4 15 5 16 6 17 7 18 8 19 9 20 10 10 11
REMARK SMILES IDX 9 12 8 13 7 14 6 15 5 16 4 17 3 18 2 19 1 20
REMARK H PARENT
REMARK Flexibility Score: inf
ROOT
ATOM      1  C   UNL     1      23.330 -17.561  19.249  1.00  0.00     0.027 C 
ENDROOT
BRANCH   1   2
ATOM      2  C   UNL     1      23.036 -17.030  17.840  1.00  0.00     0.004 C 
BRANCH   2   3
ATOM      3  C   UNL     1      23.463 -18.021  16.743  1.00  0.00     0.000 C 
BRANCH   3   4
ATOM      4  C   UNL     1      22.298 -18.930  16.293  1.00  0.00     0.000 C 
BRANCH   4   5
ATOM      5  C   UNL     1      22.240 -20.281  17.030  1.00  0.00     0.000 C 
BRANCH   5   6
ATOM      6  C   UNL     1      20.829 -20.729  17.459  1.00  0.00     0.006 C 
BRANCH   6   7
ATOM      7  C   UNL     1      20.070 -21.536  16.392  1.00  0.00     0.053 C 
BRANCH   7   8
ATOM      8  C   UNL     1      18.594 -21.559  16.652  1.00  0.00     0.041 C 
ATOM      9  O   UNL     1      18.152 -21.386  17.820  1.00  0.00    -0.550 OA
ATOM     10  O   UNL     1      17.706 -21.751  15.601  1.00  0.00    -0.550 OA
ENDBRANCH   7   8
ENDBRANCH   6   7
ENDBRANCH   5   6
ENDBRANCH   4   5
ENDBRANCH   3   4
ENDBRANCH   2   3
ENDBRANCH   1   2
BRANCH   1  11
ATOM     11  C   UNL     1      23.208 -16.474  20.284  1.00  0.00    -0.031 C 
ATOM     12  C   UNL     1      22.922 -15.209  19.948  1.00  0.00    -0.027 C 
BRANCH  12  13
ATOM     13  C   UNL     1      22.810 -14.128  20.987  1.00  0.00     0.054 C 
BRANCH  13  14
ATOM     14  C   UNL     1      21.514 -13.371  20.845  1.00  0.00    -0.027 C 
ATOM     15  C   UNL     1      21.226 -12.222  21.487  1.00  0.00    -0.031 C 
BRANCH  15  16
ATOM     16  C   UNL     1      22.134 -11.546  22.487  1.00  0.00     0.027 C 
BRANCH  16  17
ATOM     17  C   UNL     1      21.582 -10.187  22.941  1.00  0.00     0.004 C 
BRANCH  17  18
ATOM     18  C   UNL     1      20.782 -10.293  24.247  1.00  0.00     0.000 C 
BRANCH  18  19
ATOM     19  C   UNL     1      20.851  -8.982  25.040  1.00  0.00    -0.003 C 
ATOM     20  C   UNL     1      20.926  -7.778  24.106  1.00  0.00     0.004 C 
ENDBRANCH  18  19
ENDBRANCH  17  18
ENDBRANCH  16  17
ENDBRANCH  15  16
ENDBRANCH  13  14
ENDBRANCH  12  13
ENDBRANCH   1  11
TORSDOF 14
ENDMDL
MODEL 7
REMARK VINA RESULT:    -5.777      5.215     11.802
REMARK INTER + INTRA:         -11.322
REMARK INTER:                 -10.617
REMARK INTRA:                  -0.705
REMARK UNBOUND:                -0.816
REMARK SMILES CCCCCC=CCC=CCCCCCCCC(=O)[O-]
REMARK SMILES IDX 11 1 12 2 13 3 14 4 15 5 16 6 17 7 18 8 19 9 20 10 10 11
REMARK SMILES IDX 9 12 8 13 7 14 6 15 5 16 4 17 3 18 2 19 1 20
REMARK H PARENT
REMARK Flexibility Score: inf
ROOT
ATOM      1  C   UNL     1      21.873 -13.766  20.521  1.00  0.00     0.027 C 
ENDROOT
BRANCH   1   2
ATOM      2  C   UNL     1      22.945 -14.841  20.745  1.00  0.00     0.004 C 
BRANCH   2   3
ATOM      3  C   UNL     1      22.976 -15.878  19.609  1.00  0.00     0.000 C 
BRANCH   3   4
ATOM      4  C   UNL     1      22.530 -15.276  18.258  1.00  0.00     0.000 C 
BRANCH   4   5
ATOM      5  C   UNL     1      22.894 -16.143  17.038  1.00  0.00     0.000 C 
BRANCH   5   6
ATOM      6  C   UNL     1      23.233 -17.612  17.360  1.00  0.00     0.006 C 
BRANCH   6   7
ATOM      7  C   UNL     1      22.745 -18.620  16.305  1.00  0.00     0.053 C 
BRANCH   7   8
ATOM      8  C   UNL     1      21.747 -19.583  16.872  1.00  0.00     0.041 C 
ATOM      9  O   UNL     1      21.590 -19.676  18.118  1.00  0.00    -0.550 OA
ATOM     10  O   UNL     1      20.976 -20.365  16.020  1.00  0.00    -0.550 OA
ENDBRANCH   7   8
ENDBRANCH   6   7
ENDBRANCH   5   6
ENDBRANCH   4   5
ENDBRANCH   3   4
ENDBRANCH   2   3
ENDBRANCH   1   2
BRANCH   1  11
ATOM     11  C   UNL     1      22.141 -12.539  21.352  1.00  0.00    -0.031 C 
ATOM     12  C   UNL     1      21.177 -11.952  22.074  1.00  0.00    -0.027 C 
BRANCH  12  13
ATOM     13  C   UNL     1      21.450 -10.723  22.895  1.00  0.00     0.054 C 
BRANCH  13  14
ATOM     14  C   UNL     1      20.719 -10.775  24.213  1.00  0.00    -0.027 C 
ATOM     15  C   UNL     1      20.489  -9.708  25.001  1.00  0.00    -0.031 C 
BRANCH  15  16
ATOM     16  C   UNL     1      20.973  -8.307  24.714  1.00  0.00     0.027 C 
BRANCH  16  17
ATOM     17  C   UNL     1      20.242  -7.258  25.566  1.00  0.00     0.004 C 
BRANCH  17  18
ATOM     18  C   UNL     1      21.189  -6.160  26.070  1.00  0.00     0.000 C 
BRANCH  18  19
ATOM     19  C   UNL     1      21.913  -6.604  27.347  1.00  0.00    -0.003 C 
ATOM     20  C   UNL     1      23.423  -6.652  27.136  1.00  0.00     0.004 C 
ENDBRANCH  18  19
ENDBRANCH  17  18
ENDBRANCH  16  17
ENDBRANCH  15  16
ENDBRANCH  13  14
ENDBRANCH  12  13
ENDBRANCH   1  11
TORSDOF 14
ENDMDL
MODEL 8
REMARK VINA RESULT:    -5.388      6.708     11.057
REMARK INTER + INTRA:         -10.615
REMARK INTER:                  -9.608
REMARK INTRA:                  -1.007
REMARK UNBOUND:                -0.816
REMARK SMILES CCCCCC=CCC=CCCCCCCCC(=O)[O-]
REMARK SMILES IDX 11 1 12 2 13 3 14 4 15 5 16 6 17 7 18 8 19 9 20 10 10 11
REMARK SMILES IDX 9 12 8 13 7 14 6 15 5 16 4 17 3 18 2 19 1 20
REMARK H PARENT
REMARK Flexibility Score: inf
ROOT
ATOM      1  C   UNL     1      16.204  -4.053  24.753  1.00  0.00     0.027 C 
ENDROOT
BRANCH   1   2
ATOM      2  C   UNL     1      15.384  -4.188  26.043  1.00  0.00     0.004 C 
BRANCH   2   3
ATOM      3  C   UNL     1      14.589  -5.504  26.093  1.00  0.00     0.000 C 
BRANCH   3   4
ATOM      4  C   UNL     1      13.949  -5.746  27.478  1.00  0.00     0.000 C 
BRANCH   4   5
ATOM      5  C   UNL     1      12.806  -4.771  27.815  1.00  0.00     0.000 C 
BRANCH   5   6
ATOM      6  C   UNL     1      11.958  -4.319  26.610  1.00  0.00     0.006 C 
BRANCH   6   7
ATOM      7  C   UNL     1      10.689  -5.158  26.378  1.00  0.00     0.053 C 
BRANCH   7   8
ATOM      8  C   UNL     1      10.741  -5.902  25.078  1.00  0.00     0.041 C 
ATOM      9  O   UNL     1      11.639  -6.761  24.872  1.00  0.00    -0.550 OA
ATOM     10  O   UNL     1       9.784  -5.659  24.101  1.00  0.00    -0.550 OA
ENDBRANCH   7   8
ENDBRANCH   6   7
ENDBRANCH   5   6
ENDBRANCH   4   5
ENDBRANCH   3   4
ENDBRANCH   2   3
ENDBRANCH   1   2
BRANCH   1  11
ATOM     11  C   UNL     1      17.323  -5.060  24.703  1.00  0.00    -0.031 C 
ATOM     12  C   UNL     1      18.513  -4.765  24.162  1.00  0.00    -0.027 C 
BRANCH  12  13
ATOM     13  C   UNL     1      19.622  -5.778  24.109  1.00  0.00     0.054 C 
BRANCH  13  14
ATOM     14  C   UNL     1      19.499  -6.779  25.230  1.00  0.00    -0.027 C 
ATOM     15  C   UNL     1      20.436  -7.695  25.543  1.00  0.00    -0.031 C 
BRANCH  15  16
ATOM     16  C   UNL     1      21.727  -7.897  24.785  1.00  0.00     0.027 C 
BRANCH  16  17
ATOM     17  C   UNL     1      21.618  -9.026  23.750  1.00  0.00     0.004 C 
BRANCH  17  18
ATOM     18  C   UNL     1      20.732 -10.179  24.242  1.00  0.00     0.000 C 
BRANCH  18  19
ATOM     19  C   UNL     1      20.703 -11.322  23.219  1.00  0.00    -0.003 C 
ATOM     20  C   UNL     1      21.882 -11.228  22.255  1.00  0.00     0.004 C 
ENDBRANCH  18  19
ENDBRANCH  17  18
ENDBRANCH  16  17
ENDBRANCH  15  16
ENDBRANCH  13  14
ENDBRANCH  12  13
ENDBRANCH   1  11
TORSDOF 14
ENDMDL
MODEL 9
REMARK VINA RESULT:    -5.357      7.057     10.950
REMARK INTER + INTRA:         -10.558
REMARK INTER:                  -8.884
REMARK INTRA:                  -1.674
REMARK UNBOUND:                -0.816
REMARK SMILES CCCCCC=CCC=CCCCCCCCC(=O)[O-]
REMARK SMILES IDX 11 1 12 2 13 3 14 4 15 5 16 6 17 7 18 8 19 9 20 10 10 11
REMARK SMILES IDX 9 12 8 13 7 14 6 15 5 16 4 17 3 18 2 19 1 20
REMARK H PARENT
REMARK Flexibility Score: inf
ROOT
ATOM      1  C   UNL     1      18.582 -22.245  15.644  1.00  0.00     0.027 C 
ENDROOT
BRANCH   1   2
ATOM      2  C   UNL     1      19.950 -21.757  16.137  1.00  0.00     0.004 C 
BRANCH   2   3
ATOM      3  C   UNL     1      19.845 -20.940  17.436  1.00  0.00     0.000 C 
BRANCH   3   4
ATOM      4  C   UNL     1      21.096 -20.067  17.678  1.00  0.00     0.000 C 
BRANCH   4   5
ATOM      5  C   UNL     1      21.834 -19.663  16.389  1.00  0.00     0.000 C 
BRANCH   5   6
ATOM      6  C   UNL     1      22.690 -18.386  16.500  1.00  0.00     0.006 C 
BRANCH   6   7
ATOM      7  C   UNL     1      23.075 -18.006  17.940  1.00  0.00     0.053 C 
BRANCH   7   8
ATOM      8  C   UNL     1      22.962 -16.531  18.179  1.00  0.00     0.041 C 
ATOM      9  O   UNL     1      23.014 -16.070  19.350  1.00  0.00    -0.550 OA
ATOM     10  O   UNL     1      22.819 -15.662  17.104  1.00  0.00    -0.550 OA
ENDBRANCH   7   8
ENDBRANCH   6   7
ENDBRANCH   5   6
ENDBRANCH   4   5
ENDBRANCH   3   4
ENDBRANCH   2   3
ENDBRANCH   1   2
BRANCH   1  11
ATOM     11  C   UNL     1      18.125 -21.474  14.434  1.00  0.00    -0.031 C 
ATOM     12  C   UNL     1      18.996 -20.911  13.586  1.00  0.00    -0.027 C 
BRANCH  12  13
ATOM     13  C   UNL     1      18.532 -20.137  12.384  1.00  0.00     0.054 C 
BRANCH  13  14
ATOM     14  C   UNL     1      18.788 -20.903  11.111  1.00  0.00    -0.027 C 
ATOM     15  C   UNL     1      17.931 -21.787  10.566  1.00  0.00    -0.031 C 
BRANCH  15  16
ATOM     16  C   UNL     1      16.607 -22.187  11.174  1.00  0.00     0.027 C 
BRANCH  16  17
ATOM     17  C   UNL     1      15.425 -21.472  10.503  1.00  0.00     0.004 C 
BRANCH  17  18
ATOM     18  C   UNL     1      14.292 -21.171  11.495  1.00  0.00     0.000 C 
BRANCH  18  19
ATOM     19  C   UNL     1      14.830 -20.453  12.740  1.00  0.00    -0.003 C 
ATOM     20  C   UNL     1      14.998 -18.958  12.483  1.00  0.00     0.004 C 
ENDBRANCH  18  19
ENDBRANCH  17  18
ENDBRANCH  16  17
ENDBRANCH  15  16
ENDBRANCH  13  14
ENDBRANCH  12  13
ENDBRANCH   1  11
TORSDOF 14
ENDMDL
