MODEL 1
REMARK VINA RESULT:    -6.760      0.000      0.000
REMARK INTER + INTRA:          -8.122
REMARK INTER:                  -8.144
REMARK INTRA:                   0.021
REMARK UNBOUND:                 0.021
REMARK SMILES Oc1cc(O)c2c(c1)O[C@@H](c1ccc(O)c(O)c1)[C@@H](O)C2
REMARK SMILES IDX 21 1 19 2 10 3 9 4 7 5 8 6 2 7 3 8 4 9 6 10 20 11 11 13
REMARK SMILES IDX 18 14 12 15 16 16 13 17 14 18 17 19 15 21 5 23 1 25
REMARK H PARENT 20 12 17 20 15 22 5 24 1 26
REMARK Flexibility Score: inf
ROOT
ATOM      1  C   UNL     1      73.499  46.806   7.974  1.00  0.00     0.079 C 
ATOM      2  C   UNL     1      74.006  48.253   8.105  1.00  0.00     0.164 C 
ATOM      3  C   UNL     1      73.258  49.199   7.145  1.00  0.00     0.232 C 
ATOM      4  O   UNL     1      73.308  48.690   5.809  1.00  0.00    -0.482 OA
ATOM      5  C   UNL     1      73.345  47.323   5.506  1.00  0.00     0.131 A 
ATOM      6  C   UNL     1      73.295  46.927   4.167  1.00  0.00     0.093 A 
ATOM      7  C   UNL     1      73.299  45.573   3.830  1.00  0.00     0.122 A 
ATOM      8  C   UNL     1      73.341  44.606   4.841  1.00  0.00     0.092 A 
ATOM      9  C   UNL     1      73.387  44.982   6.188  1.00  0.00     0.126 A 
ATOM     10  C   UNL     1      73.431  46.355   6.531  1.00  0.00     0.039 A 
ENDROOT
BRANCH   2  11
ATOM     11  O   UNL     1      73.874  48.699   9.430  1.00  0.00    -0.389 OA
ATOM     12  H   UNL     1      73.035  48.302   9.784  1.00  0.00     0.211 HD
ENDBRANCH   2  11
BRANCH   3  13
ATOM     13  C   UNL     1      71.827  49.474   7.580  1.00  0.00    -0.001 A 
ATOM     14  C   UNL     1      70.764  49.013   6.783  1.00  0.00     0.057 A 
ATOM     15  C   UNL     1      71.533  50.214   8.740  1.00  0.00     0.012 A 
ATOM     16  C   UNL     1      69.434  49.274   7.140  1.00  0.00     0.157 A 
ATOM     17  C   UNL     1      70.208  50.474   9.097  1.00  0.00     0.050 A 
ATOM     18  C   UNL     1      69.155  50.007   8.305  1.00  0.00     0.157 A 
BRANCH  16  19
ATOM     19  O   UNL     1      68.390  48.808   6.342  1.00  0.00    -0.504 OA
ATOM     20  H   UNL     1      68.129  47.829   6.327  1.00  0.00     0.293 HD
ENDBRANCH  16  19
BRANCH  18  21
ATOM     21  O   UNL     1      67.843  50.283   8.689  1.00  0.00    -0.504 OA
ATOM     22  H   UNL     1      67.292  51.004   8.239  1.00  0.00     0.293 HD
ENDBRANCH  18  21
ENDBRANCH   3  13
BRANCH   9  23
ATOM     23  O   UNL     1      73.374  43.973   7.152  1.00  0.00    -0.507 OA
ATOM     24  H   UNL     1      72.737  43.962   7.938  1.00  0.00     0.293 HD
ENDBRANCH   9  23
BRANCH   7  25
ATOM     25  O   UNL     1      73.253  45.198   2.489  1.00  0.00    -0.508 OA
ATOM     26  H   UNL     1      72.775  45.764   1.797  1.00  0.00     0.293 HD
ENDBRANCH   7  25
TORSDOF 6
ENDMDL
MODEL 2
REMARK VINA RESULT:    -6.113      2.504      4.130
REMARK INTER + INTRA:          -7.343
REMARK INTER:                  -7.503
REMARK INTRA:                   0.160
REMARK UNBOUND:                 0.021
REMARK SMILES Oc1cc(O)c2c(c1)O[C@@H](c1ccc(O)c(O)c1)[C@@H](O)C2
REMARK SMILES IDX 21 1 19 2 10 3 9 4 7 5 8 6 2 7 3 8 4 9 6 10 20 11 11 13
REMARK SMILES IDX 18 14 12 15 16 16 13 17 14 18 17 19 15 21 5 23 1 25
REMARK H PARENT 20 12 17 20 15 22 5 24 1 26
REMARK Flexibility Score: inf
ROOT
ATOM      1  C   UNL     1      71.127  49.679   9.028  1.00  0.00     0.079 C 
ATOM      2  C   UNL     1      69.893  50.276   8.329  1.00  0.00     0.164 C 
ATOM      3  C   UNL     1      69.294  49.286   7.309  1.00  0.00     0.232 C 
ATOM      4  O   UNL     1      70.305  48.833   6.405  1.00  0.00    -0.482 OA
ATOM      5  C   UNL     1      71.652  48.690   6.764  1.00  0.00     0.131 A 
ATOM      6  C   UNL     1      72.544  48.147   5.835  1.00  0.00     0.093 A 
ATOM      7  C   UNL     1      73.886  47.962   6.170  1.00  0.00     0.122 A 
ATOM      8  C   UNL     1      74.338  48.309   7.448  1.00  0.00     0.092 A 
ATOM      9  C   UNL     1      73.458  48.848   8.394  1.00  0.00     0.126 A 
ATOM     10  C   UNL     1      72.107  49.082   8.042  1.00  0.00     0.039 A 
ENDROOT
BRANCH   2  11
ATOM     11  O   UNL     1      68.925  50.644   9.276  1.00  0.00    -0.389 OA
ATOM     12  H   UNL     1      68.190  49.979   9.211  1.00  0.00     0.211 HD
ENDBRANCH   2  11
BRANCH   3  13
ATOM     13  C   UNL     1      68.577  48.119   7.968  1.00  0.00    -0.001 A 
ATOM     14  C   UNL     1      67.316  47.724   7.486  1.00  0.00     0.057 A 
ATOM     15  C   UNL     1      69.119  47.445   9.079  1.00  0.00     0.012 A 
ATOM     16  C   UNL     1      66.615  46.670   8.089  1.00  0.00     0.157 A 
ATOM     17  C   UNL     1      68.422  46.395   9.680  1.00  0.00     0.050 A 
ATOM     18  C   UNL     1      67.173  46.002   9.191  1.00  0.00     0.157 A 
BRANCH  16  19
ATOM     19  O   UNL     1      65.368  46.286   7.598  1.00  0.00    -0.504 OA
ATOM     20  H   UNL     1      64.607  46.949   7.507  1.00  0.00     0.293 HD
ENDBRANCH  16  19
BRANCH  18  21
ATOM     21  O   UNL     1      66.502  44.949   9.813  1.00  0.00    -0.504 OA
ATOM     22  H   UNL     1      66.439  44.873  10.821  1.00  0.00     0.293 HD
ENDBRANCH  18  21
ENDBRANCH   3  13
BRANCH   9  23
ATOM     23  O   UNL     1      73.956  49.124   9.669  1.00  0.00    -0.507 OA
ATOM     24  H   UNL     1      74.918  49.380   9.848  1.00  0.00     0.293 HD
ENDBRANCH   9  23
BRANCH   7  25
ATOM     25  O   UNL     1      74.761  47.424   5.228  1.00  0.00    -0.508 OA
ATOM     26  H   UNL     1      75.504  47.978   4.819  1.00  0.00     0.293 HD
ENDBRANCH   7  25
TORSDOF 6
ENDMDL
MODEL 3
REMARK VINA RESULT:    -6.061      1.570      1.984
REMARK INTER + INTRA:          -7.280
REMARK INTER:                  -7.282
REMARK INTRA:                   0.002
REMARK UNBOUND:                 0.021
REMARK SMILES Oc1cc(O)c2c(c1)O[C@@H](c1ccc(O)c(O)c1)[C@@H](O)C2
REMARK SMILES IDX 21 1 19 2 10 3 9 4 7 5 8 6 2 7 3 8 4 9 6 10 20 11 11 13
REMARK SMILES IDX 18 14 12 15 16 16 13 17 14 18 17 19 15 21 5 23 1 25
REMARK H PARENT 20 12 17 20 15 22 5 24 1 26
REMARK Flexibility Score: inf
ROOT
ATOM      1  C   UNL     1      72.246  47.701   8.856  1.00  0.00     0.079 C 
ATOM      2  C   UNL     1      72.102  49.233   8.900  1.00  0.00     0.164 C 
ATOM      3  C   UNL     1      71.242  49.748   7.728  1.00  0.00     0.232 C 
ATOM      4  O   UNL     1      71.747  49.251   6.486  1.00  0.00    -0.482 OA
ATOM      5  C   UNL     1      72.382  48.010   6.353  1.00  0.00     0.131 A 
ATOM      6  C   UNL     1      72.753  47.574   5.078  1.00  0.00     0.093 A 
ATOM      7  C   UNL     1      73.359  46.329   4.906  1.00  0.00     0.122 A 
ATOM      8  C   UNL     1      73.585  45.506   6.015  1.00  0.00     0.092 A 
ATOM      9  C   UNL     1      73.215  45.922   7.299  1.00  0.00     0.126 A 
ATOM     10  C   UNL     1      72.643  47.204   7.484  1.00  0.00     0.039 A 
ENDROOT
BRANCH   2  11
ATOM     11  O   UNL     1      71.549  49.637  10.125  1.00  0.00    -0.389 OA
ATOM     12  H   UNL     1      72.188  50.281  10.530  1.00  0.00     0.211 HD
ENDBRANCH   2  11
BRANCH   3  13
ATOM     13  C   UNL     1      69.765  49.427   7.893  1.00  0.00    -0.001 A 
ATOM     14  C   UNL     1      69.171  48.463   7.058  1.00  0.00     0.057 A 
ATOM     15  C   UNL     1      68.959  50.099   8.832  1.00  0.00     0.012 A 
ATOM     16  C   UNL     1      67.806  48.164   7.165  1.00  0.00     0.157 A 
ATOM     17  C   UNL     1      67.599  49.801   8.939  1.00  0.00     0.050 A 
ATOM     18  C   UNL     1      67.016  48.837   8.112  1.00  0.00     0.157 A 
BRANCH  16  19
ATOM     19  O   UNL     1      67.232  47.205   6.333  1.00  0.00    -0.504 OA
ATOM     20  H   UNL     1      67.794  46.503   5.865  1.00  0.00     0.293 HD
ENDBRANCH  16  19
BRANCH  18  21
ATOM     21  O   UNL     1      65.656  48.562   8.244  1.00  0.00    -0.504 OA
ATOM     22  H   UNL     1      65.058  49.094   8.865  1.00  0.00     0.293 HD
ENDBRANCH  18  21
ENDBRANCH   3  13
BRANCH   9  23
ATOM     23  O   UNL     1      73.417  45.036   8.359  1.00  0.00    -0.507 OA
ATOM     24  H   UNL     1      72.903  45.083   9.229  1.00  0.00     0.293 HD
ENDBRANCH   9  23
BRANCH   7  25
ATOM     25  O   UNL     1      73.726  45.915   3.627  1.00  0.00    -0.508 OA
ATOM     26  H   UNL     1      74.448  46.395   3.102  1.00  0.00     0.293 HD
ENDBRANCH   7  25
TORSDOF 6
ENDMDL
MODEL 4
REMARK VINA RESULT:    -5.971      2.262      5.764
REMARK INTER + INTRA:          -7.171
REMARK INTER:                  -7.157
REMARK INTRA:                  -0.014
REMARK UNBOUND:                 0.021
REMARK SMILES Oc1cc(O)c2c(c1)O[C@@H](c1ccc(O)c(O)c1)[C@@H](O)C2
REMARK SMILES IDX 21 1 19 2 10 3 9 4 7 5 8 6 2 7 3 8 4 9 6 10 20 11 11 13
REMARK SMILES IDX 18 14 12 15 16 16 13 17 14 18 17 19 15 21 5 23 1 25
REMARK H PARENT 20 12 17 20 15 22 5 24 1 26
REMARK Flexibility Score: inf
ROOT
ATOM      1  C   UNL     1      70.264  49.482   9.239  1.00  0.00     0.079 C 
ATOM      2  C   UNL     1      71.311  48.557   9.884  1.00  0.00     0.164 C 
ATOM      3  C   UNL     1      71.587  47.323   9.002  1.00  0.00     0.232 C 
ATOM      4  O   UNL     1      70.362  46.664   8.672  1.00  0.00    -0.482 OA
ATOM      5  C   UNL     1      69.143  47.336   8.518  1.00  0.00     0.131 A 
ATOM      6  C   UNL     1      68.021  46.614   8.101  1.00  0.00     0.093 A 
ATOM      7  C   UNL     1      66.798  47.258   7.907  1.00  0.00     0.122 A 
ATOM      8  C   UNL     1      66.698  48.638   8.119  1.00  0.00     0.092 A 
ATOM      9  C   UNL     1      67.811  49.379   8.531  1.00  0.00     0.126 A 
ATOM     10  C   UNL     1      69.041  48.722   8.775  1.00  0.00     0.039 A 
ENDROOT
BRANCH   2  11
ATOM     11  O   UNL     1      72.502  49.260  10.125  1.00  0.00    -0.389 OA
ATOM     12  H   UNL     1      72.933  48.835  10.912  1.00  0.00     0.211 HD
ENDBRANCH   2  11
BRANCH   3  13
ATOM     13  C   UNL     1      72.390  47.656   7.754  1.00  0.00    -0.001 A 
ATOM     14  C   UNL     1      71.733  47.730   6.512  1.00  0.00     0.057 A 
ATOM     15  C   UNL     1      73.783  47.851   7.796  1.00  0.00     0.012 A 
ATOM     16  C   UNL     1      72.447  48.006   5.338  1.00  0.00     0.157 A 
ATOM     17  C   UNL     1      74.495  48.126   6.627  1.00  0.00     0.050 A 
ATOM     18  C   UNL     1      73.836  48.207   5.397  1.00  0.00     0.157 A 
BRANCH  16  19
ATOM     19  O   UNL     1      71.783  48.081   4.115  1.00  0.00    -0.504 OA
ATOM     20  H   UNL     1      70.771  48.058   4.058  1.00  0.00     0.293 HD
ENDBRANCH  16  19
BRANCH  18  21
ATOM     21  O   UNL     1      74.575  48.485   4.248  1.00  0.00    -0.504 OA
ATOM     22  H   UNL     1      75.024  47.754   3.708  1.00  0.00     0.293 HD
ENDBRANCH  18  21
ENDBRANCH   3  13
BRANCH   9  23
ATOM     23  O   UNL     1      67.662  50.760   8.675  1.00  0.00    -0.507 OA
ATOM     24  H   UNL     1      68.441  51.395   8.793  1.00  0.00     0.293 HD
ENDBRANCH   9  23
BRANCH   7  25
ATOM     25  O   UNL     1      65.691  46.520   7.495  1.00  0.00    -0.508 OA
ATOM     26  H   UNL     1      65.050  46.109   8.164  1.00  0.00     0.293 HD
ENDBRANCH   7  25
TORSDOF 6
ENDMDL
MODEL 5
REMARK VINA RESULT:    -5.831      2.051      5.949
REMARK INTER + INTRA:          -7.003
REMARK INTER:                  -7.195
REMARK INTRA:                   0.192
REMARK UNBOUND:                 0.021
REMARK SMILES Oc1cc(O)c2c(c1)O[C@@H](c1ccc(O)c(O)c1)[C@@H](O)C2
REMARK SMILES IDX 21 1 19 2 10 3 9 4 7 5 8 6 2 7 3 8 4 9 6 10 20 11 11 13
REMARK SMILES IDX 18 14 12 15 16 16 13 17 14 18 17 19 15 21 5 23 1 25
REMARK H PARENT 20 12 17 20 15 22 5 24 1 26
REMARK Flexibility Score: inf
ROOT
ATOM      1  C   UNL     1      71.480  49.251   7.787  1.00  0.00     0.079 C 
ATOM      2  C   UNL     1      72.831  48.679   8.251  1.00  0.00     0.164 C 
ATOM      3  C   UNL     1      72.866  47.143   8.114  1.00  0.00     0.232 C 
ATOM      4  O   UNL     1      71.738  46.560   8.771  1.00  0.00    -0.482 OA
ATOM      5  C   UNL     1      70.493  47.194   8.872  1.00  0.00     0.131 A 
ATOM      6  C   UNL     1      69.426  46.499   9.449  1.00  0.00     0.093 A 
ATOM      7  C   UNL     1      68.164  47.089   9.537  1.00  0.00     0.122 A 
ATOM      8  C   UNL     1      67.963  48.378   9.031  1.00  0.00     0.092 A 
ATOM      9  C   UNL     1      69.016  49.087   8.444  1.00  0.00     0.126 A 
ATOM     10  C   UNL     1      70.309  48.512   8.396  1.00  0.00     0.039 A 
ENDROOT
BRANCH   2  11
ATOM     11  O   UNL     1      73.883  49.257   7.523  1.00  0.00    -0.389 OA
ATOM     12  H   UNL     1      73.590  49.293   6.575  1.00  0.00     0.211 HD
ENDBRANCH   2  11
BRANCH   3  13
ATOM     13  C   UNL     1      72.966  46.681   6.669  1.00  0.00    -0.001 A 
ATOM     14  C   UNL     1      72.143  45.631   6.224  1.00  0.00     0.057 A 
ATOM     15  C   UNL     1      73.890  47.245   5.770  1.00  0.00     0.012 A 
ATOM     16  C   UNL     1      72.229  45.161   4.906  1.00  0.00     0.157 A 
ATOM     17  C   UNL     1      73.977  46.778   4.457  1.00  0.00     0.050 A 
ATOM     18  C   UNL     1      73.150  45.739   4.018  1.00  0.00     0.157 A 
BRANCH  16  19
ATOM     19  O   UNL     1      71.404  44.122   4.477  1.00  0.00    -0.504 OA
ATOM     20  H   UNL     1      71.641  43.152   4.648  1.00  0.00     0.293 HD
ENDBRANCH  16  19
BRANCH  18  21
ATOM     21  O   UNL     1      73.260  45.296   2.700  1.00  0.00    -0.504 OA
ATOM     22  H   UNL     1      74.148  45.020   2.299  1.00  0.00     0.293 HD
ENDBRANCH  18  21
ENDBRANCH   3  13
BRANCH   9  23
ATOM     23  O   UNL     1      68.741  50.348   7.911  1.00  0.00    -0.507 OA
ATOM     24  H   UNL     1      67.877  50.575   7.436  1.00  0.00     0.293 HD
ENDBRANCH   9  23
BRANCH   7  25
ATOM     25  O   UNL     1      67.115  46.382  10.120  1.00  0.00    -0.508 OA
ATOM     26  H   UNL     1      66.163  46.727  10.090  1.00  0.00     0.293 HD
ENDBRANCH   7  25
TORSDOF 6
ENDMDL
MODEL 6
REMARK VINA RESULT:    -5.784      3.445      4.990
REMARK INTER + INTRA:          -6.946
REMARK INTER:                  -6.956
REMARK INTRA:                   0.010
REMARK UNBOUND:                 0.021
REMARK SMILES Oc1cc(O)c2c(c1)O[C@@H](c1ccc(O)c(O)c1)[C@@H](O)C2
REMARK SMILES IDX 21 1 19 2 10 3 9 4 7 5 8 6 2 7 3 8 4 9 6 10 20 11 11 13
REMARK SMILES IDX 18 14 12 15 16 16 13 17 14 18 17 19 15 21 5 23 1 25
REMARK H PARENT 20 12 17 20 15 22 5 24 1 26
REMARK Flexibility Score: inf
ROOT
ATOM      1  C   UNL     1      70.212  45.704   8.007  1.00  0.00     0.079 C 
ATOM      2  C   UNL     1      69.685  45.453   9.431  1.00  0.00     0.164 C 
ATOM      3  C   UNL     1      68.928  46.682   9.973  1.00  0.00     0.232 C 
ATOM      4  O   UNL     1      69.739  47.855   9.857  1.00  0.00    -0.482 OA
ATOM      5  C   UNL     1      70.677  48.045   8.834  1.00  0.00     0.131 A 
ATOM      6  C   UNL     1      71.350  49.267   8.754  1.00  0.00     0.093 A 
ATOM      7  C   UNL     1      72.268  49.501   7.729  1.00  0.00     0.122 A 
ATOM      8  C   UNL     1      72.506  48.511   6.769  1.00  0.00     0.092 A 
ATOM      9  C   UNL     1      71.837  47.284   6.829  1.00  0.00     0.126 A 
ATOM     10  C   UNL     1      70.941  47.024   7.894  1.00  0.00     0.039 A 
ENDROOT
BRANCH   2  11
ATOM     11  O   UNL     1      68.854  44.321   9.453  1.00  0.00    -0.389 OA
ATOM     12  H   UNL     1      67.918  44.651   9.437  1.00  0.00     0.211 HD
ENDBRANCH   2  11
BRANCH   3  13
ATOM     13  C   UNL     1      67.572  46.879   9.315  1.00  0.00    -0.001 A 
ATOM     14  C   UNL     1      67.484  47.632   8.131  1.00  0.00     0.057 A 
ATOM     15  C   UNL     1      66.390  46.365   9.881  1.00  0.00     0.012 A 
ATOM     16  C   UNL     1      66.245  47.857   7.514  1.00  0.00     0.157 A 
ATOM     17  C   UNL     1      65.156  46.589   9.267  1.00  0.00     0.050 A 
ATOM     18  C   UNL     1      65.075  47.331   8.085  1.00  0.00     0.157 A 
BRANCH  16  19
ATOM     19  O   UNL     1      66.173  48.602   6.338  1.00  0.00    -0.504 OA
ATOM     20  H   UNL     1      66.108  48.156   5.430  1.00  0.00     0.293 HD
ENDBRANCH  16  19
BRANCH  18  21
ATOM     21  O   UNL     1      63.828  47.535   7.496  1.00  0.00    -0.504 OA
ATOM     22  H   UNL     1      63.382  46.829   6.923  1.00  0.00     0.293 HD
ENDBRANCH  18  21
ENDBRANCH   3  13
BRANCH   9  23
ATOM     23  O   UNL     1      72.077  46.357   5.813  1.00  0.00    -0.507 OA
ATOM     24  H   UNL     1      72.492  45.448   5.974  1.00  0.00     0.293 HD
ENDBRANCH   9  23
BRANCH   7  25
ATOM     25  O   UNL     1      72.932  50.724   7.669  1.00  0.00    -0.508 OA
ATOM     26  H   UNL     1      72.547  51.558   8.098  1.00  0.00     0.293 HD
ENDBRANCH   7  25
TORSDOF 6
ENDMDL
MODEL 7
REMARK VINA RESULT:    -5.750      2.667      6.131
REMARK INTER + INTRA:          -6.905
REMARK INTER:                  -7.137
REMARK INTRA:                   0.232
REMARK UNBOUND:                 0.021
REMARK SMILES Oc1cc(O)c2c(c1)O[C@@H](c1ccc(O)c(O)c1)[C@@H](O)C2
REMARK SMILES IDX 21 1 19 2 10 3 9 4 7 5 8 6 2 7 3 8 4 9 6 10 20 11 11 13
REMARK SMILES IDX 18 14 12 15 16 16 13 17 14 18 17 19 15 21 5 23 1 25
REMARK H PARENT 20 12 17 20 15 22 5 24 1 26
REMARK Flexibility Score: inf
ROOT
ATOM      1  C   UNL     1      69.246  49.018   7.067  1.00  0.00     0.079 C 
ATOM      2  C   UNL     1      70.486  49.361   7.912  1.00  0.00     0.164 C 
ATOM      3  C   UNL     1      71.267  48.090   8.302  1.00  0.00     0.232 C 
ATOM      4  O   UNL     1      70.394  47.141   8.920  1.00  0.00    -0.482 OA
ATOM      5  C   UNL     1      69.036  47.018   8.597  1.00  0.00     0.131 A 
ATOM      6  C   UNL     1      68.291  45.995   9.188  1.00  0.00     0.093 A 
ATOM      7  C   UNL     1      66.944  45.825   8.866  1.00  0.00     0.122 A 
ATOM      8  C   UNL     1      66.340  46.676   7.934  1.00  0.00     0.092 A 
ATOM      9  C   UNL     1      67.071  47.703   7.326  1.00  0.00     0.126 A 
ATOM     10  C   UNL     1      68.424  47.909   7.686  1.00  0.00     0.039 A 
ENDROOT
BRANCH   2  11
ATOM     11  O   UNL     1      71.320  50.251   7.216  1.00  0.00    -0.389 OA
ATOM     12  H   UNL     1      72.248  50.077   7.525  1.00  0.00     0.211 HD
ENDBRANCH   2  11
BRANCH   3  13
ATOM     13  C   UNL     1      72.015  47.472   7.131  1.00  0.00    -0.001 A 
ATOM     14  C   UNL     1      72.876  48.277   6.362  1.00  0.00     0.057 A 
ATOM     15  C   UNL     1      71.840  46.125   6.764  1.00  0.00     0.012 A 
ATOM     16  C   UNL     1      73.559  47.747   5.259  1.00  0.00     0.157 A 
ATOM     17  C   UNL     1      72.521  45.596   5.665  1.00  0.00     0.050 A 
ATOM     18  C   UNL     1      73.381  46.398   4.910  1.00  0.00     0.157 A 
BRANCH  16  19
ATOM     19  O   UNL     1      74.411  48.555   4.508  1.00  0.00    -0.504 OA
ATOM     20  H   UNL     1      74.868  48.211   3.671  1.00  0.00     0.293 HD
ENDBRANCH  16  19
BRANCH  18  21
ATOM     21  O   UNL     1      74.046  45.840   3.819  1.00  0.00    -0.504 OA
ATOM     22  H   UNL     1      74.470  44.921   3.861  1.00  0.00     0.293 HD
ENDBRANCH  18  21
ENDBRANCH   3  13
BRANCH   9  23
ATOM     23  O   UNL     1      66.428  48.485   6.365  1.00  0.00    -0.507 OA
ATOM     24  H   UNL     1      66.895  48.863   5.551  1.00  0.00     0.293 HD
ENDBRANCH   9  23
BRANCH   7  25
ATOM     25  O   UNL     1      66.217  44.802   9.470  1.00  0.00    -0.508 OA
ATOM     26  H   UNL     1      66.502  43.832   9.393  1.00  0.00     0.293 HD
ENDBRANCH   7  25
TORSDOF 6
ENDMDL
MODEL 8
REMARK VINA RESULT:    -5.635      1.882      6.044
REMARK INTER + INTRA:          -6.767
REMARK INTER:                  -6.846
REMARK INTRA:                   0.079
REMARK UNBOUND:                 0.021
REMARK SMILES Oc1cc(O)c2c(c1)O[C@@H](c1ccc(O)c(O)c1)[C@@H](O)C2
REMARK SMILES IDX 21 1 19 2 10 3 9 4 7 5 8 6 2 7 3 8 4 9 6 10 20 11 11 13
REMARK SMILES IDX 18 14 12 15 16 16 13 17 14 18 17 19 15 21 5 23 1 25
REMARK H PARENT 20 12 17 20 15 22 5 24 1 26
REMARK Flexibility Score: inf
ROOT
ATOM      1  C   UNL     1      72.087  48.768   6.809  1.00  0.00     0.079 C 
ATOM      2  C   UNL     1      73.326  48.434   7.657  1.00  0.00     0.164 C 
ATOM      3  C   UNL     1      73.205  47.038   8.301  1.00  0.00     0.232 C 
ATOM      4  O   UNL     1      71.971  46.927   9.015  1.00  0.00    -0.482 OA
ATOM      5  C   UNL     1      70.798  47.592   8.635  1.00  0.00     0.131 A 
ATOM      6  C   UNL     1      69.620  47.341   9.344  1.00  0.00     0.093 A 
ATOM      7  C   UNL     1      68.427  47.963   8.973  1.00  0.00     0.122 A 
ATOM      8  C   UNL     1      68.408  48.833   7.876  1.00  0.00     0.092 A 
ATOM      9  C   UNL     1      69.576  49.092   7.151  1.00  0.00     0.126 A 
ATOM     10  C   UNL     1      70.797  48.501   7.553  1.00  0.00     0.039 A 
ENDROOT
BRANCH   2  11
ATOM     11  O   UNL     1      74.489  48.510   6.875  1.00  0.00    -0.389 OA
ATOM     12  H   UNL     1      74.739  49.470   6.822  1.00  0.00     0.211 HD
ENDBRANCH   2  11
BRANCH   3  13
ATOM     13  C   UNL     1      73.367  45.908   7.297  1.00  0.00    -0.001 A 
ATOM     14  C   UNL     1      72.323  45.630   6.398  1.00  0.00     0.057 A 
ATOM     15  C   UNL     1      74.519  45.100   7.269  1.00  0.00     0.012 A 
ATOM     16  C   UNL     1      72.429  44.577   5.478  1.00  0.00     0.157 A 
ATOM     17  C   UNL     1      74.626  44.050   6.353  1.00  0.00     0.050 A 
ATOM     18  C   UNL     1      73.588  43.784   5.456  1.00  0.00     0.157 A 
BRANCH  16  19
ATOM     19  O   UNL     1      71.387  44.315   4.590  1.00  0.00    -0.504 OA
ATOM     20  H   UNL     1      70.522  43.885   4.897  1.00  0.00     0.293 HD
ENDBRANCH  16  19
BRANCH  18  21
ATOM     21  O   UNL     1      73.725  42.730   4.554  1.00  0.00    -0.504 OA
ATOM     22  H   UNL     1      73.308  42.755   3.631  1.00  0.00     0.293 HD
ENDBRANCH  18  21
ENDBRANCH   3  13
BRANCH   9  23
ATOM     23  O   UNL     1      69.483  49.927   6.035  1.00  0.00    -0.507 OA
ATOM     24  H   UNL     1      69.178  50.890   6.084  1.00  0.00     0.293 HD
ENDBRANCH   9  23
BRANCH   7  25
ATOM     25  O   UNL     1      67.264  47.703   9.694  1.00  0.00    -0.508 OA
ATOM     26  H   UNL     1      66.726  46.857   9.545  1.00  0.00     0.293 HD
ENDBRANCH   7  25
TORSDOF 6
ENDMDL
MODEL 9
REMARK VINA RESULT:    -5.498      2.525      3.420
REMARK INTER + INTRA:          -6.602
REMARK INTER:                  -6.755
REMARK INTRA:                   0.153
REMARK UNBOUND:                 0.021
REMARK SMILES Oc1cc(O)c2c(c1)O[C@@H](c1ccc(O)c(O)c1)[C@@H](O)C2
REMARK SMILES IDX 21 1 19 2 10 3 9 4 7 5 8 6 2 7 3 8 4 9 6 10 20 11 11 13
REMARK SMILES IDX 18 14 12 15 16 16 13 17 14 18 17 19 15 21 5 23 1 25
REMARK H PARENT 20 12 17 20 15 22 5 24 1 26
REMARK Flexibility Score: inf
ROOT
ATOM      1  C   UNL     1      71.954  44.660   7.137  1.00  0.00     0.079 C 
ATOM      2  C   UNL     1      71.804  45.046   8.619  1.00  0.00     0.164 C 
ATOM      3  C   UNL     1      71.171  46.444   8.773  1.00  0.00     0.232 C 
ATOM      4  O   UNL     1      71.893  47.404   7.997  1.00  0.00    -0.482 OA
ATOM      5  C   UNL     1      72.542  47.093   6.795  1.00  0.00     0.131 A 
ATOM      6  C   UNL     1      73.139  48.123   6.064  1.00  0.00     0.093 A 
ATOM      7  C   UNL     1      73.767  47.854   4.847  1.00  0.00     0.122 A 
ATOM      8  C   UNL     1      73.787  46.546   4.350  1.00  0.00     0.092 A 
ATOM      9  C   UNL     1      73.190  45.501   5.065  1.00  0.00     0.126 A 
ATOM     10  C   UNL     1      72.594  45.762   6.323  1.00  0.00     0.039 A 
ENDROOT
BRANCH   2  11
ATOM     11  O   UNL     1      71.038  44.086   9.299  1.00  0.00    -0.389 OA
ATOM     12  H   UNL     1      71.353  43.196   8.992  1.00  0.00     0.211 HD
ENDBRANCH   2  11
BRANCH   3  13
ATOM     13  C   UNL     1      69.689  46.461   8.435  1.00  0.00    -0.001 A 
ATOM     14  C   UNL     1      69.193  47.447   7.564  1.00  0.00     0.057 A 
ATOM     15  C   UNL     1      68.786  45.544   9.004  1.00  0.00     0.012 A 
ATOM     16  C   UNL     1      67.827  47.510   7.254  1.00  0.00     0.157 A 
ATOM     17  C   UNL     1      67.425  45.605   8.696  1.00  0.00     0.050 A 
ATOM     18  C   UNL     1      66.939  46.582   7.823  1.00  0.00     0.157 A 
BRANCH  16  19
ATOM     19  O   UNL     1      67.349  48.490   6.386  1.00  0.00    -0.504 OA
ATOM     20  H   UNL     1      67.553  49.473   6.530  1.00  0.00     0.293 HD
ENDBRANCH  16  19
BRANCH  18  21
ATOM     21  O   UNL     1      65.575  46.616   7.534  1.00  0.00    -0.504 OA
ATOM     22  H   UNL     1      64.886  46.884   8.227  1.00  0.00     0.293 HD
ENDBRANCH  18  21
ENDBRANCH   3  13
BRANCH   9  23
ATOM     23  O   UNL     1      73.196  44.228   4.493  1.00  0.00    -0.507 OA
ATOM     24  H   UNL     1      73.549  44.036   3.565  1.00  0.00     0.293 HD
ENDBRANCH   9  23
BRANCH   7  25
ATOM     25  O   UNL     1      74.360  48.894   4.135  1.00  0.00    -0.508 OA
ATOM     26  H   UNL     1      74.903  49.612   4.601  1.00  0.00     0.293 HD
ENDBRANCH   7  25
TORSDOF 6
ENDMDL
