MODEL 1
REMARK VINA RESULT:    -4.096      0.000      0.000
REMARK INTER + INTRA:          -8.681
REMARK INTER:                  -7.208
REMARK INTRA:                  -1.473
REMARK UNBOUND:                -1.473
REMARK SMILES CCCCCCCCCCCCCCC(=O)[O-]
REMARK SMILES IDX 9 1 10 2 11 3 12 4 13 5 14 6 15 7 16 8 17 9 8 10 7 11 6 12
REMARK SMILES IDX 5 13 4 14 3 15 2 16 1 17
REMARK H PARENT
REMARK Flexibility Score: inf
ROOT
ATOM      1  C   UNL     1      75.879  81.172  78.770  1.00  0.00     0.000 C 
ENDROOT
BRANCH   1   2
ATOM      2  C   UNL     1      75.066  80.670  77.562  1.00  0.00     0.000 C 
BRANCH   2   3
ATOM      3  C   UNL     1      73.985  81.665  77.113  1.00  0.00     0.000 C 
BRANCH   3   4
ATOM      4  C   UNL     1      73.953  81.785  75.582  1.00  0.00     0.000 C 
BRANCH   4   5
ATOM      5  C   UNL     1      74.337  83.190  75.085  1.00  0.00     0.006 C 
BRANCH   5   6
ATOM      6  C   UNL     1      75.466  83.858  75.888  1.00  0.00     0.053 C 
BRANCH   6   7
ATOM      7  C   UNL     1      76.563  84.361  75.001  1.00  0.00     0.041 C 
ATOM      8  O   UNL     1      76.678  85.593  74.773  1.00  0.00    -0.550 OA
ATOM      9  O   UNL     1      77.438  83.464  74.401  1.00  0.00    -0.550 OA
ENDBRANCH   6   7
ENDBRANCH   5   6
ENDBRANCH   4   5
ENDBRANCH   3   4
ENDBRANCH   2   3
ENDBRANCH   1   2
BRANCH   1  10
ATOM     10  C   UNL     1      77.136  81.985  78.414  1.00  0.00     0.000 C 
BRANCH  10  11
ATOM     11  C   UNL     1      77.927  81.467  77.197  1.00  0.00    -0.000 C 
BRANCH  11  12
ATOM     12  C   UNL     1      78.833  80.258  77.514  1.00  0.00    -0.000 C 
BRANCH  12  13
ATOM     13  C   UNL     1      79.951  80.607  78.511  1.00  0.00    -0.000 C 
BRANCH  13  14
ATOM     14  C   UNL     1      81.075  81.438  77.870  1.00  0.00    -0.000 C 
BRANCH  14  15
ATOM     15  C   UNL     1      81.460  80.927  76.470  1.00  0.00    -0.000 C 
BRANCH  15  16
ATOM     16  C   UNL     1      81.764  82.071  75.490  1.00  0.00    -0.003 C 
ATOM     17  C   UNL     1      80.780  83.234  75.617  1.00  0.00     0.004 C 
ENDBRANCH  15  16
ENDBRANCH  14  15
ENDBRANCH  13  14
ENDBRANCH  12  13
ENDBRANCH  11  12
ENDBRANCH  10  11
ENDBRANCH   1  10
TORSDOF 13
ENDMDL
MODEL 2
REMARK VINA RESULT:    -4.041      1.194      1.907
REMARK INTER + INTRA:          -8.584
REMARK INTER:                  -7.424
REMARK INTRA:                  -1.160
REMARK UNBOUND:                -1.473
REMARK SMILES CCCCCCCCCCCCCCC(=O)[O-]
REMARK SMILES IDX 9 1 10 2 11 3 12 4 13 5 14 6 15 7 16 8 17 9 8 10 7 11 6 12
REMARK SMILES IDX 5 13 4 14 3 15 2 16 1 17
REMARK H PARENT
REMARK Flexibility Score: inf
ROOT
ATOM      1  C   UNL     1      75.246  81.054  78.512  1.00  0.00     0.000 C 
ENDROOT
BRANCH   1   2
ATOM      2  C   UNL     1      74.077  81.247  77.528  1.00  0.00     0.000 C 
BRANCH   2   3
ATOM      3  C   UNL     1      74.468  80.961  76.070  1.00  0.00     0.000 C 
BRANCH   3   4
ATOM      4  C   UNL     1      73.857  82.005  75.124  1.00  0.00     0.000 C 
BRANCH   4   5
ATOM      5  C   UNL     1      74.785  83.211  74.886  1.00  0.00     0.006 C 
BRANCH   5   6
ATOM      6  C   UNL     1      76.282  82.860  74.855  1.00  0.00     0.053 C 
BRANCH   6   7
ATOM      7  C   UNL     1      77.144  84.084  74.815  1.00  0.00     0.041 C 
ATOM      8  O   UNL     1      76.620  85.228  74.858  1.00  0.00    -0.550 OA
ATOM      9  O   UNL     1      78.522  83.960  74.697  1.00  0.00    -0.550 OA
ENDBRANCH   6   7
ENDBRANCH   5   6
ENDBRANCH   4   5
ENDBRANCH   3   4
ENDBRANCH   2   3
ENDBRANCH   1   2
BRANCH   1  10
ATOM     10  C   UNL     1      76.380  82.087  78.384  1.00  0.00     0.000 C 
BRANCH  10  11
ATOM     11  C   UNL     1      77.800  81.530  78.605  1.00  0.00    -0.000 C 
BRANCH  11  12
ATOM     12  C   UNL     1      78.629  81.411  77.309  1.00  0.00    -0.000 C 
BRANCH  12  13
ATOM     13  C   UNL     1      79.990  80.732  77.543  1.00  0.00    -0.000 C 
BRANCH  13  14
ATOM     14  C   UNL     1      81.163  81.554  76.986  1.00  0.00    -0.000 C 
BRANCH  14  15
ATOM     15  C   UNL     1      82.478  81.292  77.744  1.00  0.00    -0.000 C 
BRANCH  15  16
ATOM     16  C   UNL     1      82.271  80.431  78.999  1.00  0.00    -0.003 C 
ATOM     17  C   UNL     1      82.537  81.200  80.293  1.00  0.00     0.004 C 
ENDBRANCH  15  16
ENDBRANCH  14  15
ENDBRANCH  13  14
ENDBRANCH  12  13
ENDBRANCH  11  12
ENDBRANCH  10  11
ENDBRANCH   1  10
TORSDOF 13
ENDMDL
MODEL 3
REMARK VINA RESULT:    -4.030      2.426      5.733
REMARK INTER + INTRA:          -8.565
REMARK INTER:                  -6.676
REMARK INTRA:                  -1.889
REMARK UNBOUND:                -1.473
REMARK SMILES CCCCCCCCCCCCCCC(=O)[O-]
REMARK SMILES IDX 9 1 10 2 11 3 12 4 13 5 14 6 15 7 16 8 17 9 8 10 7 11 6 12
REMARK SMILES IDX 5 13 4 14 3 15 2 16 1 17
REMARK H PARENT
REMARK Flexibility Score: inf
ROOT
ATOM      1  C   UNL     1      75.619  79.876  78.785  1.00  0.00     0.000 C 
ENDROOT
BRANCH   1   2
ATOM      2  C   UNL     1      77.032  79.878  78.171  1.00  0.00     0.000 C 
BRANCH   2   3
ATOM      3  C   UNL     1      77.378  81.199  77.470  1.00  0.00     0.000 C 
BRANCH   3   4
ATOM      4  C   UNL     1      76.325  82.275  77.777  1.00  0.00     0.000 C 
BRANCH   4   5
ATOM      5  C   UNL     1      75.679  82.858  76.507  1.00  0.00     0.006 C 
BRANCH   5   6
ATOM      6  C   UNL     1      76.527  82.694  75.234  1.00  0.00     0.053 C 
BRANCH   6   7
ATOM      7  C   UNL     1      77.281  83.944  74.898  1.00  0.00     0.041 C 
ATOM      8  O   UNL     1      78.513  83.891  74.642  1.00  0.00    -0.550 OA
ATOM      9  O   UNL     1      76.630  85.171  74.900  1.00  0.00    -0.550 OA
ENDBRANCH   6   7
ENDBRANCH   5   6
ENDBRANCH   4   5
ENDBRANCH   3   4
ENDBRANCH   2   3
ENDBRANCH   1   2
BRANCH   1  10
ATOM     10  C   UNL     1      74.613  78.937  78.095  1.00  0.00     0.000 C 
BRANCH  10  11
ATOM     11  C   UNL     1      73.536  79.642  77.247  1.00  0.00    -0.000 C 
BRANCH  11  12
ATOM     12  C   UNL     1      73.918  79.791  75.758  1.00  0.00    -0.000 C 
BRANCH  12  13
ATOM     13  C   UNL     1      72.742  80.288  74.898  1.00  0.00    -0.000 C 
BRANCH  13  14
ATOM     14  C   UNL     1      72.959  81.715  74.371  1.00  0.00    -0.000 C 
BRANCH  14  15
ATOM     15  C   UNL     1      71.743  82.627  74.620  1.00  0.00    -0.000 C 
BRANCH  15  16
ATOM     16  C   UNL     1      70.992  82.264  75.910  1.00  0.00    -0.003 C 
ATOM     17  C   UNL     1      71.652  82.844  77.161  1.00  0.00     0.004 C 
ENDBRANCH  15  16
ENDBRANCH  14  15
ENDBRANCH  13  14
ENDBRANCH  12  13
ENDBRANCH  11  12
ENDBRANCH  10  11
ENDBRANCH   1  10
TORSDOF 13
ENDMDL
MODEL 4
REMARK VINA RESULT:    -4.027      1.851      5.286
REMARK INTER + INTRA:          -8.561
REMARK INTER:                  -6.858
REMARK INTRA:                  -1.703
REMARK UNBOUND:                -1.473
REMARK SMILES CCCCCCCCCCCCCCC(=O)[O-]
REMARK SMILES IDX 9 1 10 2 11 3 12 4 13 5 14 6 15 7 16 8 17 9 8 10 7 11 6 12
REMARK SMILES IDX 5 13 4 14 3 15 2 16 1 17
REMARK H PARENT
REMARK Flexibility Score: inf
ROOT
ATOM      1  C   UNL     1      77.911  80.892  78.753  1.00  0.00     0.000 C 
ENDROOT
BRANCH   1   2
ATOM      2  C   UNL     1      78.467  80.038  77.598  1.00  0.00     0.000 C 
BRANCH   2   3
ATOM      3  C   UNL     1      78.637  80.832  76.295  1.00  0.00     0.000 C 
BRANCH   3   4
ATOM      4  C   UNL     1      77.622  80.373  75.237  1.00  0.00     0.000 C 
BRANCH   4   5
ATOM      5  C   UNL     1      77.211  81.502  74.274  1.00  0.00     0.006 C 
BRANCH   5   6
ATOM      6  C   UNL     1      76.090  82.411  74.806  1.00  0.00     0.053 C 
BRANCH   6   7
ATOM      7  C   UNL     1      76.556  83.821  74.998  1.00  0.00     0.041 C 
ATOM      8  O   UNL     1      75.771  84.690  75.459  1.00  0.00    -0.550 OA
ATOM      9  O   UNL     1      77.849  84.182  74.638  1.00  0.00    -0.550 OA
ENDBRANCH   6   7
ENDBRANCH   5   6
ENDBRANCH   4   5
ENDBRANCH   3   4
ENDBRANCH   2   3
ENDBRANCH   1   2
BRANCH   1  10
ATOM     10  C   UNL     1      76.933  82.002  78.327  1.00  0.00     0.000 C 
BRANCH  10  11
ATOM     11  C   UNL     1      75.460  81.755  78.708  1.00  0.00    -0.000 C 
BRANCH  11  12
ATOM     12  C   UNL     1      74.894  80.423  78.173  1.00  0.00    -0.000 C 
BRANCH  12  13
ATOM     13  C   UNL     1      73.679  80.628  77.252  1.00  0.00    -0.000 C 
BRANCH  13  14
ATOM     14  C   UNL     1      73.305  82.110  77.090  1.00  0.00    -0.000 C 
BRANCH  14  15
ATOM     15  C   UNL     1      71.787  82.323  76.951  1.00  0.00    -0.000 C 
BRANCH  15  16
ATOM     16  C   UNL     1      71.340  82.428  75.485  1.00  0.00    -0.003 C 
ATOM     17  C   UNL     1      72.471  82.860  74.552  1.00  0.00     0.004 C 
ENDBRANCH  15  16
ENDBRANCH  14  15
ENDBRANCH  13  14
ENDBRANCH  12  13
ENDBRANCH  11  12
ENDBRANCH  10  11
ENDBRANCH   1  10
TORSDOF 13
ENDMDL
MODEL 5
REMARK VINA RESULT:    -3.975      2.022      4.907
REMARK INTER + INTRA:          -8.470
REMARK INTER:                  -6.481
REMARK INTRA:                  -1.988
REMARK UNBOUND:                -1.473
REMARK SMILES CCCCCCCCCCCCCCC(=O)[O-]
REMARK SMILES IDX 9 1 10 2 11 3 12 4 13 5 14 6 15 7 16 8 17 9 8 10 7 11 6 12
REMARK SMILES IDX 5 13 4 14 3 15 2 16 1 17
REMARK H PARENT
REMARK Flexibility Score: inf
ROOT
ATOM      1  C   UNL     1      75.420  81.713  78.731  1.00  0.00     0.000 C 
ENDROOT
BRANCH   1   2
ATOM      2  C   UNL     1      76.760  82.337  78.296  1.00  0.00     0.000 C 
BRANCH   2   3
ATOM      3  C   UNL     1      77.841  81.287  78.003  1.00  0.00     0.000 C 
BRANCH   3   4
ATOM      4  C   UNL     1      77.948  81.017  76.494  1.00  0.00     0.000 C 
BRANCH   4   5
ATOM      5  C   UNL     1      78.071  82.308  75.664  1.00  0.00     0.006 C 
BRANCH   5   6
ATOM      6  C   UNL     1      76.915  82.536  74.675  1.00  0.00     0.053 C 
BRANCH   6   7
ATOM      7  C   UNL     1      76.240  83.854  74.898  1.00  0.00     0.041 C 
ATOM      8  O   UNL     1      74.998  83.903  75.099  1.00  0.00    -0.550 OA
ATOM      9  O   UNL     1      76.977  85.030  74.851  1.00  0.00    -0.550 OA
ENDBRANCH   6   7
ENDBRANCH   5   6
ENDBRANCH   4   5
ENDBRANCH   3   4
ENDBRANCH   2   3
ENDBRANCH   1   2
BRANCH   1  10
ATOM     10  C   UNL     1      74.319  81.723  77.656  1.00  0.00     0.000 C 
BRANCH  10  11
ATOM     11  C   UNL     1      73.717  80.344  77.324  1.00  0.00    -0.000 C 
BRANCH  11  12
ATOM     12  C   UNL     1      74.700  79.394  76.606  1.00  0.00    -0.000 C 
BRANCH  12  13
ATOM     13  C   UNL     1      75.057  78.165  77.459  1.00  0.00    -0.000 C 
BRANCH  13  14
ATOM     14  C   UNL     1      74.404  78.200  78.849  1.00  0.00    -0.000 C 
BRANCH  14  15
ATOM     15  C   UNL     1      75.327  77.647  79.950  1.00  0.00    -0.000 C 
BRANCH  15  16
ATOM     16  C   UNL     1      76.187  78.742  80.600  1.00  0.00    -0.003 C 
ATOM     17  C   UNL     1      75.406  79.586  81.608  1.00  0.00     0.004 C 
ENDBRANCH  15  16
ENDBRANCH  14  15
ENDBRANCH  13  14
ENDBRANCH  12  13
ENDBRANCH  11  12
ENDBRANCH  10  11
ENDBRANCH   1  10
TORSDOF 13
ENDMDL
MODEL 6
REMARK VINA RESULT:    -3.964      1.695      2.355
REMARK INTER + INTRA:          -8.449
REMARK INTER:                  -6.281
REMARK INTRA:                  -2.168
REMARK UNBOUND:                -1.473
REMARK SMILES CCCCCCCCCCCCCCC(=O)[O-]
REMARK SMILES IDX 9 1 10 2 11 3 12 4 13 5 14 6 15 7 16 8 17 9 8 10 7 11 6 12
REMARK SMILES IDX 5 13 4 14 3 15 2 16 1 17
REMARK H PARENT
REMARK Flexibility Score: inf
ROOT
ATOM      1  C   UNL     1      75.015  79.239  77.151  1.00  0.00     0.000 C 
ENDROOT
BRANCH   1   2
ATOM      2  C   UNL     1      74.984  79.581  75.649  1.00  0.00     0.000 C 
BRANCH   2   3
ATOM      3  C   UNL     1      73.931  80.643  75.300  1.00  0.00     0.000 C 
BRANCH   3   4
ATOM      4  C   UNL     1      74.523  81.717  74.374  1.00  0.00     0.000 C 
BRANCH   4   5
ATOM      5  C   UNL     1      74.804  83.044  75.102  1.00  0.00     0.006 C 
BRANCH   5   6
ATOM      6  C   UNL     1      76.223  83.156  75.685  1.00  0.00     0.053 C 
BRANCH   6   7
ATOM      7  C   UNL     1      77.062  84.143  74.932  1.00  0.00     0.041 C 
ATOM      8  O   UNL     1      76.666  85.329  74.785  1.00  0.00    -0.550 OA
ATOM      9  O   UNL     1      78.265  83.742  74.366  1.00  0.00    -0.550 OA
ENDBRANCH   6   7
ENDBRANCH   5   6
ENDBRANCH   4   5
ENDBRANCH   3   4
ENDBRANCH   2   3
ENDBRANCH   1   2
BRANCH   1  10
ATOM     10  C   UNL     1      74.404  80.309  78.074  1.00  0.00     0.000 C 
BRANCH  10  11
ATOM     11  C   UNL     1      75.419  81.274  78.717  1.00  0.00    -0.000 C 
BRANCH  11  12
ATOM     12  C   UNL     1      76.834  80.675  78.870  1.00  0.00    -0.000 C 
BRANCH  12  13
ATOM     13  C   UNL     1      77.941  81.713  78.617  1.00  0.00    -0.000 C 
BRANCH  13  14
ATOM     14  C   UNL     1      78.923  81.273  77.520  1.00  0.00    -0.000 C 
BRANCH  14  15
ATOM     15  C   UNL     1      78.658  79.838  77.032  1.00  0.00    -0.000 C 
BRANCH  15  16
ATOM     16  C   UNL     1      79.179  79.595  75.607  1.00  0.00    -0.003 C 
ATOM     17  C   UNL     1      78.289  80.227  74.537  1.00  0.00     0.004 C 
ENDBRANCH  15  16
ENDBRANCH  14  15
ENDBRANCH  13  14
ENDBRANCH  12  13
ENDBRANCH  11  12
ENDBRANCH  10  11
ENDBRANCH   1  10
TORSDOF 13
ENDMDL
MODEL 7
REMARK VINA RESULT:    -3.956      1.146      5.264
REMARK INTER + INTRA:          -8.436
REMARK INTER:                  -6.900
REMARK INTRA:                  -1.536
REMARK UNBOUND:                -1.473
REMARK SMILES CCCCCCCCCCCCCCC(=O)[O-]
REMARK SMILES IDX 9 1 10 2 11 3 12 4 13 5 14 6 15 7 16 8 17 9 8 10 7 11 6 12
REMARK SMILES IDX 5 13 4 14 3 15 2 16 1 17
REMARK H PARENT
REMARK Flexibility Score: inf
ROOT
ATOM      1  C   UNL     1      79.599  80.262  78.478  1.00  0.00     0.000 C 
ENDROOT
BRANCH   1   2
ATOM      2  C   UNL     1      81.059  80.703  78.260  1.00  0.00     0.000 C 
BRANCH   2   3
ATOM      3  C   UNL     1      81.210  81.735  77.133  1.00  0.00     0.000 C 
BRANCH   3   4
ATOM      4  C   UNL     1      81.026  81.075  75.757  1.00  0.00     0.000 C 
BRANCH   4   5
ATOM      5  C   UNL     1      80.407  82.026  74.717  1.00  0.00     0.006 C 
BRANCH   5   6
ATOM      6  C   UNL     1      79.644  83.215  75.323  1.00  0.00     0.053 C 
BRANCH   6   7
ATOM      7  C   UNL     1      78.373  83.501  74.584  1.00  0.00     0.041 C 
ATOM      8  O   UNL     1      77.974  82.717  73.683  1.00  0.00    -0.550 OA
ATOM      9  O   UNL     1      77.646  84.650  74.868  1.00  0.00    -0.550 OA
ENDBRANCH   6   7
ENDBRANCH   5   6
ENDBRANCH   4   5
ENDBRANCH   3   4
ENDBRANCH   2   3
ENDBRANCH   1   2
BRANCH   1  10
ATOM     10  C   UNL     1      78.587  81.414  78.620  1.00  0.00     0.000 C 
BRANCH  10  11
ATOM     11  C   UNL     1      77.390  81.354  77.651  1.00  0.00    -0.000 C 
BRANCH  11  12
ATOM     12  C   UNL     1      76.156  82.143  78.140  1.00  0.00    -0.000 C 
BRANCH  12  13
ATOM     13  C   UNL     1      74.846  81.359  77.951  1.00  0.00    -0.000 C 
BRANCH  13  14
ATOM     14  C   UNL     1      73.887  82.041  76.962  1.00  0.00    -0.000 C 
BRANCH  14  15
ATOM     15  C   UNL     1      74.595  83.082  76.076  1.00  0.00    -0.000 C 
BRANCH  15  16
ATOM     16  C   UNL     1      74.405  82.805  74.577  1.00  0.00    -0.003 C 
ATOM     17  C   UNL     1      74.721  81.358  74.199  1.00  0.00     0.004 C 
ENDBRANCH  15  16
ENDBRANCH  14  15
ENDBRANCH  13  14
ENDBRANCH  12  13
ENDBRANCH  11  12
ENDBRANCH  10  11
ENDBRANCH   1  10
TORSDOF 13
ENDMDL
MODEL 8
REMARK VINA RESULT:    -3.915      1.487      2.102
REMARK INTER + INTRA:          -8.363
REMARK INTER:                  -6.766
REMARK INTRA:                  -1.597
REMARK UNBOUND:                -1.473
REMARK SMILES CCCCCCCCCCCCCCC(=O)[O-]
REMARK SMILES IDX 9 1 10 2 11 3 12 4 13 5 14 6 15 7 16 8 17 9 8 10 7 11 6 12
REMARK SMILES IDX 5 13 4 14 3 15 2 16 1 17
REMARK H PARENT
REMARK Flexibility Score: inf
ROOT
ATOM      1  C   UNL     1      75.419  79.052  78.879  1.00  0.00     0.000 C 
ENDROOT
BRANCH   1   2
ATOM      2  C   UNL     1      74.972  80.325  78.135  1.00  0.00     0.000 C 
BRANCH   2   3
ATOM      3  C   UNL     1      75.665  81.595  78.652  1.00  0.00     0.000 C 
BRANCH   3   4
ATOM      4  C   UNL     1      76.776  82.043  77.689  1.00  0.00     0.000 C 
BRANCH   4   5
ATOM      5  C   UNL     1      76.407  81.827  76.210  1.00  0.00     0.006 C 
BRANCH   5   6
ATOM      6  C   UNL     1      77.020  82.859  75.249  1.00  0.00     0.053 C 
BRANCH   6   7
ATOM      7  C   UNL     1      76.173  84.089  75.131  1.00  0.00     0.041 C 
ATOM      8  O   UNL     1      76.703  85.201  74.870  1.00  0.00    -0.550 OA
ATOM      9  O   UNL     1      74.802  84.011  75.342  1.00  0.00    -0.550 OA
ENDBRANCH   6   7
ENDBRANCH   5   6
ENDBRANCH   4   5
ENDBRANCH   3   4
ENDBRANCH   2   3
ENDBRANCH   1   2
BRANCH   1  10
ATOM     10  C   UNL     1      76.706  79.204  79.710  1.00  0.00     0.000 C 
BRANCH  10  11
ATOM     11  C   UNL     1      77.879  78.308  79.268  1.00  0.00    -0.000 C 
BRANCH  11  12
ATOM     12  C   UNL     1      78.788  78.956  78.202  1.00  0.00    -0.000 C 
BRANCH  12  13
ATOM     13  C   UNL     1      80.076  79.542  78.806  1.00  0.00    -0.000 C 
BRANCH  13  14
ATOM     14  C   UNL     1      80.182  81.063  78.609  1.00  0.00    -0.000 C 
BRANCH  14  15
ATOM     15  C   UNL     1      81.153  81.444  77.477  1.00  0.00    -0.000 C 
BRANCH  15  16
ATOM     16  C   UNL     1      80.423  81.832  76.182  1.00  0.00    -0.003 C 
ATOM     17  C   UNL     1      80.713  83.270  75.749  1.00  0.00     0.004 C 
ENDBRANCH  15  16
ENDBRANCH  14  15
ENDBRANCH  13  14
ENDBRANCH  12  13
ENDBRANCH  11  12
ENDBRANCH  10  11
ENDBRANCH   1  10
TORSDOF 13
ENDMDL
MODEL 9
REMARK VINA RESULT:    -3.854      2.664      5.753
REMARK INTER + INTRA:          -8.256
REMARK INTER:                  -6.288
REMARK INTRA:                  -1.969
REMARK UNBOUND:                -1.473
REMARK SMILES CCCCCCCCCCCCCCC(=O)[O-]
REMARK SMILES IDX 9 1 10 2 11 3 12 4 13 5 14 6 15 7 16 8 17 9 8 10 7 11 6 12
REMARK SMILES IDX 5 13 4 14 3 15 2 16 1 17
REMARK H PARENT
REMARK Flexibility Score: inf
ROOT
ATOM      1  C   UNL     1      80.767  81.771  76.222  1.00  0.00     0.000 C 
ENDROOT
BRANCH   1   2
ATOM      2  C   UNL     1      80.465  81.374  77.680  1.00  0.00     0.000 C 
BRANCH   2   3
ATOM      3  C   UNL     1      79.049  80.811  77.866  1.00  0.00     0.000 C 
BRANCH   3   4
ATOM      4  C   UNL     1      78.204  81.736  78.755  1.00  0.00     0.000 C 
BRANCH   4   5
ATOM      5  C   UNL     1      76.728  81.798  78.320  1.00  0.00     0.006 C 
BRANCH   5   6
ATOM      6  C   UNL     1      76.109  80.430  77.988  1.00  0.00     0.053 C 
BRANCH   6   7
ATOM      7  C   UNL     1      75.140  79.984  79.039  1.00  0.00     0.041 C 
ATOM      8  O   UNL     1      74.042  79.465  78.709  1.00  0.00    -0.550 OA
ATOM      9  O   UNL     1      75.437  80.171  80.384  1.00  0.00    -0.550 OA
ENDBRANCH   6   7
ENDBRANCH   5   6
ENDBRANCH   4   5
ENDBRANCH   3   4
ENDBRANCH   2   3
ENDBRANCH   1   2
BRANCH   1  10
ATOM     10  C   UNL     1      80.301  83.184  75.825  1.00  0.00     0.000 C 
BRANCH  10  11
ATOM     11  C   UNL     1      79.273  83.234  74.678  1.00  0.00    -0.000 C 
BRANCH  11  12
ATOM     12  C   UNL     1      78.394  81.969  74.576  1.00  0.00    -0.000 C 
BRANCH  12  13
ATOM     13  C   UNL     1      76.894  82.285  74.704  1.00  0.00    -0.000 C 
BRANCH  13  14
ATOM     14  C   UNL     1      76.627  83.765  75.021  1.00  0.00    -0.000 C 
BRANCH  14  15
ATOM     15  C   UNL     1      75.288  83.979  75.751  1.00  0.00    -0.000 C 
BRANCH  15  16
ATOM     16  C   UNL     1      74.168  83.084  75.199  1.00  0.00    -0.003 C 
ATOM     17  C   UNL     1      73.344  82.421  76.304  1.00  0.00     0.004 C 
ENDBRANCH  15  16
ENDBRANCH  14  15
ENDBRANCH  13  14
ENDBRANCH  12  13
ENDBRANCH  11  12
ENDBRANCH  10  11
ENDBRANCH   1  10
TORSDOF 13
ENDMDL
