MODEL 1
REMARK VINA RESULT:    -3.206      0.000      0.000
REMARK INTER + INTRA:          -3.619
REMARK INTER:                  -3.581
REMARK INTRA:                  -0.038
REMARK UNBOUND:                -0.038
REMARK SMILES CCCC(=O)[O-]
REMARK SMILES IDX 3 1 4 2 5 3 6 4 2 5 1 6
REMARK H PARENT
REMARK Flexibility Score: inf
ROOT
ATOM      1  C   UNL     1      18.968  25.589   8.619  1.00  0.00     0.052 C 
ENDROOT
BRANCH   1   2
ATOM      2  C   UNL     1      18.969  24.623   9.761  1.00  0.00     0.041 C 
ATOM      3  O   UNL     1      17.896  24.351  10.362  1.00  0.00    -0.550 OA
ATOM      4  O   UNL     1      20.146  23.985  10.132  1.00  0.00    -0.550 OA
ENDBRANCH   1   2
BRANCH   1   5
ATOM      5  C   UNL     1      18.879  27.029   9.135  1.00  0.00     0.003 C 
ATOM      6  C   UNL     1      17.481  27.603   8.924  1.00  0.00     0.004 C 
ENDBRANCH   1   5
TORSDOF 2
ENDMDL
MODEL 2
REMARK VINA RESULT:    -3.202      0.184      1.327
REMARK INTER + INTRA:          -3.615
REMARK INTER:                  -3.583
REMARK INTRA:                  -0.032
REMARK UNBOUND:                -0.038
REMARK SMILES CCCC(=O)[O-]
REMARK SMILES IDX 3 1 4 2 5 3 6 4 2 5 1 6
REMARK H PARENT
REMARK Flexibility Score: inf
ROOT
ATOM      1  C   UNL     1      19.045  25.547   8.683  1.00  0.00     0.052 C 
ENDROOT
BRANCH   1   2
ATOM      2  C   UNL     1      18.939  24.597   9.834  1.00  0.00     0.041 C 
ATOM      3  O   UNL     1      19.922  23.878  10.155  1.00  0.00    -0.550 OA
ATOM      4  O   UNL     1      17.772  24.541  10.584  1.00  0.00    -0.550 OA
ENDBRANCH   1   2
BRANCH   1   5
ATOM      5  C   UNL     1      18.937  26.994   9.171  1.00  0.00     0.003 C 
ATOM      6  C   UNL     1      17.570  27.586   8.841  1.00  0.00     0.004 C 
ENDBRANCH   1   5
TORSDOF 2
ENDMDL
MODEL 3
REMARK VINA RESULT:    -3.161      1.150      1.598
REMARK INTER + INTRA:          -3.569
REMARK INTER:                  -3.530
REMARK INTRA:                  -0.038
REMARK UNBOUND:                -0.038
REMARK SMILES CCCC(=O)[O-]
REMARK SMILES IDX 3 1 4 2 5 3 6 4 2 5 1 6
REMARK H PARENT
REMARK Flexibility Score: inf
ROOT
ATOM      1  C   UNL     1      18.987  25.550   8.759  1.00  0.00     0.052 C 
ENDROOT
BRANCH   1   2
ATOM      2  C   UNL     1      17.844  24.744   9.291  1.00  0.00     0.041 C 
ATOM      3  O   UNL     1      17.732  24.545  10.529  1.00  0.00    -0.550 OA
ATOM      4  O   UNL     1      16.875  24.255   8.425  1.00  0.00    -0.550 OA
ENDBRANCH   1   2
BRANCH   1   5
ATOM      5  C   UNL     1      18.896  26.998   9.248  1.00  0.00     0.003 C 
ATOM      6  C   UNL     1      17.543  27.612   8.898  1.00  0.00     0.004 C 
ENDBRANCH   1   5
TORSDOF 2
ENDMDL
MODEL 4
REMARK VINA RESULT:    -3.158      2.407      3.503
REMARK INTER + INTRA:          -3.565
REMARK INTER:                  -3.536
REMARK INTRA:                  -0.029
REMARK UNBOUND:                -0.038
REMARK SMILES CCCC(=O)[O-]
REMARK SMILES IDX 3 1 4 2 5 3 6 4 2 5 1 6
REMARK H PARENT
REMARK Flexibility Score: inf
ROOT
ATOM      1  C   UNL     1      17.842  25.716   8.428  1.00  0.00     0.052 C 
ENDROOT
BRANCH   1   2
ATOM      2  C   UNL     1      17.996  27.117   8.930  1.00  0.00     0.041 C 
ATOM      3  O   UNL     1      19.144  27.595   9.131  1.00  0.00    -0.550 OA
ATOM      4  O   UNL     1      16.875  27.911   9.129  1.00  0.00    -0.550 OA
ENDBRANCH   1   2
BRANCH   1   5
ATOM      5  C   UNL     1      18.910  24.806   9.042  1.00  0.00     0.003 C 
ATOM      6  C   UNL     1      19.544  23.909   7.983  1.00  0.00     0.004 C 
ENDBRANCH   1   5
TORSDOF 2
ENDMDL
MODEL 5
REMARK VINA RESULT:    -3.037      1.385      1.772
REMARK INTER + INTRA:          -3.430
REMARK INTER:                  -3.416
REMARK INTRA:                  -0.014
REMARK UNBOUND:                -0.038
REMARK SMILES CCCC(=O)[O-]
REMARK SMILES IDX 3 1 4 2 5 3 6 4 2 5 1 6
REMARK H PARENT
REMARK Flexibility Score: inf
ROOT
ATOM      1  C   UNL     1      19.132  24.776   8.454  1.00  0.00     0.052 C 
ENDROOT
BRANCH   1   2
ATOM      2  C   UNL     1      20.233  23.908   8.978  1.00  0.00     0.041 C 
ATOM      3  O   UNL     1      20.198  23.489  10.165  1.00  0.00    -0.550 OA
ATOM      4  O   UNL     1      21.272  23.522   8.142  1.00  0.00    -0.550 OA
ENDBRANCH   1   2
BRANCH   1   5
ATOM      5  C   UNL     1      18.822  25.904   9.442  1.00  0.00     0.003 C 
ATOM      6  C   UNL     1      19.025  27.272   8.797  1.00  0.00     0.004 C 
ENDBRANCH   1   5
TORSDOF 2
ENDMDL
MODEL 6
REMARK VINA RESULT:    -3.000      2.487      3.553
REMARK INTER + INTRA:          -3.389
REMARK INTER:                  -3.383
REMARK INTRA:                  -0.006
REMARK UNBOUND:                -0.038
REMARK SMILES CCCC(=O)[O-]
REMARK SMILES IDX 3 1 4 2 5 3 6 4 2 5 1 6
REMARK H PARENT
REMARK Flexibility Score: inf
ROOT
ATOM      1  C   UNL     1      19.560  24.399   8.832  1.00  0.00     0.052 C 
ENDROOT
BRANCH   1   2
ATOM      2  C   UNL     1      18.649  25.523   8.450  1.00  0.00     0.041 C 
ATOM      3  O   UNL     1      17.482  25.281   8.041  1.00  0.00    -0.550 OA
ATOM      4  O   UNL     1      19.069  26.838   8.592  1.00  0.00    -0.550 OA
ENDBRANCH   1   2
BRANCH   1   5
ATOM      5  C   UNL     1      19.818  23.486   7.629  1.00  0.00     0.003 C 
ATOM      6  C   UNL     1      21.245  22.945   7.645  1.00  0.00     0.004 C 
ENDBRANCH   1   5
TORSDOF 2
ENDMDL
MODEL 7
REMARK VINA RESULT:    -2.988      2.196      3.279
REMARK INTER + INTRA:          -3.376
REMARK INTER:                  -3.361
REMARK INTRA:                  -0.015
REMARK UNBOUND:                -0.038
REMARK SMILES CCCC(=O)[O-]
REMARK SMILES IDX 3 1 4 2 5 3 6 4 2 5 1 6
REMARK H PARENT
REMARK Flexibility Score: inf
ROOT
ATOM      1  C   UNL     1      19.427  24.276   8.226  1.00  0.00     0.052 C 
ENDROOT
BRANCH   1   2
ATOM      2  C   UNL     1      19.020  24.495   9.649  1.00  0.00     0.041 C 
ATOM      3  O   UNL     1      18.671  23.519  10.365  1.00  0.00    -0.550 OA
ATOM      4  O   UNL     1      19.072  25.768  10.200  1.00  0.00    -0.550 OA
ENDBRANCH   1   2
BRANCH   1   5
ATOM      5  C   UNL     1      20.762  23.528   8.159  1.00  0.00     0.003 C 
ATOM      6  C   UNL     1      20.815  22.604   6.946  1.00  0.00     0.004 C 
ENDBRANCH   1   5
TORSDOF 2
ENDMDL
MODEL 8
REMARK VINA RESULT:    -2.960      2.005      3.416
REMARK INTER + INTRA:          -3.345
REMARK INTER:                  -3.338
REMARK INTRA:                  -0.007
REMARK UNBOUND:                -0.038
REMARK SMILES CCCC(=O)[O-]
REMARK SMILES IDX 3 1 4 2 5 3 6 4 2 5 1 6
REMARK H PARENT
REMARK Flexibility Score: inf
ROOT
ATOM      1  C   UNL     1      19.403  24.974   8.721  1.00  0.00     0.052 C 
ENDROOT
BRANCH   1   2
ATOM      2  C   UNL     1      18.570  26.201   8.923  1.00  0.00     0.041 C 
ATOM      3  O   UNL     1      19.122  27.317   9.110  1.00  0.00    -0.550 OA
ATOM      4  O   UNL     1      17.185  26.120   8.855  1.00  0.00    -0.550 OA
ENDBRANCH   1   2
BRANCH   1   5
ATOM      5  C   UNL     1      19.266  24.031   9.920  1.00  0.00     0.003 C 
ATOM      6  C   UNL     1      20.593  23.346  10.236  1.00  0.00     0.004 C 
ENDBRANCH   1   5
TORSDOF 2
ENDMDL
MODEL 9
REMARK VINA RESULT:    -2.880      2.253      3.484
REMARK INTER + INTRA:          -3.255
REMARK INTER:                  -3.245
REMARK INTRA:                  -0.010
REMARK UNBOUND:                -0.038
REMARK SMILES CCCC(=O)[O-]
REMARK SMILES IDX 3 1 4 2 5 3 6 4 2 5 1 6
REMARK H PARENT
REMARK Flexibility Score: inf
ROOT
ATOM      1  C   UNL     1      19.439  24.478   8.358  1.00  0.00     0.052 C 
ENDROOT
BRANCH   1   2
ATOM      2  C   UNL     1      18.199  25.125   8.890  1.00  0.00     0.041 C 
ATOM      3  O   UNL     1      18.260  25.875   9.900  1.00  0.00    -0.550 OA
ATOM      4  O   UNL     1      16.986  24.941   8.241  1.00  0.00    -0.550 OA
ENDBRANCH   1   2
BRANCH   1   5
ATOM      5  C   UNL     1      19.094  23.513   7.220  1.00  0.00     0.003 C 
ATOM      6  C   UNL     1      20.323  22.725   6.775  1.00  0.00     0.004 C 
ENDBRANCH   1   5
TORSDOF 2
ENDMDL
