MODEL 1
REMARK VINA RESULT:    -8.819      0.000      0.000
REMARK INTER + INTRA:         -12.533
REMARK INTER:                 -11.913
REMARK INTRA:                  -0.620
REMARK UNBOUND:                -0.620
REMARK SMILES O=c1c(-c2ccc(O)cc2)coc2c([C@@H]3O[C@H](CO)[C@@H](O)[C@@H](O)[C@@H]3O)c(O)ccc12
REMARK SMILES IDX 3 1 11 2 12 3 13 4 30 5 2 6 1 7 29 8 28 9 26 10 14 11 4 12
REMARK SMILES IDX 5 13 6 14 7 15 10 16 9 17 8 18 15 20 24 21 16 22 22 23 17 24
REMARK SMILES IDX 20 25 25 26 23 28 18 30 19 31 21 33 27 35
REMARK H PARENT 8 19 25 27 23 29 19 32 21 34 27 36
REMARK Flexibility Score: inf
ROOT
ATOM      1  C   UNL     1     111.816 111.234 107.921  1.00  0.00     0.065 A 
ATOM      2  C   UNL     1     112.575 111.676 109.013  1.00  0.00     0.208 A 
ATOM      3  O   UNL     1     112.149 111.496 110.257  1.00  0.00    -0.463 OA
ATOM      4  C   UNL     1     110.999 110.898 110.558  1.00  0.00     0.147 A 
ATOM      5  C   UNL     1     110.178 110.408 109.516  1.00  0.00     0.066 A 
ATOM      6  C   UNL     1     110.599 110.580 108.185  1.00  0.00     0.200 A 
ATOM      7  O   UNL     1     109.902 110.131 107.232  1.00  0.00    -0.288 OA
ATOM      8  C   UNL     1     108.978 109.754 109.827  1.00  0.00     0.020 A 
ATOM      9  C   UNL     1     108.607 109.566 111.155  1.00  0.00     0.047 A 
ATOM     10  C   UNL     1     109.410 110.031 112.200  1.00  0.00     0.125 A 
ATOM     11  C   UNL     1     110.604 110.748 111.915  1.00  0.00     0.069 A 
ENDROOT
BRANCH   1  12
ATOM     12  C   UNL     1     112.308 111.455 106.538  1.00  0.00    -0.011 A 
ATOM     13  C   UNL     1     112.611 110.366 105.703  1.00  0.00     0.013 A 
ATOM     14  C   UNL     1     113.066 110.579 104.398  1.00  0.00     0.047 A 
ATOM     15  C   UNL     1     113.219 111.884 103.911  1.00  0.00     0.115 A 
ATOM     16  C   UNL     1     112.458 112.761 106.040  1.00  0.00     0.013 A 
ATOM     17  C   UNL     1     112.914 112.972 104.735  1.00  0.00     0.047 A 
BRANCH  15  18
ATOM     18  O   UNL     1     113.672 112.109 102.613  1.00  0.00    -0.508 OA
ATOM     19  H   UNL     1     114.590 111.803 102.312  1.00  0.00     0.293 HD
ENDBRANCH  15  18
ENDBRANCH   1  12
BRANCH  11  20
ATOM     20  C   UNL     1     111.471 111.298 113.050  1.00  0.00     0.188 C 
ATOM     21  C   UNL     1     110.827 112.541 113.735  1.00  0.00     0.179 C 
ATOM     22  O   UNL     1     111.738 110.297 114.018  1.00  0.00    -0.362 OA
ATOM     23  C   UNL     1     111.272 112.658 115.213  1.00  0.00     0.177 C 
ATOM     24  C   UNL     1     112.819 110.668 114.867  1.00  0.00     0.176 C 
ATOM     25  C   UNL     1     112.713 112.138 115.387  1.00  0.00     0.177 C 
BRANCH  21  26
ATOM     26  O   UNL     1     109.421 112.534 113.651  1.00  0.00    -0.387 OA
ATOM     27  H   UNL     1     109.168 111.973 112.873  1.00  0.00     0.211 HD
ENDBRANCH  21  26
BRANCH  23  28
ATOM     28  O   UNL     1     111.171 113.995 115.631  1.00  0.00    -0.387 OA
ATOM     29  H   UNL     1     111.206 113.989 116.624  1.00  0.00     0.211 HD
ENDBRANCH  23  28
BRANCH  24  30
ATOM     30  C   UNL     1     112.864 109.680 116.042  1.00  0.00     0.191 C 
BRANCH  30  31
ATOM     31  O   UNL     1     112.127 108.525 115.741  1.00  0.00    -0.394 OA
ATOM     32  H   UNL     1     112.257 108.344 114.774  1.00  0.00     0.210 HD
ENDBRANCH  30  31
ENDBRANCH  24  30
BRANCH  25  33
ATOM     33  O   UNL     1     113.608 112.950 114.665  1.00  0.00    -0.388 OA
ATOM     34  H   UNL     1     113.167 113.831 114.539  1.00  0.00     0.211 HD
ENDBRANCH  25  33
ENDBRANCH  11  20
BRANCH  10  35
ATOM     35  O   UNL     1     108.986 109.748 113.501  1.00  0.00    -0.507 OA
ATOM     36  H   UNL     1     109.451 110.075 114.336  1.00  0.00     0.293 HD
ENDBRANCH  10  35
TORSDOF 9
ENDMDL
MODEL 2
REMARK VINA RESULT:    -8.760      2.245      3.919
REMARK INTER + INTRA:         -12.453
REMARK INTER:                 -11.684
REMARK INTRA:                  -0.769
REMARK UNBOUND:                -0.620
REMARK SMILES O=c1c(-c2ccc(O)cc2)coc2c([C@@H]3O[C@H](CO)[C@@H](O)[C@@H](O)[C@@H]3O)c(O)ccc12
REMARK SMILES IDX 3 1 11 2 12 3 13 4 30 5 2 6 1 7 29 8 28 9 26 10 14 11 4 12
REMARK SMILES IDX 5 13 6 14 7 15 10 16 9 17 8 18 15 20 24 21 16 22 22 23 17 24
REMARK SMILES IDX 20 25 25 26 23 28 18 30 19 31 21 33 27 35
REMARK H PARENT 8 19 25 27 23 29 19 32 21 34 27 36
REMARK Flexibility Score: inf
ROOT
ATOM      1  C   UNL     1     110.457 111.021 107.989  1.00  0.00     0.065 A 
ATOM      2  C   UNL     1     109.668 110.652 109.086  1.00  0.00     0.208 A 
ATOM      3  O   UNL     1     110.094 110.844 110.328  1.00  0.00    -0.463 OA
ATOM      4  C   UNL     1     111.273 111.387 110.622  1.00  0.00     0.147 A 
ATOM      5  C   UNL     1     112.126 111.803 109.573  1.00  0.00     0.066 A 
ATOM      6  C   UNL     1     111.705 111.616 108.244  1.00  0.00     0.200 A 
ATOM      7  O   UNL     1     112.432 112.000 107.285  1.00  0.00    -0.288 OA
ATOM      8  C   UNL     1     113.358 112.400 109.876  1.00  0.00     0.020 A 
ATOM      9  C   UNL     1     113.730 112.605 111.201  1.00  0.00     0.047 A 
ATOM     10  C   UNL     1     112.896 112.213 112.252  1.00  0.00     0.125 A 
ATOM     11  C   UNL     1     111.666 111.553 111.977  1.00  0.00     0.069 A 
ENDROOT
BRANCH   1  12
ATOM     12  C   UNL     1     109.962 110.788 106.608  1.00  0.00    -0.011 A 
ATOM     13  C   UNL     1     109.570 111.866 105.797  1.00  0.00     0.013 A 
ATOM     14  C   UNL     1     109.113 111.642 104.494  1.00  0.00     0.047 A 
ATOM     15  C   UNL     1     109.048 110.338 103.985  1.00  0.00     0.115 A 
ATOM     16  C   UNL     1     109.901 109.483 106.089  1.00  0.00     0.013 A 
ATOM     17  C   UNL     1     109.443 109.262 104.786  1.00  0.00     0.047 A 
BRANCH  15  18
ATOM     18  O   UNL     1     108.595 110.103 102.690  1.00  0.00    -0.508 OA
ATOM     19  H   UNL     1     108.276 110.859 102.094  1.00  0.00     0.293 HD
ENDBRANCH  15  18
ENDBRANCH   1  12
BRANCH  11  20
ATOM     20  C   UNL     1     110.764 111.083 113.120  1.00  0.00     0.188 C 
ATOM     21  C   UNL     1     111.295 109.783 113.794  1.00  0.00     0.179 C 
ATOM     22  O   UNL     1     110.602 112.101 114.093  1.00  0.00    -0.362 OA
ATOM     23  C   UNL     1     110.856 109.703 115.276  1.00  0.00     0.177 C 
ATOM     24  C   UNL     1     109.500 111.830 114.954  1.00  0.00     0.176 C 
ATOM     25  C   UNL     1     109.473 110.354 115.468  1.00  0.00     0.177 C 
BRANCH  21  26
ATOM     26  O   UNL     1     112.694 109.658 113.695  1.00  0.00    -0.387 OA
ATOM     27  H   UNL     1     113.090 110.024 114.528  1.00  0.00     0.211 HD
ENDBRANCH  21  26
BRANCH  23  28
ATOM     28  O   UNL     1     110.836 108.360 115.689  1.00  0.00    -0.387 OA
ATOM     29  H   UNL     1     110.173 108.296 116.427  1.00  0.00     0.211 HD
ENDBRANCH  23  28
BRANCH  24  30
ATOM     30  C   UNL     1     109.561 112.814 116.132  1.00  0.00     0.191 C 
BRANCH  30  31
ATOM     31  O   UNL     1     109.892 114.100 115.681  1.00  0.00    -0.394 OA
ATOM     32  H   UNL     1     110.843 114.253 115.920  1.00  0.00     0.210 HD
ENDBRANCH  30  31
ENDBRANCH  24  30
BRANCH  25  33
ATOM     33  O   UNL     1     108.498 109.634 114.753  1.00  0.00    -0.388 OA
ATOM     34  H   UNL     1     108.523 109.959 113.815  1.00  0.00     0.211 HD
ENDBRANCH  25  33
ENDBRANCH  11  20
BRANCH  10  35
ATOM     35  O   UNL     1     113.326 112.510 113.548  1.00  0.00    -0.507 OA
ATOM     36  H   UNL     1     112.708 112.678 114.329  1.00  0.00     0.293 HD
ENDBRANCH  10  35
TORSDOF 9
ENDMDL
MODEL 3
REMARK VINA RESULT:    -8.521      3.213      4.916
REMARK INTER + INTRA:         -12.129
REMARK INTER:                 -11.487
REMARK INTRA:                  -0.643
REMARK UNBOUND:                -0.620
REMARK SMILES O=c1c(-c2ccc(O)cc2)coc2c([C@@H]3O[C@H](CO)[C@@H](O)[C@@H](O)[C@@H]3O)c(O)ccc12
REMARK SMILES IDX 3 1 11 2 12 3 13 4 30 5 2 6 1 7 29 8 28 9 26 10 14 11 4 12
REMARK SMILES IDX 5 13 6 14 7 15 10 16 9 17 8 18 15 20 24 21 16 22 22 23 17 24
REMARK SMILES IDX 20 25 25 26 23 28 18 30 19 31 21 33 27 35
REMARK H PARENT 8 19 25 27 23 29 19 32 21 34 27 36
REMARK Flexibility Score: inf
ROOT
ATOM      1  C   UNL     1     111.805 111.234 112.838  1.00  0.00     0.065 A 
ATOM      2  C   UNL     1     112.570 111.657 113.933  1.00  0.00     0.208 A 
ATOM      3  O   UNL     1     112.135 111.486 115.175  1.00  0.00    -0.463 OA
ATOM      4  C   UNL     1     110.970 110.914 115.471  1.00  0.00     0.147 A 
ATOM      5  C   UNL     1     110.143 110.443 114.425  1.00  0.00     0.066 A 
ATOM      6  C   UNL     1     110.573 110.607 113.096  1.00  0.00     0.200 A 
ATOM      7  O   UNL     1     109.870 110.175 112.141  1.00  0.00    -0.288 OA
ATOM      8  C   UNL     1     108.926 109.816 114.731  1.00  0.00     0.020 A 
ATOM      9  C   UNL     1     108.546 109.635 116.057  1.00  0.00     0.047 A 
ATOM     10  C   UNL     1     109.354 110.082 117.106  1.00  0.00     0.125 A 
ATOM     11  C   UNL     1     110.566 110.772 116.827  1.00  0.00     0.069 A 
ENDROOT
BRANCH   1  12
ATOM     12  C   UNL     1     112.308 111.444 111.458  1.00  0.00    -0.011 A 
ATOM     13  C   UNL     1     112.625 110.349 110.636  1.00  0.00     0.013 A 
ATOM     14  C   UNL     1     113.090 110.553 109.333  1.00  0.00     0.047 A 
ATOM     15  C   UNL     1     113.240 111.854 108.834  1.00  0.00     0.115 A 
ATOM     16  C   UNL     1     112.454 112.746 110.948  1.00  0.00     0.013 A 
ATOM     17  C   UNL     1     112.920 112.948 109.645  1.00  0.00     0.047 A 
BRANCH  15  18
ATOM     18  O   UNL     1     113.702 112.069 107.539  1.00  0.00    -0.508 OA
ATOM     19  H   UNL     1     113.063 112.207 106.764  1.00  0.00     0.293 HD
ENDBRANCH  15  18
ENDBRANCH   1  12
BRANCH  11  20
ATOM     20  C   UNL     1     111.440 111.301 117.966  1.00  0.00     0.188 C 
ATOM     21  C   UNL     1     110.822 112.558 118.648  1.00  0.00     0.179 C 
ATOM     22  O   UNL     1     111.680 110.294 118.934  1.00  0.00    -0.362 OA
ATOM     23  C   UNL     1     111.264 112.664 120.128  1.00  0.00     0.177 C 
ATOM     24  C   UNL     1     112.765 110.640 119.789  1.00  0.00     0.176 C 
ATOM     25  C   UNL     1     112.691 112.111 120.308  1.00  0.00     0.177 C 
BRANCH  21  26
ATOM     26  O   UNL     1     109.417 112.584 118.558  1.00  0.00    -0.387 OA
ATOM     27  H   UNL     1     109.134 111.795 118.028  1.00  0.00     0.211 HD
ENDBRANCH  21  26
BRANCH  23  28
ATOM     28  O   UNL     1     111.192 114.003 120.546  1.00  0.00    -0.387 OA
ATOM     29  H   UNL     1     110.335 114.367 120.199  1.00  0.00     0.211 HD
ENDBRANCH  23  28
BRANCH  24  30
ATOM     30  C   UNL     1     112.781 109.650 120.964  1.00  0.00     0.191 C 
BRANCH  30  31
ATOM     31  O   UNL     1     112.038 108.502 120.650  1.00  0.00    -0.394 OA
ATOM     32  H   UNL     1     111.348 108.404 121.357  1.00  0.00     0.210 HD
ENDBRANCH  30  31
ENDBRANCH  24  30
BRANCH  25  33
ATOM     33  O   UNL     1     113.607 112.902 119.591  1.00  0.00    -0.388 OA
ATOM     34  H   UNL     1     113.723 112.480 118.699  1.00  0.00     0.211 HD
ENDBRANCH  25  33
ENDBRANCH  11  20
BRANCH  10  35
ATOM     35  O   UNL     1     108.919 109.807 118.405  1.00  0.00    -0.507 OA
ATOM     36  H   UNL     1     107.979 109.971 118.738  1.00  0.00     0.293 HD
ENDBRANCH  10  35
TORSDOF 9
ENDMDL
MODEL 4
REMARK VINA RESULT:    -8.417      3.327      6.366
REMARK INTER + INTRA:         -11.990
REMARK INTER:                 -11.309
REMARK INTRA:                  -0.681
REMARK UNBOUND:                -0.620
REMARK SMILES O=c1c(-c2ccc(O)cc2)coc2c([C@@H]3O[C@H](CO)[C@@H](O)[C@@H](O)[C@@H]3O)c(O)ccc12
REMARK SMILES IDX 3 1 11 2 12 3 13 4 30 5 2 6 1 7 29 8 28 9 26 10 14 11 4 12
REMARK SMILES IDX 5 13 6 14 7 15 10 16 9 17 8 18 15 20 24 21 16 22 22 23 17 24
REMARK SMILES IDX 20 25 25 26 23 28 18 30 19 31 21 33 27 35
REMARK H PARENT 8 19 25 27 23 29 19 32 21 34 27 36
REMARK Flexibility Score: inf
ROOT
ATOM      1  C   UNL     1     110.393 111.146 112.937  1.00  0.00     0.065 A 
ATOM      2  C   UNL     1     109.587 110.783 114.024  1.00  0.00     0.208 A 
ATOM      3  O   UNL     1     110.017 110.927 115.271  1.00  0.00    -0.463 OA
ATOM      4  C   UNL     1     111.217 111.415 115.579  1.00  0.00     0.147 A 
ATOM      5  C   UNL     1     112.088 111.822 114.542  1.00  0.00     0.066 A 
ATOM      6  C   UNL     1     111.664 111.684 113.209  1.00  0.00     0.200 A 
ATOM      7  O   UNL     1     112.408 112.062 112.260  1.00  0.00    -0.288 OA
ATOM      8  C   UNL     1     113.342 112.361 114.861  1.00  0.00     0.020 A 
ATOM      9  C   UNL     1     113.719 112.519 116.192  1.00  0.00     0.047 A 
ATOM     10  C   UNL     1     112.868 112.136 117.231  1.00  0.00     0.125 A 
ATOM     11  C   UNL     1     111.613 111.533 116.940  1.00  0.00     0.069 A 
ENDROOT
BRANCH   1  12
ATOM     12  C   UNL     1     109.893 110.967 111.551  1.00  0.00    -0.011 A 
ATOM     13  C   UNL     1     109.676 112.078 110.718  1.00  0.00     0.013 A 
ATOM     14  C   UNL     1     109.214 111.904 109.410  1.00  0.00     0.047 A 
ATOM     15  C   UNL     1     108.966 110.616 108.917  1.00  0.00     0.115 A 
ATOM     16  C   UNL     1     109.649 109.677 111.047  1.00  0.00     0.013 A 
ATOM     17  C   UNL     1     109.185 109.505 109.739  1.00  0.00     0.047 A 
BRANCH  15  18
ATOM     18  O   UNL     1     108.505 110.429 107.617  1.00  0.00    -0.508 OA
ATOM     19  H   UNL     1     109.021 110.776 106.816  1.00  0.00     0.293 HD
ENDBRANCH  15  18
ENDBRANCH   1  12
BRANCH  11  20
ATOM     20  C   UNL     1     110.690 111.071 118.069  1.00  0.00     0.188 C 
ATOM     21  C   UNL     1     111.178 109.745 118.726  1.00  0.00     0.179 C 
ATOM     22  O   UNL     1     110.552 112.078 119.057  1.00  0.00    -0.362 OA
ATOM     23  C   UNL     1     110.727 109.655 120.204  1.00  0.00     0.177 C 
ATOM     24  C   UNL     1     109.437 111.826 119.907  1.00  0.00     0.176 C 
ATOM     25  C   UNL     1     109.362 110.345 120.397  1.00  0.00     0.177 C 
BRANCH  21  26
ATOM     26  O   UNL     1     112.573 109.581 118.633  1.00  0.00    -0.387 OA
ATOM     27  H   UNL     1     112.970 110.470 118.441  1.00  0.00     0.211 HD
ENDBRANCH  21  26
BRANCH  23  28
ATOM     28  O   UNL     1     110.664 108.308 120.595  1.00  0.00    -0.387 OA
ATOM     29  H   UNL     1     109.802 108.187 121.073  1.00  0.00     0.211 HD
ENDBRANCH  23  28
BRANCH  24  30
ATOM     30  C   UNL     1     109.519 112.789 121.100  1.00  0.00     0.191 C 
BRANCH  30  31
ATOM     31  O   UNL     1     109.906 114.069 120.675  1.00  0.00    -0.394 OA
ATOM     32  H   UNL     1     110.884 114.140 120.829  1.00  0.00     0.210 HD
ENDBRANCH  30  31
ENDBRANCH  24  30
BRANCH  25  33
ATOM     33  O   UNL     1     108.372 109.664 119.665  1.00  0.00    -0.388 OA
ATOM     34  H   UNL     1     107.697 110.338 119.389  1.00  0.00     0.211 HD
ENDBRANCH  25  33
ENDBRANCH  11  20
BRANCH  10  35
ATOM     35  O   UNL     1     113.306 112.383 118.535  1.00  0.00    -0.507 OA
ATOM     36  H   UNL     1     114.236 112.698 118.774  1.00  0.00     0.293 HD
ENDBRANCH  10  35
TORSDOF 9
ENDMDL
MODEL 5
REMARK VINA RESULT:    -8.252      2.393      8.608
REMARK INTER + INTRA:         -11.767
REMARK INTER:                 -11.280
REMARK INTRA:                  -0.487
REMARK UNBOUND:                -0.620
REMARK SMILES O=c1c(-c2ccc(O)cc2)coc2c([C@@H]3O[C@H](CO)[C@@H](O)[C@@H](O)[C@@H]3O)c(O)ccc12
REMARK SMILES IDX 3 1 11 2 12 3 13 4 30 5 2 6 1 7 29 8 28 9 26 10 14 11 4 12
REMARK SMILES IDX 5 13 6 14 7 15 10 16 9 17 8 18 15 20 24 21 16 22 22 23 17 24
REMARK SMILES IDX 20 25 25 26 23 28 18 30 19 31 21 33 27 35
REMARK H PARENT 8 19 25 27 23 29 19 32 21 34 27 36
REMARK Flexibility Score: inf
ROOT
ATOM      1  C   UNL     1     110.443 111.229 113.772  1.00  0.00     0.065 A 
ATOM      2  C   UNL     1     109.838 111.836 112.664  1.00  0.00     0.208 A 
ATOM      3  O   UNL     1     110.216 111.532 111.429  1.00  0.00    -0.463 OA
ATOM      4  C   UNL     1     111.174 110.649 111.153  1.00  0.00     0.147 A 
ATOM      5  C   UNL     1     111.825 109.978 112.213  1.00  0.00     0.066 A 
ATOM      6  C   UNL     1     111.449 110.276 113.535  1.00  0.00     0.200 A 
ATOM      7  O   UNL     1     111.994 109.675 114.504  1.00  0.00    -0.288 OA
ATOM      8  C   UNL     1     112.817 109.028 111.929  1.00  0.00     0.020 A 
ATOM      9  C   UNL     1     113.141 108.729 110.609  1.00  0.00     0.047 A 
ATOM     10  C   UNL     1     112.500 109.371 109.546  1.00  0.00     0.125 A 
ATOM     11  C   UNL     1     111.531 110.380 109.803  1.00  0.00     0.069 A 
ENDROOT
BRANCH   1  12
ATOM     12  C   UNL     1     110.009 111.593 115.145  1.00  0.00    -0.011 A 
ATOM     13  C   UNL     1     109.512 110.614 116.022  1.00  0.00     0.013 A 
ATOM     14  C   UNL     1     109.114 110.960 117.317  1.00  0.00     0.047 A 
ATOM     15  C   UNL     1     109.212 112.289 117.752  1.00  0.00     0.115 A 
ATOM     16  C   UNL     1     110.111 112.922 115.591  1.00  0.00     0.013 A 
ATOM     17  C   UNL     1     109.711 113.267 116.885  1.00  0.00     0.047 A 
BRANCH  15  18
ATOM     18  O   UNL     1     108.817 112.646 119.039  1.00  0.00    -0.508 OA
ATOM     19  H   UNL     1     108.504 111.952 119.708  1.00  0.00     0.293 HD
ENDBRANCH  15  18
ENDBRANCH   1  12
BRANCH  11  20
ATOM     20  C   UNL     1     110.852 111.119 108.649  1.00  0.00     0.188 C 
ATOM     21  C   UNL     1     111.824 112.095 107.920  1.00  0.00     0.179 C 
ATOM     22  O   UNL     1     110.294 110.207 107.718  1.00  0.00    -0.362 OA
ATOM     23  C   UNL     1     111.417 112.285 106.438  1.00  0.00     0.177 C 
ATOM     24  C   UNL     1     109.361 110.848 106.855  1.00  0.00     0.176 C 
ATOM     25  C   UNL     1     109.886 112.204 106.282  1.00  0.00     0.177 C 
BRANCH  21  26
ATOM     26  O   UNL     1     113.167 111.680 108.005  1.00  0.00    -0.387 OA
ATOM     27  H   UNL     1     113.701 112.450 108.327  1.00  0.00     0.211 HD
ENDBRANCH  21  26
BRANCH  23  28
ATOM     28  O   UNL     1     111.901 113.519 105.972  1.00  0.00    -0.387 OA
ATOM     29  H   UNL     1     112.607 113.317 105.303  1.00  0.00     0.211 HD
ENDBRANCH  23  28
BRANCH  24  30
ATOM     30  C   UNL     1     109.017 109.875 105.716  1.00  0.00     0.191 C 
BRANCH  30  31
ATOM     31  O   UNL     1     108.706 110.581 104.544  1.00  0.00    -0.394 OA
ATOM     32  H   UNL     1     107.717 110.586 104.465  1.00  0.00     0.210 HD
ENDBRANCH  30  31
ENDBRANCH  24  30
BRANCH  25  33
ATOM     33  O   UNL     1     109.275 113.266 106.974  1.00  0.00    -0.388 OA
ATOM     34  H   UNL     1     109.327 113.054 107.942  1.00  0.00     0.211 HD
ENDBRANCH  25  33
ENDBRANCH  11  20
BRANCH  10  35
ATOM     35  O   UNL     1     112.850 108.966 108.255  1.00  0.00    -0.507 OA
ATOM     36  H   UNL     1     112.205 108.915 107.479  1.00  0.00     0.293 HD
ENDBRANCH  10  35
TORSDOF 9
ENDMDL
MODEL 6
REMARK VINA RESULT:    -8.191      1.857      8.478
REMARK INTER + INTRA:         -11.685
REMARK INTER:                 -11.083
REMARK INTRA:                  -0.602
REMARK UNBOUND:                -0.620
REMARK SMILES O=c1c(-c2ccc(O)cc2)coc2c([C@@H]3O[C@H](CO)[C@@H](O)[C@@H](O)[C@@H]3O)c(O)ccc12
REMARK SMILES IDX 3 1 11 2 12 3 13 4 30 5 2 6 1 7 29 8 28 9 26 10 14 11 4 12
REMARK SMILES IDX 5 13 6 14 7 15 10 16 9 17 8 18 15 20 24 21 16 22 22 23 17 24
REMARK SMILES IDX 20 25 25 26 23 28 18 30 19 31 21 33 27 35
REMARK H PARENT 8 19 25 27 23 29 19 32 21 34 27 36
REMARK Flexibility Score: inf
ROOT
ATOM      1  C   UNL     1     111.857 111.092 113.748  1.00  0.00     0.065 A 
ATOM      2  C   UNL     1     112.489 110.501 112.647  1.00  0.00     0.208 A 
ATOM      3  O   UNL     1     112.114 110.792 111.408  1.00  0.00    -0.463 OA
ATOM      4  C   UNL     1     111.134 111.646 111.120  1.00  0.00     0.147 A 
ATOM      5  C   UNL     1     110.453 112.300 112.173  1.00  0.00     0.066 A 
ATOM      6  C   UNL     1     110.825 112.016 113.500  1.00  0.00     0.200 A 
ATOM      7  O   UNL     1     110.255 112.603 114.461  1.00  0.00    -0.288 OA
ATOM      8  C   UNL     1     109.438 113.220 111.877  1.00  0.00     0.020 A 
ATOM      9  C   UNL     1     109.118 113.508 110.554  1.00  0.00     0.047 A 
ATOM     10  C   UNL     1     109.787 112.882 109.499  1.00  0.00     0.125 A 
ATOM     11  C   UNL     1     110.782 111.902 109.767  1.00  0.00     0.069 A 
ENDROOT
BRANCH   1  12
ATOM     12  C   UNL     1     112.287 110.744 115.125  1.00  0.00    -0.011 A 
ATOM     13  C   UNL     1     112.853 111.717 115.967  1.00  0.00     0.013 A 
ATOM     14  C   UNL     1     113.249 111.386 117.266  1.00  0.00     0.047 A 
ATOM     15  C   UNL     1     113.079 110.079 117.742  1.00  0.00     0.115 A 
ATOM     16  C   UNL     1     112.114 109.437 115.612  1.00  0.00     0.013 A 
ATOM     17  C   UNL     1     112.512 109.107 116.912  1.00  0.00     0.047 A 
BRANCH  15  18
ATOM     18  O   UNL     1     113.470 109.737 119.034  1.00  0.00    -0.508 OA
ATOM     19  H   UNL     1     113.176 108.867 119.464  1.00  0.00     0.293 HD
ENDBRANCH  15  18
ENDBRANCH   1  12
BRANCH  11  20
ATOM     20  C   UNL     1     111.493 111.181 108.621  1.00  0.00     0.188 C 
ATOM     21  C   UNL     1     110.566 110.155 107.903  1.00  0.00     0.179 C 
ATOM     22  O   UNL     1     112.010 112.106 107.679  1.00  0.00    -0.362 OA
ATOM     23  C   UNL     1     110.980 109.966 106.424  1.00  0.00     0.177 C 
ATOM     24  C   UNL     1     112.971 111.497 106.823  1.00  0.00     0.176 C 
ATOM     25  C   UNL     1     112.506 110.113 106.266  1.00  0.00     0.177 C 
BRANCH  21  26
ATOM     26  O   UNL     1     109.205 110.511 107.984  1.00  0.00    -0.387 OA
ATOM     27  H   UNL     1     109.002 111.104 107.215  1.00  0.00     0.211 HD
ENDBRANCH  21  26
BRANCH  23  28
ATOM     28  O   UNL     1     110.552 108.707 105.972  1.00  0.00    -0.387 OA
ATOM     29  H   UNL     1     109.640 108.831 105.596  1.00  0.00     0.211 HD
ENDBRANCH  23  28
BRANCH  24  30
ATOM     30  C   UNL     1     113.271 112.471 105.674  1.00  0.00     0.191 C 
BRANCH  30  31
ATOM     31  O   UNL     1     113.643 111.768 104.518  1.00  0.00    -0.394 OA
ATOM     32  H   UNL     1     114.107 110.944 104.819  1.00  0.00     0.210 HD
ENDBRANCH  30  31
ENDBRANCH  24  30
BRANCH  25  33
ATOM     33  O   UNL     1     113.163 109.087 106.969  1.00  0.00    -0.388 OA
ATOM     34  H   UNL     1     114.082 109.019 106.598  1.00  0.00     0.211 HD
ENDBRANCH  25  33
ENDBRANCH  11  20
BRANCH  10  35
ATOM     35  O   UNL     1     109.438 113.275 108.203  1.00  0.00    -0.507 OA
ATOM     36  H   UNL     1     110.101 113.557 107.495  1.00  0.00     0.293 HD
ENDBRANCH  10  35
TORSDOF 9
ENDMDL
MODEL 7
REMARK VINA RESULT:    -7.639      1.730      8.279
REMARK INTER + INTRA:         -10.938
REMARK INTER:                 -10.140
REMARK INTRA:                  -0.798
REMARK UNBOUND:                -0.620
REMARK SMILES O=c1c(-c2ccc(O)cc2)coc2c([C@@H]3O[C@H](CO)[C@@H](O)[C@@H](O)[C@@H]3O)c(O)ccc12
REMARK SMILES IDX 3 1 11 2 12 3 13 4 30 5 2 6 1 7 29 8 28 9 26 10 14 11 4 12
REMARK SMILES IDX 5 13 6 14 7 15 10 16 9 17 8 18 15 20 24 21 16 22 22 23 17 24
REMARK SMILES IDX 20 25 25 26 23 28 18 30 19 31 21 33 27 35
REMARK H PARENT 8 19 25 27 23 29 19 32 21 34 27 36
REMARK Flexibility Score: inf
ROOT
ATOM      1  C   UNL     1     111.483 111.518 112.659  1.00  0.00     0.065 A 
ATOM      2  C   UNL     1     112.065 112.194 111.579  1.00  0.00     0.208 A 
ATOM      3  O   UNL     1     111.660 111.969 110.335  1.00  0.00    -0.463 OA
ATOM      4  C   UNL     1     110.696 111.106 110.024  1.00  0.00     0.147 A 
ATOM      5  C   UNL     1     110.044 110.392 111.056  1.00  0.00     0.066 A 
ATOM      6  C   UNL     1     110.447 110.607 112.387  1.00  0.00     0.200 A 
ATOM      7  O   UNL     1     109.868 110.005 113.334  1.00  0.00    -0.288 OA
ATOM      8  C   UNL     1     109.009 109.501 110.738  1.00  0.00     0.020 A 
ATOM      9  C   UNL     1     108.608 109.337 109.416  1.00  0.00     0.047 A 
ATOM     10  C   UNL     1     109.230 110.042 108.382  1.00  0.00     0.125 A 
ATOM     11  C   UNL     1     110.320 110.910 108.667  1.00  0.00     0.069 A 
ENDROOT
BRANCH   1  12
ATOM     12  C   UNL     1     111.960 111.780 114.040  1.00  0.00    -0.011 A 
ATOM     13  C   UNL     1     111.198 112.565 114.924  1.00  0.00     0.013 A 
ATOM     14  C   UNL     1     111.646 112.801 116.227  1.00  0.00     0.047 A 
ATOM     15  C   UNL     1     112.859 112.253 116.664  1.00  0.00     0.115 A 
ATOM     16  C   UNL     1     113.172 111.228 114.488  1.00  0.00     0.013 A 
ATOM     17  C   UNL     1     113.619 111.467 115.791  1.00  0.00     0.047 A 
BRANCH  15  18
ATOM     18  O   UNL     1     113.317 112.482 117.959  1.00  0.00    -0.508 OA
ATOM     19  H   UNL     1     112.676 112.668 118.722  1.00  0.00     0.293 HD
ENDBRANCH  15  18
ENDBRANCH   1  12
BRANCH  11  20
ATOM     20  C   UNL     1     111.036 111.656 107.539  1.00  0.00     0.188 C 
ATOM     21  C   UNL     1     112.335 110.928 107.081  1.00  0.00     0.179 C 
ATOM     22  O   UNL     1     110.174 111.852 106.431  1.00  0.00    -0.362 OA
ATOM     23  C   UNL     1     112.651 111.232 105.596  1.00  0.00     0.177 C 
ATOM     24  C   UNL     1     110.684 112.842 105.542  1.00  0.00     0.176 C 
ATOM     25  C   UNL     1     112.203 112.660 105.228  1.00  0.00     0.177 C 
BRANCH  21  26
ATOM     26  O   UNL     1     112.273 109.537 107.288  1.00  0.00    -0.387 OA
ATOM     27  H   UNL     1     111.999 109.116 106.433  1.00  0.00     0.211 HD
ENDBRANCH  21  26
BRANCH  23  28
ATOM     28  O   UNL     1     114.027 111.066 105.365  1.00  0.00    -0.387 OA
ATOM     29  H   UNL     1     114.501 111.607 106.051  1.00  0.00     0.211 HD
ENDBRANCH  23  28
BRANCH  24  30
ATOM     30  C   UNL     1     109.853 112.796 104.251  1.00  0.00     0.191 C 
BRANCH  30  31
ATOM     31  O   UNL     1     109.049 111.647 104.223  1.00  0.00    -0.394 OA
ATOM     32  H   UNL     1     108.617 111.620 103.330  1.00  0.00     0.210 HD
ENDBRANCH  30  31
ENDBRANCH  24  30
BRANCH  25  33
ATOM     33  O   UNL     1     112.944 113.602 105.965  1.00  0.00    -0.388 OA
ATOM     34  H   UNL     1     113.730 113.853 105.413  1.00  0.00     0.211 HD
ENDBRANCH  25  33
ENDBRANCH  11  20
BRANCH  10  35
ATOM     35  O   UNL     1     108.724 109.857 107.092  1.00  0.00    -0.507 OA
ATOM     36  H   UNL     1     107.740 109.849 106.862  1.00  0.00     0.293 HD
ENDBRANCH  10  35
TORSDOF 9
ENDMDL
MODEL 8
REMARK VINA RESULT:    -7.502      2.162      3.347
REMARK INTER + INTRA:         -10.754
REMARK INTER:                 -10.330
REMARK INTRA:                  -0.424
REMARK UNBOUND:                -0.620
REMARK SMILES O=c1c(-c2ccc(O)cc2)coc2c([C@@H]3O[C@H](CO)[C@@H](O)[C@@H](O)[C@@H]3O)c(O)ccc12
REMARK SMILES IDX 3 1 11 2 12 3 13 4 30 5 2 6 1 7 29 8 28 9 26 10 14 11 4 12
REMARK SMILES IDX 5 13 6 14 7 15 10 16 9 17 8 18 15 20 24 21 16 22 22 23 17 24
REMARK SMILES IDX 20 25 25 26 23 28 18 30 19 31 21 33 27 35
REMARK H PARENT 8 19 25 27 23 29 19 32 21 34 27 36
REMARK Flexibility Score: inf
ROOT
ATOM      1  C   UNL     1     111.322 110.605 110.039  1.00  0.00     0.065 A 
ATOM      2  C   UNL     1     111.813 109.922 111.159  1.00  0.00     0.208 A 
ATOM      3  O   UNL     1     111.518 110.326 112.388  1.00  0.00    -0.463 OA
ATOM      4  C   UNL     1     110.754 111.384 112.647  1.00  0.00     0.147 A 
ATOM      5  C   UNL     1     110.203 112.122 111.573  1.00  0.00     0.066 A 
ATOM      6  C   UNL     1     110.494 111.721 110.257  1.00  0.00     0.200 A 
ATOM      7  O   UNL     1     109.997 112.342 109.277  1.00  0.00    -0.288 OA
ATOM      8  C   UNL     1     109.375 113.222 111.839  1.00  0.00     0.020 A 
ATOM      9  C   UNL     1     109.076 113.571 113.153  1.00  0.00     0.047 A 
ATOM     10  C   UNL     1     109.599 112.848 114.228  1.00  0.00     0.125 A 
ATOM     11  C   UNL     1     110.488 111.763 113.991  1.00  0.00     0.069 A 
ENDROOT
BRANCH   1  12
ATOM     12  C   UNL     1     111.673 110.139 108.674  1.00  0.00    -0.011 A 
ATOM     13  C   UNL     1     112.920 109.542 108.419  1.00  0.00     0.013 A 
ATOM     14  C   UNL     1     113.242 109.097 107.134  1.00  0.00     0.047 A 
ATOM     15  C   UNL     1     112.320 109.239 106.088  1.00  0.00     0.115 A 
ATOM     16  C   UNL     1     110.751 110.271 107.621  1.00  0.00     0.013 A 
ATOM     17  C   UNL     1     111.075 109.826 106.336  1.00  0.00     0.047 A 
BRANCH  15  18
ATOM     18  O   UNL     1     112.630 108.800 104.803  1.00  0.00    -0.508 OA
ATOM     19  H   UNL     1     112.797 107.820 104.604  1.00  0.00     0.293 HD
ENDBRANCH  15  18
ENDBRANCH   1  12
BRANCH  11  20
ATOM     20  C   UNL     1     111.099 110.989 115.161  1.00  0.00     0.188 C 
ATOM     21  C   UNL     1     112.391 111.667 115.706  1.00  0.00     0.179 C 
ATOM     22  O   UNL     1     110.160 110.825 116.210  1.00  0.00    -0.362 OA
ATOM     23  C   UNL     1     112.598 111.350 117.207  1.00  0.00     0.177 C 
ATOM     24  C   UNL     1     110.572 109.816 117.126  1.00  0.00     0.176 C 
ATOM     25  C   UNL     1     112.074 109.940 117.540  1.00  0.00     0.177 C 
BRANCH  21  26
ATOM     26  O   UNL     1     112.396 113.060 115.499  1.00  0.00    -0.387 OA
ATOM     27  H   UNL     1     112.001 113.486 116.303  1.00  0.00     0.211 HD
ENDBRANCH  21  26
BRANCH  23  28
ATOM     28  O   UNL     1     113.961 111.463 117.528  1.00  0.00    -0.387 OA
ATOM     29  H   UNL     1     114.463 111.418 116.672  1.00  0.00     0.211 HD
ENDBRANCH  23  28
BRANCH  24  30
ATOM     30  C   UNL     1     109.661 109.891 118.361  1.00  0.00     0.191 C 
BRANCH  30  31
ATOM     31  O   UNL     1     108.716 110.918 118.213  1.00  0.00    -0.394 OA
ATOM     32  H   UNL     1     108.025 110.584 117.584  1.00  0.00     0.210 HD
ENDBRANCH  30  31
ENDBRANCH  24  30
BRANCH  25  33
ATOM     33  O   UNL     1     112.825 108.971 116.849  1.00  0.00    -0.388 OA
ATOM     34  H   UNL     1     113.730 108.958 117.257  1.00  0.00     0.211 HD
ENDBRANCH  25  33
ENDBRANCH  11  20
BRANCH  10  35
ATOM     35  O   UNL     1     109.200 113.237 115.509  1.00  0.00    -0.507 OA
ATOM     36  H   UNL     1     108.975 114.186 115.773  1.00  0.00     0.293 HD
ENDBRANCH  10  35
TORSDOF 9
ENDMDL
MODEL 9
REMARK VINA RESULT:    -7.470      2.074      2.866
REMARK INTER + INTRA:         -10.711
REMARK INTER:                  -9.701
REMARK INTRA:                  -1.010
REMARK UNBOUND:                -0.620
REMARK SMILES O=c1c(-c2ccc(O)cc2)coc2c([C@@H]3O[C@H](CO)[C@@H](O)[C@@H](O)[C@@H]3O)c(O)ccc12
REMARK SMILES IDX 3 1 11 2 12 3 13 4 30 5 2 6 1 7 29 8 28 9 26 10 14 11 4 12
REMARK SMILES IDX 5 13 6 14 7 15 10 16 9 17 8 18 15 20 24 21 16 22 22 23 17 24
REMARK SMILES IDX 20 25 25 26 23 28 18 30 19 31 21 33 27 35
REMARK H PARENT 8 19 25 27 23 29 19 32 21 34 27 36
REMARK Flexibility Score: inf
ROOT
ATOM      1  C   UNL     1     111.041 111.402 108.690  1.00  0.00     0.065 A 
ATOM      2  C   UNL     1     110.626 112.197 109.767  1.00  0.00     0.208 A 
ATOM      3  O   UNL     1     110.903 111.850 111.017  1.00  0.00    -0.463 OA
ATOM      4  C   UNL     1     111.578 110.749 111.339  1.00  0.00     0.147 A 
ATOM      5  C   UNL     1     112.049 109.898 110.312  1.00  0.00     0.066 A 
ATOM      6  C   UNL     1     111.774 110.236 108.975  1.00  0.00     0.200 A 
ATOM      7  O   UNL     1     112.201 109.511 108.033  1.00  0.00    -0.288 OA
ATOM      8  C   UNL     1     112.783 108.751 110.643  1.00  0.00     0.020 A 
ATOM      9  C   UNL     1     113.070 108.463 111.974  1.00  0.00     0.047 A 
ATOM     10  C   UNL     1     112.626 109.297 113.003  1.00  0.00     0.125 A 
ATOM     11  C   UNL     1     111.831 110.437 112.703  1.00  0.00     0.069 A 
ENDROOT
BRANCH   1  12
ATOM     12  C   UNL     1     110.711 111.807 107.300  1.00  0.00    -0.011 A 
ATOM     13  C   UNL     1     111.624 112.554 106.536  1.00  0.00     0.013 A 
ATOM     14  C   UNL     1     111.313 112.924 105.225  1.00  0.00     0.047 A 
ATOM     15  C   UNL     1     110.087 112.548 104.659  1.00  0.00     0.115 A 
ATOM     16  C   UNL     1     109.487 111.427 106.724  1.00  0.00     0.013 A 
ATOM     17  C   UNL     1     109.177 111.800 105.413  1.00  0.00     0.047 A 
BRANCH  15  18
ATOM     18  O   UNL     1     109.765 112.912 103.354  1.00  0.00    -0.508 OA
ATOM     19  H   UNL     1     109.306 113.792 103.147  1.00  0.00     0.293 HD
ENDBRANCH  15  18
ENDBRANCH   1  12
BRANCH  11  20
ATOM     20  C   UNL     1     111.304 111.336 113.824  1.00  0.00     0.188 C 
ATOM     21  C   UNL     1     109.948 110.829 114.399  1.00  0.00     0.179 C 
ATOM     22  O   UNL     1     112.256 111.459 114.868  1.00  0.00    -0.362 OA
ATOM     23  C   UNL     1     109.776 111.250 115.879  1.00  0.00     0.177 C 
ATOM     24  C   UNL     1     111.953 112.555 115.724  1.00  0.00     0.176 C 
ATOM     25  C   UNL     1     110.447 112.614 116.135  1.00  0.00     0.177 C 
BRANCH  21  26
ATOM     26  O   UNL     1     109.796 109.435 114.270  1.00  0.00    -0.387 OA
ATOM     27  H   UNL     1     110.696 109.025 114.348  1.00  0.00     0.211 HD
ENDBRANCH  21  26
BRANCH  23  28
ATOM     28  O   UNL     1     108.409 111.299 116.198  1.00  0.00    -0.387 OA
ATOM     29  H   UNL     1     108.348 111.465 117.176  1.00  0.00     0.211 HD
ENDBRANCH  23  28
BRANCH  24  30
ATOM     30  C   UNL     1     112.851 112.454 116.966  1.00  0.00     0.191 C 
BRANCH  30  31
ATOM     31  O   UNL     1     113.230 111.122 117.191  1.00  0.00    -0.394 OA
ATOM     32  H   UNL     1     114.179 111.042 116.910  1.00  0.00     0.210 HD
ENDBRANCH  30  31
ENDBRANCH  24  30
BRANCH  25  33
ATOM     33  O   UNL     1     109.801 113.616 115.387  1.00  0.00    -0.388 OA
ATOM     34  H   UNL     1     109.838 113.340 114.434  1.00  0.00     0.211 HD
ENDBRANCH  25  33
ENDBRANCH  11  20
BRANCH  10  35
ATOM     35  O   UNL     1     113.010 108.960 114.304  1.00  0.00    -0.507 OA
ATOM     36  H   UNL     1     112.366 108.827 115.072  1.00  0.00     0.293 HD
ENDBRANCH  10  35
TORSDOF 9
ENDMDL
