MODEL 1
REMARK VINA RESULT:    -6.331      0.000      0.000
REMARK INTER + INTRA:         -12.357
REMARK INTER:                 -11.143
REMARK INTRA:                  -1.214
REMARK UNBOUND:                -1.214
REMARK SMILES CCCCCCC=CCCCCCCCC(=O)[O-]
REMARK SMILES IDX 10 1 11 2 12 3 13 4 14 5 15 6 16 7 17 8 18 9 9 10 8 11 7 12
REMARK SMILES IDX 6 13 5 14 4 15 3 16 2 17 1 18
REMARK H PARENT
REMARK Flexibility Score: inf
ROOT
ATOM      1  C   UNL     1     131.668 125.606 127.074  1.00  0.00     0.004 C 
ENDROOT
BRANCH   1   2
ATOM      2  C   UNL     1     130.809 124.629 126.263  1.00  0.00     0.000 C 
BRANCH   2   3
ATOM      3  C   UNL     1     130.201 123.549 127.165  1.00  0.00     0.000 C 
BRANCH   3   4
ATOM      4  C   UNL     1     128.683 123.734 127.298  1.00  0.00     0.000 C 
BRANCH   4   5
ATOM      5  C   UNL     1     128.301 125.107 127.876  1.00  0.00     0.006 C 
BRANCH   5   6
ATOM      6  C   UNL     1     127.695 125.007 129.282  1.00  0.00     0.053 C 
BRANCH   6   7
ATOM      7  C   UNL     1     126.201 124.978 129.204  1.00  0.00     0.041 C 
ATOM      8  O   UNL     1     125.545 126.053 129.205  1.00  0.00    -0.550 OA
ATOM      9  O   UNL     1     125.534 123.766 129.080  1.00  0.00    -0.550 OA
ENDBRANCH   6   7
ENDBRANCH   5   6
ENDBRANCH   4   5
ENDBRANCH   3   4
ENDBRANCH   2   3
ENDBRANCH   1   2
BRANCH   1  10
ATOM     10  C   UNL     1     131.474 127.047 126.585  1.00  0.00     0.027 C 
BRANCH  10  11
ATOM     11  C   UNL     1     130.430 127.118 125.505  1.00  0.00    -0.031 C 
ATOM     12  C   UNL     1     129.409 127.985 125.573  1.00  0.00    -0.031 C 
BRANCH  12  13
ATOM     13  C   UNL     1     128.387 128.095 124.474  1.00  0.00     0.027 C 
BRANCH  13  14
ATOM     14  C   UNL     1     129.023 128.551 123.152  1.00  0.00     0.004 C 
BRANCH  14  15
ATOM     15  C   UNL     1     128.179 128.244 121.899  1.00  0.00     0.000 C 
BRANCH  15  16
ATOM     16  C   UNL     1     126.901 127.425 122.160  1.00  0.00    -0.000 C 
BRANCH  16  17
ATOM     17  C   UNL     1     125.635 128.292 122.206  1.00  0.00    -0.003 C 
ATOM     18  C   UNL     1     125.946 129.740 121.837  1.00  0.00     0.004 C 
ENDBRANCH  16  17
ENDBRANCH  15  16
ENDBRANCH  14  15
ENDBRANCH  13  14
ENDBRANCH  12  13
ENDBRANCH  10  11
ENDBRANCH   1  10
TORSDOF 13
ENDMDL
MODEL 2
REMARK VINA RESULT:    -5.955      1.412      2.333
REMARK INTER + INTRA:         -11.695
REMARK INTER:                 -10.537
REMARK INTRA:                  -1.158
REMARK UNBOUND:                -1.214
REMARK SMILES CCCCCCC=CCCCCCCCC(=O)[O-]
REMARK SMILES IDX 10 1 11 2 12 3 13 4 14 5 15 6 16 7 17 8 18 9 9 10 8 11 7 12
REMARK SMILES IDX 6 13 5 14 4 15 3 16 2 17 1 18
REMARK H PARENT
REMARK Flexibility Score: inf
ROOT
ATOM      1  C   UNL     1     130.458 127.640 127.793  1.00  0.00     0.004 C 
ENDROOT
BRANCH   1   2
ATOM      2  C   UNL     1     131.859 127.648 127.170  1.00  0.00     0.000 C 
BRANCH   2   3
ATOM      3  C   UNL     1     132.205 126.279 126.574  1.00  0.00     0.000 C 
BRANCH   3   4
ATOM      4  C   UNL     1     131.365 125.169 127.223  1.00  0.00     0.000 C 
BRANCH   4   5
ATOM      5  C   UNL     1     130.419 124.482 126.226  1.00  0.00     0.006 C 
BRANCH   5   6
ATOM      6  C   UNL     1     129.464 123.491 126.905  1.00  0.00     0.053 C 
BRANCH   6   7
ATOM      7  C   UNL     1     128.452 124.223 127.727  1.00  0.00     0.041 C 
ATOM      8  O   UNL     1     128.039 125.356 127.365  1.00  0.00    -0.550 OA
ATOM      9  O   UNL     1     127.924 123.633 128.870  1.00  0.00    -0.550 OA
ENDBRANCH   6   7
ENDBRANCH   5   6
ENDBRANCH   4   5
ENDBRANCH   3   4
ENDBRANCH   2   3
ENDBRANCH   1   2
BRANCH   1  10
ATOM     10  C   UNL     1     129.462 128.411 126.919  1.00  0.00     0.027 C 
BRANCH  10  11
ATOM     11  C   UNL     1     129.555 127.982 125.481  1.00  0.00    -0.031 C 
ATOM     12  C   UNL     1     129.241 128.816 124.478  1.00  0.00    -0.031 C 
BRANCH  12  13
ATOM     13  C   UNL     1     129.377 128.409 123.036  1.00  0.00     0.027 C 
BRANCH  13  14
ATOM     14  C   UNL     1     128.596 127.121 122.735  1.00  0.00     0.004 C 
BRANCH  14  15
ATOM     15  C   UNL     1     127.592 127.240 121.571  1.00  0.00     0.000 C 
BRANCH  15  16
ATOM     16  C   UNL     1     126.111 127.103 121.973  1.00  0.00    -0.000 C 
BRANCH  16  17
ATOM     17  C   UNL     1     125.490 128.430 122.432  1.00  0.00    -0.003 C 
ATOM     18  C   UNL     1     126.100 129.610 121.680  1.00  0.00     0.004 C 
ENDBRANCH  16  17
ENDBRANCH  15  16
ENDBRANCH  14  15
ENDBRANCH  13  14
ENDBRANCH  12  13
ENDBRANCH  10  11
ENDBRANCH   1  10
TORSDOF 13
ENDMDL
MODEL 3
REMARK VINA RESULT:    -5.862      2.178      3.576
REMARK INTER + INTRA:         -11.531
REMARK INTER:                 -10.789
REMARK INTRA:                  -0.742
REMARK UNBOUND:                -1.214
REMARK SMILES CCCCCCC=CCCCCCCCC(=O)[O-]
REMARK SMILES IDX 10 1 11 2 12 3 13 4 14 5 15 6 16 7 17 8 18 9 9 10 8 11 7 12
REMARK SMILES IDX 6 13 5 14 4 15 3 16 2 17 1 18
REMARK H PARENT
REMARK Flexibility Score: inf
ROOT
ATOM      1  C   UNL     1     128.140 124.613 127.842  1.00  0.00     0.004 C 
ENDROOT
BRANCH   1   2
ATOM      2  C   UNL     1     127.484 123.860 129.005  1.00  0.00     0.000 C 
BRANCH   2   3
ATOM      3  C   UNL     1     126.389 124.707 129.662  1.00  0.00     0.000 C 
BRANCH   3   4
ATOM      4  C   UNL     1     125.056 124.559 128.913  1.00  0.00     0.000 C 
BRANCH   4   5
ATOM      5  C   UNL     1     124.096 125.731 129.176  1.00  0.00     0.006 C 
BRANCH   5   6
ATOM      6  C   UNL     1     122.876 125.713 128.247  1.00  0.00     0.053 C 
BRANCH   6   7
ATOM      7  C   UNL     1     122.518 127.105 127.830  1.00  0.00     0.041 C 
ATOM      8  O   UNL     1     122.118 127.333 126.658  1.00  0.00    -0.550 OA
ATOM      9  O   UNL     1     122.577 128.144 128.750  1.00  0.00    -0.550 OA
ENDBRANCH   6   7
ENDBRANCH   5   6
ENDBRANCH   4   5
ENDBRANCH   3   4
ENDBRANCH   2   3
ENDBRANCH   1   2
BRANCH   1  10
ATOM     10  C   UNL     1     129.325 123.822 127.273  1.00  0.00     0.027 C 
BRANCH  10  11
ATOM     11  C   UNL     1     130.061 124.619 126.232  1.00  0.00    -0.031 C 
ATOM     12  C   UNL     1     129.626 125.823 125.833  1.00  0.00    -0.031 C 
BRANCH  12  13
ATOM     13  C   UNL     1     130.382 126.647 124.826  1.00  0.00     0.027 C 
BRANCH  13  14
ATOM     14  C   UNL     1     129.435 127.478 123.948  1.00  0.00     0.004 C 
BRANCH  14  15
ATOM     15  C   UNL     1     128.193 126.714 123.448  1.00  0.00     0.000 C 
BRANCH  15  16
ATOM     16  C   UNL     1     127.796 127.001 121.988  1.00  0.00    -0.000 C 
BRANCH  16  17
ATOM     17  C   UNL     1     127.606 128.498 121.704  1.00  0.00    -0.003 C 
ATOM     18  C   UNL     1     126.209 128.961 122.107  1.00  0.00     0.004 C 
ENDBRANCH  16  17
ENDBRANCH  15  16
ENDBRANCH  14  15
ENDBRANCH  13  14
ENDBRANCH  12  13
ENDBRANCH  10  11
ENDBRANCH   1  10
TORSDOF 13
ENDMDL
MODEL 4
REMARK VINA RESULT:    -5.818      2.812      6.134
REMARK INTER + INTRA:         -11.454
REMARK INTER:                 -10.008
REMARK INTRA:                  -1.446
REMARK UNBOUND:                -1.214
REMARK SMILES CCCCCCC=CCCCCCCCC(=O)[O-]
REMARK SMILES IDX 10 1 11 2 12 3 13 4 14 5 15 6 16 7 17 8 18 9 9 10 8 11 7 12
REMARK SMILES IDX 6 13 5 14 4 15 3 16 2 17 1 18
REMARK H PARENT
REMARK Flexibility Score: inf
ROOT
ATOM      1  C   UNL     1     131.445 127.941 127.157  1.00  0.00     0.004 C 
ENDROOT
BRANCH   1   2
ATOM      2  C   UNL     1     129.926 127.984 126.955  1.00  0.00     0.000 C 
BRANCH   2   3
ATOM      3  C   UNL     1     129.572 128.324 125.503  1.00  0.00     0.000 C 
BRANCH   3   4
ATOM      4  C   UNL     1     128.409 127.455 125.004  1.00  0.00     0.000 C 
BRANCH   4   5
ATOM      5  C   UNL     1     128.790 126.598 123.786  1.00  0.00     0.006 C 
BRANCH   5   6
ATOM      6  C   UNL     1     127.679 126.545 122.730  1.00  0.00     0.053 C 
BRANCH   6   7
ATOM      7  C   UNL     1     127.366 127.921 122.232  1.00  0.00     0.041 C 
ATOM      8  O   UNL     1     126.258 128.455 122.500  1.00  0.00    -0.550 OA
ATOM      9  O   UNL     1     128.318 128.634 121.515  1.00  0.00    -0.550 OA
ENDBRANCH   6   7
ENDBRANCH   5   6
ENDBRANCH   4   5
ENDBRANCH   3   4
ENDBRANCH   2   3
ENDBRANCH   1   2
BRANCH   1  10
ATOM     10  C   UNL     1     131.988 126.521 126.955  1.00  0.00     0.027 C 
BRANCH  10  11
ATOM     11  C   UNL     1     130.968 125.488 127.348  1.00  0.00    -0.031 C 
ATOM     12  C   UNL     1     130.685 124.444 126.554  1.00  0.00    -0.031 C 
BRANCH  12  13
ATOM     13  C   UNL     1     129.700 123.382 126.961  1.00  0.00     0.027 C 
BRANCH  13  14
ATOM     14  C   UNL     1     128.312 123.976 127.246  1.00  0.00     0.004 C 
BRANCH  14  15
ATOM     15  C   UNL     1     127.889 123.926 128.728  1.00  0.00     0.000 C 
BRANCH  15  16
ATOM     16  C   UNL     1     126.849 124.983 129.143  1.00  0.00    -0.000 C 
BRANCH  16  17
ATOM     17  C   UNL     1     125.403 124.487 129.000  1.00  0.00    -0.003 C 
ATOM     18  C   UNL     1     124.414 125.510 129.554  1.00  0.00     0.004 C 
ENDBRANCH  16  17
ENDBRANCH  15  16
ENDBRANCH  14  15
ENDBRANCH  13  14
ENDBRANCH  12  13
ENDBRANCH  10  11
ENDBRANCH   1  10
TORSDOF 13
ENDMDL
MODEL 5
REMARK VINA RESULT:    -5.718      3.280      6.660
REMARK INTER + INTRA:         -11.278
REMARK INTER:                 -10.414
REMARK INTRA:                  -0.863
REMARK UNBOUND:                -1.214
REMARK SMILES CCCCCCC=CCCCCCCCC(=O)[O-]
REMARK SMILES IDX 10 1 11 2 12 3 13 4 14 5 15 6 16 7 17 8 18 9 9 10 8 11 7 12
REMARK SMILES IDX 6 13 5 14 4 15 3 16 2 17 1 18
REMARK H PARENT
REMARK Flexibility Score: inf
ROOT
ATOM      1  C   UNL     1     128.712 126.884 126.903  1.00  0.00     0.004 C 
ENDROOT
BRANCH   1   2
ATOM      2  C   UNL     1     129.365 127.650 125.747  1.00  0.00     0.000 C 
BRANCH   2   3
ATOM      3  C   UNL     1     129.675 126.716 124.572  1.00  0.00     0.000 C 
BRANCH   3   4
ATOM      4  C   UNL     1     128.632 126.872 123.456  1.00  0.00     0.000 C 
BRANCH   4   5
ATOM      5  C   UNL     1     128.380 128.342 123.083  1.00  0.00     0.006 C 
BRANCH   5   6
ATOM      6  C   UNL     1     127.642 128.493 121.746  1.00  0.00     0.053 C 
BRANCH   6   7
ATOM      7  C   UNL     1     126.277 129.065 121.966  1.00  0.00     0.041 C 
ATOM      8  O   UNL     1     125.347 128.336 122.402  1.00  0.00    -0.550 OA
ATOM      9  O   UNL     1     126.042 130.415 121.737  1.00  0.00    -0.550 OA
ENDBRANCH   6   7
ENDBRANCH   5   6
ENDBRANCH   4   5
ENDBRANCH   3   4
ENDBRANCH   2   3
ENDBRANCH   1   2
BRANCH   1  10
ATOM     10  C   UNL     1     129.288 125.468 127.021  1.00  0.00     0.027 C 
BRANCH  10  11
ATOM     11  C   UNL     1     128.341 124.554 127.748  1.00  0.00    -0.031 C 
ATOM     12  C   UNL     1     127.480 125.021 128.664  1.00  0.00    -0.031 C 
BRANCH  12  13
ATOM     13  C   UNL     1     126.497 124.120 129.361  1.00  0.00     0.027 C 
BRANCH  13  14
ATOM     14  C   UNL     1     125.053 124.412 128.925  1.00  0.00     0.004 C 
BRANCH  14  15
ATOM     15  C   UNL     1     124.551 125.824 129.287  1.00  0.00     0.000 C 
BRANCH  15  16
ATOM     16  C   UNL     1     123.136 126.160 128.782  1.00  0.00    -0.000 C 
BRANCH  16  17
ATOM     17  C   UNL     1     122.854 127.669 128.751  1.00  0.00    -0.003 C 
ATOM     18  C   UNL     1     123.457 128.365 129.968  1.00  0.00     0.004 C 
ENDBRANCH  16  17
ENDBRANCH  15  16
ENDBRANCH  14  15
ENDBRANCH  13  14
ENDBRANCH  12  13
ENDBRANCH  10  11
ENDBRANCH   1  10
TORSDOF 13
ENDMDL
MODEL 6
REMARK VINA RESULT:    -5.694      2.151      4.392
REMARK INTER + INTRA:         -11.236
REMARK INTER:                 -10.065
REMARK INTRA:                  -1.171
REMARK UNBOUND:                -1.214
REMARK SMILES CCCCCCC=CCCCCCCCC(=O)[O-]
REMARK SMILES IDX 10 1 11 2 12 3 13 4 14 5 15 6 16 7 17 8 18 9 9 10 8 11 7 12
REMARK SMILES IDX 6 13 5 14 4 15 3 16 2 17 1 18
REMARK H PARENT
REMARK Flexibility Score: inf
ROOT
ATOM      1  C   UNL     1     127.960 124.553 128.262  1.00  0.00     0.004 C 
ENDROOT
BRANCH   1   2
ATOM      2  C   UNL     1     127.105 123.816 129.299  1.00  0.00     0.000 C 
BRANCH   2   3
ATOM      3  C   UNL     1     125.619 124.153 129.130  1.00  0.00     0.000 C 
BRANCH   3   4
ATOM      4  C   UNL     1     125.370 125.655 129.332  1.00  0.00     0.000 C 
BRANCH   4   5
ATOM      5  C   UNL     1     123.929 125.963 129.770  1.00  0.00     0.006 C 
BRANCH   5   6
ATOM      6  C   UNL     1     123.334 127.170 129.033  1.00  0.00     0.053 C 
BRANCH   6   7
ATOM      7  C   UNL     1     122.567 126.719 127.830  1.00  0.00     0.041 C 
ATOM      8  O   UNL     1     122.181 127.558 126.973  1.00  0.00    -0.550 OA
ATOM      9  O   UNL     1     122.320 125.367 127.627  1.00  0.00    -0.550 OA
ENDBRANCH   6   7
ENDBRANCH   5   6
ENDBRANCH   4   5
ENDBRANCH   3   4
ENDBRANCH   2   3
ENDBRANCH   1   2
BRANCH   1  10
ATOM     10  C   UNL     1     128.805 123.568 127.444  1.00  0.00     0.027 C 
BRANCH  10  11
ATOM     11  C   UNL     1     130.021 124.240 126.870  1.00  0.00    -0.031 C 
ATOM     12  C   UNL     1     130.588 125.296 127.472  1.00  0.00    -0.031 C 
BRANCH  12  13
ATOM     13  C   UNL     1     131.833 125.945 126.929  1.00  0.00     0.027 C 
BRANCH  13  14
ATOM     14  C   UNL     1     131.590 127.417 126.563  1.00  0.00     0.004 C 
BRANCH  14  15
ATOM     15  C   UNL     1     130.107 127.841 126.571  1.00  0.00     0.000 C 
BRANCH  15  16
ATOM     16  C   UNL     1     129.508 128.138 125.184  1.00  0.00    -0.000 C 
BRANCH  16  17
ATOM     17  C   UNL     1     129.503 126.911 124.260  1.00  0.00    -0.003 C 
ATOM     18  C   UNL     1     128.162 126.766 123.546  1.00  0.00     0.004 C 
ENDBRANCH  16  17
ENDBRANCH  15  16
ENDBRANCH  14  15
ENDBRANCH  13  14
ENDBRANCH  12  13
ENDBRANCH  10  11
ENDBRANCH   1  10
TORSDOF 13
ENDMDL
MODEL 7
REMARK VINA RESULT:    -5.667      1.632      2.545
REMARK INTER + INTRA:         -11.189
REMARK INTER:                 -10.434
REMARK INTRA:                  -0.755
REMARK UNBOUND:                -1.214
REMARK SMILES CCCCCCC=CCCCCCCCC(=O)[O-]
REMARK SMILES IDX 10 1 11 2 12 3 13 4 14 5 15 6 16 7 17 8 18 9 9 10 8 11 7 12
REMARK SMILES IDX 6 13 5 14 4 15 3 16 2 17 1 18
REMARK H PARENT
REMARK Flexibility Score: inf
ROOT
ATOM      1  C   UNL     1     129.682 123.917 127.315  1.00  0.00     0.004 C 
ENDROOT
BRANCH   1   2
ATOM      2  C   UNL     1     128.520 124.805 127.774  1.00  0.00     0.000 C 
BRANCH   2   3
ATOM      3  C   UNL     1     127.515 124.008 128.614  1.00  0.00     0.000 C 
BRANCH   3   4
ATOM      4  C   UNL     1     126.728 124.933 129.553  1.00  0.00     0.000 C 
BRANCH   4   5
ATOM      5  C   UNL     1     125.224 124.958 129.236  1.00  0.00     0.006 C 
BRANCH   5   6
ATOM      6  C   UNL     1     124.648 126.380 129.225  1.00  0.00     0.053 C 
BRANCH   6   7
ATOM      7  C   UNL     1     123.240 126.376 129.732  1.00  0.00     0.041 C 
ATOM      8  O   UNL     1     122.276 126.487 128.929  1.00  0.00    -0.550 OA
ATOM      9  O   UNL     1     122.989 126.199 131.087  1.00  0.00    -0.550 OA
ENDBRANCH   6   7
ENDBRANCH   5   6
ENDBRANCH   4   5
ENDBRANCH   3   4
ENDBRANCH   2   3
ENDBRANCH   1   2
BRANCH   1  10
ATOM     10  C   UNL     1     130.846 124.764 126.785  1.00  0.00     0.027 C 
BRANCH  10  11
ATOM     11  C   UNL     1     130.349 126.027 126.138  1.00  0.00    -0.031 C 
ATOM     12  C   UNL     1     130.486 126.241 124.821  1.00  0.00    -0.031 C 
BRANCH  12  13
ATOM     13  C   UNL     1     129.950 127.481 124.159  1.00  0.00     0.027 C 
BRANCH  13  14
ATOM     14  C   UNL     1     128.414 127.487 124.127  1.00  0.00     0.004 C 
BRANCH  14  15
ATOM     15  C   UNL     1     127.798 126.691 122.959  1.00  0.00     0.000 C 
BRANCH  15  16
ATOM     16  C   UNL     1     127.224 127.551 121.817  1.00  0.00    -0.000 C 
BRANCH  16  17
ATOM     17  C   UNL     1     125.895 128.225 122.186  1.00  0.00    -0.003 C 
ATOM     18  C   UNL     1     125.930 129.718 121.873  1.00  0.00     0.004 C 
ENDBRANCH  16  17
ENDBRANCH  15  16
ENDBRANCH  14  15
ENDBRANCH  13  14
ENDBRANCH  12  13
ENDBRANCH  10  11
ENDBRANCH   1  10
TORSDOF 13
ENDMDL
MODEL 8
REMARK VINA RESULT:    -5.610      3.262      6.439
REMARK INTER + INTRA:         -11.088
REMARK INTER:                 -10.168
REMARK INTRA:                  -0.920
REMARK UNBOUND:                -1.214
REMARK SMILES CCCCCCC=CCCCCCCCC(=O)[O-]
REMARK SMILES IDX 10 1 11 2 12 3 13 4 14 5 15 6 16 7 17 8 18 9 9 10 8 11 7 12
REMARK SMILES IDX 6 13 5 14 4 15 3 16 2 17 1 18
REMARK H PARENT
REMARK Flexibility Score: inf
ROOT
ATOM      1  C   UNL     1     130.982 124.650 126.854  1.00  0.00     0.004 C 
ENDROOT
BRANCH   1   2
ATOM      2  C   UNL     1     130.755 126.084 126.359  1.00  0.00     0.000 C 
BRANCH   2   3
ATOM      3  C   UNL     1     130.603 126.123 124.834  1.00  0.00     0.000 C 
BRANCH   3   4
ATOM      4  C   UNL     1     129.777 127.341 124.395  1.00  0.00     0.000 C 
BRANCH   4   5
ATOM      5  C   UNL     1     128.280 127.021 124.257  1.00  0.00     0.006 C 
BRANCH   5   6
ATOM      6  C   UNL     1     127.888 126.640 122.823  1.00  0.00     0.053 C 
BRANCH   6   7
ATOM      7  C   UNL     1     127.302 127.818 122.112  1.00  0.00     0.041 C 
ATOM      8  O   UNL     1     127.995 128.471 121.287  1.00  0.00    -0.550 OA
ATOM      9  O   UNL     1     125.973 128.168 122.322  1.00  0.00    -0.550 OA
ENDBRANCH   6   7
ENDBRANCH   5   6
ENDBRANCH   4   5
ENDBRANCH   3   4
ENDBRANCH   2   3
ENDBRANCH   1   2
BRANCH   1  10
ATOM     10  C   UNL     1     129.648 123.935 127.099  1.00  0.00     0.027 C 
BRANCH  10  11
ATOM     11  C   UNL     1     128.673 124.829 127.813  1.00  0.00    -0.031 C 
ATOM     12  C   UNL     1     127.599 124.334 128.445  1.00  0.00    -0.031 C 
BRANCH  12  13
ATOM     13  C   UNL     1     126.645 125.218 129.201  1.00  0.00     0.027 C 
BRANCH  13  14
ATOM     14  C   UNL     1     125.219 124.647 129.197  1.00  0.00     0.004 C 
BRANCH  14  15
ATOM     15  C   UNL     1     124.121 125.670 129.551  1.00  0.00     0.000 C 
BRANCH  15  16
ATOM     16  C   UNL     1     124.465 127.134 129.219  1.00  0.00    -0.000 C 
BRANCH  16  17
ATOM     17  C   UNL     1     123.370 128.119 129.653  1.00  0.00    -0.003 C 
ATOM     18  C   UNL     1     122.655 127.627 130.908  1.00  0.00     0.004 C 
ENDBRANCH  16  17
ENDBRANCH  15  16
ENDBRANCH  14  15
ENDBRANCH  13  14
ENDBRANCH  12  13
ENDBRANCH  10  11
ENDBRANCH   1  10
TORSDOF 13
ENDMDL
MODEL 9
REMARK VINA RESULT:    -5.542      3.021      5.464
REMARK INTER + INTRA:         -10.968
REMARK INTER:                  -9.846
REMARK INTRA:                  -1.122
REMARK UNBOUND:                -1.214
REMARK SMILES CCCCCCC=CCCCCCCCC(=O)[O-]
REMARK SMILES IDX 10 1 11 2 12 3 13 4 14 5 15 6 16 7 17 8 18 9 9 10 8 11 7 12
REMARK SMILES IDX 6 13 5 14 4 15 3 16 2 17 1 18
REMARK H PARENT
REMARK Flexibility Score: inf
ROOT
ATOM      1  C   UNL     1     126.376 124.361 129.218  1.00  0.00     0.004 C 
ENDROOT
BRANCH   1   2
ATOM      2  C   UNL     1     124.889 124.517 128.877  1.00  0.00     0.000 C 
BRANCH   2   3
ATOM      3  C   UNL     1     124.248 125.638 129.704  1.00  0.00     0.000 C 
BRANCH   3   4
ATOM      4  C   UNL     1     123.452 126.596 128.806  1.00  0.00     0.000 C 
BRANCH   4   5
ATOM      5  C   UNL     1     122.668 127.646 129.609  1.00  0.00     0.006 C 
BRANCH   5   6
ATOM      6  C   UNL     1     121.333 127.107 130.138  1.00  0.00     0.053 C 
BRANCH   6   7
ATOM      7  C   UNL     1     121.379 126.973 131.628  1.00  0.00     0.041 C 
ATOM      8  O   UNL     1     121.067 127.948 132.362  1.00  0.00    -0.550 OA
ATOM      9  O   UNL     1     121.718 125.757 132.207  1.00  0.00    -0.550 OA
ENDBRANCH   6   7
ENDBRANCH   5   6
ENDBRANCH   4   5
ENDBRANCH   3   4
ENDBRANCH   2   3
ENDBRANCH   1   2
BRANCH   1  10
ATOM     10  C   UNL     1     127.169 125.607 128.804  1.00  0.00     0.027 C 
BRANCH  10  11
ATOM     11  C   UNL     1     128.522 125.235 128.264  1.00  0.00    -0.031 C 
ATOM     12  C   UNL     1     128.712 124.107 127.565  1.00  0.00    -0.031 C 
BRANCH  12  13
ATOM     13  C   UNL     1     130.053 123.751 126.981  1.00  0.00     0.027 C 
BRANCH  13  14
ATOM     14  C   UNL     1     130.942 124.992 126.807  1.00  0.00     0.004 C 
BRANCH  14  15
ATOM     15  C   UNL     1     130.943 125.581 125.382  1.00  0.00     0.000 C 
BRANCH  15  16
ATOM     16  C   UNL     1     130.052 126.823 125.190  1.00  0.00    -0.000 C 
BRANCH  16  17
ATOM     17  C   UNL     1     128.651 126.478 124.665  1.00  0.00    -0.003 C 
ATOM     18  C   UNL     1     128.165 127.526 123.667  1.00  0.00     0.004 C 
ENDBRANCH  16  17
ENDBRANCH  15  16
ENDBRANCH  14  15
ENDBRANCH  13  14
ENDBRANCH  12  13
ENDBRANCH  10  11
ENDBRANCH   1  10
TORSDOF 13
ENDMDL
