MODEL 1
REMARK VINA RESULT:    -3.865      0.000      0.000
REMARK INTER + INTRA:         -11.559
REMARK INTER:                  -8.384
REMARK INTRA:                  -3.175
REMARK UNBOUND:                -3.175
REMARK SMILES CCCCCCCCCCCCCCCCCCCCCC(=O)[O-]
REMARK SMILES IDX 12 1 11 2 10 3 9 4 8 5 7 6 6 7 5 8 4 9 3 10 2 11 1 12 13 13
REMARK SMILES IDX 14 14 15 15 16 16 17 17 18 18 19 19 20 20 21 21 22 22 23 23
REMARK SMILES IDX 24 24
REMARK H PARENT
REMARK Flexibility Score: inf
ROOT
ATOM      1  C   UNL     1      19.923  -1.151  55.746  1.00  0.00     0.000 C 
ENDROOT
BRANCH   1   2
ATOM      2  C   UNL     1      21.316  -0.791  56.297  1.00  0.00     0.000 C 
BRANCH   2   3
ATOM      3  C   UNL     1      22.504  -1.322  55.476  1.00  0.00     0.000 C 
BRANCH   3   4
ATOM      4  C   UNL     1      23.417  -2.263  56.277  1.00  0.00    -0.000 C 
BRANCH   4   5
ATOM      5  C   UNL     1      23.824  -3.484  55.440  1.00  0.00    -0.000 C 
BRANCH   5   6
ATOM      6  C   UNL     1      22.944  -3.657  54.185  1.00  0.00    -0.000 C 
BRANCH   6   7
ATOM      7  C   UNL     1      23.659  -4.359  53.019  1.00  0.00    -0.000 C 
BRANCH   7   8
ATOM      8  C   UNL     1      24.502  -5.564  53.471  1.00  0.00    -0.000 C 
BRANCH   8   9
ATOM      9  C   UNL     1      25.707  -5.818  52.552  1.00  0.00    -0.000 C 
BRANCH   9  10
ATOM     10  C   UNL     1      26.984  -6.167  53.336  1.00  0.00    -0.000 C 
BRANCH  10  11
ATOM     11  C   UNL     1      28.263  -5.899  52.527  1.00  0.00    -0.003 C 
ATOM     12  C   UNL     1      29.269  -7.048  52.613  1.00  0.00     0.004 C 
ENDBRANCH  10  11
ENDBRANCH   9  10
ENDBRANCH   8   9
ENDBRANCH   7   8
ENDBRANCH   6   7
ENDBRANCH   5   6
ENDBRANCH   4   5
ENDBRANCH   3   4
ENDBRANCH   2   3
ENDBRANCH   1   2
BRANCH   1  13
ATOM     13  C   UNL     1      19.197  -2.207  56.595  1.00  0.00     0.000 C 
BRANCH  13  14
ATOM     14  C   UNL     1      19.609  -3.647  56.240  1.00  0.00     0.000 C 
BRANCH  14  15
ATOM     15  C   UNL     1      20.505  -4.353  57.278  1.00  0.00     0.000 C 
BRANCH  15  16
ATOM     16  C   UNL     1      21.099  -5.698  56.822  1.00  0.00     0.000 C 
BRANCH  16  17
ATOM     17  C   UNL     1      20.318  -6.331  55.661  1.00  0.00     0.000 C 
BRANCH  17  18
ATOM     18  C   UNL     1      21.274  -6.937  54.623  1.00  0.00     0.000 C 
BRANCH  18  19
ATOM     19  C   UNL     1      20.780  -6.758  53.176  1.00  0.00     0.000 C 
BRANCH  19  20
ATOM     20  C   UNL     1      19.903  -5.513  52.933  1.00  0.00     0.006 C 
BRANCH  20  21
ATOM     21  C   UNL     1      19.164  -5.505  51.586  1.00  0.00     0.053 C 
BRANCH  21  22
ATOM     22  C   UNL     1      19.998  -4.915  50.491  1.00  0.00     0.041 C 
ATOM     23  O   UNL     1      19.817  -5.269  49.296  1.00  0.00    -0.550 OA
ATOM     24  O   UNL     1      20.945  -3.942  50.784  1.00  0.00    -0.550 OA
ENDBRANCH  21  22
ENDBRANCH  20  21
ENDBRANCH  19  20
ENDBRANCH  18  19
ENDBRANCH  17  18
ENDBRANCH  16  17
ENDBRANCH  15  16
ENDBRANCH  14  15
ENDBRANCH  13  14
ENDBRANCH   1  13
TORSDOF 20
ENDMDL
MODEL 2
REMARK VINA RESULT:    -3.837     14.241     16.247
REMARK INTER + INTRA:         -11.498
REMARK INTER:                  -8.399
REMARK INTRA:                  -3.099
REMARK UNBOUND:                -3.175
REMARK SMILES CCCCCCCCCCCCCCCCCCCCCC(=O)[O-]
REMARK SMILES IDX 12 1 11 2 10 3 9 4 8 5 7 6 6 7 5 8 4 9 3 10 2 11 1 12 13 13
REMARK SMILES IDX 14 14 15 15 16 16 17 17 18 18 19 19 20 20 21 21 22 22 23 23
REMARK SMILES IDX 24 24
REMARK H PARENT
REMARK Flexibility Score: inf
ROOT
ATOM      1  C   UNL     1      31.530   7.498  43.904  1.00  0.00     0.000 C 
ENDROOT
BRANCH   1   2
ATOM      2  C   UNL     1      32.065   6.054  43.928  1.00  0.00     0.000 C 
BRANCH   2   3
ATOM      3  C   UNL     1      31.078   4.980  43.439  1.00  0.00     0.000 C 
BRANCH   3   4
ATOM      4  C   UNL     1      30.340   4.273  44.587  1.00  0.00    -0.000 C 
BRANCH   4   5
ATOM      5  C   UNL     1      28.823   4.487  44.484  1.00  0.00    -0.000 C 
BRANCH   5   6
ATOM      6  C   UNL     1      28.189   4.867  45.838  1.00  0.00    -0.000 C 
BRANCH   6   7
ATOM      7  C   UNL     1      28.310   6.361  46.180  1.00  0.00    -0.000 C 
BRANCH   7   8
ATOM      8  C   UNL     1      29.060   6.616  47.498  1.00  0.00    -0.000 C 
BRANCH   8   9
ATOM      9  C   UNL     1      30.580   6.720  47.302  1.00  0.00    -0.000 C 
BRANCH   9  10
ATOM     10  C   UNL     1      31.343   5.562  47.970  1.00  0.00    -0.000 C 
BRANCH  10  11
ATOM     11  C   UNL     1      30.605   5.001  49.196  1.00  0.00    -0.003 C 
ATOM     12  C   UNL     1      31.417   3.942  49.941  1.00  0.00     0.004 C 
ENDBRANCH  10  11
ENDBRANCH   9  10
ENDBRANCH   8   9
ENDBRANCH   7   8
ENDBRANCH   6   7
ENDBRANCH   5   6
ENDBRANCH   4   5
ENDBRANCH   3   4
ENDBRANCH   2   3
ENDBRANCH   1   2
BRANCH   1  13
ATOM     13  C   UNL     1      30.644   7.788  42.681  1.00  0.00     0.000 C 
BRANCH  13  14
ATOM     14  C   UNL     1      29.197   8.153  43.064  1.00  0.00     0.000 C 
BRANCH  14  15
ATOM     15  C   UNL     1      28.104   7.562  42.151  1.00  0.00     0.000 C 
BRANCH  15  16
ATOM     16  C   UNL     1      28.511   6.296  41.378  1.00  0.00     0.000 C 
BRANCH  16  17
ATOM     17  C   UNL     1      27.337   5.331  41.153  1.00  0.00     0.000 C 
BRANCH  17  18
ATOM     18  C   UNL     1      26.023   5.936  41.669  1.00  0.00     0.000 C 
BRANCH  18  19
ATOM     19  C   UNL     1      24.777   5.203  41.140  1.00  0.00     0.000 C 
BRANCH  19  20
ATOM     20  C   UNL     1      24.900   3.667  41.074  1.00  0.00     0.006 C 
BRANCH  20  21
ATOM     21  C   UNL     1      24.843   3.082  39.654  1.00  0.00     0.053 C 
BRANCH  21  22
ATOM     22  C   UNL     1      23.715   2.110  39.491  1.00  0.00     0.041 C 
ATOM     23  O   UNL     1      23.938   0.949  39.055  1.00  0.00    -0.550 OA
ATOM     24  O   UNL     1      22.426   2.469  39.864  1.00  0.00    -0.550 OA
ENDBRANCH  21  22
ENDBRANCH  20  21
ENDBRANCH  19  20
ENDBRANCH  18  19
ENDBRANCH  17  18
ENDBRANCH  16  17
ENDBRANCH  15  16
ENDBRANCH  14  15
ENDBRANCH  13  14
ENDBRANCH   1  13
TORSDOF 20
ENDMDL
MODEL 3
REMARK VINA RESULT:    -3.812     13.230     14.956
REMARK INTER + INTRA:         -11.443
REMARK INTER:                  -8.673
REMARK INTRA:                  -2.771
REMARK UNBOUND:                -3.175
REMARK SMILES CCCCCCCCCCCCCCCCCCCCCC(=O)[O-]
REMARK SMILES IDX 12 1 11 2 10 3 9 4 8 5 7 6 6 7 5 8 4 9 3 10 2 11 1 12 13 13
REMARK SMILES IDX 14 14 15 15 16 16 17 17 18 18 19 19 20 20 21 21 22 22 23 23
REMARK SMILES IDX 24 24
REMARK H PARENT
REMARK Flexibility Score: inf
ROOT
ATOM      1  C   UNL     1      26.421   5.393  45.933  1.00  0.00     0.000 C 
ENDROOT
BRANCH   1   2
ATOM      2  C   UNL     1      27.393   4.439  46.653  1.00  0.00     0.000 C 
BRANCH   2   3
ATOM      3  C   UNL     1      27.506   4.642  48.174  1.00  0.00     0.000 C 
BRANCH   3   4
ATOM      4  C   UNL     1      28.595   5.650  48.568  1.00  0.00    -0.000 C 
BRANCH   4   5
ATOM      5  C   UNL     1      29.728   4.966  49.348  1.00  0.00    -0.000 C 
BRANCH   5   6
ATOM      6  C   UNL     1      31.088   5.077  48.628  1.00  0.00    -0.000 C 
BRANCH   6   7
ATOM      7  C   UNL     1      31.110   6.128  47.506  1.00  0.00    -0.000 C 
BRANCH   7   8
ATOM      8  C   UNL     1      31.607   5.562  46.164  1.00  0.00    -0.000 C 
BRANCH   8   9
ATOM      9  C   UNL     1      30.528   5.602  45.072  1.00  0.00    -0.000 C 
BRANCH   9  10
ATOM     10  C   UNL     1      30.362   4.250  44.355  1.00  0.00    -0.000 C 
BRANCH  10  11
ATOM     11  C   UNL     1      29.206   4.259  43.342  1.00  0.00    -0.003 C 
ATOM     12  C   UNL     1      29.183   5.522  42.482  1.00  0.00     0.004 C 
ENDBRANCH  10  11
ENDBRANCH   9  10
ENDBRANCH   8   9
ENDBRANCH   7   8
ENDBRANCH   6   7
ENDBRANCH   5   6
ENDBRANCH   4   5
ENDBRANCH   3   4
ENDBRANCH   2   3
ENDBRANCH   1   2
BRANCH   1  13
ATOM     13  C   UNL     1      27.125   6.617  45.323  1.00  0.00     0.000 C 
BRANCH  13  14
ATOM     14  C   UNL     1      26.327   7.250  44.168  1.00  0.00     0.000 C 
BRANCH  14  15
ATOM     15  C   UNL     1      25.060   6.482  43.740  1.00  0.00     0.000 C 
BRANCH  15  16
ATOM     16  C   UNL     1      24.997   6.104  42.250  1.00  0.00     0.000 C 
BRANCH  16  17
ATOM     17  C   UNL     1      25.211   4.602  42.006  1.00  0.00     0.000 C 
BRANCH  17  18
ATOM     18  C   UNL     1      26.118   4.368  40.790  1.00  0.00     0.000 C 
BRANCH  18  19
ATOM     19  C   UNL     1      25.551   3.324  39.811  1.00  0.00     0.000 C 
BRANCH  19  20
ATOM     20  C   UNL     1      24.013   3.219  39.784  1.00  0.00     0.006 C 
BRANCH  20  21
ATOM     21  C   UNL     1      23.468   2.032  38.975  1.00  0.00     0.053 C 
BRANCH  21  22
ATOM     22  C   UNL     1      23.553   0.745  39.737  1.00  0.00     0.041 C 
ATOM     23  O   UNL     1      23.998  -0.292  39.179  1.00  0.00    -0.550 OA
ATOM     24  O   UNL     1      23.184   0.703  41.076  1.00  0.00    -0.550 OA
ENDBRANCH  21  22
ENDBRANCH  20  21
ENDBRANCH  19  20
ENDBRANCH  18  19
ENDBRANCH  17  18
ENDBRANCH  16  17
ENDBRANCH  15  16
ENDBRANCH  14  15
ENDBRANCH  13  14
ENDBRANCH   1  13
TORSDOF 20
ENDMDL
MODEL 4
REMARK VINA RESULT:    -3.785     13.653     15.356
REMARK INTER + INTRA:         -11.385
REMARK INTER:                  -8.683
REMARK INTRA:                  -2.702
REMARK UNBOUND:                -3.175
REMARK SMILES CCCCCCCCCCCCCCCCCCCCCC(=O)[O-]
REMARK SMILES IDX 12 1 11 2 10 3 9 4 8 5 7 6 6 7 5 8 4 9 3 10 2 11 1 12 13 13
REMARK SMILES IDX 14 14 15 15 16 16 17 17 18 18 19 19 20 20 21 21 22 22 23 23
REMARK SMILES IDX 24 24
REMARK H PARENT
REMARK Flexibility Score: inf
ROOT
ATOM      1  C   UNL     1      30.793   5.579  48.698  1.00  0.00     0.000 C 
ENDROOT
BRANCH   1   2
ATOM      2  C   UNL     1      30.695   6.141  47.267  1.00  0.00     0.000 C 
BRANCH   2   3
ATOM      3  C   UNL     1      31.372   5.287  46.180  1.00  0.00     0.000 C 
BRANCH   3   4
ATOM      4  C   UNL     1      31.695   6.080  44.905  1.00  0.00    -0.000 C 
BRANCH   4   5
ATOM      5  C   UNL     1      31.306   5.290  43.647  1.00  0.00    -0.000 C 
BRANCH   5   6
ATOM      6  C   UNL     1      30.367   4.107  43.963  1.00  0.00    -0.000 C 
BRANCH   6   7
ATOM      7  C   UNL     1      29.216   3.945  42.957  1.00  0.00    -0.000 C 
BRANCH   7   8
ATOM      8  C   UNL     1      29.074   5.149  42.009  1.00  0.00    -0.000 C 
BRANCH   8   9
ATOM      9  C   UNL     1      28.774   4.728  40.563  1.00  0.00    -0.000 C 
BRANCH   9  10
ATOM     10  C   UNL     1      29.731   5.380  39.548  1.00  0.00    -0.000 C 
BRANCH  10  11
ATOM     11  C   UNL     1      31.181   4.897  39.711  1.00  0.00    -0.003 C 
ATOM     12  C   UNL     1      32.151   6.035  40.031  1.00  0.00     0.004 C 
ENDBRANCH  10  11
ENDBRANCH   9  10
ENDBRANCH   8   9
ENDBRANCH   7   8
ENDBRANCH   6   7
ENDBRANCH   5   6
ENDBRANCH   4   5
ENDBRANCH   3   4
ENDBRANCH   2   3
ENDBRANCH   1   2
BRANCH   1  13
ATOM     13  C   UNL     1      29.503   4.878  49.156  1.00  0.00     0.000 C 
BRANCH  13  14
ATOM     14  C   UNL     1      28.232   5.524  48.574  1.00  0.00     0.000 C 
BRANCH  14  15
ATOM     15  C   UNL     1      27.337   4.586  47.739  1.00  0.00     0.000 C 
BRANCH  15  16
ATOM     16  C   UNL     1      27.483   4.731  46.214  1.00  0.00     0.000 C 
BRANCH  16  17
ATOM     17  C   UNL     1      26.419   3.942  45.436  1.00  0.00     0.000 C 
BRANCH  17  18
ATOM     18  C   UNL     1      25.909   4.748  44.232  1.00  0.00     0.000 C 
BRANCH  18  19
ATOM     19  C   UNL     1      25.154   3.882  43.208  1.00  0.00     0.000 C 
BRANCH  19  20
ATOM     20  C   UNL     1      25.175   4.412  41.760  1.00  0.00     0.006 C 
BRANCH  20  21
ATOM     21  C   UNL     1      24.720   3.396  40.701  1.00  0.00     0.053 C 
BRANCH  21  22
ATOM     22  C   UNL     1      23.391   2.792  41.035  1.00  0.00     0.041 C 
ATOM     23  O   UNL     1      22.362   3.516  41.088  1.00  0.00    -0.550 OA
ATOM     24  O   UNL     1      23.281   1.423  41.244  1.00  0.00    -0.550 OA
ENDBRANCH  21  22
ENDBRANCH  20  21
ENDBRANCH  19  20
ENDBRANCH  18  19
ENDBRANCH  17  18
ENDBRANCH  16  17
ENDBRANCH  15  16
ENDBRANCH  14  15
ENDBRANCH  13  14
ENDBRANCH   1  13
TORSDOF 20
ENDMDL
MODEL 5
REMARK VINA RESULT:    -3.731     16.775     19.236
REMARK INTER + INTRA:         -11.267
REMARK INTER:                  -8.960
REMARK INTRA:                  -2.307
REMARK UNBOUND:                -3.175
REMARK SMILES CCCCCCCCCCCCCCCCCCCCCC(=O)[O-]
REMARK SMILES IDX 12 1 11 2 10 3 9 4 8 5 7 6 6 7 5 8 4 9 3 10 2 11 1 12 13 13
REMARK SMILES IDX 14 14 15 15 16 16 17 17 18 18 19 19 20 20 21 21 22 22 23 23
REMARK SMILES IDX 24 24
REMARK H PARENT
REMARK Flexibility Score: inf
ROOT
ATOM      1  C   UNL     1      28.213   7.925  41.674  1.00  0.00     0.000 C 
ENDROOT
BRANCH   1   2
ATOM      2  C   UNL     1      29.191   6.740  41.786  1.00  0.00     0.000 C 
BRANCH   2   3
ATOM      3  C   UNL     1      30.196   6.827  42.949  1.00  0.00     0.000 C 
BRANCH   3   4
ATOM      4  C   UNL     1      30.980   5.524  43.165  1.00  0.00    -0.000 C 
BRANCH   4   5
ATOM      5  C   UNL     1      31.864   5.612  44.418  1.00  0.00    -0.000 C 
BRANCH   5   6
ATOM      6  C   UNL     1      32.178   7.069  44.815  1.00  0.00    -0.000 C 
BRANCH   6   7
ATOM      7  C   UNL     1      31.879   7.387  46.290  1.00  0.00    -0.000 C 
BRANCH   7   8
ATOM      8  C   UNL     1      30.810   6.463  46.897  1.00  0.00    -0.000 C 
BRANCH   8   9
ATOM      9  C   UNL     1      31.393   5.481  47.924  1.00  0.00    -0.000 C 
BRANCH   9  10
ATOM     10  C   UNL     1      30.441   5.228  49.107  1.00  0.00    -0.000 C 
BRANCH  10  11
ATOM     11  C   UNL     1      30.847   4.000  49.937  1.00  0.00    -0.003 C 
ATOM     12  C   UNL     1      32.233   3.471  49.571  1.00  0.00     0.004 C 
ENDBRANCH  10  11
ENDBRANCH   9  10
ENDBRANCH   8   9
ENDBRANCH   7   8
ENDBRANCH   6   7
ENDBRANCH   5   6
ENDBRANCH   4   5
ENDBRANCH   3   4
ENDBRANCH   2   3
ENDBRANCH   1   2
BRANCH   1  13
ATOM     13  C   UNL     1      28.436   8.768  40.407  1.00  0.00     0.000 C 
BRANCH  13  14
ATOM     14  C   UNL     1      29.823   8.546  39.777  1.00  0.00     0.000 C 
BRANCH  14  15
ATOM     15  C   UNL     1      29.814   8.037  38.321  1.00  0.00     0.000 C 
BRANCH  15  16
ATOM     16  C   UNL     1      30.877   6.973  37.993  1.00  0.00     0.000 C 
BRANCH  16  17
ATOM     17  C   UNL     1      30.554   5.600  38.603  1.00  0.00     0.000 C 
BRANCH  17  18
ATOM     18  C   UNL     1      31.653   5.162  39.581  1.00  0.00     0.000 C 
BRANCH  18  19
ATOM     19  C   UNL     1      32.769   6.211  39.737  1.00  0.00     0.000 C 
BRANCH  19  20
ATOM     20  C   UNL     1      33.808   5.903  40.834  1.00  0.00     0.006 C 
BRANCH  20  21
ATOM     21  C   UNL     1      34.592   4.598  40.623  1.00  0.00     0.053 C 
BRANCH  21  22
ATOM     22  C   UNL     1      35.611   4.725  39.533  1.00  0.00     0.041 C 
ATOM     23  O   UNL     1      36.016   3.699  38.923  1.00  0.00    -0.550 OA
ATOM     24  O   UNL     1      36.079   5.978  39.159  1.00  0.00    -0.550 OA
ENDBRANCH  21  22
ENDBRANCH  20  21
ENDBRANCH  19  20
ENDBRANCH  18  19
ENDBRANCH  17  18
ENDBRANCH  16  17
ENDBRANCH  15  16
ENDBRANCH  14  15
ENDBRANCH  13  14
ENDBRANCH   1  13
TORSDOF 20
ENDMDL
MODEL 6
REMARK VINA RESULT:    -3.725     11.476     13.693
REMARK INTER + INTRA:         -11.255
REMARK INTER:                  -7.537
REMARK INTRA:                  -3.718
REMARK UNBOUND:                -3.175
REMARK SMILES CCCCCCCCCCCCCCCCCCCCCC(=O)[O-]
REMARK SMILES IDX 12 1 11 2 10 3 9 4 8 5 7 6 6 7 5 8 4 9 3 10 2 11 1 12 13 13
REMARK SMILES IDX 14 14 15 15 16 16 17 17 18 18 19 19 20 20 21 21 22 22 23 23
REMARK SMILES IDX 24 24
REMARK H PARENT
REMARK Flexibility Score: inf
ROOT
ATOM      1  C   UNL     1      27.255   5.288  47.867  1.00  0.00     0.000 C 
ENDROOT
BRANCH   1   2
ATOM      2  C   UNL     1      27.275   6.735  48.391  1.00  0.00     0.000 C 
BRANCH   2   3
ATOM      3  C   UNL     1      25.903   7.308  48.790  1.00  0.00     0.000 C 
BRANCH   3   4
ATOM      4  C   UNL     1      24.725   6.483  48.249  1.00  0.00    -0.000 C 
BRANCH   4   5
ATOM      5  C   UNL     1      23.768   6.077  49.379  1.00  0.00    -0.000 C 
BRANCH   5   6
ATOM      6  C   UNL     1      23.564   4.550  49.456  1.00  0.00    -0.000 C 
BRANCH   6   7
ATOM      7  C   UNL     1      24.749   3.798  50.085  1.00  0.00    -0.000 C 
BRANCH   7   8
ATOM      8  C   UNL     1      25.127   2.523  49.313  1.00  0.00    -0.000 C 
BRANCH   8   9
ATOM      9  C   UNL     1      23.971   1.989  48.454  1.00  0.00    -0.000 C 
BRANCH   9  10
ATOM     10  C   UNL     1      24.415   1.629  47.025  1.00  0.00    -0.000 C 
BRANCH  10  11
ATOM     11  C   UNL     1      25.292   2.720  46.388  1.00  0.00    -0.003 C 
ATOM     12  C   UNL     1      24.470   3.819  45.714  1.00  0.00     0.004 C 
ENDBRANCH  10  11
ENDBRANCH   9  10
ENDBRANCH   8   9
ENDBRANCH   7   8
ENDBRANCH   6   7
ENDBRANCH   5   6
ENDBRANCH   4   5
ENDBRANCH   3   4
ENDBRANCH   2   3
ENDBRANCH   1   2
BRANCH   1  13
ATOM     13  C   UNL     1      28.308   4.392  48.539  1.00  0.00     0.000 C 
BRANCH  13  14
ATOM     14  C   UNL     1      29.241   5.171  49.484  1.00  0.00     0.000 C 
BRANCH  14  15
ATOM     15  C   UNL     1      30.745   4.871  49.324  1.00  0.00     0.000 C 
BRANCH  15  16
ATOM     16  C   UNL     1      31.491   5.782  48.334  1.00  0.00     0.000 C 
BRANCH  16  17
ATOM     17  C   UNL     1      31.132   5.491  46.869  1.00  0.00     0.000 C 
BRANCH  17  18
ATOM     18  C   UNL     1      30.406   6.686  46.234  1.00  0.00     0.000 C 
BRANCH  18  19
ATOM     19  C   UNL     1      29.848   6.373  44.834  1.00  0.00     0.000 C 
BRANCH  19  20
ATOM     20  C   UNL     1      29.514   4.889  44.579  1.00  0.00     0.006 C 
BRANCH  20  21
ATOM     21  C   UNL     1      28.014   4.589  44.427  1.00  0.00     0.053 C 
BRANCH  21  22
ATOM     22  C   UNL     1      27.660   4.186  43.029  1.00  0.00     0.041 C 
ATOM     23  O   UNL     1      28.568   3.912  42.200  1.00  0.00    -0.550 OA
ATOM     24  O   UNL     1      26.328   4.069  42.655  1.00  0.00    -0.550 OA
ENDBRANCH  21  22
ENDBRANCH  20  21
ENDBRANCH  19  20
ENDBRANCH  18  19
ENDBRANCH  17  18
ENDBRANCH  16  17
ENDBRANCH  15  16
ENDBRANCH  14  15
ENDBRANCH  13  14
ENDBRANCH   1  13
TORSDOF 20
ENDMDL
MODEL 7
REMARK VINA RESULT:    -3.694     15.653     18.414
REMARK INTER + INTRA:         -11.188
REMARK INTER:                  -8.740
REMARK INTRA:                  -2.448
REMARK UNBOUND:                -3.175
REMARK SMILES CCCCCCCCCCCCCCCCCCCCCC(=O)[O-]
REMARK SMILES IDX 12 1 11 2 10 3 9 4 8 5 7 6 6 7 5 8 4 9 3 10 2 11 1 12 13 13
REMARK SMILES IDX 14 14 15 15 16 16 17 17 18 18 19 19 20 20 21 21 22 22 23 23
REMARK SMILES IDX 24 24
REMARK H PARENT
REMARK Flexibility Score: inf
ROOT
ATOM      1  C   UNL     1      28.813   4.242  39.990  1.00  0.00     0.000 C 
ENDROOT
BRANCH   1   2
ATOM      2  C   UNL     1      28.928   4.915  41.371  1.00  0.00     0.000 C 
BRANCH   2   3
ATOM      3  C   UNL     1      28.249   4.159  42.527  1.00  0.00     0.000 C 
BRANCH   3   4
ATOM      4  C   UNL     1      28.770   4.579  43.910  1.00  0.00    -0.000 C 
BRANCH   4   5
ATOM      5  C   UNL     1      30.255   4.223  44.072  1.00  0.00    -0.000 C 
BRANCH   5   6
ATOM      6  C   UNL     1      30.918   4.985  45.238  1.00  0.00    -0.000 C 
BRANCH   6   7
ATOM      7  C   UNL     1      30.112   6.203  45.720  1.00  0.00    -0.000 C 
BRANCH   7   8
ATOM      8  C   UNL     1      30.294   6.487  47.220  1.00  0.00    -0.000 C 
BRANCH   8   9
ATOM      9  C   UNL     1      29.176   5.873  48.077  1.00  0.00    -0.000 C 
BRANCH   9  10
ATOM     10  C   UNL     1      29.720   4.992  49.215  1.00  0.00    -0.000 C 
BRANCH  10  11
ATOM     11  C   UNL     1      31.254   5.029  49.306  1.00  0.00    -0.003 C 
ATOM     12  C   UNL     1      31.859   3.666  49.645  1.00  0.00     0.004 C 
ENDBRANCH  10  11
ENDBRANCH   9  10
ENDBRANCH   8   9
ENDBRANCH   7   8
ENDBRANCH   6   7
ENDBRANCH   5   6
ENDBRANCH   4   5
ENDBRANCH   3   4
ENDBRANCH   2   3
ENDBRANCH   1   2
BRANCH   1  13
ATOM     13  C   UNL     1      29.941   4.651  39.028  1.00  0.00     0.000 C 
BRANCH  13  14
ATOM     14  C   UNL     1      30.808   5.799  39.577  1.00  0.00     0.000 C 
BRANCH  14  15
ATOM     15  C   UNL     1      32.266   5.424  39.913  1.00  0.00     0.000 C 
BRANCH  15  16
ATOM     16  C   UNL     1      32.606   5.401  41.414  1.00  0.00     0.000 C 
BRANCH  16  17
ATOM     17  C   UNL     1      33.377   6.650  41.869  1.00  0.00     0.000 C 
BRANCH  17  18
ATOM     18  C   UNL     1      32.573   7.441  42.911  1.00  0.00     0.000 C 
BRANCH  18  19
ATOM     19  C   UNL     1      33.252   7.473  44.293  1.00  0.00     0.000 C 
BRANCH  19  20
ATOM     20  C   UNL     1      33.815   8.845  44.714  1.00  0.00     0.006 C 
BRANCH  20  21
ATOM     21  C   UNL     1      32.859  10.026  44.481  1.00  0.00     0.053 C 
BRANCH  21  22
ATOM     22  C   UNL     1      32.192  10.469  45.747  1.00  0.00     0.041 C 
ATOM     23  O   UNL     1      32.718  11.363  46.460  1.00  0.00    -0.550 OA
ATOM     24  O   UNL     1      30.968   9.926  46.116  1.00  0.00    -0.550 OA
ENDBRANCH  21  22
ENDBRANCH  20  21
ENDBRANCH  19  20
ENDBRANCH  18  19
ENDBRANCH  17  18
ENDBRANCH  16  17
ENDBRANCH  15  16
ENDBRANCH  14  15
ENDBRANCH  13  14
ENDBRANCH   1  13
TORSDOF 20
ENDMDL
MODEL 8
REMARK VINA RESULT:    -3.650     11.337     12.845
REMARK INTER + INTRA:         -11.092
REMARK INTER:                  -9.004
REMARK INTRA:                  -2.088
REMARK UNBOUND:                -3.175
REMARK SMILES CCCCCCCCCCCCCCCCCCCCCC(=O)[O-]
REMARK SMILES IDX 12 1 11 2 10 3 9 4 8 5 7 6 6 7 5 8 4 9 3 10 2 11 1 12 13 13
REMARK SMILES IDX 14 14 15 15 16 16 17 17 18 18 19 19 20 20 21 21 22 22 23 23
REMARK SMILES IDX 24 24
REMARK H PARENT
REMARK Flexibility Score: inf
ROOT
ATOM      1  C   UNL     1      28.165   4.612  48.874  1.00  0.00     0.000 C 
ENDROOT
BRANCH   1   2
ATOM      2  C   UNL     1      29.302   5.620  49.124  1.00  0.00     0.000 C 
BRANCH   2   3
ATOM      3  C   UNL     1      30.713   5.009  49.208  1.00  0.00     0.000 C 
BRANCH   3   4
ATOM      4  C   UNL     1      31.506   5.144  47.899  1.00  0.00    -0.000 C 
BRANCH   4   5
ATOM      5  C   UNL     1      31.233   6.495  47.222  1.00  0.00    -0.000 C 
BRANCH   5   6
ATOM      6  C   UNL     1      31.167   6.381  45.685  1.00  0.00    -0.000 C 
BRANCH   6   7
ATOM      7  C   UNL     1      30.760   4.985  45.185  1.00  0.00    -0.000 C 
BRANCH   7   8
ATOM      8  C   UNL     1      29.523   5.012  44.272  1.00  0.00    -0.000 C 
BRANCH   8   9
ATOM      9  C   UNL     1      29.741   4.245  42.960  1.00  0.00    -0.000 C 
BRANCH   9  10
ATOM     10  C   UNL     1      30.471   5.086  41.898  1.00  0.00    -0.000 C 
BRANCH  10  11
ATOM     11  C   UNL     1      29.786   5.023  40.523  1.00  0.00    -0.003 C 
ATOM     12  C   UNL     1      30.766   4.733  39.386  1.00  0.00     0.004 C 
ENDBRANCH  10  11
ENDBRANCH   9  10
ENDBRANCH   8   9
ENDBRANCH   7   8
ENDBRANCH   6   7
ENDBRANCH   5   6
ENDBRANCH   4   5
ENDBRANCH   3   4
ENDBRANCH   2   3
ENDBRANCH   1   2
BRANCH   1  13
ATOM     13  C   UNL     1      27.648   4.639  47.426  1.00  0.00     0.000 C 
BRANCH  13  14
ATOM     14  C   UNL     1      26.171   4.219  47.310  1.00  0.00     0.000 C 
BRANCH  14  15
ATOM     15  C   UNL     1      25.226   4.828  48.367  1.00  0.00     0.000 C 
BRANCH  15  16
ATOM     16  C   UNL     1      24.388   3.809  49.159  1.00  0.00     0.000 C 
BRANCH  16  17
ATOM     17  C   UNL     1      25.249   2.759  49.876  1.00  0.00     0.000 C 
BRANCH  17  18
ATOM     18  C   UNL     1      24.832   1.338  49.470  1.00  0.00     0.000 C 
BRANCH  18  19
ATOM     19  C   UNL     1      23.466   1.294  48.762  1.00  0.00     0.000 C 
BRANCH  19  20
ATOM     20  C   UNL     1      23.492   0.740  47.324  1.00  0.00     0.006 C 
BRANCH  20  21
ATOM     21  C   UNL     1      24.863   0.218  46.865  1.00  0.00     0.053 C 
BRANCH  21  22
ATOM     22  C   UNL     1      24.942  -1.277  46.916  1.00  0.00     0.041 C 
ATOM     23  O   UNL     1      23.888  -1.967  46.898  1.00  0.00    -0.550 OA
ATOM     24  O   UNL     1      26.178  -1.909  46.937  1.00  0.00    -0.550 OA
ENDBRANCH  21  22
ENDBRANCH  20  21
ENDBRANCH  19  20
ENDBRANCH  18  19
ENDBRANCH  17  18
ENDBRANCH  16  17
ENDBRANCH  15  16
ENDBRANCH  14  15
ENDBRANCH  13  14
ENDBRANCH   1  13
TORSDOF 20
ENDMDL
MODEL 9
REMARK VINA RESULT:    -3.642      4.444      8.281
REMARK INTER + INTRA:         -11.074
REMARK INTER:                  -8.230
REMARK INTRA:                  -2.844
REMARK UNBOUND:                -3.175
REMARK SMILES CCCCCCCCCCCCCCCCCCCCCC(=O)[O-]
REMARK SMILES IDX 12 1 11 2 10 3 9 4 8 5 7 6 6 7 5 8 4 9 3 10 2 11 1 12 13 13
REMARK SMILES IDX 14 14 15 15 16 16 17 17 18 18 19 19 20 20 21 21 22 22 23 23
REMARK SMILES IDX 24 24
REMARK H PARENT
REMARK Flexibility Score: inf
ROOT
ATOM      1  C   UNL     1      23.885  -6.476  46.840  1.00  0.00     0.000 C 
ENDROOT
BRANCH   1   2
ATOM      2  C   UNL     1      22.604  -7.082  46.237  1.00  0.00     0.000 C 
BRANCH   2   3
ATOM      3  C   UNL     1      21.817  -6.150  45.297  1.00  0.00     0.000 C 
BRANCH   3   4
ATOM      4  C   UNL     1      20.403  -5.835  45.807  1.00  0.00    -0.000 C 
BRANCH   4   5
ATOM      5  C   UNL     1      20.251  -4.340  46.126  1.00  0.00    -0.000 C 
BRANCH   5   6
ATOM      6  C   UNL     1      21.192  -3.459  45.279  1.00  0.00    -0.000 C 
BRANCH   6   7
ATOM      7  C   UNL     1      21.759  -2.249  46.039  1.00  0.00    -0.000 C 
BRANCH   7   8
ATOM      8  C   UNL     1      21.061  -2.009  47.389  1.00  0.00    -0.000 C 
BRANCH   8   9
ATOM      9  C   UNL     1      21.516  -0.706  48.064  1.00  0.00    -0.000 C 
BRANCH   9  10
ATOM     10  C   UNL     1      23.035  -0.482  47.953  1.00  0.00    -0.000 C 
BRANCH  10  11
ATOM     11  C   UNL     1      23.694  -0.230  49.319  1.00  0.00    -0.003 C 
ATOM     12  C   UNL     1      25.046  -0.929  49.461  1.00  0.00     0.004 C 
ENDBRANCH  10  11
ENDBRANCH   9  10
ENDBRANCH   8   9
ENDBRANCH   7   8
ENDBRANCH   6   7
ENDBRANCH   5   6
ENDBRANCH   4   5
ENDBRANCH   3   4
ENDBRANCH   2   3
ENDBRANCH   1   2
BRANCH   1  13
ATOM     13  C   UNL     1      23.646  -5.112  47.508  1.00  0.00     0.000 C 
BRANCH  13  14
ATOM     14  C   UNL     1      22.981  -5.231  48.892  1.00  0.00     0.000 C 
BRANCH  14  15
ATOM     15  C   UNL     1      22.913  -3.924  49.707  1.00  0.00     0.000 C 
BRANCH  15  16
ATOM     16  C   UNL     1      23.585  -3.981  51.090  1.00  0.00     0.000 C 
BRANCH  16  17
ATOM     17  C   UNL     1      24.129  -5.377  51.432  1.00  0.00     0.000 C 
BRANCH  17  18
ATOM     18  C   UNL     1      23.846  -5.732  52.899  1.00  0.00     0.000 C 
BRANCH  18  19
ATOM     19  C   UNL     1      22.811  -4.797  53.552  1.00  0.00     0.000 C 
BRANCH  19  20
ATOM     20  C   UNL     1      23.361  -3.897  54.677  1.00  0.00     0.006 C 
BRANCH  20  21
ATOM     21  C   UNL     1      23.040  -2.403  54.514  1.00  0.00     0.053 C 
BRANCH  21  22
ATOM     22  C   UNL     1      22.813  -1.729  55.832  1.00  0.00     0.041 C 
ATOM     23  O   UNL     1      22.211  -0.624  55.882  1.00  0.00    -0.550 OA
ATOM     24  O   UNL     1      23.227  -2.341  57.008  1.00  0.00    -0.550 OA
ENDBRANCH  21  22
ENDBRANCH  20  21
ENDBRANCH  19  20
ENDBRANCH  18  19
ENDBRANCH  17  18
ENDBRANCH  16  17
ENDBRANCH  15  16
ENDBRANCH  14  15
ENDBRANCH  13  14
ENDBRANCH   1  13
TORSDOF 20
ENDMDL
