MODEL 1
REMARK VINA RESULT:    25.271      0.000      0.000
REMARK INTER + INTRA:          44.010
REMARK INTER:                  41.521
REMARK INTRA:                   2.489
REMARK UNBOUND:                 2.489
REMARK SMILES C[C@H]1O[C@@H](OC[C@H]2O[C@H](Oc3c(-c4ccc(O)c(O)c4)oc4cc(O)cc(O)c4c3=O)[C@@H](O)[C@@H](O)[C@H]2O)[C@H](O)[C@@H](O)[C@H]1O
REMARK SMILES IDX 7 1 36 2 34 3 32 4 9 5 8 6 6 7 5 8 4 9 1 10 2 11 42 12 3 13
REMARK SMILES IDX 40 14 38 15 43 16 41 18 39 20 37 22 35 24 10 26 11 27 12 28
REMARK SMILES IDX 30 29 21 30 29 31 31 32 22 33 27 34 23 35 26 36 24 37 13 38
REMARK SMILES IDX 20 39 14 40 18 41 15 42 16 43 19 44 17 46 28 48 25 50 33 52
REMARK H PARENT 43 17 41 19 39 21 37 23 35 25 19 45 17 47 28 49 25 51 33 53
REMARK Flexibility Score: inf
ROOT
ATOM      1  C   UNL     1     112.722 109.430 109.165  1.00  0.00     0.180 C 
ATOM      2  C   UNL     1     113.125 110.711 108.375  1.00  0.00     0.177 C 
ATOM      3  C   UNL     1     112.681 110.641 106.885  1.00  0.00     0.180 C 
ATOM      4  C   UNL     1     112.271 109.206 106.510  1.00  0.00     0.214 C 
ATOM      5  C   UNL     1     111.202 108.671 107.510  1.00  0.00     0.339 C 
ATOM      6  O   UNL     1     111.385 109.072 108.867  1.00  0.00    -0.332 OA
ENDROOT
BRANCH   1   7
ATOM      7  C   UNL     1     112.861 109.624 110.681  1.00  0.00     0.198 C 
BRANCH   7   8
ATOM      8  O   UNL     1     111.637 110.110 111.210  1.00  0.00    -0.347 OA
BRANCH   8   9
ATOM      9  C   UNL     1     111.351 109.591 112.499  1.00  0.00     0.281 C 
ATOM     10  C   UNL     1     112.273 106.442 114.125  1.00  0.00     0.041 C 
ATOM     11  C   UNL     1     111.364 107.612 113.739  1.00  0.00     0.150 C 
ATOM     12  C   UNL     1     109.953 107.141 113.340  1.00  0.00     0.174 C 
ATOM     13  O   UNL     1     111.933 108.302 112.650  1.00  0.00    -0.344 OA
ATOM     14  C   UNL     1     109.078 108.336 112.854  1.00  0.00     0.179 C 
ATOM     15  C   UNL     1     109.823 109.700 112.850  1.00  0.00     0.202 C 
BRANCH  12  16
ATOM     16  O   UNL     1     110.048 106.168 112.324  1.00  0.00    -0.388 OA
ATOM     17  H   UNL     1     109.158 105.739 112.239  1.00  0.00     0.211 HD
ENDBRANCH  12  16
BRANCH  14  18
ATOM     18  O   UNL     1     108.549 108.099 111.572  1.00  0.00    -0.387 OA
ATOM     19  H   UNL     1     107.564 108.041 111.672  1.00  0.00     0.211 HD
ENDBRANCH  14  18
BRANCH  15  20
ATOM     20  O   UNL     1     109.695 110.298 114.119  1.00  0.00    -0.385 OA
ATOM     21  H   UNL     1     108.949 109.836 114.585  1.00  0.00     0.211 HD
ENDBRANCH  15  20
ENDBRANCH   8   9
ENDBRANCH   7   8
ENDBRANCH   1   7
BRANCH   2  22
ATOM     22  O   UNL     1     112.642 111.883 108.993  1.00  0.00    -0.387 OA
ATOM     23  H   UNL     1     112.866 111.828 109.961  1.00  0.00     0.211 HD
ENDBRANCH   2  22
BRANCH   3  24
ATOM     24  O   UNL     1     111.607 111.522 106.650  1.00  0.00    -0.387 OA
ATOM     25  H   UNL     1     111.419 111.992 107.503  1.00  0.00     0.211 HD
ENDBRANCH   3  24
BRANCH   5  26
ATOM     26  O   UNL     1     111.137 107.244 107.451  1.00  0.00    -0.454 OA
BRANCH  26  27
ATOM     27  C   UNL     1     109.972 106.547 107.095  1.00  0.00     0.214 A 
ATOM     28  C   UNL     1     108.714 107.176 107.040  1.00  0.00     0.180 A 
ATOM     29  C   UNL     1     110.064 105.189 106.769  1.00  0.00     0.239 A 
ATOM     30  O   UNL     1     107.656 106.499 106.612  1.00  0.00    -0.452 OA
ATOM     31  C   UNL     1     108.921 104.491 106.307  1.00  0.00     0.111 A 
ATOM     32  O   UNL     1     111.179 104.623 106.899  1.00  0.00    -0.285 OA
ATOM     33  C   UNL     1     107.703 105.222 106.252  1.00  0.00     0.146 A 
ATOM     34  C   UNL     1     108.905 103.118 105.906  1.00  0.00     0.134 A 
ATOM     35  C   UNL     1     106.521 104.607 105.834  1.00  0.00     0.094 A 
ATOM     36  C   UNL     1     107.695 102.526 105.521  1.00  0.00     0.093 A 
ATOM     37  C   UNL     1     106.512 103.259 105.476  1.00  0.00     0.123 A 
BRANCH  28  38
ATOM     38  C   UNL     1     108.516 108.574 107.471  1.00  0.00     0.025 A 
ATOM     39  C   UNL     1     109.027 109.002 108.704  1.00  0.00     0.062 A 
ATOM     40  C   UNL     1     107.816 109.480 106.662  1.00  0.00     0.016 A 
ATOM     41  C   UNL     1     108.812 110.317 109.142  1.00  0.00     0.158 A 
ATOM     42  C   UNL     1     107.618 110.794 107.086  1.00  0.00     0.051 A 
ATOM     43  C   UNL     1     108.101 111.216 108.328  1.00  0.00     0.157 A 
BRANCH  41  44
ATOM     44  O   UNL     1     109.295 110.730 110.383  1.00  0.00    -0.504 OA
ATOM     45  H   UNL     1     109.322 111.709 110.643  1.00  0.00     0.293 HD
ENDBRANCH  41  44
BRANCH  43  46
ATOM     46  O   UNL     1     107.864 112.527 108.740  1.00  0.00    -0.504 OA
ATOM     47  H   UNL     1     108.193 113.324 108.212  1.00  0.00     0.293 HD
ENDBRANCH  43  46
ENDBRANCH  28  38
BRANCH  34  48
ATOM     48  O   UNL     1     110.036 102.297 105.852  1.00  0.00    -0.507 OA
ATOM     49  H   UNL     1     110.087 101.338 106.158  1.00  0.00     0.293 HD
ENDBRANCH  34  48
BRANCH  37  50
ATOM     50  O   UNL     1     105.333 102.639 105.068  1.00  0.00    -0.508 OA
ATOM     51  H   UNL     1     105.085 102.568 104.089  1.00  0.00     0.293 HD
ENDBRANCH  37  50
ENDBRANCH  26  27
ENDBRANCH   5  26
BRANCH   4  52
ATOM     52  O   UNL     1     111.831 109.124 105.174  1.00  0.00    -0.384 OA
ATOM     53  H   UNL     1     112.503 108.611 104.655  1.00  0.00     0.211 HD
ENDBRANCH   4  52
TORSDOF 16
ENDMDL
MODEL 2
REMARK VINA RESULT:    25.301      1.491      6.253
REMARK INTER + INTRA:          44.060
REMARK INTER:                  42.423
REMARK INTRA:                   1.637
REMARK UNBOUND:                 2.489
REMARK SMILES C[C@H]1O[C@@H](OC[C@H]2O[C@H](Oc3c(-c4ccc(O)c(O)c4)oc4cc(O)cc(O)c4c3=O)[C@@H](O)[C@@H](O)[C@H]2O)[C@H](O)[C@@H](O)[C@H]1O
REMARK SMILES IDX 7 1 36 2 34 3 32 4 9 5 8 6 6 7 5 8 4 9 1 10 2 11 42 12 3 13
REMARK SMILES IDX 40 14 38 15 43 16 41 18 39 20 37 22 35 24 10 26 11 27 12 28
REMARK SMILES IDX 30 29 21 30 29 31 31 32 22 33 27 34 23 35 26 36 24 37 13 38
REMARK SMILES IDX 20 39 14 40 18 41 15 42 16 43 19 44 17 46 28 48 25 50 33 52
REMARK H PARENT 43 17 41 19 39 21 37 23 35 25 19 45 17 47 28 49 25 51 33 53
REMARK Flexibility Score: inf
ROOT
ATOM      1  C   UNL     1     111.054 108.653 107.569  1.00  0.00     0.180 C 
ATOM      2  C   UNL     1     111.308 109.311 106.180  1.00  0.00     0.177 C 
ATOM      3  C   UNL     1     111.756 110.796 106.312  1.00  0.00     0.180 C 
ATOM      4  C   UNL     1     111.503 111.312 107.740  1.00  0.00     0.214 C 
ATOM      5  C   UNL     1     112.166 110.361 108.782  1.00  0.00     0.339 C 
ATOM      6  O   UNL     1     112.106 108.972 108.462  1.00  0.00    -0.332 OA
ENDROOT
BRANCH   1   7
ATOM      7  C   UNL     1     110.932 107.127 107.467  1.00  0.00     0.198 C 
BRANCH   7   8
ATOM      8  O   UNL     1     109.561 106.761 107.457  1.00  0.00    -0.347 OA
BRANCH   8   9
ATOM      9  C   UNL     1     109.244 105.848 106.418  1.00  0.00     0.281 C 
ATOM     10  C   UNL     1     106.883 106.047 103.626  1.00  0.00     0.041 C 
ATOM     11  C   UNL     1     107.638 105.391 104.785  1.00  0.00     0.150 C 
ATOM     12  C   UNL     1     106.707 104.550 105.679  1.00  0.00     0.174 C 
ATOM     13  O   UNL     1     108.237 106.393 105.575  1.00  0.00    -0.344 OA
ATOM     14  C   UNL     1     107.475 103.977 106.909  1.00  0.00     0.179 C 
ATOM     15  C   UNL     1     108.969 104.402 106.970  1.00  0.00     0.202 C 
BRANCH  12  16
ATOM     16  O   UNL     1     105.625 105.343 106.114  1.00  0.00    -0.388 OA
ATOM     17  H   UNL     1     105.514 105.186 107.087  1.00  0.00     0.211 HD
ENDBRANCH  12  16
BRANCH  14  18
ATOM     18  O   UNL     1     106.848 104.329 108.118  1.00  0.00    -0.387 OA
ATOM     19  H   UNL     1     107.434 104.008 108.851  1.00  0.00     0.211 HD
ENDBRANCH  14  18
BRANCH  15  20
ATOM     20  O   UNL     1     109.739 103.484 106.231  1.00  0.00    -0.385 OA
ATOM     21  H   UNL     1     109.344 103.437 105.321  1.00  0.00     0.211 HD
ENDBRANCH  15  20
ENDBRANCH   8   9
ENDBRANCH   7   8
ENDBRANCH   1   7
BRANCH   2  22
ATOM     22  O   UNL     1     112.227 108.571 105.408  1.00  0.00    -0.387 OA
ATOM     23  H   UNL     1     112.001 108.714 104.450  1.00  0.00     0.211 HD
ENDBRANCH   2  22
BRANCH   3  24
ATOM     24  O   UNL     1     113.121 110.928 105.990  1.00  0.00    -0.387 OA
ATOM     25  H   UNL     1     113.218 110.717 105.026  1.00  0.00     0.211 HD
ENDBRANCH   3  24
BRANCH   5  26
ATOM     26  O   UNL     1     111.591 110.566 110.075  1.00  0.00    -0.454 OA
BRANCH  26  27
ATOM     27  C   UNL     1     110.824 109.592 110.732  1.00  0.00     0.214 A 
ATOM     28  C   UNL     1     109.513 109.277 110.329  1.00  0.00     0.180 A 
ATOM     29  C   UNL     1     111.384 108.900 111.812  1.00  0.00     0.239 A 
ATOM     30  O   UNL     1     108.859 108.286 110.923  1.00  0.00    -0.452 OA
ATOM     31  C   UNL     1     110.669 107.840 112.424  1.00  0.00     0.111 A 
ATOM     32  O   UNL     1     112.525 109.246 112.210  1.00  0.00    -0.285 OA
ATOM     33  C   UNL     1     109.365 107.574 111.922  1.00  0.00     0.146 A 
ATOM     34  C   UNL     1     111.155 107.038 113.503  1.00  0.00     0.134 A 
ATOM     35  C   UNL     1     108.578 106.566 112.483  1.00  0.00     0.094 A 
ATOM     36  C   UNL     1     110.327 106.054 114.060  1.00  0.00     0.093 A 
ATOM     37  C   UNL     1     109.052 105.811 113.555  1.00  0.00     0.123 A 
BRANCH  28  38
ATOM     38  C   UNL     1     108.814 110.033 109.271  1.00  0.00     0.025 A 
ATOM     39  C   UNL     1     108.147 111.224 109.591  1.00  0.00     0.062 A 
ATOM     40  C   UNL     1     108.805 109.572 107.947  1.00  0.00     0.016 A 
ATOM     41  C   UNL     1     107.447 111.932 108.604  1.00  0.00     0.158 A 
ATOM     42  C   UNL     1     108.126 110.284 106.959  1.00  0.00     0.051 A 
ATOM     43  C   UNL     1     107.435 111.456 107.280  1.00  0.00     0.157 A 
BRANCH  41  44
ATOM     44  O   UNL     1     106.758 113.099 108.932  1.00  0.00    -0.504 OA
ATOM     45  H   UNL     1     105.936 113.392 108.418  1.00  0.00     0.293 HD
ENDBRANCH  41  44
BRANCH  43  46
ATOM     46  O   UNL     1     106.741 112.133 106.278  1.00  0.00    -0.504 OA
ATOM     47  H   UNL     1     106.091 112.879 106.485  1.00  0.00     0.293 HD
ENDBRANCH  43  46
ENDBRANCH  28  38
BRANCH  34  48
ATOM     48  O   UNL     1     112.436 107.147 114.054  1.00  0.00    -0.507 OA
ATOM     49  H   UNL     1     112.652 107.396 115.007  1.00  0.00     0.293 HD
ENDBRANCH  34  48
BRANCH  37  50
ATOM     50  O   UNL     1     108.266 104.811 114.125  1.00  0.00    -0.508 OA
ATOM     51  H   UNL     1     107.256 104.883 114.149  1.00  0.00     0.293 HD
ENDBRANCH  37  50
ENDBRANCH  26  27
ENDBRANCH   5  26
BRANCH   4  52
ATOM     52  O   UNL     1     111.934 112.645 107.893  1.00  0.00    -0.384 OA
ATOM     53  H   UNL     1     111.864 112.887 108.852  1.00  0.00     0.211 HD
ENDBRANCH   4  52
TORSDOF 16
ENDMDL
MODEL 3
REMARK VINA RESULT:    27.800      2.496      6.736
REMARK INTER + INTRA:          48.166
REMARK INTER:                  40.763
REMARK INTRA:                   7.404
REMARK UNBOUND:                 2.489
REMARK SMILES C[C@H]1O[C@@H](OC[C@H]2O[C@H](Oc3c(-c4ccc(O)c(O)c4)oc4cc(O)cc(O)c4c3=O)[C@@H](O)[C@@H](O)[C@H]2O)[C@H](O)[C@@H](O)[C@H]1O
REMARK SMILES IDX 7 1 36 2 34 3 32 4 9 5 8 6 6 7 5 8 4 9 1 10 2 11 42 12 3 13
REMARK SMILES IDX 40 14 38 15 43 16 41 18 39 20 37 22 35 24 10 26 11 27 12 28
REMARK SMILES IDX 30 29 21 30 29 31 31 32 22 33 27 34 23 35 26 36 24 37 13 38
REMARK SMILES IDX 20 39 14 40 18 41 15 42 16 43 19 44 17 46 28 48 25 50 33 52
REMARK H PARENT 43 17 41 19 39 21 37 23 35 25 19 45 17 47 28 49 25 51 33 53
REMARK Flexibility Score: inf
ROOT
ATOM      1  C   UNL     1     109.960 109.342 108.153  1.00  0.00     0.180 C 
ATOM      2  C   UNL     1     109.252 108.587 106.989  1.00  0.00     0.177 C 
ATOM      3  C   UNL     1     110.116 107.412 106.445  1.00  0.00     0.180 C 
ATOM      4  C   UNL     1     111.562 107.520 106.964  1.00  0.00     0.214 C 
ATOM      5  C   UNL     1     111.570 107.639 108.518  1.00  0.00     0.339 C 
ATOM      6  O   UNL     1     110.511 108.417 109.073  1.00  0.00    -0.332 OA
ENDROOT
BRANCH   1   7
ATOM      7  C   UNL     1     108.997 110.275 108.900  1.00  0.00     0.198 C 
BRANCH   7   8
ATOM      8  O   UNL     1     108.480 109.608 110.041  1.00  0.00    -0.347 OA
BRANCH   8   9
ATOM      9  C   UNL     1     109.474 109.338 111.017  1.00  0.00     0.281 C 
ATOM     10  C   UNL     1     110.272 106.314 112.922  1.00  0.00     0.041 C 
ATOM     11  C   UNL     1     110.062 107.812 112.684  1.00  0.00     0.150 C 
ATOM     12  C   UNL     1     109.258 108.470 113.822  1.00  0.00     0.174 C 
ATOM     13  O   UNL     1     109.363 107.996 111.474  1.00  0.00    -0.344 OA
ATOM     14  C   UNL     1     108.968 109.970 113.510  1.00  0.00     0.179 C 
ATOM     15  C   UNL     1     109.515 110.443 112.134  1.00  0.00     0.202 C 
BRANCH  12  16
ATOM     16  O   UNL     1     108.046 107.773 114.010  1.00  0.00    -0.388 OA
ATOM     17  H   UNL     1     107.805 107.357 113.142  1.00  0.00     0.211 HD
ENDBRANCH  12  16
BRANCH  14  18
ATOM     18  O   UNL     1     107.592 110.253 113.577  1.00  0.00    -0.387 OA
ATOM     19  H   UNL     1     107.497 111.114 114.060  1.00  0.00     0.211 HD
ENDBRANCH  14  18
BRANCH  15  20
ATOM     20  O   UNL     1     110.847 110.873 112.293  1.00  0.00    -0.385 OA
ATOM     21  H   UNL     1     111.115 111.312 111.443  1.00  0.00     0.211 HD
ENDBRANCH  15  20
ENDBRANCH   8   9
ENDBRANCH   7   8
ENDBRANCH   1   7
BRANCH   2  22
ATOM     22  O   UNL     1     107.966 108.141 107.357  1.00  0.00    -0.387 OA
ATOM     23  H   UNL     1     107.436 108.939 107.627  1.00  0.00     0.211 HD
ENDBRANCH   2  22
BRANCH   3  24
ATOM     24  O   UNL     1     109.562 106.175 106.828  1.00  0.00    -0.387 OA
ATOM     25  H   UNL     1     108.613 106.339 107.067  1.00  0.00     0.211 HD
ENDBRANCH   3  24
BRANCH   5  26
ATOM     26  O   UNL     1     112.821 108.166 108.968  1.00  0.00    -0.454 OA
BRANCH  26  27
ATOM     27  C   UNL     1     112.926 109.360 109.699  1.00  0.00     0.214 A 
ATOM     28  C   UNL     1     112.927 110.620 109.072  1.00  0.00     0.180 A 
ATOM     29  C   UNL     1     113.019 109.297 111.093  1.00  0.00     0.239 A 
ATOM     30  O   UNL     1     112.938 111.724 109.810  1.00  0.00    -0.452 OA
ATOM     31  C   UNL     1     113.021 110.490 111.858  1.00  0.00     0.111 A 
ATOM     32  O   UNL     1     113.096 108.164 111.632  1.00  0.00    -0.285 OA
ATOM     33  C   UNL     1     112.982 111.714 111.136  1.00  0.00     0.146 A 
ATOM     34  C   UNL     1     113.069 110.549 113.287  1.00  0.00     0.134 A 
ATOM     35  C   UNL     1     113.009 112.939 111.808  1.00  0.00     0.094 A 
ATOM     36  C   UNL     1     113.124 111.795 113.925  1.00  0.00     0.093 A 
ATOM     37  C   UNL     1     113.087 112.982 113.199  1.00  0.00     0.123 A 
BRANCH  28  38
ATOM     38  C   UNL     1     112.941 110.767 107.604  1.00  0.00     0.025 A 
ATOM     39  C   UNL     1     112.805 109.635 106.789  1.00  0.00     0.062 A 
ATOM     40  C   UNL     1     113.095 112.029 107.011  1.00  0.00     0.016 A 
ATOM     41  C   UNL     1     112.855 109.755 105.393  1.00  0.00     0.158 A 
ATOM     42  C   UNL     1     113.124 112.155 105.622  1.00  0.00     0.051 A 
ATOM     43  C   UNL     1     113.018 111.024 104.808  1.00  0.00     0.157 A 
BRANCH  41  44
ATOM     44  O   UNL     1     112.750 108.623 104.586  1.00  0.00    -0.504 OA
ATOM     45  H   UNL     1     111.990 107.963 104.693  1.00  0.00     0.293 HD
ENDBRANCH  41  44
BRANCH  43  46
ATOM     46  O   UNL     1     113.080 111.175 103.423  1.00  0.00    -0.504 OA
ATOM     47  H   UNL     1     113.938 111.418 102.946  1.00  0.00     0.293 HD
ENDBRANCH  43  46
ENDBRANCH  28  38
BRANCH  34  48
ATOM     48  O   UNL     1     113.050 109.429 114.125  1.00  0.00    -0.507 OA
ATOM     49  H   UNL     1     112.292 109.153 114.729  1.00  0.00     0.293 HD
ENDBRANCH  34  48
BRANCH  37  50
ATOM     50  O   UNL     1     113.124 114.202 113.873  1.00  0.00    -0.508 OA
ATOM     51  H   UNL     1     113.348 114.254 114.859  1.00  0.00     0.293 HD
ENDBRANCH  37  50
ENDBRANCH  26  27
ENDBRANCH   5  26
BRANCH   4  52
ATOM     52  O   UNL     1     112.356 106.447 106.513  1.00  0.00    -0.384 OA
ATOM     53  H   UNL     1     113.217 106.812 106.185  1.00  0.00     0.211 HD
ENDBRANCH   4  52
TORSDOF 16
ENDMDL
