MODEL 1
REMARK VINA RESULT:    -6.332      0.000      0.000
REMARK INTER + INTRA:          -9.561
REMARK INTER:                  -8.367
REMARK INTRA:                  -1.194
REMARK UNBOUND:                -1.194
REMARK SMILES CC[C@H](C=C[C@H](C)[C@@H]1CC[C@@H]2C3=CC[C@H]4C[C@@H](O)CC[C@]4(C)[C@H]3CC[C@]21C)C(C)C
REMARK SMILES IDX 6 1 7 2 5 3 4 4 3 5 2 6 1 7 28 8 29 9 30 10 8 11 9 12 26 13
REMARK SMILES IDX 10 14 11 15 25 16 27 17 12 18 24 19 23 20 13 21 21 22 14 23
REMARK SMILES IDX 15 24 20 25 22 26 16 27 19 28 17 29 18 30
REMARK H PARENT 18 31
REMARK Flexibility Score: inf
ROOT
ATOM      1  C   UNL     1     148.880 139.491 143.584  1.00  0.00     0.012 C 
ATOM      2  C   UNL     1     150.064 138.671 143.048  1.00  0.00     0.012 C 
ENDROOT
BRANCH   1   3
ATOM      3  C   UNL     1     148.395 140.442 142.508  1.00  0.00    -0.028 C 
ATOM      4  C   UNL     1     148.784 140.343 141.226  1.00  0.00    -0.027 C 
BRANCH   4   5
ATOM      5  C   UNL     1     148.276 141.299 140.167  1.00  0.00     0.014 C 
BRANCH   5   6
ATOM      6  C   UNL     1     148.693 140.787 138.763  1.00  0.00     0.004 C 
ATOM      7  C   UNL     1     149.629 139.574 138.794  1.00  0.00     0.004 C 
ENDBRANCH   5   6
BRANCH   5   8
ATOM      8  C   UNL     1     146.743 141.551 140.330  1.00  0.00    -0.011 C 
ATOM      9  C   UNL     1     145.946 141.109 139.090  1.00  0.00     0.008 C 
ATOM     10  C   UNL     1     146.457 143.040 140.600  1.00  0.00     0.008 C 
ENDBRANCH   5   8
ENDBRANCH   4   5
ENDBRANCH   1   3
BRANCH   1  11
ATOM     11  C   UNL     1     147.711 138.597 144.109  1.00  0.00     0.002 C 
ATOM     12  C   UNL     1     146.324 139.264 143.913  1.00  0.00     0.005 C 
ATOM     13  C   UNL     1     147.729 138.195 145.613  1.00  0.00    -0.023 C 
ATOM     14  C   UNL     1     145.439 138.817 145.086  1.00  0.00     0.009 C 
ATOM     15  C   UNL     1     146.267 137.748 145.788  1.00  0.00     0.021 C 
ATOM     16  C   UNL     1     148.678 137.001 145.971  1.00  0.00     0.008 C 
ATOM     17  C   UNL     1     148.066 139.433 146.508  1.00  0.00     0.012 C 
ATOM     18  C   UNL     1     145.964 137.363 147.224  1.00  0.00    -0.067 C 
ATOM     19  C   UNL     1     148.049 135.953 146.933  1.00  0.00     0.009 C 
ATOM     20  C   UNL     1     147.054 136.575 147.960  1.00  0.00     0.021 C 
ATOM     21  C   UNL     1     144.752 137.586 147.772  1.00  0.00    -0.027 C 
ATOM     22  C   UNL     1     146.467 135.547 148.992  1.00  0.00    -0.023 C 
ATOM     23  C   UNL     1     144.302 136.960 149.066  1.00  0.00     0.031 C 
ATOM     24  C   UNL     1     145.450 136.337 149.885  1.00  0.00     0.002 C 
ATOM     25  C   UNL     1     147.627 134.968 149.888  1.00  0.00     0.010 C 
ATOM     26  C   UNL     1     145.753 134.379 148.250  1.00  0.00     0.012 C 
ATOM     27  C   UNL     1     144.885 135.494 151.056  1.00  0.00     0.036 C 
ATOM     28  C   UNL     1     147.368 135.022 151.405  1.00  0.00     0.032 C 
ATOM     29  C   UNL     1     145.939 134.606 151.761  1.00  0.00     0.114 C 
BRANCH  29  30
ATOM     30  O   UNL     1     145.754 133.254 151.425  1.00  0.00    -0.393 OA
ATOM     31  H   UNL     1     145.787 133.196 150.435  1.00  0.00     0.210 HD
ENDBRANCH  29  30
ENDBRANCH   1  11
TORSDOF 6
ENDMDL
MODEL 2
REMARK VINA RESULT:    -6.304      0.686      1.523
REMARK INTER + INTRA:          -9.525
REMARK INTER:                  -8.353
REMARK INTRA:                  -1.172
REMARK UNBOUND:                -1.194
REMARK SMILES CC[C@H](C=C[C@H](C)[C@@H]1CC[C@@H]2C3=CC[C@H]4C[C@@H](O)CC[C@]4(C)[C@H]3CC[C@]21C)C(C)C
REMARK SMILES IDX 6 1 7 2 5 3 4 4 3 5 2 6 1 7 28 8 29 9 30 10 8 11 9 12 26 13
REMARK SMILES IDX 10 14 11 15 25 16 27 17 12 18 24 19 23 20 13 21 21 22 14 23
REMARK SMILES IDX 15 24 20 25 22 26 16 27 19 28 17 29 18 30
REMARK H PARENT 18 31
REMARK Flexibility Score: inf
ROOT
ATOM      1  C   UNL     1     148.301 139.718 143.302  1.00  0.00     0.012 C 
ATOM      2  C   UNL     1     149.462 139.015 142.581  1.00  0.00     0.012 C 
ENDROOT
BRANCH   1   3
ATOM      3  C   UNL     1     147.617 140.676 142.346  1.00  0.00    -0.028 C 
ATOM      4  C   UNL     1     147.727 140.566 141.011  1.00  0.00    -0.027 C 
BRANCH   4   5
ATOM      5  C   UNL     1     147.024 141.530 140.077  1.00  0.00     0.014 C 
BRANCH   5   6
ATOM      6  C   UNL     1     146.746 142.862 140.820  1.00  0.00     0.004 C 
ATOM      7  C   UNL     1     147.575 144.045 140.310  1.00  0.00     0.004 C 
ENDBRANCH   5   6
BRANCH   5   8
ATOM      8  C   UNL     1     147.817 141.691 138.740  1.00  0.00    -0.011 C 
ATOM      9  C   UNL     1     146.918 141.500 137.506  1.00  0.00     0.008 C 
ATOM     10  C   UNL     1     148.983 140.686 138.667  1.00  0.00     0.008 C 
ENDBRANCH   5   8
ENDBRANCH   4   5
ENDBRANCH   1   3
BRANCH   1  11
ATOM     11  C   UNL     1     147.274 138.716 143.920  1.00  0.00     0.002 C 
ATOM     12  C   UNL     1     145.814 139.231 143.822  1.00  0.00     0.005 C 
ATOM     13  C   UNL     1     147.444 138.341 145.421  1.00  0.00    -0.023 C 
ATOM     14  C   UNL     1     145.069 138.713 145.061  1.00  0.00     0.009 C 
ATOM     15  C   UNL     1     146.054 137.748 145.708  1.00  0.00     0.021 C 
ATOM     16  C   UNL     1     148.536 137.259 145.717  1.00  0.00     0.008 C 
ATOM     17  C   UNL     1     147.713 139.622 146.279  1.00  0.00     0.012 C 
ATOM     18  C   UNL     1     145.899 137.356 147.165  1.00  0.00    -0.067 C 
ATOM     19  C   UNL     1     148.093 136.166 146.731  1.00  0.00     0.009 C 
ATOM     20  C   UNL     1     147.116 136.697 147.825  1.00  0.00     0.021 C 
ATOM     21  C   UNL     1     144.713 137.460 147.801  1.00  0.00    -0.027 C 
ATOM     22  C   UNL     1     146.717 135.630 148.906  1.00  0.00    -0.023 C 
ATOM     23  C   UNL     1     144.427 136.811 149.129  1.00  0.00     0.031 C 
ATOM     24  C   UNL     1     145.692 136.324 149.866  1.00  0.00     0.002 C 
ATOM     25  C   UNL     1     147.994 135.188 149.718  1.00  0.00     0.010 C 
ATOM     26  C   UNL     1     146.077 134.383 148.228  1.00  0.00     0.012 C 
ATOM     27  C   UNL     1     145.305 135.446 151.082  1.00  0.00     0.036 C 
ATOM     28  C   UNL     1     147.843 135.239 151.249  1.00  0.00     0.032 C 
ATOM     29  C   UNL     1     146.495 134.682 151.714  1.00  0.00     0.114 C 
BRANCH  29  30
ATOM     30  O   UNL     1     146.428 133.313 151.403  1.00  0.00    -0.393 OA
ATOM     31  H   UNL     1     147.205 132.880 151.843  1.00  0.00     0.210 HD
ENDBRANCH  29  30
ENDBRANCH   1  11
TORSDOF 6
ENDMDL
MODEL 3
REMARK VINA RESULT:    -6.144      3.191      9.762
REMARK INTER + INTRA:          -9.314
REMARK INTER:                  -8.229
REMARK INTRA:                  -1.085
REMARK UNBOUND:                -1.194
REMARK SMILES CC[C@H](C=C[C@H](C)[C@@H]1CC[C@@H]2C3=CC[C@H]4C[C@@H](O)CC[C@]4(C)[C@H]3CC[C@]21C)C(C)C
REMARK SMILES IDX 6 1 7 2 5 3 4 4 3 5 2 6 1 7 28 8 29 9 30 10 8 11 9 12 26 13
REMARK SMILES IDX 10 14 11 15 25 16 27 17 12 18 24 19 23 20 13 21 21 22 14 23
REMARK SMILES IDX 15 24 20 25 22 26 16 27 19 28 17 29 18 30
REMARK H PARENT 18 31
REMARK Flexibility Score: inf
ROOT
ATOM      1  C   UNL     1     144.754 137.192 146.794  1.00  0.00     0.012 C 
ATOM      2  C   UNL     1     144.120 135.912 146.226  1.00  0.00     0.012 C 
ENDROOT
BRANCH   1   3
ATOM      3  C   UNL     1     144.879 137.069 148.300  1.00  0.00    -0.028 C 
ATOM      4  C   UNL     1     145.035 135.887 148.919  1.00  0.00    -0.027 C 
BRANCH   4   5
ATOM      5  C   UNL     1     145.170 135.792 150.424  1.00  0.00     0.014 C 
BRANCH   5   6
ATOM      6  C   UNL     1     143.807 135.382 151.042  1.00  0.00     0.004 C 
ATOM      7  C   UNL     1     143.300 136.340 152.125  1.00  0.00     0.004 C 
ENDBRANCH   5   6
BRANCH   5   8
ATOM      8  C   UNL     1     146.361 134.864 150.822  1.00  0.00    -0.011 C 
ATOM      9  C   UNL     1     147.272 134.542 149.624  1.00  0.00     0.008 C 
ATOM     10  C   UNL     1     145.851 133.542 151.428  1.00  0.00     0.008 C 
ENDBRANCH   5   8
ENDBRANCH   4   5
ENDBRANCH   1   3
BRANCH   1  11
ATOM     11  C   UNL     1     146.134 137.526 146.143  1.00  0.00     0.002 C 
ATOM     12  C   UNL     1     147.172 138.026 147.183  1.00  0.00     0.005 C 
ATOM     13  C   UNL     1     146.163 138.612 145.028  1.00  0.00    -0.023 C 
ATOM     14  C   UNL     1     148.073 139.043 146.467  1.00  0.00     0.009 C 
ATOM     15  C   UNL     1     147.667 138.931 145.003  1.00  0.00     0.021 C 
ATOM     16  C   UNL     1     145.719 138.119 143.609  1.00  0.00     0.008 C 
ATOM     17  C   UNL     1     145.315 139.856 145.451  1.00  0.00     0.012 C 
ATOM     18  C   UNL     1     147.990 140.049 144.030  1.00  0.00    -0.067 C 
ATOM     19  C   UNL     1     146.629 138.613 142.448  1.00  0.00     0.009 C 
ATOM     20  C   UNL     1     147.234 140.029 142.697  1.00  0.00     0.021 C 
ATOM     21  C   UNL     1     148.982 140.931 144.273  1.00  0.00    -0.027 C 
ATOM     22  C   UNL     1     148.093 140.581 141.504  1.00  0.00    -0.023 C 
ATOM     23  C   UNL     1     149.542 141.855 143.225  1.00  0.00     0.031 C 
ATOM     24  C   UNL     1     148.663 141.966 141.963  1.00  0.00     0.002 C 
ATOM     25  C   UNL     1     147.181 140.774 140.232  1.00  0.00     0.010 C 
ATOM     26  C   UNL     1     149.251 139.596 141.166  1.00  0.00     0.012 C 
ATOM     27  C   UNL     1     149.421 142.716 140.839  1.00  0.00     0.036 C 
ATOM     28  C   UNL     1     147.289 142.152 139.556  1.00  0.00     0.032 C 
ATOM     29  C   UNL     1     148.739 142.632 139.451  1.00  0.00     0.114 C 
BRANCH  29  30
ATOM     30  O   UNL     1     149.451 141.769 138.600  1.00  0.00    -0.393 OA
ATOM     31  H   UNL     1     149.961 141.149 139.181  1.00  0.00     0.210 HD
ENDBRANCH  29  30
ENDBRANCH   1  11
TORSDOF 6
ENDMDL
MODEL 4
REMARK VINA RESULT:    -6.118      4.122      6.529
REMARK INTER + INTRA:          -9.280
REMARK INTER:                  -7.929
REMARK INTRA:                  -1.351
REMARK UNBOUND:                -1.194
REMARK SMILES CC[C@H](C=C[C@H](C)[C@@H]1CC[C@@H]2C3=CC[C@H]4C[C@@H](O)CC[C@]4(C)[C@H]3CC[C@]21C)C(C)C
REMARK SMILES IDX 6 1 7 2 5 3 4 4 3 5 2 6 1 7 28 8 29 9 30 10 8 11 9 12 26 13
REMARK SMILES IDX 10 14 11 15 25 16 27 17 12 18 24 19 23 20 13 21 21 22 14 23
REMARK SMILES IDX 15 24 20 25 22 26 16 27 19 28 17 29 18 30
REMARK H PARENT 18 31
REMARK Flexibility Score: inf
ROOT
ATOM      1  C   UNL     1     142.197 138.815 142.677  1.00  0.00     0.012 C 
ATOM      2  C   UNL     1     142.068 138.410 141.200  1.00  0.00     0.012 C 
ENDROOT
BRANCH   1   3
ATOM      3  C   UNL     1     140.816 139.006 143.272  1.00  0.00    -0.028 C 
ATOM      4  C   UNL     1     140.422 140.165 143.826  1.00  0.00    -0.027 C 
BRANCH   4   5
ATOM      5  C   UNL     1     139.033 140.335 144.404  1.00  0.00     0.014 C 
BRANCH   5   6
ATOM      6  C   UNL     1     138.588 139.013 145.082  1.00  0.00     0.004 C 
ATOM      7  C   UNL     1     138.998 138.897 146.553  1.00  0.00     0.004 C 
ENDBRANCH   5   6
BRANCH   5   8
ATOM      8  C   UNL     1     138.962 141.589 145.332  1.00  0.00    -0.011 C 
ATOM      9  C   UNL     1     137.982 142.651 144.801  1.00  0.00     0.008 C 
ATOM     10  C   UNL     1     140.352 142.233 145.494  1.00  0.00     0.008 C 
ENDBRANCH   5   8
ENDBRANCH   4   5
ENDBRANCH   1   3
BRANCH   1  11
ATOM     11  C   UNL     1     143.032 137.793 143.514  1.00  0.00     0.002 C 
ATOM     12  C   UNL     1     142.142 136.931 144.449  1.00  0.00     0.005 C 
ATOM     13  C   UNL     1     144.133 138.360 144.457  1.00  0.00    -0.023 C 
ATOM     14  C   UNL     1     142.969 136.632 145.708  1.00  0.00     0.009 C 
ATOM     15  C   UNL     1     144.363 137.140 145.365  1.00  0.00     0.021 C 
ATOM     16  C   UNL     1     145.480 138.739 143.753  1.00  0.00     0.008 C 
ATOM     17  C   UNL     1     143.588 139.585 145.263  1.00  0.00     0.012 C 
ATOM     18  C   UNL     1     145.364 137.437 146.465  1.00  0.00    -0.067 C 
ATOM     19  C   UNL     1     146.752 138.272 144.516  1.00  0.00     0.009 C 
ATOM     20  C   UNL     1     146.580 138.281 146.067  1.00  0.00     0.021 C 
ATOM     21  C   UNL     1     145.255 136.877 147.687  1.00  0.00    -0.027 C 
ATOM     22  C   UNL     1     147.877 137.890 146.861  1.00  0.00    -0.023 C 
ATOM     23  C   UNL     1     146.365 136.889 148.705  1.00  0.00     0.031 C 
ATOM     24  C   UNL     1     147.492 137.890 148.379  1.00  0.00     0.002 C 
ATOM     25  C   UNL     1     149.009 138.956 146.596  1.00  0.00     0.010 C 
ATOM     26  C   UNL     1     148.379 136.482 146.422  1.00  0.00     0.012 C 
ATOM     27  C   UNL     1     148.706 137.663 149.316  1.00  0.00     0.036 C 
ATOM     28  C   UNL     1     149.685 139.516 147.860  1.00  0.00     0.032 C 
ATOM     29  C   UNL     1     149.986 138.421 148.887  1.00  0.00     0.114 C 
BRANCH  29  30
ATOM     30  O   UNL     1     150.934 137.533 148.351  1.00  0.00    -0.393 OA
ATOM     31  H   UNL     1     150.729 136.636 148.722  1.00  0.00     0.210 HD
ENDBRANCH  29  30
ENDBRANCH   1  11
TORSDOF 6
ENDMDL
MODEL 5
REMARK VINA RESULT:    -6.092     11.087     15.602
REMARK INTER + INTRA:          -9.245
REMARK INTER:                  -8.045
REMARK INTRA:                  -1.199
REMARK UNBOUND:                -1.194
REMARK SMILES CC[C@H](C=C[C@H](C)[C@@H]1CC[C@@H]2C3=CC[C@H]4C[C@@H](O)CC[C@]4(C)[C@H]3CC[C@]21C)C(C)C
REMARK SMILES IDX 6 1 7 2 5 3 4 4 3 5 2 6 1 7 28 8 29 9 30 10 8 11 9 12 26 13
REMARK SMILES IDX 10 14 11 15 25 16 27 17 12 18 24 19 23 20 13 21 21 22 14 23
REMARK SMILES IDX 15 24 20 25 22 26 16 27 19 28 17 29 18 30
REMARK H PARENT 18 31
REMARK Flexibility Score: inf
ROOT
ATOM      1  C   UNL     1     138.209 142.088 143.232  1.00  0.00     0.012 C 
ATOM      2  C   UNL     1     139.660 141.978 142.737  1.00  0.00     0.012 C 
ENDROOT
BRANCH   1   3
ATOM      3  C   UNL     1     138.121 141.579 144.658  1.00  0.00    -0.028 C 
ATOM      4  C   UNL     1     139.084 141.804 145.567  1.00  0.00    -0.027 C 
BRANCH   4   5
ATOM      5  C   UNL     1     138.967 141.295 146.989  1.00  0.00     0.014 C 
BRANCH   5   6
ATOM      6  C   UNL     1     140.190 140.402 147.322  1.00  0.00     0.004 C 
ATOM      7  C   UNL     1     140.854 139.771 146.095  1.00  0.00     0.004 C 
ENDBRANCH   5   6
BRANCH   5   8
ATOM      8  C   UNL     1     138.739 142.474 147.988  1.00  0.00    -0.011 C 
ATOM      9  C   UNL     1     137.273 142.943 148.009  1.00  0.00     0.008 C 
ATOM     10  C   UNL     1     139.640 143.674 147.638  1.00  0.00     0.008 C 
ENDBRANCH   5   8
ENDBRANCH   4   5
ENDBRANCH   1   3
BRANCH   1  11
ATOM     11  C   UNL     1     137.638 143.537 143.118  1.00  0.00     0.002 C 
ATOM     12  C   UNL     1     136.566 143.836 144.200  1.00  0.00     0.005 C 
ATOM     13  C   UNL     1     136.948 143.939 141.782  1.00  0.00    -0.023 C 
ATOM     14  C   UNL     1     135.549 144.799 143.572  1.00  0.00     0.009 C 
ATOM     15  C   UNL     1     136.179 145.189 142.242  1.00  0.00     0.021 C 
ATOM     16  C   UNL     1     137.925 144.334 140.623  1.00  0.00     0.008 C 
ATOM     17  C   UNL     1     135.979 142.808 141.303  1.00  0.00     0.012 C 
ATOM     18  C   UNL     1     135.327 145.768 141.129  1.00  0.00    -0.067 C 
ATOM     19  C   UNL     1     137.499 145.606 139.835  1.00  0.00     0.009 C 
ATOM     20  C   UNL     1     135.953 145.779 139.729  1.00  0.00     0.021 C 
ATOM     21  C   UNL     1     134.141 146.359 141.383  1.00  0.00    -0.027 C 
ATOM     22  C   UNL     1     135.500 147.014 138.872  1.00  0.00    -0.023 C 
ATOM     23  C   UNL     1     133.408 147.209 140.380  1.00  0.00     0.031 C 
ATOM     24  C   UNL     1     133.935 147.058 138.938  1.00  0.00     0.002 C 
ATOM     25  C   UNL     1     135.966 146.827 137.377  1.00  0.00     0.010 C 
ATOM     26  C   UNL     1     136.110 148.327 139.444  1.00  0.00     0.012 C 
ATOM     27  C   UNL     1     133.316 148.142 138.019  1.00  0.00     0.036 C 
ATOM     28  C   UNL     1     134.866 147.035 136.321  1.00  0.00     0.032 C 
ATOM     29  C   UNL     1     133.992 148.253 136.630  1.00  0.00     0.114 C 
BRANCH  29  30
ATOM     30  O   UNL     1     134.775 149.417 136.550  1.00  0.00    -0.393 OA
ATOM     31  H   UNL     1     135.431 149.374 137.294  1.00  0.00     0.210 HD
ENDBRANCH  29  30
ENDBRANCH   1  11
TORSDOF 6
ENDMDL
MODEL 6
REMARK VINA RESULT:    -6.076      1.541      3.501
REMARK INTER + INTRA:          -9.224
REMARK INTER:                  -8.180
REMARK INTRA:                  -1.044
REMARK UNBOUND:                -1.194
REMARK SMILES CC[C@H](C=C[C@H](C)[C@@H]1CC[C@@H]2C3=CC[C@H]4C[C@@H](O)CC[C@]4(C)[C@H]3CC[C@]21C)C(C)C
REMARK SMILES IDX 6 1 7 2 5 3 4 4 3 5 2 6 1 7 28 8 29 9 30 10 8 11 9 12 26 13
REMARK SMILES IDX 10 14 11 15 25 16 27 17 12 18 24 19 23 20 13 21 21 22 14 23
REMARK SMILES IDX 15 24 20 25 22 26 16 27 19 28 17 29 18 30
REMARK H PARENT 18 31
REMARK Flexibility Score: inf
ROOT
ATOM      1  C   UNL     1     147.810 140.589 142.164  1.00  0.00     0.012 C 
ATOM      2  C   UNL     1     147.034 141.806 141.634  1.00  0.00     0.012 C 
ENDROOT
BRANCH   1   3
ATOM      3  C   UNL     1     149.179 140.539 141.513  1.00  0.00    -0.028 C 
ATOM      4  C   UNL     1     149.521 139.594 140.622  1.00  0.00    -0.027 C 
BRANCH   4   5
ATOM      5  C   UNL     1     150.892 139.572 139.977  1.00  0.00     0.014 C 
BRANCH   5   6
ATOM      6  C   UNL     1     151.827 138.627 140.776  1.00  0.00     0.004 C 
ATOM      7  C   UNL     1     152.516 139.296 141.970  1.00  0.00     0.004 C 
ENDBRANCH   5   6
BRANCH   5   8
ATOM      8  C   UNL     1     150.788 139.239 138.454  1.00  0.00    -0.011 C 
ATOM      9  C   UNL     1     149.615 139.970 137.778  1.00  0.00     0.008 C 
ATOM     10  C   UNL     1     150.623 137.723 138.233  1.00  0.00     0.008 C 
ENDBRANCH   5   8
ENDBRANCH   4   5
ENDBRANCH   1   3
BRANCH   1  11
ATOM     11  C   UNL     1     147.930 140.578 143.721  1.00  0.00     0.002 C 
ATOM     12  C   UNL     1     149.287 141.148 144.213  1.00  0.00     0.005 C 
ATOM     13  C   UNL     1     147.813 139.205 144.445  1.00  0.00    -0.023 C 
ATOM     14  C   UNL     1     149.658 140.389 145.494  1.00  0.00     0.009 C 
ATOM     15  C   UNL     1     148.413 139.571 145.814  1.00  0.00     0.021 C 
ATOM     16  C   UNL     1     146.350 138.684 144.649  1.00  0.00     0.008 C 
ATOM     17  C   UNL     1     148.669 138.122 143.710  1.00  0.00     0.012 C 
ATOM     18  C   UNL     1     148.501 138.366 146.731  1.00  0.00    -0.067 C 
ATOM     19  C   UNL     1     146.071 138.102 146.064  1.00  0.00     0.009 C 
ATOM     20  C   UNL     1     147.311 137.400 146.699  1.00  0.00     0.021 C 
ATOM     21  C   UNL     1     149.507 138.227 147.619  1.00  0.00    -0.027 C 
ATOM     22  C   UNL     1     147.031 136.736 148.094  1.00  0.00    -0.023 C 
ATOM     23  C   UNL     1     149.484 137.230 148.746  1.00  0.00     0.031 C 
ATOM     24  C   UNL     1     148.395 136.149 148.595  1.00  0.00     0.002 C 
ATOM     25  C   UNL     1     145.977 135.574 147.931  1.00  0.00     0.010 C 
ATOM     26  C   UNL     1     146.486 137.792 149.100  1.00  0.00     0.012 C 
ATOM     27  C   UNL     1     148.262 135.327 149.902  1.00  0.00     0.036 C 
ATOM     28  C   UNL     1     146.384 134.232 148.565  1.00  0.00     0.032 C 
ATOM     29  C   UNL     1     147.012 134.413 149.949  1.00  0.00     0.114 C 
BRANCH  29  30
ATOM     30  O   UNL     1     146.048 134.935 150.829  1.00  0.00    -0.393 OA
ATOM     31  H   UNL     1     146.461 134.951 151.731  1.00  0.00     0.210 HD
ENDBRANCH  29  30
ENDBRANCH   1  11
TORSDOF 6
ENDMDL
MODEL 7
REMARK VINA RESULT:    -6.061      2.973      8.766
REMARK INTER + INTRA:          -9.204
REMARK INTER:                  -8.444
REMARK INTRA:                  -0.760
REMARK UNBOUND:                -1.194
REMARK SMILES CC[C@H](C=C[C@H](C)[C@@H]1CC[C@@H]2C3=CC[C@H]4C[C@@H](O)CC[C@]4(C)[C@H]3CC[C@]21C)C(C)C
REMARK SMILES IDX 6 1 7 2 5 3 4 4 3 5 2 6 1 7 28 8 29 9 30 10 8 11 9 12 26 13
REMARK SMILES IDX 10 14 11 15 25 16 27 17 12 18 24 19 23 20 13 21 21 22 14 23
REMARK SMILES IDX 15 24 20 25 22 26 16 27 19 28 17 29 18 30
REMARK H PARENT 18 31
REMARK Flexibility Score: inf
ROOT
ATOM      1  C   UNL     1     143.758 136.485 149.197  1.00  0.00     0.012 C 
ATOM      2  C   UNL     1     143.352 135.170 148.513  1.00  0.00     0.012 C 
ENDROOT
BRANCH   1   3
ATOM      3  C   UNL     1     144.958 136.241 150.091  1.00  0.00    -0.028 C 
ATOM      4  C   UNL     1     145.603 135.064 150.130  1.00  0.00    -0.027 C 
BRANCH   4   5
ATOM      5  C   UNL     1     146.807 134.849 151.024  1.00  0.00     0.014 C 
BRANCH   5   6
ATOM      6  C   UNL     1     146.609 133.556 151.858  1.00  0.00     0.004 C 
ATOM      7  C   UNL     1     145.163 133.049 151.889  1.00  0.00     0.004 C 
ENDBRANCH   5   6
BRANCH   5   8
ATOM      8  C   UNL     1     148.132 134.885 150.197  1.00  0.00    -0.011 C 
ATOM      9  C   UNL     1     148.826 136.256 150.272  1.00  0.00     0.008 C 
ATOM     10  C   UNL     1     147.867 134.541 148.719  1.00  0.00     0.008 C 
ENDBRANCH   5   8
ENDBRANCH   4   5
ENDBRANCH   1   3
BRANCH   1  11
ATOM     11  C   UNL     1     144.044 137.635 148.178  1.00  0.00     0.002 C 
ATOM     12  C   UNL     1     142.829 137.922 147.257  1.00  0.00     0.005 C 
ATOM     13  C   UNL     1     145.232 137.448 147.191  1.00  0.00    -0.023 C 
ATOM     14  C   UNL     1     143.389 138.360 145.896  1.00  0.00     0.009 C 
ATOM     15  C   UNL     1     144.883 138.520 146.144  1.00  0.00     0.021 C 
ATOM     16  C   UNL     1     146.647 137.753 147.788  1.00  0.00     0.008 C 
ATOM     17  C   UNL     1     145.210 136.010 146.574  1.00  0.00     0.012 C 
ATOM     18  C   UNL     1     145.859 138.513 144.984  1.00  0.00    -0.067 C 
ATOM     19  C   UNL     1     147.566 138.592 146.854  1.00  0.00     0.009 C 
ATOM     20  C   UNL     1     147.336 138.304 145.339  1.00  0.00     0.021 C 
ATOM     21  C   UNL     1     145.463 138.808 143.728  1.00  0.00    -0.027 C 
ATOM     22  C   UNL     1     148.306 139.081 144.380  1.00  0.00    -0.023 C 
ATOM     23  C   UNL     1     146.423 139.114 142.609  1.00  0.00     0.031 C 
ATOM     24  C   UNL     1     147.881 138.717 142.917  1.00  0.00     0.002 C 
ATOM     25  C   UNL     1     149.792 138.619 144.635  1.00  0.00     0.010 C 
ATOM     26  C   UNL     1     148.193 140.615 144.619  1.00  0.00     0.012 C 
ATOM     27  C   UNL     1     148.838 139.293 141.843  1.00  0.00     0.036 C 
ATOM     28  C   UNL     1     150.576 138.219 143.371  1.00  0.00     0.032 C 
ATOM     29  C   UNL     1     150.338 139.191 142.213  1.00  0.00     0.114 C 
BRANCH  29  30
ATOM     30  O   UNL     1     150.851 140.454 142.556  1.00  0.00    -0.393 OA
ATOM     31  H   UNL     1     151.388 140.766 141.782  1.00  0.00     0.210 HD
ENDBRANCH  29  30
ENDBRANCH   1  11
TORSDOF 6
ENDMDL
MODEL 8
REMARK VINA RESULT:    -6.049      3.040      8.675
REMARK INTER + INTRA:          -9.188
REMARK INTER:                  -8.688
REMARK INTRA:                  -0.500
REMARK UNBOUND:                -1.194
REMARK SMILES CC[C@H](C=C[C@H](C)[C@@H]1CC[C@@H]2C3=CC[C@H]4C[C@@H](O)CC[C@]4(C)[C@H]3CC[C@]21C)C(C)C
REMARK SMILES IDX 6 1 7 2 5 3 4 4 3 5 2 6 1 7 28 8 29 9 30 10 8 11 9 12 26 13
REMARK SMILES IDX 10 14 11 15 25 16 27 17 12 18 24 19 23 20 13 21 21 22 14 23
REMARK SMILES IDX 15 24 20 25 22 26 16 27 19 28 17 29 18 30
REMARK H PARENT 18 31
REMARK Flexibility Score: inf
ROOT
ATOM      1  C   UNL     1     146.393 135.228 150.807  1.00  0.00     0.012 C 
ATOM      2  C   UNL     1     145.742 133.850 150.604  1.00  0.00     0.012 C 
ENDROOT
BRANCH   1   3
ATOM      3  C   UNL     1     147.890 135.117 150.588  1.00  0.00    -0.028 C 
ATOM      4  C   UNL     1     148.784 135.399 151.550  1.00  0.00    -0.027 C 
BRANCH   4   5
ATOM      5  C   UNL     1     150.274 135.269 151.310  1.00  0.00     0.014 C 
BRANCH   5   6
ATOM      6  C   UNL     1     150.521 134.409 150.043  1.00  0.00     0.004 C 
ATOM      7  C   UNL     1     151.722 133.464 150.156  1.00  0.00     0.004 C 
ENDBRANCH   5   6
BRANCH   5   8
ATOM      8  C   UNL     1     150.960 136.672 151.280  1.00  0.00    -0.011 C 
ATOM      9  C   UNL     1     151.173 137.184 149.845  1.00  0.00     0.008 C 
ATOM     10  C   UNL     1     152.321 136.634 152.002  1.00  0.00     0.008 C 
ENDBRANCH   5   8
ENDBRANCH   4   5
ENDBRANCH   1   3
BRANCH   1  11
ATOM     11  C   UNL     1     145.774 136.332 149.892  1.00  0.00     0.002 C 
ATOM     12  C   UNL     1     144.260 136.105 149.636  1.00  0.00     0.005 C 
ATOM     13  C   UNL     1     146.375 136.511 148.467  1.00  0.00    -0.023 C 
ATOM     14  C   UNL     1     143.960 136.620 148.222  1.00  0.00     0.009 C 
ATOM     15  C   UNL     1     145.247 137.316 147.799  1.00  0.00     0.021 C 
ATOM     16  C   UNL     1     147.703 137.339 148.406  1.00  0.00     0.008 C 
ATOM     17  C   UNL     1     146.578 135.121 147.779  1.00  0.00     0.012 C 
ATOM     18  C   UNL     1     145.533 137.578 146.333  1.00  0.00    -0.067 C 
ATOM     19  C   UNL     1     147.751 138.384 147.254  1.00  0.00     0.009 C 
ATOM     20  C   UNL     1     146.982 137.930 145.976  1.00  0.00     0.021 C 
ATOM     21  C   UNL     1     144.542 137.627 145.419  1.00  0.00    -0.027 C 
ATOM     22  C   UNL     1     147.083 138.934 144.773  1.00  0.00    -0.023 C 
ATOM     23  C   UNL     1     144.725 138.177 144.029  1.00  0.00     0.031 C 
ATOM     24  C   UNL     1     146.202 138.345 143.619  1.00  0.00     0.002 C 
ATOM     25  C   UNL     1     148.581 139.048 144.296  1.00  0.00     0.010 C 
ATOM     26  C   UNL     1     146.565 140.341 145.194  1.00  0.00     0.012 C 
ATOM     27  C   UNL     1     146.309 139.148 142.299  1.00  0.00     0.036 C 
ATOM     28  C   UNL     1     148.799 138.868 142.783  1.00  0.00     0.032 C 
ATOM     29  C   UNL     1     147.747 139.611 141.956  1.00  0.00     0.114 C 
BRANCH  29  30
ATOM     30  O   UNL     1     147.887 140.994 142.165  1.00  0.00    -0.393 OA
ATOM     31  H   UNL     1     146.998 141.401 141.994  1.00  0.00     0.210 HD
ENDBRANCH  29  30
ENDBRANCH   1  11
TORSDOF 6
ENDMDL
MODEL 9
REMARK VINA RESULT:    -6.042      3.547      9.868
REMARK INTER + INTRA:          -9.179
REMARK INTER:                  -8.017
REMARK INTRA:                  -1.162
REMARK UNBOUND:                -1.194
REMARK SMILES CC[C@H](C=C[C@H](C)[C@@H]1CC[C@@H]2C3=CC[C@H]4C[C@@H](O)CC[C@]4(C)[C@H]3CC[C@]21C)C(C)C
REMARK SMILES IDX 6 1 7 2 5 3 4 4 3 5 2 6 1 7 28 8 29 9 30 10 8 11 9 12 26 13
REMARK SMILES IDX 10 14 11 15 25 16 27 17 12 18 24 19 23 20 13 21 21 22 14 23
REMARK SMILES IDX 15 24 20 25 22 26 16 27 19 28 17 29 18 30
REMARK H PARENT 18 31
REMARK Flexibility Score: inf
ROOT
ATOM      1  C   UNL     1     148.208 138.797 146.615  1.00  0.00     0.012 C 
ATOM      2  C   UNL     1     149.073 139.624 147.579  1.00  0.00     0.012 C 
ENDROOT
BRANCH   1   3
ATOM      3  C   UNL     1     147.289 137.890 147.411  1.00  0.00    -0.028 C 
ATOM      4  C   UNL     1     147.653 137.339 148.581  1.00  0.00    -0.027 C 
BRANCH   4   5
ATOM      5  C   UNL     1     146.712 136.446 149.363  1.00  0.00     0.014 C 
BRANCH   5   6
ATOM      6  C   UNL     1     145.246 136.764 148.966  1.00  0.00     0.004 C 
ATOM      7  C   UNL     1     144.313 136.992 150.159  1.00  0.00     0.004 C 
ENDBRANCH   5   6
BRANCH   5   8
ATOM      8  C   UNL     1     147.109 134.943 149.208  1.00  0.00    -0.011 C 
ATOM      9  C   UNL     1     148.634 134.752 149.116  1.00  0.00     0.008 C 
ATOM     10  C   UNL     1     146.454 134.327 147.957  1.00  0.00     0.008 C 
ENDBRANCH   5   8
ENDBRANCH   4   5
ENDBRANCH   1   3
BRANCH   1  11
ATOM     11  C   UNL     1     147.394 139.683 145.618  1.00  0.00     0.002 C 
ATOM     12  C   UNL     1     145.956 139.148 145.392  1.00  0.00     0.005 C 
ATOM     13  C   UNL     1     147.963 139.861 144.180  1.00  0.00    -0.023 C 
ATOM     14  C   UNL     1     145.575 139.480 143.942  1.00  0.00     0.009 C 
ATOM     15  C   UNL     1     146.706 140.376 143.457  1.00  0.00     0.021 C 
ATOM     16  C   UNL     1     149.106 140.923 144.045  1.00  0.00     0.008 C 
ATOM     17  C   UNL     1     148.438 138.487 143.604  1.00  0.00     0.012 C 
ATOM     18  C   UNL     1     146.950 140.570 141.973  1.00  0.00    -0.067 C 
ATOM     19  C   UNL     1     148.961 141.862 142.813  1.00  0.00     0.009 C 
ATOM     20  C   UNL     1     148.306 141.167 141.579  1.00  0.00     0.021 C 
ATOM     21  C   UNL     1     145.977 140.353 141.064  1.00  0.00    -0.027 C 
ATOM     22  C   UNL     1     148.222 142.072 140.299  1.00  0.00    -0.023 C 
ATOM     23  C   UNL     1     146.063 140.814 139.634  1.00  0.00     0.031 C 
ATOM     24  C   UNL     1     147.483 141.233 139.202  1.00  0.00     0.002 C 
ATOM     25  C   UNL     1     149.675 142.436 139.805  1.00  0.00     0.010 C 
ATOM     26  C   UNL     1     147.438 143.381 140.609  1.00  0.00     0.012 C 
ATOM     27  C   UNL     1     147.445 141.934 137.820  1.00  0.00     0.036 C 
ATOM     28  C   UNL     1     149.938 142.181 138.310  1.00  0.00     0.032 C 
ATOM     29  C   UNL     1     148.769 142.637 137.433  1.00  0.00     0.114 C 
BRANCH  29  30
ATOM     30  O   UNL     1     148.636 144.033 137.529  1.00  0.00    -0.393 OA
ATOM     31  H   UNL     1     148.336 144.230 138.454  1.00  0.00     0.210 HD
ENDBRANCH  29  30
ENDBRANCH   1  11
TORSDOF 6
ENDMDL
