MODEL 1
REMARK VINA RESULT:    -4.524      0.000      0.000
REMARK INTER + INTRA:          -7.548
REMARK INTER:                  -6.507
REMARK INTRA:                  -1.041
REMARK UNBOUND:                -1.041
REMARK SMILES O=C(CO)[C@@H](O)[C@H](O)[C@H](O)CO
REMARK SMILES IDX 7 1 9 2 11 3 12 4 10 6 5 8 2 9 1 10 3 11 4 12 6 14 8 16
REMARK H PARENT 12 5 10 7 4 13 6 15 8 17
REMARK Flexibility Score: inf
ROOT
ATOM      1  C   UNL     1      -2.924  16.956  45.997  1.00  0.00     0.181 C 
ENDROOT
BRANCH   1   2
ATOM      2  C   UNL     1      -2.201  16.878  44.628  1.00  0.00     0.171 C 
BRANCH   2   3
ATOM      3  C   UNL     1      -0.825  16.202  44.750  1.00  0.00     0.190 C 
BRANCH   3   4
ATOM      4  O   UNL     1       0.073  17.000  45.473  1.00  0.00    -0.394 OA
ATOM      5  H   UNL     1      -0.410  17.312  46.283  1.00  0.00     0.210 HD
ENDBRANCH   3   4
ENDBRANCH   2   3
BRANCH   2   6
ATOM      6  O   UNL     1      -2.973  16.130  43.722  1.00  0.00    -0.388 OA
ATOM      7  H   UNL     1      -3.879  16.535  43.697  1.00  0.00     0.211 HD
ENDBRANCH   2   6
ENDBRANCH   1   2
BRANCH   1   8
ATOM      8  C   UNL     1      -2.763  18.354  46.664  1.00  0.00     0.214 C 
BRANCH   8   9
ATOM      9  C   UNL     1      -2.171  18.252  48.059  1.00  0.00     0.189 C 
ATOM     10  O   UNL     1      -1.007  17.895  48.165  1.00  0.00    -0.294 OA
BRANCH   9  11
ATOM     11  C   UNL     1      -2.905  18.619  49.330  1.00  0.00     0.234 C 
BRANCH  11  12
ATOM     12  O   UNL     1      -2.583  17.776  50.403  1.00  0.00    -0.388 OA
ATOM     13  H   UNL     1      -1.732  17.322  50.167  1.00  0.00     0.211 HD
ENDBRANCH  11  12
ENDBRANCH   9  11
ENDBRANCH   8   9
BRANCH   8  14
ATOM     14  O   UNL     1      -2.055  19.282  45.874  1.00  0.00    -0.382 OA
ATOM     15  H   UNL     1      -2.603  20.099  45.762  1.00  0.00     0.211 HD
ENDBRANCH   8  14
ENDBRANCH   1   8
BRANCH   1  16
ATOM     16  O   UNL     1      -2.428  15.954  46.849  1.00  0.00    -0.387 OA
ATOM     17  H   UNL     1      -1.938  15.302  46.283  1.00  0.00     0.211 HD
ENDBRANCH   1  16
TORSDOF 10
ENDMDL
MODEL 2
REMARK VINA RESULT:    -4.433      1.438      2.424
REMARK INTER + INTRA:          -7.417
REMARK INTER:                  -6.402
REMARK INTRA:                  -1.015
REMARK UNBOUND:                -1.041
REMARK SMILES O=C(CO)[C@@H](O)[C@H](O)[C@H](O)CO
REMARK SMILES IDX 7 1 9 2 11 3 12 4 10 6 5 8 2 9 1 10 3 11 4 12 6 14 8 16
REMARK H PARENT 12 5 10 7 4 13 6 15 8 17
REMARK Flexibility Score: inf
ROOT
ATOM      1  C   UNL     1      -2.036  17.922  46.164  1.00  0.00     0.181 C 
ENDROOT
BRANCH   1   2
ATOM      2  C   UNL     1      -1.900  16.442  45.722  1.00  0.00     0.171 C 
BRANCH   2   3
ATOM      3  C   UNL     1      -1.921  16.303  44.190  1.00  0.00     0.190 C 
BRANCH   3   4
ATOM      4  O   UNL     1      -3.234  16.277  43.698  1.00  0.00    -0.394 OA
ATOM      5  H   UNL     1      -3.835  16.348  44.484  1.00  0.00     0.210 HD
ENDBRANCH   3   4
ENDBRANCH   2   3
BRANCH   2   6
ATOM      6  O   UNL     1      -0.684  15.913  46.189  1.00  0.00    -0.388 OA
ATOM      7  H   UNL     1       0.015  16.604  46.044  1.00  0.00     0.211 HD
ENDBRANCH   2   6
ENDBRANCH   1   2
BRANCH   1   8
ATOM      8  C   UNL     1      -1.816  18.096  47.695  1.00  0.00     0.214 C 
BRANCH   8   9
ATOM      9  C   UNL     1      -2.847  17.331  48.507  1.00  0.00     0.189 C 
ATOM     10  O   UNL     1      -4.004  17.725  48.486  1.00  0.00    -0.294 OA
BRANCH   9  11
ATOM     11  C   UNL     1      -2.555  16.075  49.298  1.00  0.00     0.234 C 
BRANCH  11  12
ATOM     12  O   UNL     1      -1.675  16.300  50.366  1.00  0.00    -0.388 OA
ATOM     13  H   UNL     1      -2.039  15.808  51.148  1.00  0.00     0.211 HD
ENDBRANCH  11  12
ENDBRANCH   9  11
ENDBRANCH   8   9
BRANCH   8  14
ATOM     14  O   UNL     1      -0.506  17.797  48.119  1.00  0.00    -0.382 OA
ATOM     15  H   UNL     1      -0.466  16.850  48.409  1.00  0.00     0.211 HD
ENDBRANCH   8  14
ENDBRANCH   1   8
BRANCH   1  16
ATOM     16  O   UNL     1      -3.303  18.408  45.799  1.00  0.00    -0.387 OA
ATOM     17  H   UNL     1      -3.385  18.309  44.814  1.00  0.00     0.211 HD
ENDBRANCH   1  16
TORSDOF 10
ENDMDL
MODEL 3
REMARK VINA RESULT:    -4.390      1.251      2.255
REMARK INTER + INTRA:          -7.355
REMARK INTER:                  -6.264
REMARK INTRA:                  -1.091
REMARK UNBOUND:                -1.041
REMARK SMILES O=C(CO)[C@@H](O)[C@H](O)[C@H](O)CO
REMARK SMILES IDX 7 1 9 2 11 3 12 4 10 6 5 8 2 9 1 10 3 11 4 12 6 14 8 16
REMARK H PARENT 12 5 10 7 4 13 6 15 8 17
REMARK Flexibility Score: inf
ROOT
ATOM      1  C   UNL     1      -2.082  17.918  45.922  1.00  0.00     0.181 C 
ENDROOT
BRANCH   1   2
ATOM      2  C   UNL     1      -1.429  16.597  45.437  1.00  0.00     0.171 C 
BRANCH   2   3
ATOM      3  C   UNL     1      -1.838  16.260  43.993  1.00  0.00     0.190 C 
BRANCH   3   4
ATOM      4  O   UNL     1      -3.232  16.193  43.859  1.00  0.00    -0.394 OA
ATOM      5  H   UNL     1      -3.518  17.038  43.425  1.00  0.00     0.210 HD
ENDBRANCH   3   4
ENDBRANCH   2   3
BRANCH   2   6
ATOM      6  O   UNL     1      -0.029  16.713  45.476  1.00  0.00    -0.388 OA
ATOM      7  H   UNL     1       0.223  17.469  44.882  1.00  0.00     0.211 HD
ENDBRANCH   2   6
ENDBRANCH   1   2
BRANCH   1   8
ATOM      8  C   UNL     1      -1.460  18.419  47.259  1.00  0.00     0.214 C 
BRANCH   8   9
ATOM      9  C   UNL     1      -2.432  19.278  48.050  1.00  0.00     0.189 C 
ATOM     10  O   UNL     1      -2.701  20.390  47.616  1.00  0.00    -0.294 OA
BRANCH   9  11
ATOM     11  C   UNL     1      -3.139  18.833  49.310  1.00  0.00     0.234 C 
BRANCH  11  12
ATOM     12  O   UNL     1      -3.800  17.607  49.156  1.00  0.00    -0.388 OA
ATOM     13  H   UNL     1      -4.193  17.379  50.039  1.00  0.00     0.211 HD
ENDBRANCH  11  12
ENDBRANCH   9  11
ENDBRANCH   8   9
BRANCH   8  14
ATOM     14  O   UNL     1      -0.921  17.390  48.056  1.00  0.00    -0.382 OA
ATOM     15  H   UNL     1      -1.324  17.435  48.961  1.00  0.00     0.211 HD
ENDBRANCH   8  14
ENDBRANCH   1   8
BRANCH   1  16
ATOM     16  O   UNL     1      -3.467  17.730  46.073  1.00  0.00    -0.387 OA
ATOM     17  H   UNL     1      -3.871  17.767  45.168  1.00  0.00     0.211 HD
ENDBRANCH   1  16
TORSDOF 10
ENDMDL
MODEL 4
REMARK VINA RESULT:    -4.338      1.721      2.377
REMARK INTER + INTRA:          -7.281
REMARK INTER:                  -6.053
REMARK INTRA:                  -1.228
REMARK UNBOUND:                -1.041
REMARK SMILES O=C(CO)[C@@H](O)[C@H](O)[C@H](O)CO
REMARK SMILES IDX 7 1 9 2 11 3 12 4 10 6 5 8 2 9 1 10 3 11 4 12 6 14 8 16
REMARK H PARENT 12 5 10 7 4 13 6 15 8 17
REMARK Flexibility Score: inf
ROOT
ATOM      1  C   UNL     1      -2.438  16.976  46.623  1.00  0.00     0.181 C 
ENDROOT
BRANCH   1   2
ATOM      2  C   UNL     1      -2.360  17.362  45.124  1.00  0.00     0.171 C 
BRANCH   2   3
ATOM      3  C   UNL     1      -1.840  16.198  44.264  1.00  0.00     0.190 C 
BRANCH   3   4
ATOM      4  O   UNL     1      -0.514  15.876  44.589  1.00  0.00    -0.394 OA
ATOM      5  H   UNL     1      -0.382  14.925  44.337  1.00  0.00     0.210 HD
ENDBRANCH   3   4
ENDBRANCH   2   3
BRANCH   2   6
ATOM      6  O   UNL     1      -3.637  17.712  44.653  1.00  0.00    -0.388 OA
ATOM      7  H   UNL     1      -4.270  17.617  45.413  1.00  0.00     0.211 HD
ENDBRANCH   2   6
ENDBRANCH   1   2
BRANCH   1   8
ATOM      8  C   UNL     1      -3.107  18.091  47.479  1.00  0.00     0.214 C 
BRANCH   8   9
ATOM      9  C   UNL     1      -2.380  19.419  47.351  1.00  0.00     0.189 C 
ATOM     10  O   UNL     1      -1.191  19.453  47.637  1.00  0.00    -0.294 OA
BRANCH   9  11
ATOM     11  C   UNL     1      -3.008  20.695  46.837  1.00  0.00     0.234 C 
BRANCH  11  12
ATOM     12  O   UNL     1      -3.582  20.543  45.568  1.00  0.00    -0.388 OA
ATOM     13  H   UNL     1      -4.109  21.365  45.390  1.00  0.00     0.211 HD
ENDBRANCH  11  12
ENDBRANCH   9  11
ENDBRANCH   8   9
BRANCH   8  14
ATOM     14  O   UNL     1      -4.488  18.240  47.240  1.00  0.00    -0.382 OA
ATOM     15  H   UNL     1      -4.765  19.157  47.493  1.00  0.00     0.211 HD
ENDBRANCH   8  14
ENDBRANCH   1   8
BRANCH   1  16
ATOM     16  O   UNL     1      -1.146  16.704  47.107  1.00  0.00    -0.387 OA
ATOM     17  H   UNL     1      -0.798  15.926  46.599  1.00  0.00     0.211 HD
ENDBRANCH   1  16
TORSDOF 10
ENDMDL
MODEL 5
REMARK VINA RESULT:    -4.294      2.104      4.468
REMARK INTER + INTRA:          -7.217
REMARK INTER:                  -5.801
REMARK INTRA:                  -1.416
REMARK UNBOUND:                -1.041
REMARK SMILES O=C(CO)[C@@H](O)[C@H](O)[C@H](O)CO
REMARK SMILES IDX 7 1 9 2 11 3 12 4 10 6 5 8 2 9 1 10 3 11 4 12 6 14 8 16
REMARK H PARENT 12 5 10 7 4 13 6 15 8 17
REMARK Flexibility Score: inf
ROOT
ATOM      1  C   UNL     1      -3.227  19.069  48.076  1.00  0.00     0.181 C 
ENDROOT
BRANCH   1   2
ATOM      2  C   UNL     1      -3.174  20.618  48.032  1.00  0.00     0.171 C 
BRANCH   2   3
ATOM      3  C   UNL     1      -4.165  21.190  47.004  1.00  0.00     0.190 C 
BRANCH   3   4
ATOM      4  O   UNL     1      -3.771  20.890  45.693  1.00  0.00    -0.394 OA
ATOM      5  H   UNL     1      -4.178  21.581  45.107  1.00  0.00     0.210 HD
ENDBRANCH   3   4
ENDBRANCH   2   3
BRANCH   2   6
ATOM      6  O   UNL     1      -3.504  21.144  49.293  1.00  0.00    -0.388 OA
ATOM      7  H   UNL     1      -3.130  20.530  49.978  1.00  0.00     0.211 HD
ENDBRANCH   2   6
ENDBRANCH   1   2
BRANCH   1   8
ATOM      8  C   UNL     1      -2.010  18.422  47.353  1.00  0.00     0.214 C 
BRANCH   8   9
ATOM      9  C   UNL     1      -2.391  17.131  46.646  1.00  0.00     0.189 C 
ATOM     10  O   UNL     1      -2.529  16.123  47.325  1.00  0.00    -0.294 OA
BRANCH   9  11
ATOM     11  C   UNL     1      -2.668  17.015  45.164  1.00  0.00     0.234 C 
BRANCH  11  12
ATOM     12  O   UNL     1      -3.438  18.078  44.673  1.00  0.00    -0.388 OA
ATOM     13  H   UNL     1      -4.037  18.365  45.411  1.00  0.00     0.211 HD
ENDBRANCH  11  12
ENDBRANCH   9  11
ENDBRANCH   8   9
BRANCH   8  14
ATOM     14  O   UNL     1      -1.333  19.300  46.483  1.00  0.00    -0.382 OA
ATOM     15  H   UNL     1      -0.701  19.855  47.008  1.00  0.00     0.211 HD
ENDBRANCH   8  14
ENDBRANCH   1   8
BRANCH   1  16
ATOM     16  O   UNL     1      -4.428  18.623  47.497  1.00  0.00    -0.387 OA
ATOM     17  H   UNL     1      -4.283  18.575  46.517  1.00  0.00     0.211 HD
ENDBRANCH   1  16
TORSDOF 10
ENDMDL
MODEL 6
REMARK VINA RESULT:    -4.291      2.041      3.298
REMARK INTER + INTRA:          -7.213
REMARK INTER:                  -5.798
REMARK INTRA:                  -1.415
REMARK UNBOUND:                -1.041
REMARK SMILES O=C(CO)[C@@H](O)[C@H](O)[C@H](O)CO
REMARK SMILES IDX 7 1 9 2 11 3 12 4 10 6 5 8 2 9 1 10 3 11 4 12 6 14 8 16
REMARK H PARENT 12 5 10 7 4 13 6 15 8 17
REMARK Flexibility Score: inf
ROOT
ATOM      1  C   UNL     1      -2.130  18.209  47.381  1.00  0.00     0.181 C 
ENDROOT
BRANCH   1   2
ATOM      2  C   UNL     1      -2.517  16.894  46.658  1.00  0.00     0.171 C 
BRANCH   2   3
ATOM      3  C   UNL     1      -2.492  17.058  45.128  1.00  0.00     0.190 C 
BRANCH   3   4
ATOM      4  O   UNL     1      -3.475  17.959  44.695  1.00  0.00    -0.394 OA
ATOM      5  H   UNL     1      -3.897  18.335  45.511  1.00  0.00     0.210 HD
ENDBRANCH   3   4
ENDBRANCH   2   3
BRANCH   2   6
ATOM      6  O   UNL     1      -1.611  15.876  47.000  1.00  0.00    -0.388 OA
ATOM      7  H   UNL     1      -2.075  15.007  46.865  1.00  0.00     0.211 HD
ENDBRANCH   2   6
ENDBRANCH   1   2
BRANCH   1   8
ATOM      8  C   UNL     1      -3.378  18.971  47.916  1.00  0.00     0.214 C 
BRANCH   8   9
ATOM      9  C   UNL     1      -3.248  20.473  47.735  1.00  0.00     0.189 C 
ATOM     10  O   UNL     1      -2.523  21.085  48.507  1.00  0.00    -0.294 OA
BRANCH   9  11
ATOM     11  C   UNL     1      -3.906  21.263  46.626  1.00  0.00     0.234 C 
BRANCH  11  12
ATOM     12  O   UNL     1      -3.681  20.709  45.359  1.00  0.00    -0.388 OA
ATOM     13  H   UNL     1      -4.563  20.656  44.907  1.00  0.00     0.211 HD
ENDBRANCH  11  12
ENDBRANCH   9  11
ENDBRANCH   8   9
BRANCH   8  14
ATOM     14  O   UNL     1      -4.599  18.496  47.396  1.00  0.00    -0.382 OA
ATOM     15  H   UNL     1      -4.900  19.101  46.671  1.00  0.00     0.211 HD
ENDBRANCH   8  14
ENDBRANCH   1   8
BRANCH   1  16
ATOM     16  O   UNL     1      -1.402  19.031  46.503  1.00  0.00    -0.387 OA
ATOM     17  H   UNL     1      -1.976  19.200  45.711  1.00  0.00     0.211 HD
ENDBRANCH   1  16
TORSDOF 10
ENDMDL
MODEL 7
REMARK VINA RESULT:    -4.262      1.912      2.836
REMARK INTER + INTRA:          -7.172
REMARK INTER:                  -5.896
REMARK INTRA:                  -1.276
REMARK UNBOUND:                -1.041
REMARK SMILES O=C(CO)[C@@H](O)[C@H](O)[C@H](O)CO
REMARK SMILES IDX 7 1 9 2 11 3 12 4 10 6 5 8 2 9 1 10 3 11 4 12 6 14 8 16
REMARK H PARENT 12 5 10 7 4 13 6 15 8 17
REMARK Flexibility Score: inf
ROOT
ATOM      1  C   UNL     1      -1.419  17.576  46.524  1.00  0.00     0.181 C 
ENDROOT
BRANCH   1   2
ATOM      2  C   UNL     1      -1.044  18.982  47.058  1.00  0.00     0.171 C 
BRANCH   2   3
ATOM      3  C   UNL     1       0.480  19.164  47.155  1.00  0.00     0.190 C 
BRANCH   3   4
ATOM      4  O   UNL     1       1.149  18.404  46.185  1.00  0.00    -0.394 OA
ATOM      5  H   UNL     1       1.940  18.003  46.631  1.00  0.00     0.210 HD
ENDBRANCH   3   4
ENDBRANCH   2   3
BRANCH   2   6
ATOM      6  O   UNL     1      -1.544  19.971  46.193  1.00  0.00    -0.388 OA
ATOM      7  H   UNL     1      -1.019  20.799  46.353  1.00  0.00     0.211 HD
ENDBRANCH   2   6
ENDBRANCH   1   2
BRANCH   1   8
ATOM      8  C   UNL     1      -2.961  17.364  46.471  1.00  0.00     0.214 C 
BRANCH   8   9
ATOM      9  C   UNL     1      -3.618  17.637  47.813  1.00  0.00     0.189 C 
ATOM     10  O   UNL     1      -3.289  16.945  48.766  1.00  0.00    -0.294 OA
BRANCH   9  11
ATOM     11  C   UNL     1      -4.612  18.747  48.070  1.00  0.00     0.234 C 
BRANCH  11  12
ATOM     12  O   UNL     1      -4.366  19.886  47.291  1.00  0.00    -0.388 OA
ATOM     13  H   UNL     1      -4.299  19.580  46.348  1.00  0.00     0.211 HD
ENDBRANCH  11  12
ENDBRANCH   9  11
ENDBRANCH   8   9
BRANCH   8  14
ATOM     14  O   UNL     1      -3.597  18.077  45.435  1.00  0.00    -0.382 OA
ATOM     15  H   UNL     1      -3.799  17.456  44.689  1.00  0.00     0.211 HD
ENDBRANCH   8  14
ENDBRANCH   1   8
BRANCH   1  16
ATOM     16  O   UNL     1      -0.823  16.592  47.331  1.00  0.00    -0.387 OA
ATOM     17  H   UNL     1      -0.996  16.840  48.276  1.00  0.00     0.211 HD
ENDBRANCH   1  16
TORSDOF 10
ENDMDL
MODEL 8
REMARK VINA RESULT:    -4.257      1.548      4.181
REMARK INTER + INTRA:          -7.164
REMARK INTER:                  -5.968
REMARK INTRA:                  -1.196
REMARK UNBOUND:                -1.041
REMARK SMILES O=C(CO)[C@@H](O)[C@H](O)[C@H](O)CO
REMARK SMILES IDX 7 1 9 2 11 3 12 4 10 6 5 8 2 9 1 10 3 11 4 12 6 14 8 16
REMARK H PARENT 12 5 10 7 4 13 6 15 8 17
REMARK Flexibility Score: inf
ROOT
ATOM      1  C   UNL     1      -2.819  18.236  47.130  1.00  0.00     0.181 C 
ENDROOT
BRANCH   1   2
ATOM      2  C   UNL     1      -2.066  19.277  46.263  1.00  0.00     0.171 C 
BRANCH   2   3
ATOM      3  C   UNL     1      -2.701  20.674  46.373  1.00  0.00     0.190 C 
BRANCH   3   4
ATOM      4  O   UNL     1      -3.697  20.860  45.404  1.00  0.00    -0.394 OA
ATOM      5  H   UNL     1      -3.677  21.820  45.155  1.00  0.00     0.210 HD
ENDBRANCH   3   4
ENDBRANCH   2   3
BRANCH   2   6
ATOM      6  O   UNL     1      -0.729  19.374  46.685  1.00  0.00    -0.388 OA
ATOM      7  H   UNL     1      -0.630  20.239  47.164  1.00  0.00     0.211 HD
ENDBRANCH   2   6
ENDBRANCH   1   2
BRANCH   1   8
ATOM      8  C   UNL     1      -2.318  16.786  46.868  1.00  0.00     0.214 C 
BRANCH   8   9
ATOM      9  C   UNL     1      -2.174  16.495  45.384  1.00  0.00     0.189 C 
ATOM     10  O   UNL     1      -3.174  16.565  44.684  1.00  0.00    -0.294 OA
BRANCH   9  11
ATOM     11  C   UNL     1      -0.864  16.180  44.695  1.00  0.00     0.234 C 
BRANCH  11  12
ATOM     12  O   UNL     1       0.219  16.877  45.248  1.00  0.00    -0.388 OA
ATOM     13  H   UNL     1      -0.127  17.760  45.542  1.00  0.00     0.211 HD
ENDBRANCH  11  12
ENDBRANCH   9  11
ENDBRANCH   8   9
BRANCH   8  14
ATOM     14  O   UNL     1      -1.142  16.455  47.571  1.00  0.00    -0.382 OA
ATOM     15  H   UNL     1      -0.897  15.516  47.371  1.00  0.00     0.211 HD
ENDBRANCH   8  14
ENDBRANCH   1   8
BRANCH   1  16
ATOM     16  O   UNL     1      -4.199  18.325  46.878  1.00  0.00    -0.387 OA
ATOM     17  H   UNL     1      -4.635  17.571  47.354  1.00  0.00     0.211 HD
ENDBRANCH   1  16
TORSDOF 10
ENDMDL
MODEL 9
REMARK VINA RESULT:    -4.210      2.736      4.817
REMARK INTER + INTRA:          -7.097
REMARK INTER:                  -5.841
REMARK INTRA:                  -1.256
REMARK UNBOUND:                -1.041
REMARK SMILES O=C(CO)[C@@H](O)[C@H](O)[C@H](O)CO
REMARK SMILES IDX 7 1 9 2 11 3 12 4 10 6 5 8 2 9 1 10 3 11 4 12 6 14 8 16
REMARK H PARENT 12 5 10 7 4 13 6 15 8 17
REMARK Flexibility Score: inf
ROOT
ATOM      1  C   UNL     1      -2.902  20.603  47.775  1.00  0.00     0.181 C 
ENDROOT
BRANCH   1   2
ATOM      2  C   UNL     1      -3.910  21.025  46.675  1.00  0.00     0.171 C 
BRANCH   2   3
ATOM      3  C   UNL     1      -4.597  22.359  47.017  1.00  0.00     0.190 C 
BRANCH   3   4
ATOM      4  O   UNL     1      -5.824  22.152  47.662  1.00  0.00    -0.394 OA
ATOM      5  H   UNL     1      -6.040  22.993  48.141  1.00  0.00     0.210 HD
ENDBRANCH   3   4
ENDBRANCH   2   3
BRANCH   2   6
ATOM      6  O   UNL     1      -3.242  21.183  45.449  1.00  0.00    -0.388 OA
ATOM      7  H   UNL     1      -3.671  21.941  44.972  1.00  0.00     0.211 HD
ENDBRANCH   2   6
ENDBRANCH   1   2
BRANCH   1   8
ATOM      8  C   UNL     1      -2.177  19.271  47.422  1.00  0.00     0.214 C 
BRANCH   8   9
ATOM      9  C   UNL     1      -3.159  18.138  47.179  1.00  0.00     0.189 C 
ATOM     10  O   UNL     1      -3.934  17.846  48.078  1.00  0.00    -0.294 OA
BRANCH   9  11
ATOM     11  C   UNL     1      -3.286  17.378  45.877  1.00  0.00     0.234 C 
BRANCH  11  12
ATOM     12  O   UNL     1      -3.433  18.224  44.769  1.00  0.00    -0.388 OA
ATOM     13  H   UNL     1      -4.310  18.008  44.356  1.00  0.00     0.211 HD
ENDBRANCH  11  12
ENDBRANCH   9  11
ENDBRANCH   8   9
BRANCH   8  14
ATOM     14  O   UNL     1      -1.258  19.389  46.359  1.00  0.00    -0.382 OA
ATOM     15  H   UNL     1      -0.446  18.864  46.573  1.00  0.00     0.211 HD
ENDBRANCH   8  14
ENDBRANCH   1   8
BRANCH   1  16
ATOM     16  O   UNL     1      -3.573  20.478  49.004  1.00  0.00    -0.387 OA
ATOM     17  H   UNL     1      -3.278  21.230  49.580  1.00  0.00     0.211 HD
ENDBRANCH   1  16
TORSDOF 10
ENDMDL
