MODEL 1
REMARK VINA RESULT:    -2.700      0.000      0.000
REMARK INTER + INTRA:          -3.537
REMARK INTER:                  -3.331
REMARK INTRA:                  -0.206
REMARK UNBOUND:                -0.206
REMARK SMILES C=CC[C@@H](C)C(=O)CC
REMARK SMILES IDX 4 1 5 2 6 3 7 4 8 5 9 6 3 7 2 8 1 9
REMARK H PARENT
REMARK Flexibility Score: inf
ROOT
ATOM      1  C   UNL     1       6.634  24.983  21.117  1.00  0.00     0.057 C 
ATOM      2  C   UNL     1       6.351  26.044  22.186  1.00  0.00     0.016 C 
ENDROOT
BRANCH   1   3
ATOM      3  C   UNL     1       6.047  25.419  19.789  1.00  0.00     0.135 C 
ATOM      4  O   UNL     1       6.775  25.906  18.935  1.00  0.00    -0.299 OA
BRANCH   3   5
ATOM      5  C   UNL     1       4.574  25.279  19.504  1.00  0.00     0.072 C 
ATOM      6  C   UNL     1       4.031  23.966  20.061  1.00  0.00     0.012 C 
ENDBRANCH   3   5
ENDBRANCH   1   3
BRANCH   1   7
ATOM      7  C   UNL     1       8.150  24.723  21.000  1.00  0.00     0.038 C 
BRANCH   7   8
ATOM      8  C   UNL     1       8.599  23.571  21.861  1.00  0.00    -0.034 C 
ATOM      9  C   UNL     1       9.012  22.416  21.332  1.00  0.00     0.004 C 
ENDBRANCH   7   8
ENDBRANCH   1   7
TORSDOF 4
ENDMDL
MODEL 2
REMARK VINA RESULT:    -2.685      1.649      4.000
REMARK INTER + INTRA:          -3.519
REMARK INTER:                  -3.295
REMARK INTRA:                  -0.224
REMARK UNBOUND:                -0.206
REMARK SMILES C=CC[C@@H](C)C(=O)CC
REMARK SMILES IDX 4 1 5 2 6 3 7 4 8 5 9 6 3 7 2 8 1 9
REMARK H PARENT
REMARK Flexibility Score: inf
ROOT
ATOM      1  C   UNL     1       6.727  25.011  20.712  1.00  0.00     0.057 C 
ATOM      2  C   UNL     1       7.304  25.996  19.689  1.00  0.00     0.016 C 
ENDROOT
BRANCH   1   3
ATOM      3  C   UNL     1       7.811  24.578  21.679  1.00  0.00     0.135 C 
ATOM      4  O   UNL     1       7.689  24.816  22.872  1.00  0.00    -0.299 OA
BRANCH   3   5
ATOM      5  C   UNL     1       9.050  23.869  21.195  1.00  0.00     0.072 C 
ATOM      6  C   UNL     1       8.905  22.357  21.334  1.00  0.00     0.012 C 
ENDBRANCH   3   5
ENDBRANCH   1   3
BRANCH   1   7
ATOM      7  C   UNL     1       5.532  25.642  21.457  1.00  0.00     0.038 C 
BRANCH   7   8
ATOM      8  C   UNL     1       4.209  25.181  20.905  1.00  0.00    -0.034 C 
ATOM      9  C   UNL     1       4.105  24.085  20.148  1.00  0.00     0.004 C 
ENDBRANCH   7   8
ENDBRANCH   1   7
TORSDOF 4
ENDMDL
MODEL 3
REMARK VINA RESULT:    -2.593      4.285      5.141
REMARK INTER + INTRA:          -3.405
REMARK INTER:                  -3.113
REMARK INTRA:                  -0.292
REMARK UNBOUND:                -0.206
REMARK SMILES C=CC[C@@H](C)C(=O)CC
REMARK SMILES IDX 4 1 5 2 6 3 7 4 8 5 9 6 3 7 2 8 1 9
REMARK H PARENT
REMARK Flexibility Score: inf
ROOT
ATOM      1  C   UNL     1       9.725  23.148  22.850  1.00  0.00     0.057 C 
ATOM      2  C   UNL     1      10.241  24.540  22.470  1.00  0.00     0.016 C 
ENDROOT
BRANCH   1   3
ATOM      3  C   UNL     1       9.633  22.276  21.614  1.00  0.00     0.135 C 
ATOM      4  O   UNL     1       8.555  22.125  21.057  1.00  0.00    -0.299 OA
BRANCH   3   5
ATOM      5  C   UNL     1      10.847  21.573  21.063  1.00  0.00     0.072 C 
ATOM      6  C   UNL     1      10.776  21.470  19.543  1.00  0.00     0.012 C 
ENDBRANCH   3   5
ENDBRANCH   1   3
BRANCH   1   7
ATOM      7  C   UNL     1      10.633  22.507  23.921  1.00  0.00     0.038 C 
BRANCH   7   8
ATOM      8  C   UNL     1       9.842  21.851  25.021  1.00  0.00    -0.034 C 
ATOM      9  C   UNL     1       8.519  22.008  25.127  1.00  0.00     0.004 C 
ENDBRANCH   7   8
ENDBRANCH   1   7
TORSDOF 4
ENDMDL
MODEL 4
REMARK VINA RESULT:    -2.576      3.822      5.128
REMARK INTER + INTRA:          -3.385
REMARK INTER:                  -2.935
REMARK INTRA:                  -0.449
REMARK UNBOUND:                -0.206
REMARK SMILES C=CC[C@@H](C)C(=O)CC
REMARK SMILES IDX 4 1 5 2 6 3 7 4 8 5 9 6 3 7 2 8 1 9
REMARK H PARENT
REMARK Flexibility Score: inf
ROOT
ATOM      1  C   UNL     1       9.394  23.661  22.814  1.00  0.00     0.057 C 
ATOM      2  C   UNL     1       9.111  25.101  22.372  1.00  0.00     0.016 C 
ENDROOT
BRANCH   1   3
ATOM      3  C   UNL     1       8.785  23.410  24.179  1.00  0.00     0.135 C 
ATOM      4  O   UNL     1       8.157  24.300  24.734  1.00  0.00    -0.299 OA
BRANCH   3   5
ATOM      5  C   UNL     1       8.954  22.085  24.877  1.00  0.00     0.072 C 
ATOM      6  C   UNL     1      10.380  21.914  25.389  1.00  0.00     0.012 C 
ENDBRANCH   3   5
ENDBRANCH   1   3
BRANCH   1   7
ATOM      7  C   UNL     1       8.858  22.659  21.769  1.00  0.00     0.038 C 
BRANCH   7   8
ATOM      8  C   UNL     1       9.966  21.916  21.071  1.00  0.00    -0.034 C 
ATOM      9  C   UNL     1      11.049  21.487  21.727  1.00  0.00     0.004 C 
ENDBRANCH   7   8
ENDBRANCH   1   7
TORSDOF 4
ENDMDL
MODEL 5
REMARK VINA RESULT:    -2.482     12.102     12.743
REMARK INTER + INTRA:          -3.269
REMARK INTER:                  -3.011
REMARK INTRA:                  -0.257
REMARK UNBOUND:                -0.206
REMARK SMILES C=CC[C@@H](C)C(=O)CC
REMARK SMILES IDX 4 1 5 2 6 3 7 4 8 5 9 6 3 7 2 8 1 9
REMARK H PARENT
REMARK Flexibility Score: inf
ROOT
ATOM      1  C   UNL     1       9.791  21.622   9.413  1.00  0.00     0.057 C 
ATOM      2  C   UNL     1       8.856  22.675   8.809  1.00  0.00     0.016 C 
ENDROOT
BRANCH   1   3
ATOM      3  C   UNL     1      10.391  20.772   8.312  1.00  0.00     0.135 C 
ATOM      4  O   UNL     1      10.931  21.312   7.356  1.00  0.00    -0.299 OA
BRANCH   3   5
ATOM      5  C   UNL     1      10.322  19.267   8.361  1.00  0.00     0.072 C 
ATOM      6  C   UNL     1       8.901  18.794   8.653  1.00  0.00     0.012 C 
ENDBRANCH   3   5
ENDBRANCH   1   3
BRANCH   1   7
ATOM      7  C   UNL     1      10.890  22.295  10.262  1.00  0.00     0.038 C 
BRANCH   7   8
ATOM      8  C   UNL     1      10.934  23.786  10.057  1.00  0.00    -0.034 C 
ATOM      9  C   UNL     1      11.125  24.632  11.074  1.00  0.00     0.004 C 
ENDBRANCH   7   8
ENDBRANCH   1   7
TORSDOF 4
ENDMDL
MODEL 6
REMARK VINA RESULT:    -2.469      1.300      3.720
REMARK INTER + INTRA:          -3.253
REMARK INTER:                  -2.922
REMARK INTRA:                  -0.331
REMARK UNBOUND:                -0.206
REMARK SMILES C=CC[C@@H](C)C(=O)CC
REMARK SMILES IDX 4 1 5 2 6 3 7 4 8 5 9 6 3 7 2 8 1 9
REMARK H PARENT
REMARK Flexibility Score: inf
ROOT
ATOM      1  C   UNL     1       7.637  25.853  21.100  1.00  0.00     0.057 C 
ATOM      2  C   UNL     1       6.939  25.781  22.462  1.00  0.00     0.016 C 
ENDROOT
BRANCH   1   3
ATOM      3  C   UNL     1       8.776  24.854  21.050  1.00  0.00     0.135 C 
ATOM      4  O   UNL     1       9.623  24.943  20.172  1.00  0.00    -0.299 OA
BRANCH   3   5
ATOM      5  C   UNL     1       8.878  23.736  22.056  1.00  0.00     0.072 C 
ATOM      6  C   UNL     1       8.929  22.379  21.362  1.00  0.00     0.012 C 
ENDBRANCH   3   5
ENDBRANCH   1   3
BRANCH   1   7
ATOM      7  C   UNL     1       6.627  25.607  19.959  1.00  0.00     0.038 C 
BRANCH   7   8
ATOM      8  C   UNL     1       5.479  24.735  20.393  1.00  0.00    -0.034 C 
ATOM      9  C   UNL     1       4.361  24.630  19.668  1.00  0.00     0.004 C 
ENDBRANCH   7   8
ENDBRANCH   1   7
TORSDOF 4
ENDMDL
MODEL 7
REMARK VINA RESULT:    -2.439      3.002      4.345
REMARK INTER + INTRA:          -3.215
REMARK INTER:                  -2.779
REMARK INTRA:                  -0.437
REMARK UNBOUND:                -0.206
REMARK SMILES C=CC[C@@H](C)C(=O)CC
REMARK SMILES IDX 4 1 5 2 6 3 7 4 8 5 9 6 3 7 2 8 1 9
REMARK H PARENT
REMARK Flexibility Score: inf
ROOT
ATOM      1  C   UNL     1       8.979  22.750  23.582  1.00  0.00     0.057 C 
ATOM      2  C   UNL     1       8.836  22.010  24.916  1.00  0.00     0.016 C 
ENDROOT
BRANCH   1   3
ATOM      3  C   UNL     1       8.521  24.186  23.737  1.00  0.00     0.135 C 
ATOM      4  O   UNL     1       8.153  24.590  24.832  1.00  0.00    -0.299 OA
BRANCH   3   5
ATOM      5  C   UNL     1       8.494  25.128  22.561  1.00  0.00     0.072 C 
ATOM      6  C   UNL     1       7.513  24.646  21.497  1.00  0.00     0.012 C 
ENDBRANCH   3   5
ENDBRANCH   1   3
BRANCH   1   7
ATOM      7  C   UNL     1      10.435  22.679  23.076  1.00  0.00     0.038 C 
BRANCH   7   8
ATOM      8  C   UNL     1      10.585  21.748  21.901  1.00  0.00    -0.034 C 
ATOM      9  C   UNL     1       9.952  21.967  20.744  1.00  0.00     0.004 C 
ENDBRANCH   7   8
ENDBRANCH   1   7
TORSDOF 4
ENDMDL
MODEL 8
REMARK VINA RESULT:    -2.439     15.859     16.681
REMARK INTER + INTRA:          -3.215
REMARK INTER:                  -3.047
REMARK INTRA:                  -0.168
REMARK UNBOUND:                -0.206
REMARK SMILES C=CC[C@@H](C)C(=O)CC
REMARK SMILES IDX 4 1 5 2 6 3 7 4 8 5 9 6 3 7 2 8 1 9
REMARK H PARENT
REMARK Flexibility Score: inf
ROOT
ATOM      1  C   UNL     1      -5.487  23.656   9.576  1.00  0.00     0.057 C 
ATOM      2  C   UNL     1      -6.195  23.111   8.331  1.00  0.00     0.016 C 
ENDROOT
BRANCH   1   3
ATOM      3  C   UNL     1      -4.182  24.316   9.180  1.00  0.00     0.135 C 
ATOM      4  O   UNL     1      -3.647  25.108   9.944  1.00  0.00    -0.299 OA
BRANCH   3   5
ATOM      5  C   UNL     1      -3.534  24.029   7.850  1.00  0.00     0.072 C 
ATOM      6  C   UNL     1      -2.942  25.298   7.245  1.00  0.00     0.012 C 
ENDBRANCH   3   5
ENDBRANCH   1   3
BRANCH   1   7
ATOM      7  C   UNL     1      -6.404  24.638  10.334  1.00  0.00     0.038 C 
BRANCH   7   8
ATOM      8  C   UNL     1      -6.994  24.025  11.577  1.00  0.00    -0.034 C 
ATOM      9  C   UNL     1      -7.697  24.748  12.453  1.00  0.00     0.004 C 
ENDBRANCH   7   8
ENDBRANCH   1   7
TORSDOF 4
ENDMDL
