MODEL 1
REMARK VINA RESULT:    -1.227      0.000      0.000
REMARK INTER + INTRA:          -4.598
REMARK INTER:                  -2.160
REMARK INTRA:                  -2.438
REMARK UNBOUND:                -2.438
REMARK SMILES CCCCCCCCCCCCCCC(=O)[O-]
REMARK SMILES IDX 9 1 10 2 11 3 12 4 13 5 14 6 15 7 16 8 17 9 8 10 7 11 6 12
REMARK SMILES IDX 5 13 4 14 3 15 2 16 1 17
REMARK H PARENT
REMARK Flexibility Score: inf
ROOT
ATOM      1  C   UNL     1     142.798  54.512  -9.946  1.00  0.00     0.000 C 
ENDROOT
BRANCH   1   2
ATOM      2  C   UNL     1     142.874  53.949 -11.377  1.00  0.00     0.000 C 
BRANCH   2   3
ATOM      3  C   UNL     1     141.674  53.083 -11.802  1.00  0.00     0.000 C 
BRANCH   3   4
ATOM      4  C   UNL     1     141.508  52.996 -13.329  1.00  0.00     0.000 C 
BRANCH   4   5
ATOM      5  C   UNL     1     140.046  53.169 -13.780  1.00  0.00     0.006 C 
BRANCH   5   6
ATOM      6  C   UNL     1     139.005  52.818 -12.704  1.00  0.00     0.053 C 
BRANCH   6   7
ATOM      7  C   UNL     1     138.372  51.483 -12.949  1.00  0.00     0.041 C 
ATOM      8  O   UNL     1     137.140  51.400 -13.193  1.00  0.00    -0.550 OA
ATOM      9  O   UNL     1     139.151  50.333 -12.940  1.00  0.00    -0.550 OA
ENDBRANCH   6   7
ENDBRANCH   5   6
ENDBRANCH   4   5
ENDBRANCH   3   4
ENDBRANCH   2   3
ENDBRANCH   1   2
BRANCH   1  10
ATOM     10  C   UNL     1     141.705  53.840  -9.096  1.00  0.00     0.000 C 
BRANCH  10  11
ATOM     11  C   UNL     1     140.531  54.781  -8.786  1.00  0.00    -0.000 C 
BRANCH  11  12
ATOM     12  C   UNL     1     140.959  56.259  -8.731  1.00  0.00    -0.000 C 
BRANCH  12  13
ATOM     13  C   UNL     1     140.207  57.123  -9.756  1.00  0.00    -0.000 C 
BRANCH  13  14
ATOM     14  C   UNL     1     139.343  56.284 -10.715  1.00  0.00    -0.000 C 
BRANCH  14  15
ATOM     15  C   UNL     1     139.746  56.487 -12.190  1.00  0.00    -0.000 C 
BRANCH  15  16
ATOM     16  C   UNL     1     141.178  57.019 -12.369  1.00  0.00    -0.003 C 
ATOM     17  C   UNL     1     141.767  56.706 -13.743  1.00  0.00     0.004 C 
ENDBRANCH  15  16
ENDBRANCH  14  15
ENDBRANCH  13  14
ENDBRANCH  12  13
ENDBRANCH  11  12
ENDBRANCH  10  11
ENDBRANCH   1  10
TORSDOF 13
ENDMDL
MODEL 2
REMARK VINA RESULT:    -1.128      1.697      3.838
REMARK INTER + INTRA:          -4.423
REMARK INTER:                  -2.129
REMARK INTRA:                  -2.294
REMARK UNBOUND:                -2.438
REMARK SMILES CCCCCCCCCCCCCCC(=O)[O-]
REMARK SMILES IDX 9 1 10 2 11 3 12 4 13 5 14 6 15 7 16 8 17 9 8 10 7 11 6 12
REMARK SMILES IDX 5 13 4 14 3 15 2 16 1 17
REMARK H PARENT
REMARK Flexibility Score: inf
ROOT
ATOM      1  C   UNL     1     138.864  55.760 -10.274  1.00  0.00     0.000 C 
ENDROOT
BRANCH   1   2
ATOM      2  C   UNL     1     139.852  54.772  -9.626  1.00  0.00     0.000 C 
BRANCH   2   3
ATOM      3  C   UNL     1     139.209  53.514  -9.014  1.00  0.00     0.000 C 
BRANCH   3   4
ATOM      4  C   UNL     1     140.103  52.267  -9.128  1.00  0.00     0.000 C 
BRANCH   4   5
ATOM      5  C   UNL     1     139.448  51.137  -9.944  1.00  0.00     0.006 C 
BRANCH   5   6
ATOM      6  C   UNL     1     140.440  50.272 -10.740  1.00  0.00     0.053 C 
BRANCH   6   7
ATOM      7  C   UNL     1     139.781  49.577 -11.891  1.00  0.00     0.041 C 
ATOM      8  O   UNL     1     138.851  48.753 -11.686  1.00  0.00    -0.550 OA
ATOM      9  O   UNL     1     140.173  49.863 -13.192  1.00  0.00    -0.550 OA
ENDBRANCH   6   7
ENDBRANCH   5   6
ENDBRANCH   4   5
ENDBRANCH   3   4
ENDBRANCH   2   3
ENDBRANCH   1   2
BRANCH   1  10
ATOM     10  C   UNL     1     139.563  56.976 -10.907  1.00  0.00     0.000 C 
BRANCH  10  11
ATOM     11  C   UNL     1     139.662  56.873 -12.437  1.00  0.00    -0.000 C 
BRANCH  11  12
ATOM     12  C   UNL     1     141.100  57.067 -12.949  1.00  0.00    -0.000 C 
BRANCH  12  13
ATOM     13  C   UNL     1     141.687  55.776 -13.543  1.00  0.00    -0.000 C 
BRANCH  13  14
ATOM     14  C   UNL     1     142.174  54.796 -12.460  1.00  0.00    -0.000 C 
BRANCH  14  15
ATOM     15  C   UNL     1     141.444  53.439 -12.533  1.00  0.00    -0.000 C 
BRANCH  15  16
ATOM     16  C   UNL     1     140.316  53.402 -13.579  1.00  0.00    -0.003 C 
ATOM     17  C   UNL     1     138.927  53.266 -12.957  1.00  0.00     0.004 C 
ENDBRANCH  15  16
ENDBRANCH  14  15
ENDBRANCH  13  14
ENDBRANCH  12  13
ENDBRANCH  11  12
ENDBRANCH  10  11
ENDBRANCH   1  10
TORSDOF 13
ENDMDL
MODEL 3
REMARK VINA RESULT:    -1.091      2.899      4.715
REMARK INTER + INTRA:          -4.358
REMARK INTER:                  -1.818
REMARK INTRA:                  -2.540
REMARK UNBOUND:                -2.438
REMARK SMILES CCCCCCCCCCCCCCC(=O)[O-]
REMARK SMILES IDX 9 1 10 2 11 3 12 4 13 5 14 6 15 7 16 8 17 9 8 10 7 11 6 12
REMARK SMILES IDX 5 13 4 14 3 15 2 16 1 17
REMARK H PARENT
REMARK Flexibility Score: inf
ROOT
ATOM      1  C   UNL     1     143.199  55.397 -10.127  1.00  0.00     0.000 C 
ENDROOT
BRANCH   1   2
ATOM      2  C   UNL     1     142.302  55.580  -8.888  1.00  0.00     0.000 C 
BRANCH   2   3
ATOM      3  C   UNL     1     141.715  54.279  -8.311  1.00  0.00     0.000 C 
BRANCH   3   4
ATOM      4  C   UNL     1     140.279  54.450  -7.786  1.00  0.00     0.000 C 
BRANCH   4   5
ATOM      5  C   UNL     1     139.684  55.831  -8.117  1.00  0.00     0.006 C 
BRANCH   5   6
ATOM      6  C   UNL     1     138.168  55.824  -8.371  1.00  0.00     0.053 C 
BRANCH   6   7
ATOM      7  C   UNL     1     137.437  54.965  -7.385  1.00  0.00     0.041 C 
ATOM      8  O   UNL     1     137.287  55.351  -6.196  1.00  0.00    -0.550 OA
ATOM      9  O   UNL     1     136.895  53.752  -7.789  1.00  0.00    -0.550 OA
ENDBRANCH   6   7
ENDBRANCH   5   6
ENDBRANCH   4   5
ENDBRANCH   3   4
ENDBRANCH   2   3
ENDBRANCH   1   2
BRANCH   1  10
ATOM     10  C   UNL     1     142.646  56.104 -11.376  1.00  0.00     0.000 C 
BRANCH  10  11
ATOM     11  C   UNL     1     141.546  57.124 -11.042  1.00  0.00    -0.000 C 
BRANCH  11  12
ATOM     12  C   UNL     1     140.180  56.731 -11.633  1.00  0.00    -0.000 C 
BRANCH  12  13
ATOM     13  C   UNL     1     140.315  55.965 -12.959  1.00  0.00    -0.000 C 
BRANCH  13  14
ATOM     14  C   UNL     1     139.623  54.590 -12.919  1.00  0.00    -0.000 C 
BRANCH  14  15
ATOM     15  C   UNL     1     139.339  54.123 -11.476  1.00  0.00    -0.000 C 
BRANCH  15  16
ATOM     16  C   UNL     1     139.965  52.760 -11.136  1.00  0.00    -0.003 C 
ATOM     17  C   UNL     1     141.376  52.592 -11.697  1.00  0.00     0.004 C 
ENDBRANCH  15  16
ENDBRANCH  14  15
ENDBRANCH  13  14
ENDBRANCH  12  13
ENDBRANCH  11  12
ENDBRANCH  10  11
ENDBRANCH   1  10
TORSDOF 13
ENDMDL
MODEL 4
REMARK VINA RESULT:    -1.062     14.742     16.544
REMARK INTER + INTRA:          -4.308
REMARK INTER:                  -2.080
REMARK INTRA:                  -2.228
REMARK UNBOUND:                -2.438
REMARK SMILES CCCCCCCCCCCCCCC(=O)[O-]
REMARK SMILES IDX 9 1 10 2 11 3 12 4 13 5 14 6 15 7 16 8 17 9 8 10 7 11 6 12
REMARK SMILES IDX 5 13 4 14 3 15 2 16 1 17
REMARK H PARENT
REMARK Flexibility Score: inf
ROOT
ATOM      1  C   UNL     1     144.678  39.685 -10.928  1.00  0.00     0.000 C 
ENDROOT
BRANCH   1   2
ATOM      2  C   UNL     1     145.177  38.282 -11.323  1.00  0.00     0.000 C 
BRANCH   2   3
ATOM      3  C   UNL     1     144.123  37.164 -11.226  1.00  0.00     0.000 C 
BRANCH   3   4
ATOM      4  C   UNL     1     142.725  37.688 -10.854  1.00  0.00     0.000 C 
BRANCH   4   5
ATOM      5  C   UNL     1     141.648  37.293 -11.883  1.00  0.00     0.006 C 
BRANCH   5   6
ATOM      6  C   UNL     1     141.979  37.691 -13.331  1.00  0.00     0.053 C 
BRANCH   6   7
ATOM      7  C   UNL     1     141.791  39.158 -13.567  1.00  0.00     0.041 C 
ATOM      8  O   UNL     1     142.764  39.873 -13.922  1.00  0.00    -0.550 OA
ATOM      9  O   UNL     1     140.533  39.729 -13.426  1.00  0.00    -0.550 OA
ENDBRANCH   6   7
ENDBRANCH   5   6
ENDBRANCH   4   5
ENDBRANCH   3   4
ENDBRANCH   2   3
ENDBRANCH   1   2
BRANCH   1  10
ATOM     10  C   UNL     1     145.822  40.695 -10.736  1.00  0.00     0.000 C 
BRANCH  10  11
ATOM     11  C   UNL     1     147.181  40.015 -10.505  1.00  0.00    -0.000 C 
BRANCH  11  12
ATOM     12  C   UNL     1     147.586  39.998  -9.020  1.00  0.00    -0.000 C 
BRANCH  12  13
ATOM     13  C   UNL     1     147.834  38.573  -8.499  1.00  0.00    -0.000 C 
BRANCH  13  14
ATOM     14  C   UNL     1     146.560  37.921  -7.931  1.00  0.00    -0.000 C 
BRANCH  14  15
ATOM     15  C   UNL     1     145.598  38.961  -7.320  1.00  0.00    -0.000 C 
BRANCH  15  16
ATOM     16  C   UNL     1     144.115  38.568  -7.434  1.00  0.00    -0.003 C 
ATOM     17  C   UNL     1     143.890  37.058  -7.387  1.00  0.00     0.004 C 
ENDBRANCH  15  16
ENDBRANCH  14  15
ENDBRANCH  13  14
ENDBRANCH  12  13
ENDBRANCH  11  12
ENDBRANCH  10  11
ENDBRANCH   1  10
TORSDOF 13
ENDMDL
MODEL 5
REMARK VINA RESULT:    -1.055      3.974      5.975
REMARK INTER + INTRA:          -4.295
REMARK INTER:                  -2.103
REMARK INTRA:                  -2.192
REMARK UNBOUND:                -2.438
REMARK SMILES CCCCCCCCCCCCCCC(=O)[O-]
REMARK SMILES IDX 9 1 10 2 11 3 12 4 13 5 14 6 15 7 16 8 17 9 8 10 7 11 6 12
REMARK SMILES IDX 5 13 4 14 3 15 2 16 1 17
REMARK H PARENT
REMARK Flexibility Score: inf
ROOT
ATOM      1  C   UNL     1     143.977  54.465 -12.253  1.00  0.00     0.000 C 
ENDROOT
BRANCH   1   2
ATOM      2  C   UNL     1     144.100  54.725 -10.740  1.00  0.00     0.000 C 
BRANCH   2   3
ATOM      3  C   UNL     1     142.780  55.075 -10.029  1.00  0.00     0.000 C 
BRANCH   3   4
ATOM      4  C   UNL     1     142.739  56.527  -9.520  1.00  0.00     0.000 C 
BRANCH   4   5
ATOM      5  C   UNL     1     142.485  56.619  -8.004  1.00  0.00     0.006 C 
BRANCH   5   6
ATOM      6  C   UNL     1     143.687  57.125  -7.190  1.00  0.00     0.053 C 
BRANCH   6   7
ATOM      7  C   UNL     1     144.536  56.000  -6.684  1.00  0.00     0.041 C 
ATOM      8  O   UNL     1     145.537  55.614  -7.343  1.00  0.00    -0.550 OA
ATOM      9  O   UNL     1     144.240  55.398  -5.468  1.00  0.00    -0.550 OA
ENDBRANCH   6   7
ENDBRANCH   5   6
ENDBRANCH   4   5
ENDBRANCH   3   4
ENDBRANCH   2   3
ENDBRANCH   1   2
BRANCH   1  10
ATOM     10  C   UNL     1     142.647  53.792 -12.638  1.00  0.00     0.000 C 
BRANCH  10  11
ATOM     11  C   UNL     1     141.814  54.640 -13.610  1.00  0.00    -0.000 C 
BRANCH  11  12
ATOM     12  C   UNL     1     142.281  56.106 -13.664  1.00  0.00    -0.000 C 
BRANCH  12  13
ATOM     13  C   UNL     1     141.284  57.061 -12.989  1.00  0.00    -0.000 C 
BRANCH  13  14
ATOM     14  C   UNL     1     139.950  56.376 -12.645  1.00  0.00    -0.000 C 
BRANCH  14  15
ATOM     15  C   UNL     1     139.407  56.817 -11.269  1.00  0.00    -0.000 C 
BRANCH  15  16
ATOM     16  C   UNL     1     139.197  55.651 -10.288  1.00  0.00    -0.003 C 
ATOM     17  C   UNL     1     139.265  54.282 -10.962  1.00  0.00     0.004 C 
ENDBRANCH  15  16
ENDBRANCH  14  15
ENDBRANCH  13  14
ENDBRANCH  12  13
ENDBRANCH  11  12
ENDBRANCH  10  11
ENDBRANCH   1  10
TORSDOF 13
ENDMDL
MODEL 6
REMARK VINA RESULT:    -1.031     14.546     16.532
REMARK INTER + INTRA:          -4.252
REMARK INTER:                  -1.863
REMARK INTRA:                  -2.389
REMARK UNBOUND:                -2.438
REMARK SMILES CCCCCCCCCCCCCCC(=O)[O-]
REMARK SMILES IDX 9 1 10 2 11 3 12 4 13 5 14 6 15 7 16 8 17 9 8 10 7 11 6 12
REMARK SMILES IDX 5 13 4 14 3 15 2 16 1 17
REMARK H PARENT
REMARK Flexibility Score: inf
ROOT
ATOM      1  C   UNL     1     145.215  41.524  -8.546  1.00  0.00     0.000 C 
ENDROOT
BRANCH   1   2
ATOM      2  C   UNL     1     145.024  41.339 -10.063  1.00  0.00     0.000 C 
BRANCH   2   3
ATOM      3  C   UNL     1     143.967  40.294 -10.464  1.00  0.00     0.000 C 
BRANCH   3   4
ATOM      4  C   UNL     1     143.060  39.878  -9.293  1.00  0.00     0.000 C 
BRANCH   4   5
ATOM      5  C   UNL     1     142.637  38.399  -9.363  1.00  0.00     0.006 C 
BRANCH   5   6
ATOM      6  C   UNL     1     142.986  37.702 -10.688  1.00  0.00     0.053 C 
BRANCH   6   7
ATOM      7  C   UNL     1     141.762  37.297 -11.449  1.00  0.00     0.041 C 
ATOM      8  O   UNL     1     141.766  37.305 -12.708  1.00  0.00    -0.550 OA
ATOM      9  O   UNL     1     140.627  36.879 -10.767  1.00  0.00    -0.550 OA
ENDBRANCH   6   7
ENDBRANCH   5   6
ENDBRANCH   4   5
ENDBRANCH   3   4
ENDBRANCH   2   3
ENDBRANCH   1   2
BRANCH   1  10
ATOM     10  C   UNL     1     146.646  41.204  -8.080  1.00  0.00     0.000 C 
BRANCH  10  11
ATOM     11  C   UNL     1     147.467  40.466  -9.148  1.00  0.00    -0.000 C 
BRANCH  11  12
ATOM     12  C   UNL     1     147.772  39.009  -8.755  1.00  0.00    -0.000 C 
BRANCH  12  13
ATOM     13  C   UNL     1     146.638  38.049  -9.148  1.00  0.00    -0.000 C 
BRANCH  13  14
ATOM     14  C   UNL     1     145.888  37.489  -7.925  1.00  0.00    -0.000 C 
BRANCH  14  15
ATOM     15  C   UNL     1     146.658  37.731  -6.610  1.00  0.00    -0.000 C 
BRANCH  15  16
ATOM     16  C   UNL     1     145.775  38.266  -5.470  1.00  0.00    -0.003 C 
ATOM     17  C   UNL     1     144.488  38.923  -5.967  1.00  0.00     0.004 C 
ENDBRANCH  15  16
ENDBRANCH  14  15
ENDBRANCH  13  14
ENDBRANCH  12  13
ENDBRANCH  11  12
ENDBRANCH  10  11
ENDBRANCH   1  10
TORSDOF 13
ENDMDL
MODEL 7
REMARK VINA RESULT:    -1.024     14.756     17.093
REMARK INTER + INTRA:          -4.240
REMARK INTER:                  -2.060
REMARK INTRA:                  -2.180
REMARK UNBOUND:                -2.438
REMARK SMILES CCCCCCCCCCCCCCC(=O)[O-]
REMARK SMILES IDX 9 1 10 2 11 3 12 4 13 5 14 6 15 7 16 8 17 9 8 10 7 11 6 12
REMARK SMILES IDX 5 13 4 14 3 15 2 16 1 17
REMARK H PARENT
REMARK Flexibility Score: inf
ROOT
ATOM      1  C   UNL     1     145.204  37.321 -12.165  1.00  0.00     0.000 C 
ENDROOT
BRANCH   1   2
ATOM      2  C   UNL     1     145.882  38.659 -11.816  1.00  0.00     0.000 C 
BRANCH   2   3
ATOM      3  C   UNL     1     145.716  39.112 -10.354  1.00  0.00     0.000 C 
BRANCH   3   4
ATOM      4  C   UNL     1     144.276  38.950  -9.836  1.00  0.00     0.000 C 
BRANCH   4   5
ATOM      5  C   UNL     1     144.165  37.912  -8.703  1.00  0.00     0.006 C 
BRANCH   5   6
ATOM      6  C   UNL     1     145.507  37.300  -8.269  1.00  0.00     0.053 C 
BRANCH   6   7
ATOM      7  C   UNL     1     145.676  37.315  -6.781  1.00  0.00     0.041 C 
ATOM      8  O   UNL     1     146.828  37.350  -6.274  1.00  0.00    -0.550 OA
ATOM      9  O   UNL     1     144.560  37.323  -5.955  1.00  0.00    -0.550 OA
ENDBRANCH   6   7
ENDBRANCH   5   6
ENDBRANCH   4   5
ENDBRANCH   3   4
ENDBRANCH   2   3
ENDBRANCH   1   2
BRANCH   1  10
ATOM     10  C   UNL     1     144.694  37.270 -13.616  1.00  0.00     0.000 C 
BRANCH  10  11
ATOM     11  C   UNL     1     143.202  36.918 -13.709  1.00  0.00    -0.000 C 
BRANCH  11  12
ATOM     12  C   UNL     1     142.520  36.875 -12.330  1.00  0.00    -0.000 C 
BRANCH  12  13
ATOM     13  C   UNL     1     141.470  37.986 -12.163  1.00  0.00    -0.000 C 
BRANCH  13  14
ATOM     14  C   UNL     1     141.188  38.734 -13.479  1.00  0.00    -0.000 C 
BRANCH  14  15
ATOM     15  C   UNL     1     141.425  40.253 -13.346  1.00  0.00    -0.000 C 
BRANCH  15  16
ATOM     16  C   UNL     1     142.808  40.612 -12.778  1.00  0.00    -0.003 C 
ATOM     17  C   UNL     1     143.826  40.969 -13.860  1.00  0.00     0.004 C 
ENDBRANCH  15  16
ENDBRANCH  14  15
ENDBRANCH  13  14
ENDBRANCH  12  13
ENDBRANCH  11  12
ENDBRANCH  10  11
ENDBRANCH   1  10
TORSDOF 13
ENDMDL
MODEL 8
REMARK VINA RESULT:    -1.018      1.691      2.834
REMARK INTER + INTRA:          -4.230
REMARK INTER:                  -1.878
REMARK INTRA:                  -2.352
REMARK UNBOUND:                -2.438
REMARK SMILES CCCCCCCCCCCCCCC(=O)[O-]
REMARK SMILES IDX 9 1 10 2 11 3 12 4 13 5 14 6 15 7 16 8 17 9 8 10 7 11 6 12
REMARK SMILES IDX 5 13 4 14 3 15 2 16 1 17
REMARK H PARENT
REMARK Flexibility Score: inf
ROOT
ATOM      1  C   UNL     1     141.278  54.767  -9.434  1.00  0.00     0.000 C 
ENDROOT
BRANCH   1   2
ATOM      2  C   UNL     1     141.146  53.302  -8.977  1.00  0.00     0.000 C 
BRANCH   2   3
ATOM      3  C   UNL     1     140.747  52.308 -10.083  1.00  0.00     0.000 C 
BRANCH   3   4
ATOM      4  C   UNL     1     139.232  52.048 -10.138  1.00  0.00     0.000 C 
BRANCH   4   5
ATOM      5  C   UNL     1     138.776  51.465 -11.489  1.00  0.00     0.006 C 
BRANCH   5   6
ATOM      6  C   UNL     1     139.858  50.661 -12.229  1.00  0.00     0.053 C 
BRANCH   6   7
ATOM      7  C   UNL     1     139.582  49.189 -12.202  1.00  0.00     0.041 C 
ATOM      8  O   UNL     1     138.810  48.705 -11.334  1.00  0.00    -0.550 OA
ATOM      9  O   UNL     1     140.154  48.357 -13.156  1.00  0.00    -0.550 OA
ENDBRANCH   6   7
ENDBRANCH   5   6
ENDBRANCH   4   5
ENDBRANCH   3   4
ENDBRANCH   2   3
ENDBRANCH   1   2
BRANCH   1  10
ATOM     10  C   UNL     1     140.027  55.607  -9.120  1.00  0.00     0.000 C 
BRANCH  10  11
ATOM     11  C   UNL     1     139.084  55.740 -10.325  1.00  0.00    -0.000 C 
BRANCH  11  12
ATOM     12  C   UNL     1     139.502  56.875 -11.278  1.00  0.00    -0.000 C 
BRANCH  12  13
ATOM     13  C   UNL     1     139.856  56.357 -12.681  1.00  0.00    -0.000 C 
BRANCH  13  14
ATOM     14  C   UNL     1     139.568  54.854 -12.846  1.00  0.00    -0.000 C 
BRANCH  14  15
ATOM     15  C   UNL     1     140.806  54.075 -13.337  1.00  0.00    -0.000 C 
BRANCH  15  16
ATOM     16  C   UNL     1     142.139  54.766 -13.003  1.00  0.00    -0.003 C 
ATOM     17  C   UNL     1     143.205  53.798 -12.493  1.00  0.00     0.004 C 
ENDBRANCH  15  16
ENDBRANCH  14  15
ENDBRANCH  13  14
ENDBRANCH  12  13
ENDBRANCH  11  12
ENDBRANCH  10  11
ENDBRANCH   1  10
TORSDOF 13
ENDMDL
MODEL 9
REMARK VINA RESULT:    -0.165      1.848      3.381
REMARK INTER + INTRA:          -2.728
REMARK INTER:                  -0.514
REMARK INTRA:                  -2.214
REMARK UNBOUND:                -2.438
REMARK SMILES CCCCCCCCCCCCCCC(=O)[O-]
REMARK SMILES IDX 9 1 10 2 11 3 12 4 13 5 14 6 15 7 16 8 17 9 8 10 7 11 6 12
REMARK SMILES IDX 5 13 4 14 3 15 2 16 1 17
REMARK H PARENT
REMARK Flexibility Score: inf
ROOT
ATOM      1  C   UNL     1     143.059  54.280 -12.470  1.00  0.00     0.000 C 
ENDROOT
BRANCH   1   2
ATOM      2  C   UNL     1     142.566  53.092 -13.318  1.00  0.00     0.000 C 
BRANCH   2   3
ATOM      3  C   UNL     1     141.153  53.253 -13.907  1.00  0.00     0.000 C 
BRANCH   3   4
ATOM      4  C   UNL     1     140.044  53.140 -12.846  1.00  0.00     0.000 C 
BRANCH   4   5
ATOM      5  C   UNL     1     140.005  51.756 -12.171  1.00  0.00     0.006 C 
BRANCH   5   6
ATOM      6  C   UNL     1     140.404  51.763 -10.686  1.00  0.00     0.053 C 
BRANCH   6   7
ATOM      7  C   UNL     1     139.356  51.137  -9.819  1.00  0.00     0.041 C 
ATOM      8  O   UNL     1     139.448  49.927  -9.485  1.00  0.00    -0.550 OA
ATOM      9  O   UNL     1     138.292  51.900  -9.355  1.00  0.00    -0.550 OA
ENDBRANCH   6   7
ENDBRANCH   5   6
ENDBRANCH   4   5
ENDBRANCH   3   4
ENDBRANCH   2   3
ENDBRANCH   1   2
BRANCH   1  10
ATOM     10  C   UNL     1     142.995  55.620 -13.224  1.00  0.00     0.000 C 
BRANCH  10  11
ATOM     11  C   UNL     1     142.166  56.679 -12.482  1.00  0.00    -0.000 C 
BRANCH  11  12
ATOM     12  C   UNL     1     140.928  57.125 -13.282  1.00  0.00    -0.000 C 
BRANCH  12  13
ATOM     13  C   UNL     1     139.613  56.774 -12.567  1.00  0.00    -0.000 C 
BRANCH  13  14
ATOM     14  C   UNL     1     139.752  56.794 -11.034  1.00  0.00    -0.000 C 
BRANCH  14  15
ATOM     15  C   UNL     1     139.128  55.544 -10.378  1.00  0.00    -0.000 C 
BRANCH  15  16
ATOM     16  C   UNL     1     139.843  55.104  -9.089  1.00  0.00    -0.003 C 
ATOM     17  C   UNL     1     141.363  55.049  -9.236  1.00  0.00     0.004 C 
ENDBRANCH  15  16
ENDBRANCH  14  15
ENDBRANCH  13  14
ENDBRANCH  12  13
ENDBRANCH  11  12
ENDBRANCH  10  11
ENDBRANCH   1  10
TORSDOF 13
ENDMDL
