MODEL 1
REMARK VINA RESULT:    -3.426      0.000      0.000
REMARK INTER + INTRA:          -6.045
REMARK INTER:                  -5.228
REMARK INTRA:                  -0.817
REMARK UNBOUND:                -0.817
REMARK SMILES CCCCCCCCCC=CC(=O)[O-]
REMARK SMILES IDX 7 1 8 2 9 3 10 4 11 5 12 6 13 7 14 8 6 9 5 10 4 11 3 12 2 13
REMARK SMILES IDX 1 14
REMARK H PARENT
REMARK Flexibility Score: inf
ROOT
ATOM      1  C   UNL     1      -8.017  16.131 -12.356  1.00  0.00     0.000 C 
ENDROOT
BRANCH   1   2
ATOM      2  C   UNL     1      -9.005  17.243 -12.742  1.00  0.00     0.004 C 
BRANCH   2   3
ATOM      3  C   UNL     1      -8.350  18.634 -12.755  1.00  0.00     0.027 C 
BRANCH   3   4
ATOM      4  C   UNL     1      -8.028  19.068 -14.160  1.00  0.00    -0.025 C 
ATOM      5  C   UNL     1      -6.871  19.616 -14.570  1.00  0.00     0.020 C 
BRANCH   5   6
ATOM      6  C   UNL     1      -5.672  19.866 -13.744  1.00  0.00     0.064 C 
ATOM      7  O   UNL     1      -5.359  21.020 -13.351  1.00  0.00    -0.545 OA
ATOM      8  O   UNL     1      -4.878  18.790 -13.371  1.00  0.00    -0.545 OA
ENDBRANCH   5   6
ENDBRANCH   3   4
ENDBRANCH   2   3
ENDBRANCH   1   2
BRANCH   1   9
ATOM      9  C   UNL     1      -6.939  15.903 -13.431  1.00  0.00     0.000 C 
BRANCH   9  10
ATOM     10  C   UNL     1      -7.493  15.216 -14.690  1.00  0.00     0.000 C 
BRANCH  10  11
ATOM     11  C   UNL     1      -8.349  13.982 -14.360  1.00  0.00    -0.000 C 
BRANCH  11  12
ATOM     12  C   UNL     1      -7.558  12.663 -14.446  1.00  0.00    -0.000 C 
BRANCH  12  13
ATOM     13  C   UNL     1      -6.072  12.820 -14.815  1.00  0.00    -0.003 C 
ATOM     14  C   UNL     1      -5.127  12.437 -13.675  1.00  0.00     0.004 C 
ENDBRANCH  12  13
ENDBRANCH  11  12
ENDBRANCH  10  11
ENDBRANCH   9  10
ENDBRANCH   1   9
TORSDOF 9
ENDMDL
MODEL 2
REMARK VINA RESULT:    -3.409      2.238      5.417
REMARK INTER + INTRA:          -6.019
REMARK INTER:                  -5.301
REMARK INTRA:                  -0.718
REMARK UNBOUND:                -0.817
REMARK SMILES CCCCCCCCCC=CC(=O)[O-]
REMARK SMILES IDX 7 1 8 2 9 3 10 4 11 5 12 6 13 7 14 8 6 9 5 10 4 11 3 12 2 13
REMARK SMILES IDX 1 14
REMARK H PARENT
REMARK Flexibility Score: inf
ROOT
ATOM      1  C   UNL     1      -5.612  14.660 -14.574  1.00  0.00     0.000 C 
ENDROOT
BRANCH   1   2
ATOM      2  C   UNL     1      -7.119  14.740 -14.864  1.00  0.00     0.004 C 
BRANCH   2   3
ATOM      3  C   UNL     1      -7.965  14.069 -13.770  1.00  0.00     0.027 C 
BRANCH   3   4
ATOM      4  C   UNL     1      -7.540  14.524 -12.400  1.00  0.00    -0.025 C 
ATOM      5  C   UNL     1      -7.836  15.707 -11.836  1.00  0.00     0.020 C 
BRANCH   5   6
ATOM      6  C   UNL     1      -8.666  16.781 -12.421  1.00  0.00     0.064 C 
ATOM      7  O   UNL     1      -9.826  16.566 -12.860  1.00  0.00    -0.545 OA
ATOM      8  O   UNL     1      -8.157  18.072 -12.466  1.00  0.00    -0.545 OA
ENDBRANCH   5   6
ENDBRANCH   3   4
ENDBRANCH   2   3
ENDBRANCH   1   2
BRANCH   1   9
ATOM      9  C   UNL     1      -4.875  15.964 -14.930  1.00  0.00     0.000 C 
BRANCH   9  10
ATOM     10  C   UNL     1      -5.776  17.204 -14.820  1.00  0.00     0.000 C 
BRANCH  10  11
ATOM     11  C   UNL     1      -4.972  18.512 -14.745  1.00  0.00    -0.000 C 
BRANCH  11  12
ATOM     12  C   UNL     1      -5.868  19.763 -14.664  1.00  0.00    -0.000 C 
BRANCH  12  13
ATOM     13  C   UNL     1      -5.322  20.897 -13.778  1.00  0.00    -0.003 C 
ATOM     14  C   UNL     1      -6.050  21.016 -12.439  1.00  0.00     0.004 C 
ENDBRANCH  12  13
ENDBRANCH  11  12
ENDBRANCH  10  11
ENDBRANCH   9  10
ENDBRANCH   1   9
TORSDOF 9
ENDMDL
MODEL 3
REMARK VINA RESULT:    -3.399      1.583      2.357
REMARK INTER + INTRA:          -6.004
REMARK INTER:                  -5.118
REMARK INTRA:                  -0.886
REMARK UNBOUND:                -0.817
REMARK SMILES CCCCCCCCCC=CC(=O)[O-]
REMARK SMILES IDX 7 1 8 2 9 3 10 4 11 5 12 6 13 7 14 8 6 9 5 10 4 11 3 12 2 13
REMARK SMILES IDX 1 14
REMARK H PARENT
REMARK Flexibility Score: inf
ROOT
ATOM      1  C   UNL     1      -8.285  17.143 -13.648  1.00  0.00     0.000 C 
ENDROOT
BRANCH   1   2
ATOM      2  C   UNL     1      -6.753  17.251 -13.703  1.00  0.00     0.004 C 
BRANCH   2   3
ATOM      3  C   UNL     1      -6.254  17.883 -15.012  1.00  0.00     0.027 C 
BRANCH   3   4
ATOM      4  C   UNL     1      -5.024  18.718 -14.776  1.00  0.00    -0.025 C 
ATOM      5  C   UNL     1      -4.986  19.904 -14.146  1.00  0.00     0.020 C 
BRANCH   5   6
ATOM      6  C   UNL     1      -6.125  20.610 -13.524  1.00  0.00     0.064 C 
ATOM      7  O   UNL     1      -7.048  21.125 -14.208  1.00  0.00    -0.545 OA
ATOM      8  O   UNL     1      -6.190  20.689 -12.139  1.00  0.00    -0.545 OA
ENDBRANCH   5   6
ENDBRANCH   3   4
ENDBRANCH   2   3
ENDBRANCH   1   2
BRANCH   1   9
ATOM      9  C   UNL     1      -8.763  16.055 -12.669  1.00  0.00     0.000 C 
BRANCH   9  10
ATOM     10  C   UNL     1      -7.600  15.271 -12.040  1.00  0.00     0.000 C 
BRANCH  10  11
ATOM     11  C   UNL     1      -7.510  13.828 -12.563  1.00  0.00    -0.000 C 
BRANCH  11  12
ATOM     12  C   UNL     1      -6.582  13.690 -13.784  1.00  0.00    -0.000 C 
BRANCH  12  13
ATOM     13  C   UNL     1      -7.302  13.462 -15.125  1.00  0.00    -0.003 C 
ATOM     14  C   UNL     1      -8.740  12.968 -14.957  1.00  0.00     0.004 C 
ENDBRANCH  12  13
ENDBRANCH  11  12
ENDBRANCH  10  11
ENDBRANCH   9  10
ENDBRANCH   1   9
TORSDOF 9
ENDMDL
MODEL 4
REMARK VINA RESULT:    -3.371      2.903      5.348
REMARK INTER + INTRA:          -5.962
REMARK INTER:                  -4.795
REMARK INTRA:                  -1.167
REMARK UNBOUND:                -0.817
REMARK SMILES CCCCCCCCCC=CC(=O)[O-]
REMARK SMILES IDX 7 1 8 2 9 3 10 4 11 5 12 6 13 7 14 8 6 9 5 10 4 11 3 12 2 13
REMARK SMILES IDX 1 14
REMARK H PARENT
REMARK Flexibility Score: inf
ROOT
ATOM      1  C   UNL     1      -7.751  15.569 -12.560  1.00  0.00     0.000 C 
ENDROOT
BRANCH   1   2
ATOM      2  C   UNL     1      -8.083  14.307 -13.371  1.00  0.00     0.004 C 
BRANCH   2   3
ATOM      3  C   UNL     1      -7.701  14.442 -14.853  1.00  0.00     0.027 C 
BRANCH   3   4
ATOM      4  C   UNL     1      -6.328  15.038 -15.007  1.00  0.00    -0.025 C 
ATOM      5  C   UNL     1      -5.166  14.420 -14.737  1.00  0.00     0.020 C 
BRANCH   5   6
ATOM      6  C   UNL     1      -4.993  13.027 -14.277  1.00  0.00     0.064 C 
ATOM      7  O   UNL     1      -4.907  12.061 -15.080  1.00  0.00    -0.545 OA
ATOM      8  O   UNL     1      -4.902  12.777 -12.913  1.00  0.00    -0.545 OA
ENDBRANCH   5   6
ENDBRANCH   3   4
ENDBRANCH   2   3
ENDBRANCH   1   2
BRANCH   1   9
ATOM      9  C   UNL     1      -8.937  16.547 -12.483  1.00  0.00     0.000 C 
BRANCH   9  10
ATOM     10  C   UNL     1      -8.529  17.998 -12.785  1.00  0.00     0.000 C 
BRANCH  10  11
ATOM     11  C   UNL     1      -8.072  18.191 -14.240  1.00  0.00    -0.000 C 
BRANCH  11  12
ATOM     12  C   UNL     1      -7.072  19.352 -14.405  1.00  0.00    -0.000 C 
BRANCH  12  13
ATOM     13  C   UNL     1      -5.686  18.945 -14.936  1.00  0.00    -0.003 C 
ATOM     14  C   UNL     1      -4.877  18.122 -13.933  1.00  0.00     0.004 C 
ENDBRANCH  12  13
ENDBRANCH  11  12
ENDBRANCH  10  11
ENDBRANCH   9  10
ENDBRANCH   1   9
TORSDOF 9
ENDMDL
MODEL 5
REMARK VINA RESULT:    -3.273      1.383      1.941
REMARK INTER + INTRA:          -5.813
REMARK INTER:                  -4.877
REMARK INTRA:                  -0.936
REMARK UNBOUND:                -0.817
REMARK SMILES CCCCCCCCCC=CC(=O)[O-]
REMARK SMILES IDX 7 1 8 2 9 3 10 4 11 5 12 6 13 7 14 8 6 9 5 10 4 11 3 12 2 13
REMARK SMILES IDX 1 14
REMARK H PARENT
REMARK Flexibility Score: inf
ROOT
ATOM      1  C   UNL     1      -7.985  16.949 -13.212  1.00  0.00     0.000 C 
ENDROOT
BRANCH   1   2
ATOM      2  C   UNL     1      -7.044  17.242 -14.390  1.00  0.00     0.004 C 
BRANCH   2   3
ATOM      3  C   UNL     1      -5.598  17.502 -13.939  1.00  0.00     0.027 C 
BRANCH   3   4
ATOM      4  C   UNL     1      -5.011  18.688 -14.657  1.00  0.00    -0.025 C 
ATOM      5  C   UNL     1      -5.298  19.978 -14.413  1.00  0.00     0.020 C 
BRANCH   5   6
ATOM      6  C   UNL     1      -6.210  20.497 -13.373  1.00  0.00     0.064 C 
ATOM      7  O   UNL     1      -7.427  20.724 -13.602  1.00  0.00    -0.545 OA
ATOM      8  O   UNL     1      -5.713  20.723 -12.096  1.00  0.00    -0.545 OA
ENDBRANCH   5   6
ENDBRANCH   3   4
ENDBRANCH   2   3
ENDBRANCH   1   2
BRANCH   1   9
ATOM      9  C   UNL     1      -8.345  15.456 -13.105  1.00  0.00     0.000 C 
BRANCH   9  10
ATOM     10  C   UNL     1      -8.253  14.725 -14.454  1.00  0.00     0.000 C 
BRANCH  10  11
ATOM     11  C   UNL     1      -7.853  13.249 -14.299  1.00  0.00    -0.000 C 
BRANCH  11  12
ATOM     12  C   UNL     1      -6.703  13.042 -13.295  1.00  0.00    -0.000 C 
BRANCH  12  13
ATOM     13  C   UNL     1      -5.326  12.779 -13.930  1.00  0.00    -0.003 C 
ATOM     14  C   UNL     1      -4.877  13.894 -14.874  1.00  0.00     0.004 C 
ENDBRANCH  12  13
ENDBRANCH  11  12
ENDBRANCH  10  11
ENDBRANCH   9  10
ENDBRANCH   1   9
TORSDOF 9
ENDMDL
MODEL 6
REMARK VINA RESULT:    -3.220      2.432      5.765
REMARK INTER + INTRA:          -5.730
REMARK INTER:                  -4.992
REMARK INTRA:                  -0.738
REMARK UNBOUND:                -0.817
REMARK SMILES CCCCCCCCCC=CC(=O)[O-]
REMARK SMILES IDX 7 1 8 2 9 3 10 4 11 5 12 6 13 7 14 8 6 9 5 10 4 11 3 12 2 13
REMARK SMILES IDX 1 14
REMARK H PARENT
REMARK Flexibility Score: inf
ROOT
ATOM      1  C   UNL     1      -6.097  17.297 -14.229  1.00  0.00     0.000 C 
ENDROOT
BRANCH   1   2
ATOM      2  C   UNL     1      -5.599  15.902 -14.635  1.00  0.00     0.004 C 
BRANCH   2   3
ATOM      3  C   UNL     1      -6.737  14.985 -15.110  1.00  0.00     0.027 C 
BRANCH   3   4
ATOM      4  C   UNL     1      -6.958  13.851 -14.146  1.00  0.00    -0.025 C 
ATOM      5  C   UNL     1      -7.431  13.964 -12.893  1.00  0.00     0.020 C 
BRANCH   5   6
ATOM      6  C   UNL     1      -7.866  15.206 -12.222  1.00  0.00     0.064 C 
ATOM      7  O   UNL     1      -8.899  15.832 -12.576  1.00  0.00    -0.545 OA
ATOM      8  O   UNL     1      -7.122  15.686 -11.151  1.00  0.00    -0.545 OA
ENDBRANCH   5   6
ENDBRANCH   3   4
ENDBRANCH   2   3
ENDBRANCH   1   2
BRANCH   1   9
ATOM      9  C   UNL     1      -7.246  17.795 -15.125  1.00  0.00     0.000 C 
BRANCH   9  10
ATOM     10  C   UNL     1      -7.882  19.095 -14.606  1.00  0.00     0.000 C 
BRANCH  10  11
ATOM     11  C   UNL     1      -7.548  19.367 -13.131  1.00  0.00    -0.000 C 
BRANCH  11  12
ATOM     12  C   UNL     1      -7.093  20.816 -12.876  1.00  0.00    -0.000 C 
BRANCH  12  13
ATOM     13  C   UNL     1      -5.572  21.040 -12.943  1.00  0.00    -0.003 C 
ATOM     14  C   UNL     1      -5.014  20.956 -14.364  1.00  0.00     0.004 C 
ENDBRANCH  12  13
ENDBRANCH  11  12
ENDBRANCH  10  11
ENDBRANCH   9  10
ENDBRANCH   1   9
TORSDOF 9
ENDMDL
MODEL 7
REMARK VINA RESULT:    -3.169      2.949      6.076
REMARK INTER + INTRA:          -5.654
REMARK INTER:                  -4.745
REMARK INTRA:                  -0.908
REMARK UNBOUND:                -0.817
REMARK SMILES CCCCCCCCCC=CC(=O)[O-]
REMARK SMILES IDX 7 1 8 2 9 3 10 4 11 5 12 6 13 7 14 8 6 9 5 10 4 11 3 12 2 13
REMARK SMILES IDX 1 14
REMARK H PARENT
REMARK Flexibility Score: inf
ROOT
ATOM      1  C   UNL     1      -6.911  17.118 -13.615  1.00  0.00     0.000 C 
ENDROOT
BRANCH   1   2
ATOM      2  C   UNL     1      -8.167  16.287 -13.916  1.00  0.00     0.004 C 
BRANCH   2   3
ATOM      3  C   UNL     1      -7.905  15.171 -14.940  1.00  0.00     0.027 C 
BRANCH   3   4
ATOM      4  C   UNL     1      -8.262  13.822 -14.375  1.00  0.00    -0.025 C 
ATOM      5  C   UNL     1      -7.392  12.867 -14.008  1.00  0.00     0.020 C 
BRANCH   5   6
ATOM      6  C   UNL     1      -5.917  12.954 -14.045  1.00  0.00     0.064 C 
ATOM      7  O   UNL     1      -5.280  13.082 -15.123  1.00  0.00    -0.545 OA
ATOM      8  O   UNL     1      -5.214  12.918 -12.848  1.00  0.00    -0.545 OA
ENDBRANCH   5   6
ENDBRANCH   3   4
ENDBRANCH   2   3
ENDBRANCH   1   2
BRANCH   1   9
ATOM      9  C   UNL     1      -5.767  16.834 -14.607  1.00  0.00     0.000 C 
BRANCH   9  10
ATOM     10  C   UNL     1      -5.008  18.107 -15.017  1.00  0.00     0.000 C 
BRANCH  10  11
ATOM     11  C   UNL     1      -5.030  19.185 -13.921  1.00  0.00    -0.000 C 
BRANCH  11  12
ATOM     12  C   UNL     1      -5.393  20.581 -14.460  1.00  0.00    -0.000 C 
BRANCH  12  13
ATOM     13  C   UNL     1      -6.799  21.079 -14.080  1.00  0.00    -0.003 C 
ATOM     14  C   UNL     1      -7.875  20.664 -15.085  1.00  0.00     0.004 C 
ENDBRANCH  12  13
ENDBRANCH  11  12
ENDBRANCH  10  11
ENDBRANCH   9  10
ENDBRANCH   1   9
TORSDOF 9
ENDMDL
MODEL 8
REMARK VINA RESULT:    -3.095      2.202      3.373
REMARK INTER + INTRA:          -5.540
REMARK INTER:                  -4.611
REMARK INTRA:                  -0.930
REMARK UNBOUND:                -0.817
REMARK SMILES CCCCCCCCCC=CC(=O)[O-]
REMARK SMILES IDX 7 1 8 2 9 3 10 4 11 5 12 6 13 7 14 8 6 9 5 10 4 11 3 12 2 13
REMARK SMILES IDX 1 14
REMARK H PARENT
REMARK Flexibility Score: inf
ROOT
ATOM      1  C   UNL     1      -5.483  15.813 -14.028  1.00  0.00     0.000 C 
ENDROOT
BRANCH   1   2
ATOM      2  C   UNL     1      -5.475  17.283 -14.477  1.00  0.00     0.004 C 
BRANCH   2   3
ATOM      3  C   UNL     1      -6.851  17.755 -14.975  1.00  0.00     0.027 C 
BRANCH   3   4
ATOM      4  C   UNL     1      -7.454  18.758 -14.029  1.00  0.00    -0.025 C 
ATOM      5  C   UNL     1      -8.258  18.476 -12.989  1.00  0.00     0.020 C 
BRANCH   5   6
ATOM      6  C   UNL     1      -8.680  17.133 -12.539  1.00  0.00     0.064 C 
ATOM      7  O   UNL     1      -9.782  16.629 -12.879  1.00  0.00    -0.545 OA
ATOM      8  O   UNL     1      -7.822  16.397 -11.732  1.00  0.00    -0.545 OA
ENDBRANCH   5   6
ENDBRANCH   3   4
ENDBRANCH   2   3
ENDBRANCH   1   2
BRANCH   1   9
ATOM      9  C   UNL     1      -4.973  14.861 -15.125  1.00  0.00     0.000 C 
BRANCH   9  10
ATOM     10  C   UNL     1      -4.957  13.391 -14.674  1.00  0.00     0.000 C 
BRANCH  10  11
ATOM     11  C   UNL     1      -5.823  13.149 -13.426  1.00  0.00    -0.000 C 
BRANCH  11  12
ATOM     12  C   UNL     1      -7.178  12.495 -13.755  1.00  0.00    -0.000 C 
BRANCH  12  13
ATOM     13  C   UNL     1      -7.771  12.881 -15.122  1.00  0.00    -0.003 C 
ATOM     14  C   UNL     1      -8.614  14.156 -15.073  1.00  0.00     0.004 C 
ENDBRANCH  12  13
ENDBRANCH  11  12
ENDBRANCH  10  11
ENDBRANCH   9  10
ENDBRANCH   1   9
TORSDOF 9
ENDMDL
MODEL 9
REMARK VINA RESULT:    -2.753      1.375      3.097
REMARK INTER + INTRA:          -5.018
REMARK INTER:                  -4.078
REMARK INTRA:                  -0.940
REMARK UNBOUND:                -0.817
REMARK SMILES CCCCCCCCCC=CC(=O)[O-]
REMARK SMILES IDX 7 1 8 2 9 3 10 4 11 5 12 6 13 7 14 8 6 9 5 10 4 11 3 12 2 13
REMARK SMILES IDX 1 14
REMARK H PARENT
REMARK Flexibility Score: inf
ROOT
ATOM      1  C   UNL     1      -6.112  15.529 -15.125  1.00  0.00     0.000 C 
ENDROOT
BRANCH   1   2
ATOM      2  C   UNL     1      -4.944  16.456 -14.757  1.00  0.00     0.004 C 
BRANCH   2   3
ATOM      3  C   UNL     1      -5.231  17.928 -15.093  1.00  0.00     0.027 C 
BRANCH   3   4
ATOM      4  C   UNL     1      -6.630  18.312 -14.691  1.00  0.00    -0.025 C 
ATOM      5  C   UNL     1      -6.971  19.379 -13.949  1.00  0.00     0.020 C 
BRANCH   5   6
ATOM      6  C   UNL     1      -6.059  20.409 -13.411  1.00  0.00     0.064 C 
ATOM      7  O   UNL     1      -5.274  21.060 -14.150  1.00  0.00    -0.545 OA
ATOM      8  O   UNL     1      -6.084  20.682 -12.050  1.00  0.00    -0.545 OA
ENDBRANCH   5   6
ENDBRANCH   3   4
ENDBRANCH   2   3
ENDBRANCH   1   2
BRANCH   1   9
ATOM      9  C   UNL     1      -5.768  14.041 -14.925  1.00  0.00     0.000 C 
BRANCH   9  10
ATOM     10  C   UNL     1      -6.968  13.216 -14.432  1.00  0.00     0.000 C 
BRANCH  10  11
ATOM     11  C   UNL     1      -8.011  14.074 -13.697  1.00  0.00    -0.000 C 
BRANCH  11  12
ATOM     12  C   UNL     1      -7.576  14.452 -12.268  1.00  0.00    -0.000 C 
BRANCH  12  13
ATOM     13  C   UNL     1      -7.885  15.904 -11.858  1.00  0.00    -0.003 C 
ATOM     14  C   UNL     1      -9.042  16.517 -12.647  1.00  0.00     0.004 C 
ENDBRANCH  12  13
ENDBRANCH  11  12
ENDBRANCH  10  11
ENDBRANCH   9  10
ENDBRANCH   1   9
TORSDOF 9
ENDMDL
