MODEL 1
REMARK VINA RESULT:    -7.369      0.000      0.000
REMARK INTER + INTRA:         -12.260
REMARK INTER:                 -11.030
REMARK INTRA:                  -1.230
REMARK UNBOUND:                -1.230
REMARK SMILES O=c1c(O[C@H]2O[C@H](CO)[C@@H](O)[C@H](O)[C@@H]2O)c(-c2cc(O)c(O)c(O)c2)oc2cc(O)cc(O)c12
REMARK SMILES IDX 4 1 3 2 16 3 26 4 2 5 27 6 1 7 34 8 28 9 32 10 29 11 31 12
REMARK SMILES IDX 17 13 18 14 19 15 25 16 21 17 23 18 20 19 22 21 24 23 33 25
REMARK SMILES IDX 30 27 5 29 14 30 6 31 12 32 7 33 10 34 15 35 13 37 8 39 9 40
REMARK SMILES IDX 11 42
REMARK H PARENT 20 20 22 22 24 24 33 26 30 28 15 36 13 38 9 41 11 43
REMARK Flexibility Score: inf
ROOT
ATOM      1  O   UNL     1     -38.054   5.625  81.491  1.00  0.00    -0.454 OA
ENDROOT
BRANCH   1   2
ATOM      2  C   UNL     1     -38.848   5.145  80.438  1.00  0.00     0.214 A 
ATOM      3  C   UNL     1     -38.339   5.123  79.129  1.00  0.00     0.181 A 
ATOM      4  O   UNL     1     -39.050   4.579  78.151  1.00  0.00    -0.452 OA
ATOM      5  C   UNL     1     -40.161   4.689  80.660  1.00  0.00     0.239 A 
ATOM      6  C   UNL     1     -40.274   4.090  78.320  1.00  0.00     0.146 A 
ATOM      7  O   UNL     1     -40.639   4.766  81.821  1.00  0.00    -0.285 OA
ATOM      8  C   UNL     1     -40.917   4.156  79.585  1.00  0.00     0.111 A 
ATOM      9  C   UNL     1     -40.918   3.512  77.224  1.00  0.00     0.094 A 
ATOM     10  C   UNL     1     -42.255   3.663  79.694  1.00  0.00     0.134 A 
ATOM     11  C   UNL     1     -42.205   2.987  77.355  1.00  0.00     0.123 A 
ATOM     12  C   UNL     1     -42.860   3.063  78.583  1.00  0.00     0.093 A 
BRANCH   3  13
ATOM     13  C   UNL     1     -37.000   5.661  78.807  1.00  0.00     0.029 A 
ATOM     14  C   UNL     1     -35.866   4.868  79.026  1.00  0.00     0.062 A 
ATOM     15  C   UNL     1     -34.587   5.367  78.753  1.00  0.00     0.162 A 
ATOM     16  C   UNL     1     -36.844   6.948  78.264  1.00  0.00     0.062 A 
ATOM     17  C   UNL     1     -34.426   6.665  78.244  1.00  0.00     0.200 A 
ATOM     18  C   UNL     1     -35.569   7.463  77.993  1.00  0.00     0.162 A 
BRANCH  15  19
ATOM     19  O   UNL     1     -33.462   4.576  78.991  1.00  0.00    -0.504 OA
ATOM     20  H   UNL     1     -32.523   4.925  78.831  1.00  0.00     0.293 HD
ENDBRANCH  15  19
BRANCH  17  21
ATOM     21  O   UNL     1     -33.126   7.117  78.001  1.00  0.00    -0.502 OA
ATOM     22  H   UNL     1     -32.337   6.509  77.823  1.00  0.00     0.293 HD
ENDBRANCH  17  21
BRANCH  18  23
ATOM     23  O   UNL     1     -35.486   8.764  77.486  1.00  0.00    -0.504 OA
ATOM     24  H   UNL     1     -34.922   9.494  77.895  1.00  0.00     0.293 HD
ENDBRANCH  18  23
ENDBRANCH   3  13
BRANCH  10  25
ATOM     25  O   UNL     1     -43.035   3.750  80.851  1.00  0.00    -0.507 OA
ATOM     26  H   UNL     1     -43.666   3.039  81.185  1.00  0.00     0.293 HD
ENDBRANCH  10  25
BRANCH  11  27
ATOM     27  O   UNL     1     -42.846   2.395  76.269  1.00  0.00    -0.508 OA
ATOM     28  H   UNL     1     -42.872   2.844  75.360  1.00  0.00     0.293 HD
ENDBRANCH  11  27
ENDBRANCH   1   2
BRANCH   1  29
ATOM     29  C   UNL     1     -37.817   4.896  82.702  1.00  0.00     0.339 C 
ATOM     30  C   UNL     1     -37.834   5.853  83.916  1.00  0.00     0.214 C 
ATOM     31  O   UNL     1     -36.603   4.159  82.626  1.00  0.00    -0.332 OA
ATOM     32  C   UNL     1     -36.591   6.765  83.914  1.00  0.00     0.180 C 
ATOM     33  C   UNL     1     -35.472   5.007  82.476  1.00  0.00     0.179 C 
ATOM     34  C   UNL     1     -35.308   5.939  83.703  1.00  0.00     0.177 C 
BRANCH  30  35
ATOM     35  O   UNL     1     -37.948   5.140  85.125  1.00  0.00    -0.384 OA
ATOM     36  H   UNL     1     -37.076   4.709  85.314  1.00  0.00     0.211 HD
ENDBRANCH  30  35
BRANCH  32  37
ATOM     37  O   UNL     1     -36.504   7.471  85.125  1.00  0.00    -0.387 OA
ATOM     38  H   UNL     1     -36.765   8.416  84.929  1.00  0.00     0.211 HD
ENDBRANCH  32  37
BRANCH  33  39
ATOM     39  C   UNL     1     -34.227   4.129  82.290  1.00  0.00     0.191 C 
BRANCH  39  40
ATOM     40  O   UNL     1     -33.502   4.075  83.489  1.00  0.00    -0.394 OA
ATOM     41  H   UNL     1     -32.543   4.178  83.240  1.00  0.00     0.210 HD
ENDBRANCH  39  40
ENDBRANCH  33  39
BRANCH  34  42
ATOM     42  O   UNL     1     -34.195   6.791  83.553  1.00  0.00    -0.387 OA
ATOM     43  H   UNL     1     -34.438   7.679  83.922  1.00  0.00     0.211 HD
ENDBRANCH  34  42
ENDBRANCH   1  29
TORSDOF 13
ENDMDL
MODEL 2
REMARK VINA RESULT:    -7.263      0.391      1.500
REMARK INTER + INTRA:         -12.101
REMARK INTER:                 -10.702
REMARK INTRA:                  -1.399
REMARK UNBOUND:                -1.230
REMARK SMILES O=c1c(O[C@H]2O[C@H](CO)[C@@H](O)[C@H](O)[C@@H]2O)c(-c2cc(O)c(O)c(O)c2)oc2cc(O)cc(O)c12
REMARK SMILES IDX 4 1 3 2 16 3 26 4 2 5 27 6 1 7 34 8 28 9 32 10 29 11 31 12
REMARK SMILES IDX 17 13 18 14 19 15 25 16 21 17 23 18 20 19 22 21 24 23 33 25
REMARK SMILES IDX 30 27 5 29 14 30 6 31 12 32 7 33 10 34 15 35 13 37 8 39 9 40
REMARK SMILES IDX 11 42
REMARK H PARENT 20 20 22 22 24 24 33 26 30 28 15 36 13 38 9 41 11 43
REMARK Flexibility Score: inf
ROOT
ATOM      1  O   UNL     1     -38.159   5.804  81.458  1.00  0.00    -0.454 OA
ENDROOT
BRANCH   1   2
ATOM      2  C   UNL     1     -38.932   5.275  80.414  1.00  0.00     0.214 A 
ATOM      3  C   UNL     1     -38.402   5.207  79.114  1.00  0.00     0.181 A 
ATOM      4  O   UNL     1     -39.093   4.616  78.148  1.00  0.00    -0.452 OA
ATOM      5  C   UNL     1     -40.243   4.813  80.634  1.00  0.00     0.239 A 
ATOM      6  C   UNL     1     -40.314   4.122  78.318  1.00  0.00     0.146 A 
ATOM      7  O   UNL     1     -40.739   4.931  81.783  1.00  0.00    -0.285 OA
ATOM      8  C   UNL     1     -40.977   4.231  79.570  1.00  0.00     0.111 A 
ATOM      9  C   UNL     1     -40.935   3.495  77.236  1.00  0.00     0.094 A 
ATOM     10  C   UNL     1     -42.311   3.729  79.677  1.00  0.00     0.134 A 
ATOM     11  C   UNL     1     -42.219   2.962  77.369  1.00  0.00     0.123 A 
ATOM     12  C   UNL     1     -42.894   3.079  78.582  1.00  0.00     0.093 A 
BRANCH   3  13
ATOM     13  C   UNL     1     -37.064   5.745  78.791  1.00  0.00     0.029 A 
ATOM     14  C   UNL     1     -36.953   7.014  78.209  1.00  0.00     0.062 A 
ATOM     15  C   UNL     1     -35.697   7.533  77.869  1.00  0.00     0.162 A 
ATOM     16  C   UNL     1     -35.897   5.015  79.076  1.00  0.00     0.062 A 
ATOM     17  C   UNL     1     -34.532   6.791  78.120  1.00  0.00     0.200 A 
ATOM     18  C   UNL     1     -34.635   5.518  78.734  1.00  0.00     0.162 A 
BRANCH  15  19
ATOM     19  O   UNL     1     -35.597   8.791  77.273  1.00  0.00    -0.504 OA
ATOM     20  H   UNL     1     -35.565   8.901  76.265  1.00  0.00     0.293 HD
ENDBRANCH  15  19
BRANCH  17  21
ATOM     21  O   UNL     1     -33.306   7.351  77.750  1.00  0.00    -0.502 OA
ATOM     22  H   UNL     1     -32.908   7.281  76.822  1.00  0.00     0.293 HD
ENDBRANCH  17  21
BRANCH  18  23
ATOM     23  O   UNL     1     -33.519   4.724  79.016  1.00  0.00    -0.504 OA
ATOM     24  H   UNL     1     -33.029   4.731  79.899  1.00  0.00     0.293 HD
ENDBRANCH  18  23
ENDBRANCH   3  13
BRANCH  10  25
ATOM     25  O   UNL     1     -43.111   3.854  80.818  1.00  0.00    -0.507 OA
ATOM     26  H   UNL     1     -43.923   4.445  80.901  1.00  0.00     0.293 HD
ENDBRANCH  10  25
BRANCH  11  27
ATOM     27  O   UNL     1     -42.837   2.321  76.297  1.00  0.00    -0.508 OA
ATOM     28  H   UNL     1     -43.060   1.332  76.328  1.00  0.00     0.293 HD
ENDBRANCH  11  27
ENDBRANCH   1   2
BRANCH   1  29
ATOM     29  C   UNL     1     -38.063   5.205  82.757  1.00  0.00     0.339 C 
ATOM     30  C   UNL     1     -37.998   6.298  83.848  1.00  0.00     0.214 C 
ATOM     31  O   UNL     1     -36.955   4.316  82.831  1.00  0.00    -0.332 OA
ATOM     32  C   UNL     1     -36.646   7.038  83.804  1.00  0.00     0.180 C 
ATOM     33  C   UNL     1     -35.718   4.989  82.641  1.00  0.00     0.179 C 
ATOM     34  C   UNL     1     -35.476   6.036  83.757  1.00  0.00     0.177 C 
BRANCH  30  35
ATOM     35  O   UNL     1     -38.247   5.759  85.125  1.00  0.00    -0.384 OA
ATOM     36  H   UNL     1     -39.213   5.866  85.324  1.00  0.00     0.211 HD
ENDBRANCH  30  35
BRANCH  32  37
ATOM     37  O   UNL     1     -36.509   7.870  84.926  1.00  0.00    -0.387 OA
ATOM     38  H   UNL     1     -35.564   8.197  84.931  1.00  0.00     0.211 HD
ENDBRANCH  32  37
BRANCH  33  39
ATOM     39  C   UNL     1     -34.594   3.944  82.623  1.00  0.00     0.191 C 
BRANCH  39  40
ATOM     40  O   UNL     1     -33.533   4.404  81.830  1.00  0.00    -0.394 OA
ATOM     41  H   UNL     1     -33.166   3.604  81.364  1.00  0.00     0.210 HD
ENDBRANCH  39  40
ENDBRANCH  33  39
BRANCH  34  42
ATOM     42  O   UNL     1     -34.256   6.715  83.565  1.00  0.00    -0.387 OA
ATOM     43  H   UNL     1     -33.939   7.029  84.452  1.00  0.00     0.211 HD
ENDBRANCH  34  42
ENDBRANCH   1  29
TORSDOF 13
ENDMDL
MODEL 3
REMARK VINA RESULT:    -6.816      2.131      6.406
REMARK INTER + INTRA:         -11.433
REMARK INTER:                  -9.996
REMARK INTRA:                  -1.436
REMARK UNBOUND:                -1.230
REMARK SMILES O=c1c(O[C@H]2O[C@H](CO)[C@@H](O)[C@H](O)[C@@H]2O)c(-c2cc(O)c(O)c(O)c2)oc2cc(O)cc(O)c12
REMARK SMILES IDX 4 1 3 2 16 3 26 4 2 5 27 6 1 7 34 8 28 9 32 10 29 11 31 12
REMARK SMILES IDX 17 13 18 14 19 15 25 16 21 17 23 18 20 19 22 21 24 23 33 25
REMARK SMILES IDX 30 27 5 29 14 30 6 31 12 32 7 33 10 34 15 35 13 37 8 39 9 40
REMARK SMILES IDX 11 42
REMARK H PARENT 20 20 22 22 24 24 33 26 30 28 15 36 13 38 9 41 11 43
REMARK Flexibility Score: inf
ROOT
ATOM      1  O   UNL     1     -37.844   6.113  81.623  1.00  0.00    -0.454 OA
ENDROOT
BRANCH   1   2
ATOM      2  C   UNL     1     -37.077   6.636  80.570  1.00  0.00     0.214 A 
ATOM      3  C   UNL     1     -37.292   6.186  79.256  1.00  0.00     0.181 A 
ATOM      4  O   UNL     1     -36.638   6.750  78.249  1.00  0.00    -0.452 OA
ATOM      5  C   UNL     1     -36.082   7.604  80.799  1.00  0.00     0.239 A 
ATOM      6  C   UNL     1     -35.724   7.701  78.410  1.00  0.00     0.146 A 
ATOM      7  O   UNL     1     -35.848   7.961  81.982  1.00  0.00    -0.285 OA
ATOM      8  C   UNL     1     -35.364   8.154  79.707  1.00  0.00     0.111 A 
ATOM      9  C   UNL     1     -35.121   8.244  77.273  1.00  0.00     0.094 A 
ATOM     10  C   UNL     1     -34.336   9.141  79.821  1.00  0.00     0.134 A 
ATOM     11  C   UNL     1     -34.155   9.245  77.395  1.00  0.00     0.123 A 
ATOM     12  C   UNL     1     -33.773   9.686  78.660  1.00  0.00     0.093 A 
BRANCH   3  13
ATOM     13  C   UNL     1     -38.262   5.115  78.949  1.00  0.00     0.029 A 
ATOM     14  C   UNL     1     -37.797   3.838  78.609  1.00  0.00     0.062 A 
ATOM     15  C   UNL     1     -38.698   2.816  78.288  1.00  0.00     0.162 A 
ATOM     16  C   UNL     1     -39.647   5.347  79.013  1.00  0.00     0.062 A 
ATOM     17  C   UNL     1     -40.081   3.055  78.316  1.00  0.00     0.200 A 
ATOM     18  C   UNL     1     -40.560   4.336  78.687  1.00  0.00     0.162 A 
BRANCH  15  19
ATOM     19  O   UNL     1     -38.225   1.551  77.933  1.00  0.00    -0.504 OA
ATOM     20  H   UNL     1     -38.610   0.706  78.340  1.00  0.00     0.293 HD
ENDBRANCH  15  19
BRANCH  17  21
ATOM     21  O   UNL     1     -40.935   2.002  77.975  1.00  0.00    -0.502 OA
ATOM     22  H   UNL     1     -40.642   1.037  77.893  1.00  0.00     0.293 HD
ENDBRANCH  17  21
BRANCH  18  23
ATOM     23  O   UNL     1     -41.923   4.647  78.738  1.00  0.00    -0.504 OA
ATOM     24  H   UNL     1     -42.599   4.336  78.056  1.00  0.00     0.293 HD
ENDBRANCH  18  23
ENDBRANCH   3  13
BRANCH  10  25
ATOM     25  O   UNL     1     -33.821   9.607  81.035  1.00  0.00    -0.507 OA
ATOM     26  H   UNL     1     -32.842   9.686  81.262  1.00  0.00     0.293 HD
ENDBRANCH  10  25
BRANCH  11  27
ATOM     27  O   UNL     1     -33.561   9.801  76.264  1.00  0.00    -0.508 OA
ATOM     28  H   UNL     1     -32.798   9.339  75.783  1.00  0.00     0.293 HD
ENDBRANCH  11  27
ENDBRANCH   1   2
BRANCH   1  29
ATOM     29  C   UNL     1     -37.299   5.307  82.675  1.00  0.00     0.339 C 
ATOM     30  C   UNL     1     -37.304   3.816  82.264  1.00  0.00     0.214 C 
ATOM     31  O   UNL     1     -37.995   5.521  83.897  1.00  0.00    -0.332 OA
ATOM     32  C   UNL     1     -38.741   3.260  82.229  1.00  0.00     0.180 C 
ATOM     33  C   UNL     1     -39.362   5.140  83.808  1.00  0.00     0.179 C 
ATOM     34  C   UNL     1     -39.500   3.624  83.519  1.00  0.00     0.177 C 
BRANCH  30  35
ATOM     35  O   UNL     1     -36.478   3.052  83.111  1.00  0.00    -0.384 OA
ATOM     36  H   UNL     1     -36.570   3.402  84.034  1.00  0.00     0.211 HD
ENDBRANCH  30  35
BRANCH  32  37
ATOM     37  O   UNL     1     -38.720   1.865  82.072  1.00  0.00    -0.387 OA
ATOM     38  H   UNL     1     -37.784   1.615  81.825  1.00  0.00     0.211 HD
ENDBRANCH  32  37
BRANCH  33  39
ATOM     39  C   UNL     1     -40.057   5.509  85.125  1.00  0.00     0.191 C 
BRANCH  39  40
ATOM     40  O   UNL     1     -41.448   5.465  84.954  1.00  0.00    -0.394 OA
ATOM     41  H   UNL     1     -41.623   5.760  84.018  1.00  0.00     0.210 HD
ENDBRANCH  39  40
ENDBRANCH  33  39
BRANCH  34  42
ATOM     42  O   UNL     1     -40.854   3.245  83.416  1.00  0.00    -0.387 OA
ATOM     43  H   UNL     1     -40.908   2.474  82.794  1.00  0.00     0.211 HD
ENDBRANCH  34  42
ENDBRANCH   1  29
TORSDOF 13
ENDMDL
MODEL 4
REMARK VINA RESULT:    -6.557      2.220      7.278
REMARK INTER + INTRA:         -11.045
REMARK INTER:                  -9.492
REMARK INTRA:                  -1.553
REMARK UNBOUND:                -1.230
REMARK SMILES O=c1c(O[C@H]2O[C@H](CO)[C@@H](O)[C@H](O)[C@@H]2O)c(-c2cc(O)c(O)c(O)c2)oc2cc(O)cc(O)c12
REMARK SMILES IDX 4 1 3 2 16 3 26 4 2 5 27 6 1 7 34 8 28 9 32 10 29 11 31 12
REMARK SMILES IDX 17 13 18 14 19 15 25 16 21 17 23 18 20 19 22 21 24 23 33 25
REMARK SMILES IDX 30 27 5 29 14 30 6 31 12 32 7 33 10 34 15 35 13 37 8 39 9 40
REMARK SMILES IDX 11 42
REMARK H PARENT 20 20 22 22 24 24 33 26 30 28 15 36 13 38 9 41 11 43
REMARK Flexibility Score: inf
ROOT
ATOM      1  O   UNL     1     -39.403   5.510  79.302  1.00  0.00    -0.454 OA
ENDROOT
BRANCH   1   2
ATOM      2  C   UNL     1     -38.292   6.366  79.335  1.00  0.00     0.214 A 
ATOM      3  C   UNL     1     -37.490   6.429  80.487  1.00  0.00     0.181 A 
ATOM      4  O   UNL     1     -36.384   7.162  80.484  1.00  0.00    -0.452 OA
ATOM      5  C   UNL     1     -37.961   7.181  78.236  1.00  0.00     0.239 A 
ATOM      6  C   UNL     1     -36.003   7.909  79.453  1.00  0.00     0.146 A 
ATOM      7  O   UNL     1     -38.714   7.170  77.229  1.00  0.00    -0.285 OA
ATOM      8  C   UNL     1     -36.799   7.992  78.280  1.00  0.00     0.111 A 
ATOM      9  C   UNL     1     -34.803   8.617  79.552  1.00  0.00     0.094 A 
ATOM     10  C   UNL     1     -36.366   8.855  77.225  1.00  0.00     0.134 A 
ATOM     11  C   UNL     1     -34.365   9.416  78.494  1.00  0.00     0.123 A 
ATOM     12  C   UNL     1     -35.143   9.527  77.343  1.00  0.00     0.093 A 
BRANCH   3  13
ATOM     13  C   UNL     1     -37.821   5.665  81.708  1.00  0.00     0.029 A 
ATOM     14  C   UNL     1     -37.009   4.589  82.090  1.00  0.00     0.062 A 
ATOM     15  C   UNL     1     -37.320   3.834  83.227  1.00  0.00     0.162 A 
ATOM     16  C   UNL     1     -38.924   6.010  82.506  1.00  0.00     0.062 A 
ATOM     17  C   UNL     1     -38.442   4.155  84.007  1.00  0.00     0.200 A 
ATOM     18  C   UNL     1     -39.252   5.259  83.643  1.00  0.00     0.162 A 
BRANCH  15  19
ATOM     19  O   UNL     1     -36.515   2.752  83.591  1.00  0.00    -0.504 OA
ATOM     20  H   UNL     1     -35.576   2.885  83.948  1.00  0.00     0.293 HD
ENDBRANCH  15  19
BRANCH  17  21
ATOM     21  O   UNL     1     -38.713   3.361  85.125  1.00  0.00    -0.502 OA
ATOM     22  H   UNL     1     -38.211   2.512  85.353  1.00  0.00     0.293 HD
ENDBRANCH  17  21
BRANCH  18  23
ATOM     23  O   UNL     1     -40.383   5.639  84.371  1.00  0.00    -0.504 OA
ATOM     24  H   UNL     1     -40.438   6.474  84.935  1.00  0.00     0.293 HD
ENDBRANCH  18  23
ENDBRANCH   3  13
BRANCH  10  25
ATOM     25  O   UNL     1     -37.096   9.101  76.058  1.00  0.00    -0.507 OA
ATOM     26  H   UNL     1     -38.035   8.780  75.878  1.00  0.00     0.293 HD
ENDBRANCH  10  25
BRANCH  11  27
ATOM     27  O   UNL     1     -33.161  10.111  78.580  1.00  0.00    -0.508 OA
ATOM     28  H   UNL     1     -32.295   9.645  78.829  1.00  0.00     0.293 HD
ENDBRANCH  11  27
ENDBRANCH   1   2
BRANCH   1  29
ATOM     29  C   UNL     1     -39.303   4.085  79.187  1.00  0.00     0.339 C 
ATOM     30  C   UNL     1     -40.115   3.588  77.968  1.00  0.00     0.214 C 
ATOM     31  O   UNL     1     -39.709   3.445  80.389  1.00  0.00    -0.332 OA
ATOM     32  C   UNL     1     -41.629   3.722  78.224  1.00  0.00     0.180 C 
ATOM     33  C   UNL     1     -41.074   3.697  80.695  1.00  0.00     0.179 C 
ATOM     34  C   UNL     1     -42.005   3.128  79.595  1.00  0.00     0.177 C 
BRANCH  30  35
ATOM     35  O   UNL     1     -39.765   2.267  77.628  1.00  0.00    -0.384 OA
ATOM     36  H   UNL     1     -40.581   1.802  77.311  1.00  0.00     0.211 HD
ENDBRANCH  30  35
BRANCH  32  37
ATOM     37  O   UNL     1     -42.354   3.071  77.213  1.00  0.00    -0.387 OA
ATOM     38  H   UNL     1     -43.254   3.506  77.176  1.00  0.00     0.211 HD
ENDBRANCH  32  37
BRANCH  33  39
ATOM     39  C   UNL     1     -41.393   3.066  82.057  1.00  0.00     0.191 C 
BRANCH  39  40
ATOM     40  O   UNL     1     -42.380   3.820  82.708  1.00  0.00    -0.394 OA
ATOM     41  H   UNL     1     -41.965   4.703  82.914  1.00  0.00     0.210 HD
ENDBRANCH  39  40
ENDBRANCH  33  39
BRANCH  34  42
ATOM     42  O   UNL     1     -43.360   3.388  79.887  1.00  0.00    -0.387 OA
ATOM     43  H   UNL     1     -43.913   2.914  79.214  1.00  0.00     0.211 HD
ENDBRANCH  34  42
ENDBRANCH   1  29
TORSDOF 13
ENDMDL
MODEL 5
REMARK VINA RESULT:    -6.552      1.782      6.330
REMARK INTER + INTRA:         -11.037
REMARK INTER:                 -10.101
REMARK INTRA:                  -0.936
REMARK UNBOUND:                -1.230
REMARK SMILES O=c1c(O[C@H]2O[C@H](CO)[C@@H](O)[C@H](O)[C@@H]2O)c(-c2cc(O)c(O)c(O)c2)oc2cc(O)cc(O)c12
REMARK SMILES IDX 4 1 3 2 16 3 26 4 2 5 27 6 1 7 34 8 28 9 32 10 29 11 31 12
REMARK SMILES IDX 17 13 18 14 19 15 25 16 21 17 23 18 20 19 22 21 24 23 33 25
REMARK SMILES IDX 30 27 5 29 14 30 6 31 12 32 7 33 10 34 15 35 13 37 8 39 9 40
REMARK SMILES IDX 11 42
REMARK H PARENT 20 20 22 22 24 24 33 26 30 28 15 36 13 38 9 41 11 43
REMARK Flexibility Score: inf
ROOT
ATOM      1  O   UNL     1     -37.494   3.960  80.811  1.00  0.00    -0.454 OA
ENDROOT
BRANCH   1   2
ATOM      2  C   UNL     1     -37.337   5.007  79.890  1.00  0.00     0.214 A 
ATOM      3  C   UNL     1     -38.422   5.404  79.089  1.00  0.00     0.181 A 
ATOM      4  O   UNL     1     -38.303   6.456  78.290  1.00  0.00    -0.452 OA
ATOM      5  C   UNL     1     -36.106   5.670  79.737  1.00  0.00     0.239 A 
ATOM      6  C   UNL     1     -37.176   7.145  78.148  1.00  0.00     0.146 A 
ATOM      7  O   UNL     1     -35.119   5.274  80.409  1.00  0.00    -0.285 OA
ATOM      8  C   UNL     1     -35.996   6.761  78.838  1.00  0.00     0.111 A 
ATOM      9  C   UNL     1     -37.176   8.255  77.301  1.00  0.00     0.094 A 
ATOM     10  C   UNL     1     -34.799   7.508  78.604  1.00  0.00     0.134 A 
ATOM     11  C   UNL     1     -36.014   9.007  77.120  1.00  0.00     0.123 A 
ATOM     12  C   UNL     1     -34.840   8.633  77.771  1.00  0.00     0.093 A 
BRANCH   3  13
ATOM     13  C   UNL     1     -39.721   4.702  79.136  1.00  0.00     0.029 A 
ATOM     14  C   UNL     1     -40.173   4.009  78.006  1.00  0.00     0.062 A 
ATOM     15  C   UNL     1     -41.413   3.360  78.018  1.00  0.00     0.162 A 
ATOM     16  C   UNL     1     -40.505   4.699  80.302  1.00  0.00     0.062 A 
ATOM     17  C   UNL     1     -42.214   3.385  79.171  1.00  0.00     0.200 A 
ATOM     18  C   UNL     1     -41.752   4.060  80.327  1.00  0.00     0.162 A 
BRANCH  15  19
ATOM     19  O   UNL     1     -41.862   2.686  76.881  1.00  0.00    -0.504 OA
ATOM     20  H   UNL     1     -41.589   2.976  75.949  1.00  0.00     0.293 HD
ENDBRANCH  15  19
BRANCH  17  21
ATOM     21  O   UNL     1     -43.449   2.731  79.124  1.00  0.00    -0.502 OA
ATOM     22  H   UNL     1     -43.710   2.061  78.412  1.00  0.00     0.293 HD
ENDBRANCH  17  21
BRANCH  18  23
ATOM     23  O   UNL     1     -42.495   4.126  81.510  1.00  0.00    -0.504 OA
ATOM     24  H   UNL     1     -42.111   3.958  82.428  1.00  0.00     0.293 HD
ENDBRANCH  18  23
ENDBRANCH   3  13
BRANCH  10  25
ATOM     25  O   UNL     1     -33.550   7.184  79.143  1.00  0.00    -0.507 OA
ATOM     26  H   UNL     1     -33.291   7.274  80.114  1.00  0.00     0.293 HD
ENDBRANCH  10  25
BRANCH  11  27
ATOM     27  O   UNL     1     -36.013  10.125  76.288  1.00  0.00    -0.508 OA
ATOM     28  H   UNL     1     -35.504  10.133  75.411  1.00  0.00     0.293 HD
ENDBRANCH  11  27
ENDBRANCH   1   2
BRANCH   1  29
ATOM     29  C   UNL     1     -37.011   4.012  82.160  1.00  0.00     0.339 C 
ATOM     30  C   UNL     1     -37.507   2.781  82.954  1.00  0.00     0.214 C 
ATOM     31  O   UNL     1     -37.382   5.232  82.790  1.00  0.00    -0.332 OA
ATOM     32  C   UNL     1     -39.023   2.872  83.217  1.00  0.00     0.180 C 
ATOM     33  C   UNL     1     -38.792   5.373  82.895  1.00  0.00     0.179 C 
ATOM     34  C   UNL     1     -39.398   4.255  83.780  1.00  0.00     0.177 C 
BRANCH  30  35
ATOM     35  O   UNL     1     -36.785   2.624  84.153  1.00  0.00    -0.384 OA
ATOM     36  H   UNL     1     -37.270   1.977  84.725  1.00  0.00     0.211 HD
ENDBRANCH  30  35
BRANCH  32  37
ATOM     37  O   UNL     1     -39.421   1.871  84.118  1.00  0.00    -0.387 OA
ATOM     38  H   UNL     1     -38.587   1.491  84.517  1.00  0.00     0.211 HD
ENDBRANCH  32  37
BRANCH  33  39
ATOM     39  C   UNL     1     -39.102   6.757  83.478  1.00  0.00     0.191 C 
BRANCH  39  40
ATOM     40  O   UNL     1     -39.153   6.681  84.878  1.00  0.00    -0.394 OA
ATOM     41  H   UNL     1     -38.811   7.553  85.217  1.00  0.00     0.210 HD
ENDBRANCH  39  40
ENDBRANCH  33  39
BRANCH  34  42
ATOM     42  O   UNL     1     -40.799   4.382  83.877  1.00  0.00    -0.387 OA
ATOM     43  H   UNL     1     -41.179   4.265  82.968  1.00  0.00     0.211 HD
ENDBRANCH  34  42
ENDBRANCH   1  29
TORSDOF 13
ENDMDL
MODEL 6
REMARK VINA RESULT:    -6.543      1.944      7.641
REMARK INTER + INTRA:         -11.023
REMARK INTER:                  -9.679
REMARK INTRA:                  -1.345
REMARK UNBOUND:                -1.230
REMARK SMILES O=c1c(O[C@H]2O[C@H](CO)[C@@H](O)[C@H](O)[C@@H]2O)c(-c2cc(O)c(O)c(O)c2)oc2cc(O)cc(O)c12
REMARK SMILES IDX 4 1 3 2 16 3 26 4 2 5 27 6 1 7 34 8 28 9 32 10 29 11 31 12
REMARK SMILES IDX 17 13 18 14 19 15 25 16 21 17 23 18 20 19 22 21 24 23 33 25
REMARK SMILES IDX 30 27 5 29 14 30 6 31 12 32 7 33 10 34 15 35 13 37 8 39 9 40
REMARK SMILES IDX 11 42
REMARK H PARENT 20 20 22 22 24 24 33 26 30 28 15 36 13 38 9 41 11 43
REMARK Flexibility Score: inf
ROOT
ATOM      1  O   UNL     1     -38.057   4.893  79.184  1.00  0.00    -0.454 OA
ENDROOT
BRANCH   1   2
ATOM      2  C   UNL     1     -36.910   5.559  79.642  1.00  0.00     0.214 A 
ATOM      3  C   UNL     1     -36.555   5.491  81.000  1.00  0.00     0.181 A 
ATOM      4  O   UNL     1     -35.419   6.036  81.414  1.00  0.00    -0.452 OA
ATOM      5  C   UNL     1     -36.101   6.309  78.768  1.00  0.00     0.239 A 
ATOM      6  C   UNL     1     -34.598   6.713  80.618  1.00  0.00     0.146 A 
ATOM      7  O   UNL     1     -36.453   6.421  77.566  1.00  0.00    -0.285 OA
ATOM      8  C   UNL     1     -34.917   6.923  79.251  1.00  0.00     0.111 A 
ATOM      9  C   UNL     1     -33.413   7.218  81.159  1.00  0.00     0.094 A 
ATOM     10  C   UNL     1     -34.022   7.705  78.457  1.00  0.00     0.134 A 
ATOM     11  C   UNL     1     -32.522   7.936  80.360  1.00  0.00     0.123 A 
ATOM     12  C   UNL     1     -32.828   8.172  79.021  1.00  0.00     0.093 A 
BRANCH   3  13
ATOM     13  C   UNL     1     -37.398   4.789  81.990  1.00  0.00     0.029 A 
ATOM     14  C   UNL     1     -38.002   5.519  83.023  1.00  0.00     0.062 A 
ATOM     15  C   UNL     1     -38.782   4.871  83.988  1.00  0.00     0.162 A 
ATOM     16  C   UNL     1     -37.624   3.405  81.904  1.00  0.00     0.062 A 
ATOM     17  C   UNL     1     -38.980   3.483  83.924  1.00  0.00     0.200 A 
ATOM     18  C   UNL     1     -38.396   2.742  82.867  1.00  0.00     0.162 A 
BRANCH  15  19
ATOM     19  O   UNL     1     -39.366   5.603  85.024  1.00  0.00    -0.504 OA
ATOM     20  H   UNL     1     -39.840   6.483  84.851  1.00  0.00     0.293 HD
ENDBRANCH  15  19
BRANCH  17  21
ATOM     21  O   UNL     1     -39.758   2.885  84.920  1.00  0.00    -0.502 OA
ATOM     22  H   UNL     1     -39.691   1.911  85.185  1.00  0.00     0.293 HD
ENDBRANCH  17  21
BRANCH  18  23
ATOM     23  O   UNL     1     -38.551   1.358  82.738  1.00  0.00    -0.504 OA
ATOM     24  H   UNL     1     -37.783   0.711  82.638  1.00  0.00     0.293 HD
ENDBRANCH  18  23
ENDBRANCH   3  13
BRANCH  10  25
ATOM     25  O   UNL     1     -34.258   8.066  77.126  1.00  0.00    -0.507 OA
ATOM     26  H   UNL     1     -34.350   9.010  76.785  1.00  0.00     0.293 HD
ENDBRANCH  10  25
BRANCH  11  27
ATOM     27  O   UNL     1     -31.331   8.429  80.889  1.00  0.00    -0.508 OA
ATOM     28  H   UNL     1     -30.740   7.860  81.486  1.00  0.00     0.293 HD
ENDBRANCH  11  27
ENDBRANCH   1   2
BRANCH   1  29
ATOM     29  C   UNL     1     -39.250   5.567  78.762  1.00  0.00     0.339 C 
ATOM     30  C   UNL     1     -40.087   5.992  79.991  1.00  0.00     0.214 C 
ATOM     31  O   UNL     1     -40.002   4.762  77.863  1.00  0.00    -0.332 OA
ATOM     32  C   UNL     1     -40.713   4.764  80.681  1.00  0.00     0.180 C 
ATOM     33  C   UNL     1     -40.451   3.558  78.469  1.00  0.00     0.179 C 
ATOM     34  C   UNL     1     -41.409   3.854  79.651  1.00  0.00     0.177 C 
BRANCH  30  35
ATOM     35  O   UNL     1     -41.068   6.938  79.636  1.00  0.00    -0.384 OA
ATOM     36  H   UNL     1     -41.341   6.766  78.699  1.00  0.00     0.211 HD
ENDBRANCH  30  35
BRANCH  32  37
ATOM     37  O   UNL     1     -41.641   5.171  81.653  1.00  0.00    -0.387 OA
ATOM     38  H   UNL     1     -42.217   5.871  81.229  1.00  0.00     0.211 HD
ENDBRANCH  32  37
BRANCH  33  39
ATOM     39  C   UNL     1     -41.150   2.707  77.402  1.00  0.00     0.191 C 
BRANCH  39  40
ATOM     40  O   UNL     1     -42.498   3.081  77.305  1.00  0.00    -0.394 OA
ATOM     41  H   UNL     1     -42.567   3.669  76.503  1.00  0.00     0.210 HD
ENDBRANCH  39  40
ENDBRANCH  33  39
BRANCH  34  42
ATOM     42  O   UNL     1     -41.847   2.663  80.264  1.00  0.00    -0.387 OA
ATOM     43  H   UNL     1     -41.316   1.914  79.888  1.00  0.00     0.211 HD
ENDBRANCH  34  42
ENDBRANCH   1  29
TORSDOF 13
ENDMDL
MODEL 7
REMARK VINA RESULT:    -6.385      2.173      5.869
REMARK INTER + INTRA:         -10.787
REMARK INTER:                 -10.108
REMARK INTRA:                  -0.679
REMARK UNBOUND:                -1.230
REMARK SMILES O=c1c(O[C@H]2O[C@H](CO)[C@@H](O)[C@H](O)[C@@H]2O)c(-c2cc(O)c(O)c(O)c2)oc2cc(O)cc(O)c12
REMARK SMILES IDX 4 1 3 2 16 3 26 4 2 5 27 6 1 7 34 8 28 9 32 10 29 11 31 12
REMARK SMILES IDX 17 13 18 14 19 15 25 16 21 17 23 18 20 19 22 21 24 23 33 25
REMARK SMILES IDX 30 27 5 29 14 30 6 31 12 32 7 33 10 34 15 35 13 37 8 39 9 40
REMARK SMILES IDX 11 42
REMARK H PARENT 20 20 22 22 24 24 33 26 30 28 15 36 13 38 9 41 11 43
REMARK Flexibility Score: inf
ROOT
ATOM      1  O   UNL     1     -36.582   5.604  80.529  1.00  0.00    -0.454 OA
ENDROOT
BRANCH   1   2
ATOM      2  C   UNL     1     -37.354   6.291  79.579  1.00  0.00     0.214 A 
ATOM      3  C   UNL     1     -38.729   6.025  79.468  1.00  0.00     0.181 A 
ATOM      4  O   UNL     1     -39.476   6.743  78.640  1.00  0.00    -0.452 OA
ATOM      5  C   UNL     1     -36.777   7.242  78.717  1.00  0.00     0.239 A 
ATOM      6  C   UNL     1     -38.987   7.686  77.842  1.00  0.00     0.146 A 
ATOM      7  O   UNL     1     -35.536   7.435  78.774  1.00  0.00    -0.285 OA
ATOM      8  C   UNL     1     -37.594   7.960  77.807  1.00  0.00     0.111 A 
ATOM      9  C   UNL     1     -39.874   8.400  77.033  1.00  0.00     0.094 A 
ATOM     10  C   UNL     1     -37.119   8.948  76.889  1.00  0.00     0.134 A 
ATOM     11  C   UNL     1     -39.404   9.398  76.178  1.00  0.00     0.123 A 
ATOM     12  C   UNL     1     -38.038   9.667  76.114  1.00  0.00     0.093 A 
BRANCH   3  13
ATOM     13  C   UNL     1     -39.388   4.983  80.282  1.00  0.00     0.029 A 
ATOM     14  C   UNL     1     -40.779   5.009  80.442  1.00  0.00     0.062 A 
ATOM     15  C   UNL     1     -41.422   4.048  81.232  1.00  0.00     0.162 A 
ATOM     16  C   UNL     1     -38.647   3.952  80.883  1.00  0.00     0.062 A 
ATOM     17  C   UNL     1     -40.679   3.037  81.862  1.00  0.00     0.200 A 
ATOM     18  C   UNL     1     -39.275   2.987  81.682  1.00  0.00     0.162 A 
BRANCH  15  19
ATOM     19  O   UNL     1     -42.807   4.092  81.400  1.00  0.00    -0.504 OA
ATOM     20  H   UNL     1     -43.431   3.541  80.820  1.00  0.00     0.293 HD
ENDBRANCH  15  19
BRANCH  17  21
ATOM     21  O   UNL     1     -41.370   2.110  82.649  1.00  0.00    -0.502 OA
ATOM     22  H   UNL     1     -42.055   1.459  82.288  1.00  0.00     0.293 HD
ENDBRANCH  17  21
BRANCH  18  23
ATOM     23  O   UNL     1     -38.471   2.010  82.278  1.00  0.00    -0.504 OA
ATOM     24  H   UNL     1     -38.497   1.031  82.031  1.00  0.00     0.293 HD
ENDBRANCH  18  23
ENDBRANCH   3  13
BRANCH  10  25
ATOM     25  O   UNL     1     -35.769   9.251  76.686  1.00  0.00    -0.507 OA
ATOM     26  H   UNL     1     -35.115   9.518  77.405  1.00  0.00     0.293 HD
ENDBRANCH  10  25
BRANCH  11  27
ATOM     27  O   UNL     1     -40.285  10.125  75.381  1.00  0.00    -0.508 OA
ATOM     28  H   UNL     1     -40.308  10.010  74.373  1.00  0.00     0.293 HD
ENDBRANCH  11  27
ENDBRANCH   1   2
BRANCH   1  29
ATOM     29  C   UNL     1     -35.850   6.254  81.576  1.00  0.00     0.339 C 
ATOM     30  C   UNL     1     -34.502   5.535  81.813  1.00  0.00     0.214 C 
ATOM     31  O   UNL     1     -36.623   6.336  82.767  1.00  0.00    -0.332 OA
ATOM     32  C   UNL     1     -34.723   4.157  82.468  1.00  0.00     0.180 C 
ATOM     33  C   UNL     1     -36.947   5.052  83.283  1.00  0.00     0.179 C 
ATOM     34  C   UNL     1     -35.668   4.272  83.679  1.00  0.00     0.177 C 
BRANCH  30  35
ATOM     35  O   UNL     1     -33.627   6.332  82.575  1.00  0.00    -0.384 OA
ATOM     36  H   UNL     1     -34.082   7.190  82.774  1.00  0.00     0.211 HD
ENDBRANCH  30  35
BRANCH  32  37
ATOM     37  O   UNL     1     -33.496   3.610  82.877  1.00  0.00    -0.387 OA
ATOM     38  H   UNL     1     -33.066   4.282  83.480  1.00  0.00     0.211 HD
ENDBRANCH  32  37
BRANCH  33  39
ATOM     39  C   UNL     1     -37.871   5.233  84.495  1.00  0.00     0.191 C 
BRANCH  39  40
ATOM     40  O   UNL     1     -38.558   4.038  84.749  1.00  0.00    -0.394 OA
ATOM     41  H   UNL     1     -39.430   4.299  85.156  1.00  0.00     0.210 HD
ENDBRANCH  39  40
ENDBRANCH  33  39
BRANCH  34  42
ATOM     42  O   UNL     1     -35.984   2.993  84.179  1.00  0.00    -0.387 OA
ATOM     43  H   UNL     1     -35.452   2.327  83.671  1.00  0.00     0.211 HD
ENDBRANCH  34  42
ENDBRANCH   1  29
TORSDOF 13
ENDMDL
MODEL 8
REMARK VINA RESULT:    -6.146      2.743      7.222
REMARK INTER + INTRA:         -10.430
REMARK INTER:                  -9.374
REMARK INTRA:                  -1.056
REMARK UNBOUND:                -1.230
REMARK SMILES O=c1c(O[C@H]2O[C@H](CO)[C@@H](O)[C@H](O)[C@@H]2O)c(-c2cc(O)c(O)c(O)c2)oc2cc(O)cc(O)c12
REMARK SMILES IDX 4 1 3 2 16 3 26 4 2 5 27 6 1 7 34 8 28 9 32 10 29 11 31 12
REMARK SMILES IDX 17 13 18 14 19 15 25 16 21 17 23 18 20 19 22 21 24 23 33 25
REMARK SMILES IDX 30 27 5 29 14 30 6 31 12 32 7 33 10 34 15 35 13 37 8 39 9 40
REMARK SMILES IDX 11 42
REMARK H PARENT 20 20 22 22 24 24 33 26 30 28 15 36 13 38 9 41 11 43
REMARK Flexibility Score: inf
ROOT
ATOM      1  O   UNL     1     -38.412   5.660  80.611  1.00  0.00    -0.454 OA
ENDROOT
BRANCH   1   2
ATOM      2  C   UNL     1     -37.227   6.407  80.684  1.00  0.00     0.214 A 
ATOM      3  C   UNL     1     -37.083   7.570  79.909  1.00  0.00     0.181 A 
ATOM      4  O   UNL     1     -36.005   8.331  80.050  1.00  0.00    -0.452 OA
ATOM      5  C   UNL     1     -36.162   6.013  81.515  1.00  0.00     0.239 A 
ATOM      6  C   UNL     1     -34.995   8.027  80.858  1.00  0.00     0.146 A 
ATOM      7  O   UNL     1     -36.266   4.940  82.162  1.00  0.00    -0.285 OA
ATOM      8  C   UNL     1     -35.001   6.821  81.610  1.00  0.00     0.111 A 
ATOM      9  C   UNL     1     -33.924   8.918  80.949  1.00  0.00     0.094 A 
ATOM     10  C   UNL     1     -33.862   6.522  82.420  1.00  0.00     0.134 A 
ATOM     11  C   UNL     1     -32.841   8.639  81.785  1.00  0.00     0.123 A 
ATOM     12  C   UNL     1     -32.818   7.451  82.513  1.00  0.00     0.093 A 
BRANCH   3  13
ATOM     13  C   UNL     1     -38.125   8.002  78.953  1.00  0.00     0.029 A 
ATOM     14  C   UNL     1     -38.072   7.556  77.626  1.00  0.00     0.062 A 
ATOM     15  C   UNL     1     -39.032   7.974  76.697  1.00  0.00     0.162 A 
ATOM     16  C   UNL     1     -39.181   8.836  79.356  1.00  0.00     0.062 A 
ATOM     17  C   UNL     1     -40.069   8.835  77.089  1.00  0.00     0.200 A 
ATOM     18  C   UNL     1     -40.146   9.268  78.436  1.00  0.00     0.162 A 
BRANCH  15  19
ATOM     19  O   UNL     1     -38.962   7.538  75.373  1.00  0.00    -0.504 OA
ATOM     20  H   UNL     1     -39.456   8.018  74.629  1.00  0.00     0.293 HD
ENDBRANCH  15  19
BRANCH  17  21
ATOM     21  O   UNL     1     -40.994   9.231  76.118  1.00  0.00    -0.502 OA
ATOM     22  H   UNL     1     -40.747   9.698  75.255  1.00  0.00     0.293 HD
ENDBRANCH  17  21
BRANCH  18  23
ATOM     23  O   UNL     1     -41.150  10.125  78.898  1.00  0.00    -0.504 OA
ATOM     24  H   UNL     1     -42.094  10.132  78.541  1.00  0.00     0.293 HD
ENDBRANCH  18  23
ENDBRANCH   3  13
BRANCH  10  25
ATOM     25  O   UNL     1     -33.695   5.332  83.136  1.00  0.00    -0.507 OA
ATOM     26  H   UNL     1     -33.212   4.512  82.802  1.00  0.00     0.293 HD
ENDBRANCH  10  25
BRANCH  11  27
ATOM     27  O   UNL     1     -31.777   9.532  81.892  1.00  0.00    -0.508 OA
ATOM     28  H   UNL     1     -31.914  10.483  82.217  1.00  0.00     0.293 HD
ENDBRANCH  11  27
ENDBRANCH   1   2
BRANCH   1  29
ATOM     29  C   UNL     1     -38.443   4.232  80.484  1.00  0.00     0.339 C 
ATOM     30  C   UNL     1     -38.612   3.831  79.000  1.00  0.00     0.214 C 
ATOM     31  O   UNL     1     -39.457   3.666  81.303  1.00  0.00    -0.332 OA
ATOM     32  C   UNL     1     -40.030   4.167  78.498  1.00  0.00     0.180 C 
ATOM     33  C   UNL     1     -40.756   4.100  80.923  1.00  0.00     0.179 C 
ATOM     34  C   UNL     1     -41.095   3.645  79.481  1.00  0.00     0.177 C 
BRANCH  30  35
ATOM     35  O   UNL     1     -38.304   2.471  78.802  1.00  0.00    -0.384 OA
ATOM     36  H   UNL     1     -38.466   2.252  77.849  1.00  0.00     0.211 HD
ENDBRANCH  30  35
BRANCH  32  37
ATOM     37  O   UNL     1     -40.244   3.605  77.229  1.00  0.00    -0.387 OA
ATOM     38  H   UNL     1     -40.991   4.118  76.807  1.00  0.00     0.211 HD
ENDBRANCH  32  37
BRANCH  33  39
ATOM     39  C   UNL     1     -41.771   3.534  81.925  1.00  0.00     0.191 C 
BRANCH  39  40
ATOM     40  O   UNL     1     -43.023   4.132  81.720  1.00  0.00    -0.394 OA
ATOM     41  H   UNL     1     -42.840   5.081  81.474  1.00  0.00     0.210 HD
ENDBRANCH  39  40
ENDBRANCH  33  39
BRANCH  34  42
ATOM     42  O   UNL     1     -42.377   4.085  79.095  1.00  0.00    -0.387 OA
ATOM     43  H   UNL     1     -42.605   3.643  78.237  1.00  0.00     0.211 HD
ENDBRANCH  34  42
ENDBRANCH   1  29
TORSDOF 13
ENDMDL
