MODEL 1
REMARK VINA RESULT:    -5.972      0.000      0.000
REMARK INTER + INTRA:          -6.146
REMARK INTER:                  -6.146
REMARK INTRA:                   0.000
REMARK UNBOUND:                 0.000
REMARK SMILES O=c1ccc2cc(O)ccc2o1
REMARK SMILES IDX 9 1 10 2 11 3 5 4 4 5 3 6 2 7 1 8 12 9 6 10 7 11 8 12
REMARK H PARENT 8 13
REMARK Flexibility Score: inf
ROOT
ATOM      1  C   UNL     1     -30.602  -2.457 -19.783  1.00  0.00     0.050 A 
ATOM      2  C   UNL     1     -31.260  -2.869 -18.620  1.00  0.00     0.052 A 
ATOM      3  C   UNL     1     -32.610  -3.232 -18.671  1.00  0.00     0.138 A 
ATOM      4  C   UNL     1     -33.305  -3.179 -19.898  1.00  0.00     0.021 A 
ATOM      5  C   UNL     1     -34.654  -3.546 -19.917  1.00  0.00     0.019 A 
ATOM      6  C   UNL     1     -35.269  -3.952 -18.734  1.00  0.00     0.094 A 
ATOM      7  C   UNL     1     -34.517  -3.980 -17.553  1.00  0.00     0.336 A 
ATOM      8  O   UNL     1     -35.055  -4.343 -16.475  1.00  0.00    -0.246 OA
ATOM      9  O   UNL     1     -33.235  -3.624 -17.563  1.00  0.00    -0.423 OA
ATOM     10  C   UNL     1     -32.640  -2.764 -21.061  1.00  0.00     0.058 A 
ATOM     11  C   UNL     1     -31.286  -2.402 -21.003  1.00  0.00     0.116 A 
ENDROOT
BRANCH  11  12
ATOM     12  O   UNL     1     -30.613  -1.989 -22.150  1.00  0.00    -0.508 OA
ATOM     13  H   UNL     1     -29.600  -1.996 -22.202  1.00  0.00     0.293 HD
ENDBRANCH  11  12
TORSDOF 1
ENDMDL
MODEL 2
REMARK VINA RESULT:    -5.491      6.827      7.730
REMARK INTER + INTRA:          -5.652
REMARK INTER:                  -5.652
REMARK INTRA:                   0.000
REMARK UNBOUND:                 0.000
REMARK SMILES O=c1ccc2cc(O)ccc2o1
REMARK SMILES IDX 9 1 10 2 11 3 5 4 4 5 3 6 2 7 1 8 12 9 6 10 7 11 8 12
REMARK H PARENT 8 13
REMARK Flexibility Score: inf
ROOT
ATOM      1  C   UNL     1     -36.037  -8.918 -14.797  1.00  0.00     0.050 A 
ATOM      2  C   UNL     1     -36.876  -8.375 -15.775  1.00  0.00     0.052 A 
ATOM      3  C   UNL     1     -37.251  -7.029 -15.708  1.00  0.00     0.138 A 
ATOM      4  C   UNL     1     -36.781  -6.222 -14.649  1.00  0.00     0.021 A 
ATOM      5  C   UNL     1     -37.173  -4.880 -14.608  1.00  0.00     0.019 A 
ATOM      6  C   UNL     1     -38.011  -4.382 -15.605  1.00  0.00     0.094 A 
ATOM      7  C   UNL     1     -38.438  -5.241 -16.625  1.00  0.00     0.336 A 
ATOM      8  O   UNL     1     -39.194  -4.810 -17.533  1.00  0.00    -0.246 OA
ATOM      9  O   UNL     1     -38.049  -6.514 -16.639  1.00  0.00    -0.423 OA
ATOM     10  C   UNL     1     -35.939  -6.772 -13.671  1.00  0.00     0.058 A 
ATOM     11  C   UNL     1     -35.568  -8.123 -13.745  1.00  0.00     0.116 A 
ENDROOT
BRANCH  11  12
ATOM     12  O   UNL     1     -34.733  -8.682 -12.781  1.00  0.00    -0.508 OA
ATOM     13  H   UNL     1     -33.725  -8.580 -12.828  1.00  0.00     0.293 HD
ENDBRANCH  11  12
TORSDOF 1
ENDMDL
MODEL 3
REMARK VINA RESULT:    -5.358      7.332      8.276
REMARK INTER + INTRA:          -5.515
REMARK INTER:                  -5.515
REMARK INTRA:                   0.000
REMARK UNBOUND:                 0.000
REMARK SMILES O=c1ccc2cc(O)ccc2o1
REMARK SMILES IDX 9 1 10 2 11 3 5 4 4 5 3 6 2 7 1 8 12 9 6 10 7 11 8 12
REMARK H PARENT 8 13
REMARK Flexibility Score: inf
ROOT
ATOM      1  C   UNL     1     -38.162  -8.154 -14.902  1.00  0.00     0.050 A 
ATOM      2  C   UNL     1     -38.737  -7.154 -14.111  1.00  0.00     0.052 A 
ATOM      3  C   UNL     1     -37.948  -6.110 -13.618  1.00  0.00     0.138 A 
ATOM      4  C   UNL     1     -36.570  -6.070 -13.920  1.00  0.00     0.021 A 
ATOM      5  C   UNL     1     -35.805  -5.015 -13.412  1.00  0.00     0.019 A 
ATOM      6  C   UNL     1     -36.421  -4.040 -12.629  1.00  0.00     0.094 A 
ATOM      7  C   UNL     1     -37.793  -4.144 -12.370  1.00  0.00     0.336 A 
ATOM      8  O   UNL     1     -38.367  -3.274 -11.665  1.00  0.00    -0.246 OA
ATOM      9  O   UNL     1     -38.497  -5.159 -12.866  1.00  0.00    -0.423 OA
ATOM     10  C   UNL     1     -35.998  -7.076 -14.714  1.00  0.00     0.058 A 
ATOM     11  C   UNL     1     -36.796  -8.120 -15.205  1.00  0.00     0.116 A 
ENDROOT
BRANCH  11  12
ATOM     12  O   UNL     1     -36.243  -9.125 -15.994  1.00  0.00    -0.508 OA
ATOM     13  H   UNL     1     -36.690 -10.029 -16.092  1.00  0.00     0.293 HD
ENDBRANCH  11  12
TORSDOF 1
ENDMDL
MODEL 4
REMARK VINA RESULT:    -5.325      4.236      5.789
REMARK INTER + INTRA:          -5.481
REMARK INTER:                  -5.481
REMARK INTRA:                   0.000
REMARK UNBOUND:                 0.000
REMARK SMILES O=c1ccc2cc(O)ccc2o1
REMARK SMILES IDX 9 1 10 2 11 3 5 4 4 5 3 6 2 7 1 8 12 9 6 10 7 11 8 12
REMARK H PARENT 8 13
REMARK Flexibility Score: inf
ROOT
ATOM      1  C   UNL     1     -35.638  -3.663 -17.605  1.00  0.00     0.050 A 
ATOM      2  C   UNL     1     -35.723  -5.058 -17.650  1.00  0.00     0.052 A 
ATOM      3  C   UNL     1     -35.919  -5.786 -16.472  1.00  0.00     0.138 A 
ATOM      4  C   UNL     1     -36.029  -5.108 -15.239  1.00  0.00     0.021 A 
ATOM      5  C   UNL     1     -36.223  -5.862 -14.077  1.00  0.00     0.019 A 
ATOM      6  C   UNL     1     -36.302  -7.251 -14.170  1.00  0.00     0.094 A 
ATOM      7  C   UNL     1     -36.184  -7.856 -15.427  1.00  0.00     0.336 A 
ATOM      8  O   UNL     1     -36.252  -9.108 -15.530  1.00  0.00    -0.246 OA
ATOM      9  O   UNL     1     -35.999  -7.114 -16.516  1.00  0.00    -0.423 OA
ATOM     10  C   UNL     1     -35.943  -3.708 -15.199  1.00  0.00     0.058 A 
ATOM     11  C   UNL     1     -35.747  -2.985 -16.386  1.00  0.00     0.116 A 
ENDROOT
BRANCH  11  12
ATOM     12  O   UNL     1     -35.660  -1.596 -16.362  1.00  0.00    -0.508 OA
ATOM     13  H   UNL     1     -35.027  -1.093 -16.974  1.00  0.00     0.293 HD
ENDBRANCH  11  12
TORSDOF 1
ENDMDL
MODEL 5
REMARK VINA RESULT:    -5.302      4.864      8.010
REMARK INTER + INTRA:          -5.457
REMARK INTER:                  -5.457
REMARK INTRA:                   0.000
REMARK UNBOUND:                 0.000
REMARK SMILES O=c1ccc2cc(O)ccc2o1
REMARK SMILES IDX 9 1 10 2 11 3 5 4 4 5 3 6 2 7 1 8 12 9 6 10 7 11 8 12
REMARK H PARENT 8 13
REMARK Flexibility Score: inf
ROOT
ATOM      1  C   UNL     1     -37.196  -8.978 -14.425  1.00  0.00     0.050 A 
ATOM      2  C   UNL     1     -36.304  -8.370 -15.315  1.00  0.00     0.052 A 
ATOM      3  C   UNL     1     -36.703  -7.247 -16.048  1.00  0.00     0.138 A 
ATOM      4  C   UNL     1     -38.007  -6.732 -15.888  1.00  0.00     0.021 A 
ATOM      5  C   UNL     1     -38.378  -5.609 -16.635  1.00  0.00     0.019 A 
ATOM      6  C   UNL     1     -37.456  -5.036 -17.509  1.00  0.00     0.094 A 
ATOM      7  C   UNL     1     -36.179  -5.601 -17.617  1.00  0.00     0.336 A 
ATOM      8  O   UNL     1     -35.334  -5.097 -18.401  1.00  0.00    -0.246 OA
ATOM      9  O   UNL     1     -35.854  -6.670 -16.894  1.00  0.00    -0.423 OA
ATOM     10  C   UNL     1     -38.898  -7.346 -14.994  1.00  0.00     0.058 A 
ATOM     11  C   UNL     1     -38.490  -8.472 -14.262  1.00  0.00     0.116 A 
ENDROOT
BRANCH  11  12
ATOM     12  O   UNL     1     -39.363  -9.091 -13.372  1.00  0.00    -0.508 OA
ATOM     13  H   UNL     1     -39.641 -10.059 -13.488  1.00  0.00     0.293 HD
ENDBRANCH  11  12
TORSDOF 1
ENDMDL
MODEL 6
REMARK VINA RESULT:    -5.222      4.752      6.398
REMARK INTER + INTRA:          -5.375
REMARK INTER:                  -5.375
REMARK INTRA:                   0.000
REMARK UNBOUND:                 0.000
REMARK SMILES O=c1ccc2cc(O)ccc2o1
REMARK SMILES IDX 9 1 10 2 11 3 5 4 4 5 3 6 2 7 1 8 12 9 6 10 7 11 8 12
REMARK H PARENT 8 13
REMARK Flexibility Score: inf
ROOT
ATOM      1  C   UNL     1     -36.044  -7.221 -14.173  1.00  0.00     0.050 A 
ATOM      2  C   UNL     1     -36.044  -5.837 -13.967  1.00  0.00     0.052 A 
ATOM      3  C   UNL     1     -36.092  -4.967 -15.061  1.00  0.00     0.138 A 
ATOM      4  C   UNL     1     -36.140  -5.489 -16.372  1.00  0.00     0.021 A 
ATOM      5  C   UNL     1     -36.187  -4.595 -17.446  1.00  0.00     0.019 A 
ATOM      6  C   UNL     1     -36.185  -3.224 -17.193  1.00  0.00     0.094 A 
ATOM      7  C   UNL     1     -36.136  -2.777 -15.867  1.00  0.00     0.336 A 
ATOM      8  O   UNL     1     -36.134  -1.544 -15.620  1.00  0.00    -0.246 OA
ATOM      9  O   UNL     1     -36.092  -3.651 -14.865  1.00  0.00    -0.423 OA
ATOM     10  C   UNL     1     -36.139  -6.878 -16.572  1.00  0.00     0.058 A 
ATOM     11  C   UNL     1     -36.091  -7.744 -15.470  1.00  0.00     0.116 A 
ENDROOT
BRANCH  11  12
ATOM     12  O   UNL     1     -36.091  -9.125 -15.653  1.00  0.00    -0.508 OA
ATOM     13  H   UNL     1     -36.661  -9.736 -15.080  1.00  0.00     0.293 HD
ENDBRANCH  11  12
TORSDOF 1
ENDMDL
MODEL 7
REMARK VINA RESULT:    -4.687      7.448      9.114
REMARK INTER + INTRA:          -4.824
REMARK INTER:                  -4.824
REMARK INTRA:                   0.000
REMARK UNBOUND:                 0.000
REMARK SMILES O=c1ccc2cc(O)ccc2o1
REMARK SMILES IDX 9 1 10 2 11 3 5 4 4 5 3 6 2 7 1 8 12 9 6 10 7 11 8 12
REMARK H PARENT 8 13
REMARK Flexibility Score: inf
ROOT
ATOM      1  C   UNL     1     -40.180  -7.140 -13.572  1.00  0.00     0.050 A 
ATOM      2  C   UNL     1     -39.736  -5.953 -12.981  1.00  0.00     0.052 A 
ATOM      3  C   UNL     1     -38.398  -5.564 -13.108  1.00  0.00     0.138 A 
ATOM      4  C   UNL     1     -37.498  -6.375 -13.834  1.00  0.00     0.021 A 
ATOM      5  C   UNL     1     -36.166  -5.962 -13.943  1.00  0.00     0.019 A 
ATOM      6  C   UNL     1     -35.769  -4.771 -13.337  1.00  0.00     0.094 A 
ATOM      7  C   UNL     1     -36.716  -4.017 -12.633  1.00  0.00     0.336 A 
ATOM      8  O   UNL     1     -36.375  -2.940 -12.080  1.00  0.00    -0.246 OA
ATOM      9  O   UNL     1     -37.976  -4.435 -12.545  1.00  0.00    -0.423 OA
ATOM     10  C   UNL     1     -37.949  -7.565 -14.425  1.00  0.00     0.058 A 
ATOM     11  C   UNL     1     -39.292  -7.947 -14.293  1.00  0.00     0.116 A 
ENDROOT
BRANCH  11  12
ATOM     12  O   UNL     1     -39.754  -9.125 -14.875  1.00  0.00    -0.508 OA
ATOM     13  H   UNL     1     -39.669  -9.293 -15.871  1.00  0.00     0.293 HD
ENDBRANCH  11  12
TORSDOF 1
ENDMDL
MODEL 8
REMARK VINA RESULT:    -4.514      7.098      8.581
REMARK INTER + INTRA:          -4.646
REMARK INTER:                  -4.646
REMARK INTRA:                   0.000
REMARK UNBOUND:                 0.000
REMARK SMILES O=c1ccc2cc(O)ccc2o1
REMARK SMILES IDX 9 1 10 2 11 3 5 4 4 5 3 6 2 7 1 8 12 9 6 10 7 11 8 12
REMARK H PARENT 8 13
REMARK Flexibility Score: inf
ROOT
ATOM      1  C   UNL     1     -35.983  -6.902 -15.064  1.00  0.00     0.050 A 
ATOM      2  C   UNL     1     -36.591  -5.888 -14.316  1.00  0.00     0.052 A 
ATOM      3  C   UNL     1     -37.852  -6.096 -13.750  1.00  0.00     0.138 A 
ATOM      4  C   UNL     1     -38.510  -7.332 -13.936  1.00  0.00     0.021 A 
ATOM      5  C   UNL     1     -39.771  -7.511 -13.358  1.00  0.00     0.019 A 
ATOM      6  C   UNL     1     -40.338  -6.472 -12.621  1.00  0.00     0.094 A 
ATOM      7  C   UNL     1     -39.628  -5.274 -12.478  1.00  0.00     0.336 A 
ATOM      8  O   UNL     1     -40.124  -4.326 -11.816  1.00  0.00    -0.246 OA
ATOM      9  O   UNL     1     -38.430  -5.131 -13.038  1.00  0.00    -0.423 OA
ATOM     10  C   UNL     1     -37.896  -8.345 -14.687  1.00  0.00     0.058 A 
ATOM     11  C   UNL     1     -36.630  -8.128 -15.252  1.00  0.00     0.116 A 
ENDROOT
BRANCH  11  12
ATOM     12  O   UNL     1     -36.008  -9.125 -16.000  1.00  0.00    -0.508 OA
ATOM     13  H   UNL     1     -35.007  -9.122 -16.158  1.00  0.00     0.293 HD
ENDBRANCH  11  12
TORSDOF 1
ENDMDL
MODEL 9
REMARK VINA RESULT:    -3.462      7.358      9.418
REMARK INTER + INTRA:          -3.563
REMARK INTER:                  -3.563
REMARK INTRA:                   0.000
REMARK UNBOUND:                 0.000
REMARK SMILES O=c1ccc2cc(O)ccc2o1
REMARK SMILES IDX 9 1 10 2 11 3 5 4 4 5 3 6 2 7 1 8 12 9 6 10 7 11 8 12
REMARK H PARENT 8 13
REMARK Flexibility Score: inf
ROOT
ATOM      1  C   UNL     1     -38.879  -9.101 -14.306  1.00  0.00     0.050 A 
ATOM      2  C   UNL     1     -37.657  -8.426 -14.215  1.00  0.00     0.052 A 
ATOM      3  C   UNL     1     -37.628  -7.078 -13.844  1.00  0.00     0.138 A 
ATOM      4  C   UNL     1     -38.835  -6.401 -13.563  1.00  0.00     0.021 A 
ATOM      5  C   UNL     1     -38.774  -5.053 -13.196  1.00  0.00     0.019 A 
ATOM      6  C   UNL     1     -37.534  -4.421 -13.118  1.00  0.00     0.094 A 
ATOM      7  C   UNL     1     -36.378  -5.154 -13.411  1.00  0.00     0.336 A 
ATOM      8  O   UNL     1     -35.251  -4.601 -13.346  1.00  0.00    -0.246 OA
ATOM      9  O   UNL     1     -36.465  -6.436 -13.758  1.00  0.00    -0.423 OA
ATOM     10  C   UNL     1     -40.057  -7.083 -13.656  1.00  0.00     0.058 A 
ATOM     11  C   UNL     1     -40.079  -8.435 -14.029  1.00  0.00     0.116 A 
ENDROOT
BRANCH  11  12
ATOM     12  O   UNL     1     -41.284  -9.125 -14.124  1.00  0.00    -0.508 OA
ATOM     13  H   UNL     1     -41.534  -9.851 -13.463  1.00  0.00     0.293 HD
ENDBRANCH  11  12
TORSDOF 1
ENDMDL
