MODEL 1
REMARK VINA RESULT:    -6.211      0.000      0.000
REMARK INTER + INTRA:          -8.036
REMARK INTER:                  -8.390
REMARK INTRA:                   0.354
REMARK UNBOUND:                 0.354
REMARK SMILES O=c1c(-c2ccc(O)cc2)coc2c([C@@H]3O[C@@H](CO)[C@H](O)[C@H](O)[C@H]3O)c(O)ccc12
REMARK SMILES IDX 3 1 11 2 12 3 13 4 30 5 2 6 1 7 29 8 28 9 26 10 14 11 4 12
REMARK SMILES IDX 5 13 6 14 7 15 10 16 9 17 8 18 15 20 24 21 16 22 22 23 17 24
REMARK SMILES IDX 20 25 25 26 23 28 18 30 19 31 21 33 27 35
REMARK H PARENT 8 19 25 27 23 29 19 32 21 34 27 36
REMARK Flexibility Score: inf
ROOT
ATOM      1  C   UNL     1      27.021  37.005  36.593  1.00  0.00     0.065 A 
ATOM      2  C   UNL     1      25.758  37.414  36.148  1.00  0.00     0.208 A 
ATOM      3  O   UNL     1      25.577  37.815  34.895  1.00  0.00    -0.463 OA
ATOM      4  C   UNL     1      26.554  37.863  33.989  1.00  0.00     0.147 A 
ATOM      5  C   UNL     1      27.860  37.466  34.359  1.00  0.00     0.066 A 
ATOM      6  C   UNL     1      28.088  37.028  35.678  1.00  0.00     0.200 A 
ATOM      7  O   UNL     1      29.249  36.693  36.051  1.00  0.00    -0.288 OA
ATOM      8  C   UNL     1      28.905  37.575  33.434  1.00  0.00     0.020 A 
ATOM      9  C   UNL     1      28.666  38.124  32.180  1.00  0.00     0.047 A 
ATOM     10  C   UNL     1      27.381  38.530  31.798  1.00  0.00     0.125 A 
ATOM     11  C   UNL     1      26.277  38.338  32.676  1.00  0.00     0.069 A 
ENDROOT
BRANCH   1  12
ATOM     12  C   UNL     1      27.212  36.608  38.008  1.00  0.00    -0.011 A 
ATOM     13  C   UNL     1      27.217  37.584  39.017  1.00  0.00     0.013 A 
ATOM     14  C   UNL     1      27.412  37.221  40.352  1.00  0.00     0.047 A 
ATOM     15  C   UNL     1      27.591  35.877  40.695  1.00  0.00     0.115 A 
ATOM     16  C   UNL     1      27.393  35.258  38.356  1.00  0.00     0.013 A 
ATOM     17  C   UNL     1      27.578  34.895  39.695  1.00  0.00     0.047 A 
BRANCH  15  18
ATOM     18  O   UNL     1      27.785  35.530  42.033  1.00  0.00    -0.508 OA
ATOM     19  H   UNL     1      27.126  34.938  42.524  1.00  0.00     0.293 HD
ENDBRANCH  15  18
ENDBRANCH   1  12
BRANCH  11  20
ATOM     20  C   UNL     1      24.809  38.722  32.360  1.00  0.00     0.188 C 
ATOM     21  C   UNL     1      23.796  39.043  33.500  1.00  0.00     0.179 C 
ATOM     22  O   UNL     1      24.753  39.749  31.375  1.00  0.00    -0.362 OA
ATOM     23  C   UNL     1      24.008  40.460  34.079  1.00  0.00     0.177 C 
ATOM     24  C   UNL     1      25.155  41.007  31.896  1.00  0.00     0.176 C 
ATOM     25  C   UNL     1      24.123  41.492  32.939  1.00  0.00     0.177 C 
BRANCH  21  26
ATOM     26  O   UNL     1      22.500  38.970  32.962  1.00  0.00    -0.387 OA
ATOM     27  H   UNL     1      22.502  38.244  32.284  1.00  0.00     0.211 HD
ENDBRANCH  21  26
BRANCH  23  28
ATOM     28  O   UNL     1      25.161  40.485  34.881  1.00  0.00    -0.387 OA
ATOM     29  H   UNL     1      24.868  40.669  35.812  1.00  0.00     0.211 HD
ENDBRANCH  23  28
BRANCH  24  30
ATOM     30  C   UNL     1      25.296  42.006  30.723  1.00  0.00     0.191 C 
BRANCH  30  31
ATOM     31  O   UNL     1      24.298  41.772  29.764  1.00  0.00    -0.394 OA
ATOM     32  H   UNL     1      24.368  40.808  29.526  1.00  0.00     0.210 HD
ENDBRANCH  30  31
ENDBRANCH  24  30
BRANCH  25  33
ATOM     33  O   UNL     1      24.438  42.767  33.449  1.00  0.00    -0.388 OA
ATOM     34  H   UNL     1      24.284  42.756  34.429  1.00  0.00     0.211 HD
ENDBRANCH  25  33
ENDBRANCH  11  20
BRANCH  10  35
ATOM     35  O   UNL     1      27.240  39.133  30.554  1.00  0.00    -0.507 OA
ATOM     36  H   UNL     1      27.365  38.619  29.688  1.00  0.00     0.293 HD
ENDBRANCH  10  35
TORSDOF 9
ENDMDL
MODEL 2
REMARK VINA RESULT:    -6.154      4.260      6.654
REMARK INTER + INTRA:          -7.958
REMARK INTER:                  -7.919
REMARK INTRA:                  -0.039
REMARK UNBOUND:                 0.354
REMARK SMILES O=c1c(-c2ccc(O)cc2)coc2c([C@@H]3O[C@@H](CO)[C@H](O)[C@H](O)[C@H]3O)c(O)ccc12
REMARK SMILES IDX 3 1 11 2 12 3 13 4 30 5 2 6 1 7 29 8 28 9 26 10 14 11 4 12
REMARK SMILES IDX 5 13 6 14 7 15 10 16 9 17 8 18 15 20 24 21 16 22 22 23 17 24
REMARK SMILES IDX 20 25 25 26 23 28 18 30 19 31 21 33 27 35
REMARK H PARENT 8 19 25 27 23 29 19 32 21 34 27 36
REMARK Flexibility Score: inf
ROOT
ATOM      1  C   UNL     1      29.244  37.764  33.540  1.00  0.00     0.065 A 
ATOM      2  C   UNL     1      30.626  37.889  33.354  1.00  0.00     0.208 A 
ATOM      3  O   UNL     1      31.118  38.365  32.217  1.00  0.00    -0.463 OA
ATOM      4  C   UNL     1      30.358  38.746  31.189  1.00  0.00     0.147 A 
ATOM      5  C   UNL     1      28.951  38.652  31.297  1.00  0.00     0.066 A 
ATOM      6  C   UNL     1      28.394  38.159  32.492  1.00  0.00     0.200 A 
ATOM      7  O   UNL     1      27.142  38.035  32.613  1.00  0.00    -0.288 OA
ATOM      8  C   UNL     1      28.149  38.989  30.201  1.00  0.00     0.020 A 
ATOM      9  C   UNL     1      28.738  39.357  28.998  1.00  0.00     0.047 A 
ATOM     10  C   UNL     1      30.130  39.449  28.869  1.00  0.00     0.125 A 
ATOM     11  C   UNL     1      30.972  39.213  29.993  1.00  0.00     0.069 A 
ENDROOT
BRANCH   1  12
ATOM     12  C   UNL     1      28.718  37.186  34.799  1.00  0.00    -0.011 A 
ATOM     13  C   UNL     1      28.337  38.030  35.855  1.00  0.00     0.013 A 
ATOM     14  C   UNL     1      27.854  37.493  37.051  1.00  0.00     0.047 A 
ATOM     15  C   UNL     1      27.734  36.107  37.201  1.00  0.00     0.115 A 
ATOM     16  C   UNL     1      28.596  35.793  34.953  1.00  0.00     0.013 A 
ATOM     17  C   UNL     1      28.103  35.258  36.149  1.00  0.00     0.047 A 
BRANCH  15  18
ATOM     18  O   UNL     1      27.251  35.586  38.402  1.00  0.00    -0.508 OA
ATOM     19  H   UNL     1      27.734  35.746  39.278  1.00  0.00     0.293 HD
ENDBRANCH  15  18
ENDBRANCH   1  12
BRANCH  11  20
ATOM     20  C   UNL     1      32.519  39.307  29.983  1.00  0.00     0.188 C 
ATOM     21  C   UNL     1      33.280  39.969  28.795  1.00  0.00     0.179 C 
ATOM     22  O   UNL     1      33.004  39.840  31.211  1.00  0.00    -0.362 OA
ATOM     23  C   UNL     1      33.220  41.511  28.858  1.00  0.00     0.177 C 
ATOM     24  C   UNL     1      32.745  41.232  31.324  1.00  0.00     0.176 C 
ATOM     25  C   UNL     1      33.579  42.003  30.275  1.00  0.00     0.177 C 
BRANCH  21  26
ATOM     26  O   UNL     1      34.626  39.570  28.867  1.00  0.00    -0.387 OA
ATOM     27  H   UNL     1      35.164  40.260  28.396  1.00  0.00     0.211 HD
ENDBRANCH  21  26
BRANCH  23  28
ATOM     28  O   UNL     1      31.939  41.958  28.494  1.00  0.00    -0.387 OA
ATOM     29  H   UNL     1      31.321  41.715  29.232  1.00  0.00     0.211 HD
ENDBRANCH  23  28
BRANCH  24  30
ATOM     30  C   UNL     1      33.080  41.683  32.766  1.00  0.00     0.191 C 
BRANCH  30  31
ATOM     31  O   UNL     1      32.291  42.788  33.123  1.00  0.00    -0.394 OA
ATOM     32  H   UNL     1      31.397  42.629  32.716  1.00  0.00     0.210 HD
ENDBRANCH  30  31
ENDBRANCH  24  30
BRANCH  25  33
ATOM     33  O   UNL     1      33.409  43.397  30.378  1.00  0.00    -0.388 OA
ATOM     34  H   UNL     1      32.462  43.612  30.171  1.00  0.00     0.211 HD
ENDBRANCH  25  33
ENDBRANCH  11  20
BRANCH  10  35
ATOM     35  O   UNL     1      30.641  39.756  27.613  1.00  0.00    -0.507 OA
ATOM     36  H   UNL     1      30.254  40.498  27.040  1.00  0.00     0.293 HD
ENDBRANCH  10  35
TORSDOF 9
ENDMDL
MODEL 3
REMARK VINA RESULT:    -5.914      3.168      7.317
REMARK INTER + INTRA:          -7.634
REMARK INTER:                  -7.955
REMARK INTRA:                   0.321
REMARK UNBOUND:                 0.354
REMARK SMILES O=c1c(-c2ccc(O)cc2)coc2c([C@@H]3O[C@@H](CO)[C@H](O)[C@H](O)[C@H]3O)c(O)ccc12
REMARK SMILES IDX 3 1 11 2 12 3 13 4 30 5 2 6 1 7 29 8 28 9 26 10 14 11 4 12
REMARK SMILES IDX 5 13 6 14 7 15 10 16 9 17 8 18 15 20 24 21 16 22 22 23 17 24
REMARK SMILES IDX 20 25 25 26 23 28 18 30 19 31 21 33 27 35
REMARK H PARENT 8 19 25 27 23 29 19 32 21 34 27 36
REMARK Flexibility Score: inf
ROOT
ATOM      1  C   UNL     1      29.397  39.275  29.885  1.00  0.00     0.065 A 
ATOM      2  C   UNL     1      28.007  39.374  29.750  1.00  0.00     0.208 A 
ATOM      3  O   UNL     1      27.200  38.934  30.707  1.00  0.00    -0.463 OA
ATOM      4  C   UNL     1      27.634  38.375  31.838  1.00  0.00     0.147 A 
ATOM      5  C   UNL     1      29.026  38.240  32.052  1.00  0.00     0.066 A 
ATOM      6  C   UNL     1      29.913  38.703  31.061  1.00  0.00     0.200 A 
ATOM      7  O   UNL     1      31.161  38.571  31.205  1.00  0.00    -0.288 OA
ATOM      8  C   UNL     1      29.490  37.597  33.205  1.00  0.00     0.020 A 
ATOM      9  C   UNL     1      28.584  37.046  34.103  1.00  0.00     0.047 A 
ATOM     10  C   UNL     1      27.202  37.164  33.905  1.00  0.00     0.125 A 
ATOM     11  C   UNL     1      26.695  37.901  32.797  1.00  0.00     0.069 A 
ENDROOT
BRANCH   1  12
ATOM     12  C   UNL     1      30.279  39.728  28.783  1.00  0.00    -0.011 A 
ATOM     13  C   UNL     1      29.978  39.384  27.455  1.00  0.00     0.013 A 
ATOM     14  C   UNL     1      30.813  39.793  26.412  1.00  0.00     0.047 A 
ATOM     15  C   UNL     1      31.949  40.562  26.681  1.00  0.00     0.115 A 
ATOM     16  C   UNL     1      31.423  40.501  29.051  1.00  0.00     0.013 A 
ATOM     17  C   UNL     1      32.252  40.918  28.003  1.00  0.00     0.047 A 
BRANCH  15  18
ATOM     18  O   UNL     1      32.773  40.963  25.629  1.00  0.00    -0.508 OA
ATOM     19  H   UNL     1      32.475  40.878  24.665  1.00  0.00     0.293 HD
ENDBRANCH  15  18
ENDBRANCH   1  12
BRANCH  11  20
ATOM     20  C   UNL     1      25.194  38.122  32.484  1.00  0.00     0.188 C 
ATOM     21  C   UNL     1      24.097  37.846  33.557  1.00  0.00     0.179 C 
ATOM     22  O   UNL     1      24.979  39.406  31.907  1.00  0.00    -0.362 OA
ATOM     23  C   UNL     1      24.013  38.980  34.602  1.00  0.00     0.177 C 
ATOM     24  C   UNL     1      25.114  40.447  32.864  1.00  0.00     0.176 C 
ATOM     25  C   UNL     1      23.971  40.352  33.900  1.00  0.00     0.177 C 
BRANCH  21  26
ATOM     26  O   UNL     1      22.859  37.753  32.897  1.00  0.00    -0.387 OA
ATOM     27  H   UNL     1      22.464  38.663  32.881  1.00  0.00     0.211 HD
ENDBRANCH  21  26
BRANCH  23  28
ATOM     28  O   UNL     1      25.110  38.911  35.477  1.00  0.00    -0.387 OA
ATOM     29  H   UNL     1      25.925  38.804  34.919  1.00  0.00     0.211 HD
ENDBRANCH  23  28
BRANCH  24  30
ATOM     30  C   UNL     1      25.104  41.805  32.123  1.00  0.00     0.191 C 
BRANCH  30  31
ATOM     31  O   UNL     1      25.855  41.716  30.940  1.00  0.00    -0.394 OA
ATOM     32  H   UNL     1      26.357  40.859  30.998  1.00  0.00     0.210 HD
ENDBRANCH  30  31
ENDBRANCH  24  30
BRANCH  25  33
ATOM     33  O   UNL     1      24.018  41.398  34.843  1.00  0.00    -0.388 OA
ATOM     34  H   UNL     1      23.205  41.956  34.730  1.00  0.00     0.211 HD
ENDBRANCH  25  33
ENDBRANCH  11  20
BRANCH  10  35
ATOM     35  O   UNL     1      26.365  36.526  34.813  1.00  0.00    -0.507 OA
ATOM     36  H   UNL     1      26.453  35.537  35.024  1.00  0.00     0.293 HD
ENDBRANCH  10  35
TORSDOF 9
ENDMDL
MODEL 4
REMARK VINA RESULT:    -5.754      2.647      6.507
REMARK INTER + INTRA:          -7.418
REMARK INTER:                  -7.544
REMARK INTRA:                   0.126
REMARK UNBOUND:                 0.354
REMARK SMILES O=c1c(-c2ccc(O)cc2)coc2c([C@@H]3O[C@@H](CO)[C@H](O)[C@H](O)[C@H]3O)c(O)ccc12
REMARK SMILES IDX 3 1 11 2 12 3 13 4 30 5 2 6 1 7 29 8 28 9 26 10 14 11 4 12
REMARK SMILES IDX 5 13 6 14 7 15 10 16 9 17 8 18 15 20 24 21 16 22 22 23 17 24
REMARK SMILES IDX 20 25 25 26 23 28 18 30 19 31 21 33 27 35
REMARK H PARENT 8 19 25 27 23 29 19 32 21 34 27 36
REMARK Flexibility Score: inf
ROOT
ATOM      1  C   UNL     1      23.470  40.301  34.461  1.00  0.00     0.065 A 
ATOM      2  C   UNL     1      23.966  39.014  34.695  1.00  0.00     0.208 A 
ATOM      3  O   UNL     1      24.892  38.488  33.902  1.00  0.00    -0.463 OA
ATOM      4  C   UNL     1      25.405  39.124  32.848  1.00  0.00     0.147 A 
ATOM      5  C   UNL     1      24.957  40.431  32.543  1.00  0.00     0.066 A 
ATOM      6  C   UNL     1      23.981  41.023  33.367  1.00  0.00     0.200 A 
ATOM      7  O   UNL     1      23.536  42.177  33.107  1.00  0.00    -0.288 OA
ATOM      8  C   UNL     1      25.441  41.080  31.402  1.00  0.00     0.020 A 
ATOM      9  C   UNL     1      26.314  40.419  30.546  1.00  0.00     0.047 A 
ATOM     10  C   UNL     1      26.763  39.122  30.828  1.00  0.00     0.125 A 
ATOM     11  C   UNL     1      26.371  38.471  32.032  1.00  0.00     0.069 A 
ENDROOT
BRANCH   1  12
ATOM     12  C   UNL     1      22.401  40.850  35.329  1.00  0.00    -0.011 A 
ATOM     13  C   UNL     1      21.140  40.233  35.366  1.00  0.00     0.013 A 
ATOM     14  C   UNL     1      20.121  40.753  36.170  1.00  0.00     0.047 A 
ATOM     15  C   UNL     1      20.356  41.886  36.955  1.00  0.00     0.115 A 
ATOM     16  C   UNL     1      22.633  41.989  36.119  1.00  0.00     0.013 A 
ATOM     17  C   UNL     1      21.614  42.502  36.931  1.00  0.00     0.047 A 
BRANCH  15  18
ATOM     18  O   UNL     1      19.329  42.393  37.752  1.00  0.00    -0.508 OA
ATOM     19  H   UNL     1      19.484  42.625  38.726  1.00  0.00     0.293 HD
ENDBRANCH  15  18
ENDBRANCH   1  12
BRANCH  11  20
ATOM     20  C   UNL     1      26.818  37.053  32.465  1.00  0.00     0.188 C 
ATOM     21  C   UNL     1      27.997  36.325  31.751  1.00  0.00     0.179 C 
ATOM     22  O   UNL     1      27.008  36.988  33.875  1.00  0.00    -0.362 OA
ATOM     23  C   UNL     1      29.371  36.863  32.209  1.00  0.00     0.177 C 
ATOM     24  C   UNL     1      28.181  37.675  34.285  1.00  0.00     0.176 C 
ATOM     25  C   UNL     1      29.429  36.938  33.748  1.00  0.00     0.177 C 
BRANCH  21  26
ATOM     26  O   UNL     1      27.922  34.958  32.072  1.00  0.00    -0.387 OA
ATOM     27  H   UNL     1      27.555  34.891  32.992  1.00  0.00     0.211 HD
ENDBRANCH  21  26
BRANCH  23  28
ATOM     28  O   UNL     1      29.604  38.129  31.647  1.00  0.00    -0.387 OA
ATOM     29  H   UNL     1      29.260  38.106  30.716  1.00  0.00     0.211 HD
ENDBRANCH  23  28
BRANCH  24  30
ATOM     30  C   UNL     1      28.189  37.764  35.830  1.00  0.00     0.191 C 
BRANCH  30  31
ATOM     31  O   UNL     1      29.179  38.663  36.258  1.00  0.00    -0.394 OA
ATOM     32  H   UNL     1      30.051  38.227  36.055  1.00  0.00     0.210 HD
ENDBRANCH  30  31
ENDBRANCH  24  30
BRANCH  25  33
ATOM     33  O   UNL     1      30.630  37.541  34.174  1.00  0.00    -0.388 OA
ATOM     34  H   UNL     1      30.740  38.395  33.682  1.00  0.00     0.211 HD
ENDBRANCH  25  33
ENDBRANCH  11  20
BRANCH  10  35
ATOM     35  O   UNL     1      27.579  38.505  29.885  1.00  0.00    -0.507 OA
ATOM     36  H   UNL     1      28.586  38.459  29.992  1.00  0.00     0.293 HD
ENDBRANCH  10  35
TORSDOF 9
ENDMDL
MODEL 5
REMARK VINA RESULT:    -5.666      3.292      4.806
REMARK INTER + INTRA:          -7.300
REMARK INTER:                  -7.387
REMARK INTRA:                   0.087
REMARK UNBOUND:                 0.354
REMARK SMILES O=c1c(-c2ccc(O)cc2)coc2c([C@@H]3O[C@@H](CO)[C@H](O)[C@H](O)[C@H]3O)c(O)ccc12
REMARK SMILES IDX 3 1 11 2 12 3 13 4 30 5 2 6 1 7 29 8 28 9 26 10 14 11 4 12
REMARK SMILES IDX 5 13 6 14 7 15 10 16 9 17 8 18 15 20 24 21 16 22 22 23 17 24
REMARK SMILES IDX 20 25 25 26 23 28 18 30 19 31 21 33 27 35
REMARK H PARENT 8 19 25 27 23 29 19 32 21 34 27 36
REMARK Flexibility Score: inf
ROOT
ATOM      1  C   UNL     1      31.243  36.879  33.388  1.00  0.00     0.065 A 
ATOM      2  C   UNL     1      29.980  36.713  33.969  1.00  0.00     0.208 A 
ATOM      3  O   UNL     1      28.887  37.145  33.352  1.00  0.00    -0.463 OA
ATOM      4  C   UNL     1      28.904  37.758  32.168  1.00  0.00     0.147 A 
ATOM      5  C   UNL     1      30.141  37.964  31.514  1.00  0.00     0.066 A 
ATOM      6  C   UNL     1      31.321  37.512  32.135  1.00  0.00     0.200 A 
ATOM      7  O   UNL     1      32.446  37.705  31.593  1.00  0.00    -0.288 OA
ATOM      8  C   UNL     1      30.175  38.664  30.302  1.00  0.00     0.020 A 
ATOM      9  C   UNL     1      29.005  39.200  29.778  1.00  0.00     0.047 A 
ATOM     10  C   UNL     1      27.772  39.013  30.416  1.00  0.00     0.125 A 
ATOM     11  C   UNL     1      27.685  38.220  31.595  1.00  0.00     0.069 A 
ENDROOT
BRANCH   1  12
ATOM     12  C   UNL     1      32.454  36.432  34.116  1.00  0.00    -0.011 A 
ATOM     13  C   UNL     1      32.916  37.160  35.225  1.00  0.00     0.013 A 
ATOM     14  C   UNL     1      34.066  36.756  35.907  1.00  0.00     0.047 A 
ATOM     15  C   UNL     1      34.760  35.613  35.499  1.00  0.00     0.115 A 
ATOM     16  C   UNL     1      33.155  35.284  33.707  1.00  0.00     0.013 A 
ATOM     17  C   UNL     1      34.301  34.875  34.398  1.00  0.00     0.047 A 
BRANCH  15  18
ATOM     18  O   UNL     1      35.908  35.222  36.189  1.00  0.00    -0.508 OA
ATOM     19  H   UNL     1      35.998  34.290  36.577  1.00  0.00     0.293 HD
ENDBRANCH  15  18
ENDBRANCH   1  12
BRANCH  11  20
ATOM     20  C   UNL     1      26.381  37.920  32.375  1.00  0.00     0.188 C 
ATOM     21  C   UNL     1      26.403  37.637  33.907  1.00  0.00     0.179 C 
ATOM     22  O   UNL     1      25.383  38.896  32.090  1.00  0.00    -0.362 OA
ATOM     23  C   UNL     1      26.561  38.933  34.732  1.00  0.00     0.177 C 
ATOM     24  C   UNL     1      25.670  40.144  32.701  1.00  0.00     0.176 C 
ATOM     25  C   UNL     1      25.570  40.006  34.238  1.00  0.00     0.177 C 
BRANCH  21  26
ATOM     26  O   UNL     1      25.184  37.031  34.255  1.00  0.00    -0.387 OA
ATOM     27  H   UNL     1      24.628  36.993  33.433  1.00  0.00     0.211 HD
ENDBRANCH  21  26
BRANCH  23  28
ATOM     28  O   UNL     1      27.881  39.406  34.639  1.00  0.00    -0.387 OA
ATOM     29  H   UNL     1      28.251  39.078  33.778  1.00  0.00     0.211 HD
ENDBRANCH  23  28
BRANCH  24  30
ATOM     30  C   UNL     1      24.682  41.203  32.156  1.00  0.00     0.191 C 
BRANCH  30  31
ATOM     31  O   UNL     1      25.302  41.976  31.161  1.00  0.00    -0.394 OA
ATOM     32  H   UNL     1      26.095  42.393  31.593  1.00  0.00     0.210 HD
ENDBRANCH  30  31
ENDBRANCH  24  30
BRANCH  25  33
ATOM     33  O   UNL     1      25.787  41.230  34.899  1.00  0.00    -0.388 OA
ATOM     34  H   UNL     1      24.971  41.454  35.417  1.00  0.00     0.211 HD
ENDBRANCH  25  33
ENDBRANCH  11  20
BRANCH  10  35
ATOM     35  O   UNL     1      26.661  39.641  29.864  1.00  0.00    -0.507 OA
ATOM     36  H   UNL     1      25.768  39.677  30.343  1.00  0.00     0.293 HD
ENDBRANCH  10  35
TORSDOF 9
ENDMDL
MODEL 6
REMARK VINA RESULT:    -5.602      3.353      4.590
REMARK INTER + INTRA:          -7.213
REMARK INTER:                  -7.240
REMARK INTRA:                   0.027
REMARK UNBOUND:                 0.354
REMARK SMILES O=c1c(-c2ccc(O)cc2)coc2c([C@@H]3O[C@@H](CO)[C@H](O)[C@H](O)[C@H]3O)c(O)ccc12
REMARK SMILES IDX 3 1 11 2 12 3 13 4 30 5 2 6 1 7 29 8 28 9 26 10 14 11 4 12
REMARK SMILES IDX 5 13 6 14 7 15 10 16 9 17 8 18 15 20 24 21 16 22 22 23 17 24
REMARK SMILES IDX 20 25 25 26 23 28 18 30 19 31 21 33 27 35
REMARK H PARENT 8 19 25 27 23 29 19 32 21 34 27 36
REMARK Flexibility Score: inf
ROOT
ATOM      1  C   UNL     1      27.060  37.806  32.968  1.00  0.00     0.065 A 
ATOM      2  C   UNL     1      25.878  37.655  33.704  1.00  0.00     0.208 A 
ATOM      3  O   UNL     1      24.801  38.373  33.412  1.00  0.00    -0.463 OA
ATOM      4  C   UNL     1      24.760  39.272  32.428  1.00  0.00     0.147 A 
ATOM      5  C   UNL     1      25.913  39.484  31.636  1.00  0.00     0.066 A 
ATOM      6  C   UNL     1      27.072  38.734  31.912  1.00  0.00     0.200 A 
ATOM      7  O   UNL     1      28.129  38.918  31.244  1.00  0.00    -0.288 OA
ATOM      8  C   UNL     1      25.899  40.470  30.644  1.00  0.00     0.020 A 
ATOM      9  C   UNL     1      24.777  41.273  30.479  1.00  0.00     0.047 A 
ATOM     10  C   UNL     1      23.628  41.083  31.258  1.00  0.00     0.125 A 
ATOM     11  C   UNL     1      23.570  40.022  32.206  1.00  0.00     0.069 A 
ENDROOT
BRANCH   1  12
ATOM     12  C   UNL     1      28.266  37.029  33.341  1.00  0.00    -0.011 A 
ATOM     13  C   UNL     1      29.105  37.487  34.371  1.00  0.00     0.013 A 
ATOM     14  C   UNL     1      30.253  36.770  34.719  1.00  0.00     0.047 A 
ATOM     15  C   UNL     1      30.568  35.581  34.053  1.00  0.00     0.115 A 
ATOM     16  C   UNL     1      28.585  35.834  32.673  1.00  0.00     0.013 A 
ATOM     17  C   UNL     1      29.730  35.112  33.031  1.00  0.00     0.047 A 
BRANCH  15  18
ATOM     18  O   UNL     1      31.717  34.876  34.411  1.00  0.00    -0.508 OA
ATOM     19  H   UNL     1      31.928  33.972  34.006  1.00  0.00     0.293 HD
ENDBRANCH  15  18
ENDBRANCH   1  12
BRANCH  11  20
ATOM     20  C   UNL     1      22.353  39.697  33.107  1.00  0.00     0.188 C 
ATOM     21  C   UNL     1      22.537  39.030  34.503  1.00  0.00     0.179 C 
ATOM     22  O   UNL     1      21.496  40.828  33.233  1.00  0.00    -0.362 OA
ATOM     23  C   UNL     1      23.013  40.043  35.568  1.00  0.00     0.177 C 
ATOM     24  C   UNL     1      22.063  41.833  34.060  1.00  0.00     0.176 C 
ATOM     25  C   UNL     1      22.151  41.320  35.516  1.00  0.00     0.177 C 
BRANCH  21  26
ATOM     26  O   UNL     1      21.294  38.511  34.904  1.00  0.00    -0.387 OA
ATOM     27  H   UNL     1      21.399  38.176  35.833  1.00  0.00     0.211 HD
ENDBRANCH  21  26
BRANCH  23  28
ATOM     28  O   UNL     1      24.367  40.356  35.363  1.00  0.00    -0.387 OA
ATOM     29  H   UNL     1      24.756  40.574  36.250  1.00  0.00     0.211 HD
ENDBRANCH  23  28
BRANCH  24  30
ATOM     30  C   UNL     1      21.195  43.110  33.955  1.00  0.00     0.191 C 
BRANCH  30  31
ATOM     31  O   UNL     1      20.547  43.152  32.710  1.00  0.00    -0.394 OA
ATOM     32  H   UNL     1      21.207  43.534  32.070  1.00  0.00     0.210 HD
ENDBRANCH  30  31
ENDBRANCH  24  30
BRANCH  25  33
ATOM     33  O   UNL     1      22.652  42.298  36.397  1.00  0.00    -0.388 OA
ATOM     34  H   UNL     1      23.333  41.872  36.980  1.00  0.00     0.211 HD
ENDBRANCH  25  33
ENDBRANCH  11  20
BRANCH  10  35
ATOM     35  O   UNL     1      22.576  41.973  31.079  1.00  0.00    -0.507 OA
ATOM     36  H   UNL     1      22.321  42.330  30.164  1.00  0.00     0.293 HD
ENDBRANCH  10  35
TORSDOF 9
ENDMDL
MODEL 7
REMARK VINA RESULT:    -5.568      2.409      7.076
REMARK INTER + INTRA:          -7.167
REMARK INTER:                  -7.265
REMARK INTRA:                   0.098
REMARK UNBOUND:                 0.354
REMARK SMILES O=c1c(-c2ccc(O)cc2)coc2c([C@@H]3O[C@@H](CO)[C@H](O)[C@H](O)[C@H]3O)c(O)ccc12
REMARK SMILES IDX 3 1 11 2 12 3 13 4 30 5 2 6 1 7 29 8 28 9 26 10 14 11 4 12
REMARK SMILES IDX 5 13 6 14 7 15 10 16 9 17 8 18 15 20 24 21 16 22 22 23 17 24
REMARK SMILES IDX 20 25 25 26 23 28 18 30 19 31 21 33 27 35
REMARK H PARENT 8 19 25 27 23 29 19 32 21 34 27 36
REMARK Flexibility Score: inf
ROOT
ATOM      1  C   UNL     1      23.219  40.075  33.294  1.00  0.00     0.065 A 
ATOM      2  C   UNL     1      23.655  38.927  33.965  1.00  0.00     0.208 A 
ATOM      3  O   UNL     1      24.793  38.333  33.626  1.00  0.00    -0.463 OA
ATOM      4  C   UNL     1      25.587  38.767  32.646  1.00  0.00     0.147 A 
ATOM      5  C   UNL     1      25.218  39.923  31.919  1.00  0.00     0.066 A 
ATOM      6  C   UNL     1      24.021  40.584  32.256  1.00  0.00     0.200 A 
ATOM      7  O   UNL     1      23.646  41.602  31.608  1.00  0.00    -0.288 OA
ATOM      8  C   UNL     1      26.010  40.349  30.847  1.00  0.00     0.020 A 
ATOM      9  C   UNL     1      27.120  39.605  30.467  1.00  0.00     0.047 A 
ATOM     10  C   UNL     1      27.497  38.453  31.171  1.00  0.00     0.125 A 
ATOM     11  C   UNL     1      26.774  38.049  32.328  1.00  0.00     0.069 A 
ENDROOT
BRANCH   1  12
ATOM     12  C   UNL     1      21.922  40.694  33.655  1.00  0.00    -0.011 A 
ATOM     13  C   UNL     1      20.720  40.102  33.234  1.00  0.00     0.013 A 
ATOM     14  C   UNL     1      19.492  40.687  33.556  1.00  0.00     0.047 A 
ATOM     15  C   UNL     1      19.451  41.861  34.314  1.00  0.00     0.115 A 
ATOM     16  C   UNL     1      21.877  41.875  34.416  1.00  0.00     0.013 A 
ATOM     17  C   UNL     1      20.646  42.453  34.747  1.00  0.00     0.047 A 
BRANCH  15  18
ATOM     18  O   UNL     1      18.218  42.434  34.628  1.00  0.00    -0.508 OA
ATOM     19  H   UNL     1      17.417  41.861  34.866  1.00  0.00     0.293 HD
ENDBRANCH  15  18
ENDBRANCH   1  12
BRANCH  11  20
ATOM     20  C   UNL     1      27.105  36.813  33.201  1.00  0.00     0.188 C 
ATOM     21  C   UNL     1      28.526  36.171  33.186  1.00  0.00     0.179 C 
ATOM     22  O   UNL     1      26.694  37.016  34.549  1.00  0.00    -0.362 OA
ATOM     23  C   UNL     1      29.538  36.990  34.017  1.00  0.00     0.177 C 
ATOM     24  C   UNL     1      27.533  37.940  35.226  1.00  0.00     0.176 C 
ATOM     25  C   UNL     1      28.943  37.331  35.399  1.00  0.00     0.177 C 
BRANCH  21  26
ATOM     26  O   UNL     1      28.427  34.884  33.742  1.00  0.00    -0.387 OA
ATOM     27  H   UNL     1      28.078  34.987  34.665  1.00  0.00     0.211 HD
ENDBRANCH  21  26
BRANCH  23  28
ATOM     28  O   UNL     1      29.887  38.165  33.331  1.00  0.00    -0.387 OA
ATOM     29  H   UNL     1      29.429  38.139  32.451  1.00  0.00     0.211 HD
ENDBRANCH  23  28
BRANCH  24  30
ATOM     30  C   UNL     1      26.889  38.287  36.590  1.00  0.00     0.191 C 
BRANCH  30  31
ATOM     31  O   UNL     1      27.616  37.692  37.634  1.00  0.00    -0.394 OA
ATOM     32  H   UNL     1      27.205  36.797  37.778  1.00  0.00     0.210 HD
ENDBRANCH  30  31
ENDBRANCH  24  30
BRANCH  25  33
ATOM     33  O   UNL     1      29.807  38.180  36.119  1.00  0.00    -0.388 OA
ATOM     34  H   UNL     1      30.474  37.617  36.592  1.00  0.00     0.211 HD
ENDBRANCH  25  33
ENDBRANCH  11  20
BRANCH  10  35
ATOM     35  O   UNL     1      28.578  37.727  30.684  1.00  0.00    -0.507 OA
ATOM     36  H   UNL     1      29.531  37.914  30.979  1.00  0.00     0.293 HD
ENDBRANCH  10  35
TORSDOF 9
ENDMDL
MODEL 8
REMARK VINA RESULT:    -5.566      4.261      7.899
REMARK INTER + INTRA:          -7.164
REMARK INTER:                  -7.241
REMARK INTRA:                   0.078
REMARK UNBOUND:                 0.354
REMARK SMILES O=c1c(-c2ccc(O)cc2)coc2c([C@@H]3O[C@@H](CO)[C@H](O)[C@H](O)[C@H]3O)c(O)ccc12
REMARK SMILES IDX 3 1 11 2 12 3 13 4 30 5 2 6 1 7 29 8 28 9 26 10 14 11 4 12
REMARK SMILES IDX 5 13 6 14 7 15 10 16 9 17 8 18 15 20 24 21 16 22 22 23 17 24
REMARK SMILES IDX 20 25 25 26 23 28 18 30 19 31 21 33 27 35
REMARK H PARENT 8 19 25 27 23 29 19 32 21 34 27 36
REMARK Flexibility Score: inf
ROOT
ATOM      1  C   UNL     1      31.684  40.267  30.529  1.00  0.00     0.065 A 
ATOM      2  C   UNL     1      30.544  39.901  29.804  1.00  0.00     0.208 A 
ATOM      3  O   UNL     1      29.724  38.961  30.259  1.00  0.00    -0.463 OA
ATOM      4  C   UNL     1      29.916  38.308  31.406  1.00  0.00     0.147 A 
ATOM      5  C   UNL     1      31.046  38.621  32.198  1.00  0.00     0.066 A 
ATOM      6  C   UNL     1      31.934  39.618  31.751  1.00  0.00     0.200 A 
ATOM      7  O   UNL     1      32.968  39.902  32.419  1.00  0.00    -0.288 OA
ATOM      8  C   UNL     1      31.291  37.896  33.370  1.00  0.00     0.020 A 
ATOM      9  C   UNL     1      30.459  36.839  33.718  1.00  0.00     0.047 A 
ATOM     10  C   UNL     1      29.340  36.510  32.942  1.00  0.00     0.125 A 
ATOM     11  C   UNL     1      29.002  37.291  31.801  1.00  0.00     0.069 A 
ENDROOT
BRANCH   1  12
ATOM     12  C   UNL     1      32.612  41.284  29.980  1.00  0.00    -0.011 A 
ATOM     13  C   UNL     1      33.363  41.000  28.827  1.00  0.00     0.013 A 
ATOM     14  C   UNL     1      34.252  41.946  28.311  1.00  0.00     0.047 A 
ATOM     15  C   UNL     1      34.392  43.191  28.932  1.00  0.00     0.115 A 
ATOM     16  C   UNL     1      32.756  42.536  30.603  1.00  0.00     0.013 A 
ATOM     17  C   UNL     1      33.640  43.486  30.078  1.00  0.00     0.047 A 
BRANCH  15  18
ATOM     18  O   UNL     1      35.284  44.126  28.406  1.00  0.00    -0.508 OA
ATOM     19  H   UNL     1      35.122  44.560  27.506  1.00  0.00     0.293 HD
ENDBRANCH  15  18
ENDBRANCH   1  12
BRANCH  11  20
ATOM     20  C   UNL     1      27.781  37.043  30.880  1.00  0.00     0.188 C 
ATOM     21  C   UNL     1      26.601  36.131  31.333  1.00  0.00     0.179 C 
ATOM     22  O   UNL     1      27.264  38.271  30.379  1.00  0.00    -0.362 OA
ATOM     23  C   UNL     1      25.664  36.851  32.327  1.00  0.00     0.177 C 
ATOM     24  C   UNL     1      26.580  39.008  31.382  1.00  0.00     0.176 C 
ATOM     25  C   UNL     1      25.297  38.253  31.798  1.00  0.00     0.177 C 
BRANCH  21  26
ATOM     26  O   UNL     1      25.859  35.783  30.191  1.00  0.00    -0.387 OA
ATOM     27  H   UNL     1      26.409  36.017  29.398  1.00  0.00     0.211 HD
ENDBRANCH  21  26
BRANCH  23  28
ATOM     28  O   UNL     1      26.280  36.948  33.586  1.00  0.00    -0.387 OA
ATOM     29  H   UNL     1      25.712  36.451  34.231  1.00  0.00     0.211 HD
ENDBRANCH  23  28
BRANCH  24  30
ATOM     30  C   UNL     1      26.261  40.418  30.831  1.00  0.00     0.191 C 
BRANCH  30  31
ATOM     31  O   UNL     1      24.915  40.491  30.439  1.00  0.00    -0.394 OA
ATOM     32  H   UNL     1      24.806  41.378  30.001  1.00  0.00     0.210 HD
ENDBRANCH  30  31
ENDBRANCH  24  30
BRANCH  25  33
ATOM     33  O   UNL     1      24.544  38.965  32.751  1.00  0.00    -0.388 OA
ATOM     34  H   UNL     1      25.168  39.335  33.428  1.00  0.00     0.211 HD
ENDBRANCH  25  33
ENDBRANCH  11  20
BRANCH  10  35
ATOM     35  O   UNL     1      28.600  35.396  33.321  1.00  0.00    -0.507 OA
ATOM     36  H   UNL     1      28.027  34.879  32.663  1.00  0.00     0.293 HD
ENDBRANCH  10  35
TORSDOF 9
ENDMDL
MODEL 9
REMARK VINA RESULT:    -5.492      2.411      4.981
REMARK INTER + INTRA:          -7.065
REMARK INTER:                  -7.154
REMARK INTRA:                   0.089
REMARK UNBOUND:                 0.354
REMARK SMILES O=c1c(-c2ccc(O)cc2)coc2c([C@@H]3O[C@@H](CO)[C@H](O)[C@H](O)[C@H]3O)c(O)ccc12
REMARK SMILES IDX 3 1 11 2 12 3 13 4 30 5 2 6 1 7 29 8 28 9 26 10 14 11 4 12
REMARK SMILES IDX 5 13 6 14 7 15 10 16 9 17 8 18 15 20 24 21 16 22 22 23 17 24
REMARK SMILES IDX 20 25 25 26 23 28 18 30 19 31 21 33 27 35
REMARK H PARENT 8 19 25 27 23 29 19 32 21 34 27 36
REMARK Flexibility Score: inf
ROOT
ATOM      1  C   UNL     1      29.198  37.711  33.860  1.00  0.00     0.065 A 
ATOM      2  C   UNL     1      28.217  37.573  32.871  1.00  0.00     0.208 A 
ATOM      3  O   UNL     1      26.928  37.581  33.188  1.00  0.00    -0.463 OA
ATOM      4  C   UNL     1      26.478  37.713  34.437  1.00  0.00     0.147 A 
ATOM      5  C   UNL     1      27.406  37.859  35.494  1.00  0.00     0.066 A 
ATOM      6  C   UNL     1      28.781  37.862  35.195  1.00  0.00     0.200 A 
ATOM      7  O   UNL     1      29.639  37.960  36.118  1.00  0.00    -0.288 OA
ATOM      8  C   UNL     1      26.945  37.932  36.814  1.00  0.00     0.020 A 
ATOM      9  C   UNL     1      25.587  37.806  37.082  1.00  0.00     0.047 A 
ATOM     10  C   UNL     1      24.654  37.654  36.048  1.00  0.00     0.125 A 
ATOM     11  C   UNL     1      25.077  37.678  34.689  1.00  0.00     0.069 A 
ENDROOT
BRANCH   1  12
ATOM     12  C   UNL     1      30.632  37.650  33.491  1.00  0.00    -0.011 A 
ATOM     13  C   UNL     1      31.208  38.686  32.738  1.00  0.00     0.013 A 
ATOM     14  C   UNL     1      32.555  38.630  32.371  1.00  0.00     0.047 A 
ATOM     15  C   UNL     1      33.346  37.545  32.765  1.00  0.00     0.115 A 
ATOM     16  C   UNL     1      31.429  36.561  33.884  1.00  0.00     0.013 A 
ATOM     17  C   UNL     1      32.781  36.511  33.525  1.00  0.00     0.047 A 
BRANCH  15  18
ATOM     18  O   UNL     1      34.689  37.502  32.391  1.00  0.00    -0.508 OA
ATOM     19  H   UNL     1      35.215  36.637  32.413  1.00  0.00     0.293 HD
ENDBRANCH  15  18
ENDBRANCH   1  12
BRANCH  11  20
ATOM     20  C   UNL     1      24.142  37.544  33.462  1.00  0.00     0.188 C 
ATOM     21  C   UNL     1      22.605  37.773  33.589  1.00  0.00     0.179 C 
ATOM     22  O   UNL     1      24.641  38.294  32.358  1.00  0.00    -0.362 OA
ATOM     23  C   UNL     1      22.248  39.274  33.657  1.00  0.00     0.177 C 
ATOM     24  C   UNL     1      24.480  39.692  32.550  1.00  0.00     0.176 C 
ATOM     25  C   UNL     1      22.976  40.048  32.540  1.00  0.00     0.177 C 
BRANCH  21  26
ATOM     26  O   UNL     1      21.988  37.217  32.455  1.00  0.00    -0.387 OA
ATOM     27  H   UNL     1      21.987  36.232  32.572  1.00  0.00     0.211 HD
ENDBRANCH  21  26
BRANCH  23  28
ATOM     28  O   UNL     1      22.590  39.794  34.917  1.00  0.00    -0.387 OA
ATOM     29  H   UNL     1      22.722  40.771  34.806  1.00  0.00     0.211 HD
ENDBRANCH  23  28
BRANCH  24  30
ATOM     30  C   UNL     1      25.252  40.437  31.435  1.00  0.00     0.191 C 
BRANCH  30  31
ATOM     31  O   UNL     1      24.386  40.757  30.377  1.00  0.00    -0.394 OA
ATOM     32  H   UNL     1      24.722  40.254  29.587  1.00  0.00     0.210 HD
ENDBRANCH  30  31
ENDBRANCH  24  30
BRANCH  25  33
ATOM     33  O   UNL     1      22.755  41.434  32.667  1.00  0.00    -0.388 OA
ATOM     34  H   UNL     1      23.569  41.844  33.061  1.00  0.00     0.211 HD
ENDBRANCH  25  33
ENDBRANCH  11  20
BRANCH  10  35
ATOM     35  O   UNL     1      23.324  37.464  36.406  1.00  0.00    -0.507 OA
ATOM     36  H   UNL     1      22.576  37.461  35.720  1.00  0.00     0.293 HD
ENDBRANCH  10  35
TORSDOF 9
ENDMDL
