MODEL 1
REMARK VINA RESULT:    -3.488      0.000      0.000
REMARK INTER + INTRA:          -4.211
REMARK INTER:                  -4.201
REMARK INTRA:                  -0.010
REMARK UNBOUND:                -0.010
REMARK SMILES CCCCCO
REMARK SMILES IDX 4 1 3 2 2 3 1 4 5 5 6 6
REMARK H PARENT 6 7
REMARK Flexibility Score: inf
ROOT
ATOM      1  C   UNL     1      21.886  20.377  22.574  1.00  0.00     0.028 C 
ENDROOT
BRANCH   1   2
ATOM      2  C   UNL     1      20.718  19.842  21.736  1.00  0.00     0.002 C 
BRANCH   2   3
ATOM      3  C   UNL     1      20.252  18.477  22.254  1.00  0.00    -0.003 C 
ATOM      4  C   UNL     1      19.258  17.833  21.292  1.00  0.00     0.004 C 
ENDBRANCH   2   3
ENDBRANCH   1   2
BRANCH   1   5
ATOM      5  C   UNL     1      22.291  21.781  22.124  1.00  0.00     0.156 C 
BRANCH   5   6
ATOM      6  O   UNL     1      23.687  21.889  22.132  1.00  0.00    -0.396 OA
ATOM      7  H   UNL     1      24.032  21.014  21.818  1.00  0.00     0.210 HD
ENDBRANCH   5   6
ENDBRANCH   1   5
TORSDOF 4
ENDMDL
MODEL 2
REMARK VINA RESULT:    -3.433      2.608      4.151
REMARK INTER + INTRA:          -4.146
REMARK INTER:                  -4.128
REMARK INTRA:                  -0.018
REMARK UNBOUND:                -0.010
REMARK SMILES CCCCCO
REMARK SMILES IDX 4 1 3 2 2 3 1 4 5 5 6 6
REMARK H PARENT 6 7
REMARK Flexibility Score: inf
ROOT
ATOM      1  C   UNL     1      19.982  18.392  22.630  1.00  0.00     0.028 C 
ENDROOT
BRANCH   1   2
ATOM      2  C   UNL     1      20.736  19.399  21.754  1.00  0.00     0.002 C 
BRANCH   2   3
ATOM      3  C   UNL     1      21.446  20.451  22.613  1.00  0.00    -0.003 C 
ATOM      4  C   UNL     1      22.601  21.097  21.852  1.00  0.00     0.004 C 
ENDBRANCH   2   3
ENDBRANCH   1   2
BRANCH   1   5
ATOM      5  C   UNL     1      19.118  17.460  21.780  1.00  0.00     0.156 C 
BRANCH   5   6
ATOM      6  O   UNL     1      19.571  17.483  20.455  1.00  0.00    -0.396 OA
ATOM      7  H   UNL     1      19.779  16.542  20.220  1.00  0.00     0.210 HD
ENDBRANCH   5   6
ENDBRANCH   1   5
TORSDOF 4
ENDMDL
MODEL 3
REMARK VINA RESULT:    -3.341      2.877      4.132
REMARK INTER + INTRA:          -4.035
REMARK INTER:                  -3.947
REMARK INTRA:                  -0.087
REMARK UNBOUND:                -0.010
REMARK SMILES CCCCCO
REMARK SMILES IDX 4 1 3 2 2 3 1 4 5 5 6 6
REMARK H PARENT 6 7
REMARK Flexibility Score: inf
ROOT
ATOM      1  C   UNL     1      19.706  17.490  23.543  1.00  0.00     0.028 C 
ENDROOT
BRANCH   1   2
ATOM      2  C   UNL     1      19.206  17.351  22.101  1.00  0.00     0.002 C 
BRANCH   2   3
ATOM      3  C   UNL     1      19.813  18.434  21.202  1.00  0.00    -0.003 C 
ATOM      4  C   UNL     1      20.702  19.381  22.004  1.00  0.00     0.004 C 
ENDBRANCH   2   3
ENDBRANCH   1   2
BRANCH   1   5
ATOM      5  C   UNL     1      20.523  16.269  23.964  1.00  0.00     0.156 C 
BRANCH   5   6
ATOM      6  O   UNL     1      21.753  16.277  23.294  1.00  0.00    -0.396 OA
ATOM      7  H   UNL     1      21.565  16.615  22.380  1.00  0.00     0.210 HD
ENDBRANCH   5   6
ENDBRANCH   1   5
TORSDOF 4
ENDMDL
MODEL 4
REMARK VINA RESULT:    -3.302     10.433     11.704
REMARK INTER + INTRA:          -3.987
REMARK INTER:                  -3.912
REMARK INTRA:                  -0.075
REMARK UNBOUND:                -0.010
REMARK SMILES CCCCCO
REMARK SMILES IDX 4 1 3 2 2 3 1 4 5 5 6 6
REMARK H PARENT 6 7
REMARK Flexibility Score: inf
ROOT
ATOM      1  C   UNL     1      15.204  13.021  14.968  1.00  0.00     0.028 C 
ENDROOT
BRANCH   1   2
ATOM      2  C   UNL     1      15.078  13.652  13.576  1.00  0.00     0.002 C 
BRANCH   2   3
ATOM      3  C   UNL     1      16.460  13.919  12.968  1.00  0.00    -0.003 C 
ATOM      4  C   UNL     1      16.739  12.977  11.800  1.00  0.00     0.004 C 
ENDBRANCH   2   3
ENDBRANCH   1   2
BRANCH   1   5
ATOM      5  C   UNL     1      16.541  13.377  15.616  1.00  0.00     0.156 C 
BRANCH   5   6
ATOM      6  O   UNL     1      16.346  14.391  16.563  1.00  0.00    -0.396 OA
ATOM      7  H   UNL     1      16.899  15.158  16.262  1.00  0.00     0.210 HD
ENDBRANCH   5   6
ENDBRANCH   1   5
TORSDOF 4
ENDMDL
MODEL 5
REMARK VINA RESULT:    -3.281      1.805      2.280
REMARK INTER + INTRA:          -3.963
REMARK INTER:                  -3.923
REMARK INTRA:                  -0.039
REMARK UNBOUND:                -0.010
REMARK SMILES CCCCCO
REMARK SMILES IDX 4 1 3 2 2 3 1 4 5 5 6 6
REMARK H PARENT 6 7
REMARK Flexibility Score: inf
ROOT
ATOM      1  C   UNL     1      20.357  19.464  21.862  1.00  0.00     0.028 C 
ENDROOT
BRANCH   1   2
ATOM      2  C   UNL     1      20.677  18.013  22.238  1.00  0.00     0.002 C 
BRANCH   2   3
ATOM      3  C   UNL     1      19.676  17.480  23.269  1.00  0.00    -0.003 C 
ATOM      4  C   UNL     1      20.233  16.260  23.999  1.00  0.00     0.004 C 
ENDBRANCH   2   3
ENDBRANCH   1   2
BRANCH   1   5
ATOM      5  C   UNL     1      21.524  20.392  22.199  1.00  0.00     0.156 C 
BRANCH   5   6
ATOM      6  O   UNL     1      21.457  20.755  23.549  1.00  0.00    -0.396 OA
ATOM      7  H   UNL     1      20.608  20.374  23.894  1.00  0.00     0.210 HD
ENDBRANCH   5   6
ENDBRANCH   1   5
TORSDOF 4
ENDMDL
MODEL 6
REMARK VINA RESULT:    -3.257      9.819     11.040
REMARK INTER + INTRA:          -3.933
REMARK INTER:                  -3.924
REMARK INTRA:                  -0.010
REMARK UNBOUND:                -0.010
REMARK SMILES CCCCCO
REMARK SMILES IDX 4 1 3 2 2 3 1 4 5 5 6 6
REMARK H PARENT 6 7
REMARK Flexibility Score: inf
ROOT
ATOM      1  C   UNL     1      29.123  25.696  21.729  1.00  0.00     0.028 C 
ENDROOT
BRANCH   1   2
ATOM      2  C   UNL     1      30.548  25.172  21.940  1.00  0.00     0.002 C 
BRANCH   2   3
ATOM      3  C   UNL     1      31.374  26.151  22.782  1.00  0.00    -0.003 C 
ATOM      4  C   UNL     1      32.328  25.409  23.713  1.00  0.00     0.004 C 
ENDBRANCH   2   3
ENDBRANCH   1   2
BRANCH   1   5
ATOM      5  C   UNL     1      28.964  26.319  20.342  1.00  0.00     0.156 C 
BRANCH   5   6
ATOM      6  O   UNL     1      27.610  26.323  19.985  1.00  0.00    -0.396 OA
ATOM      7  H   UNL     1      27.205  27.100  20.451  1.00  0.00     0.210 HD
ENDBRANCH   5   6
ENDBRANCH   1   5
TORSDOF 4
ENDMDL
MODEL 7
REMARK VINA RESULT:    -3.244      2.706      4.079
REMARK INTER + INTRA:          -3.917
REMARK INTER:                  -3.879
REMARK INTRA:                  -0.038
REMARK UNBOUND:                -0.010
REMARK SMILES CCCCCO
REMARK SMILES IDX 4 1 3 2 2 3 1 4 5 5 6 6
REMARK H PARENT 6 7
REMARK Flexibility Score: inf
ROOT
ATOM      1  C   UNL     1      21.662  21.830  22.274  1.00  0.00     0.028 C 
ENDROOT
BRANCH   1   2
ATOM      2  C   UNL     1      21.867  23.196  22.940  1.00  0.00     0.002 C 
BRANCH   2   3
ATOM      3  C   UNL     1      21.236  23.226  24.337  1.00  0.00    -0.003 C 
ATOM      4  C   UNL     1      20.294  24.417  24.490  1.00  0.00     0.004 C 
ENDBRANCH   2   3
ENDBRANCH   1   2
BRANCH   1   5
ATOM      5  C   UNL     1      22.996  21.213  21.857  1.00  0.00     0.156 C 
BRANCH   5   6
ATOM      6  O   UNL     1      24.028  22.131  22.091  1.00  0.00    -0.396 OA
ATOM      7  H   UNL     1      24.085  22.235  23.076  1.00  0.00     0.210 HD
ENDBRANCH   5   6
ENDBRANCH   1   5
TORSDOF 4
ENDMDL
MODEL 8
REMARK VINA RESULT:    -3.188      3.314      4.176
REMARK INTER + INTRA:          -3.850
REMARK INTER:                  -3.806
REMARK INTRA:                  -0.044
REMARK UNBOUND:                -0.010
REMARK SMILES CCCCCO
REMARK SMILES IDX 4 1 3 2 2 3 1 4 5 5 6 6
REMARK H PARENT 6 7
REMARK Flexibility Score: inf
ROOT
ATOM      1  C   UNL     1      19.989  18.593  21.964  1.00  0.00     0.028 C 
ENDROOT
BRANCH   1   2
ATOM      2  C   UNL     1      19.802  18.254  23.447  1.00  0.00     0.002 C 
BRANCH   2   3
ATOM      3  C   UNL     1      19.755  16.737  23.662  1.00  0.00    -0.003 C 
ATOM      4  C   UNL     1      20.090  16.374  25.106  1.00  0.00     0.004 C 
ENDBRANCH   2   3
ENDBRANCH   1   2
BRANCH   1   5
ATOM      5  C   UNL     1      19.050  17.766  21.086  1.00  0.00     0.156 C 
BRANCH   5   6
ATOM      6  O   UNL     1      19.713  17.402  19.908  1.00  0.00    -0.396 OA
ATOM      7  H   UNL     1      19.296  17.934  19.182  1.00  0.00     0.210 HD
ENDBRANCH   5   6
ENDBRANCH   1   5
TORSDOF 4
ENDMDL
MODEL 9
REMARK VINA RESULT:    -2.914      9.361     11.197
REMARK INTER + INTRA:          -3.520
REMARK INTER:                  -3.436
REMARK INTRA:                  -0.085
REMARK UNBOUND:                -0.010
REMARK SMILES CCCCCO
REMARK SMILES IDX 4 1 3 2 2 3 1 4 5 5 6 6
REMARK H PARENT 6 7
REMARK Flexibility Score: inf
ROOT
ATOM      1  C   UNL     1      29.648  25.567  21.472  1.00  0.00     0.028 C 
ENDROOT
BRANCH   1   2
ATOM      2  C   UNL     1      30.398  26.268  22.611  1.00  0.00     0.002 C 
BRANCH   2   3
ATOM      3  C   UNL     1      30.080  27.767  22.636  1.00  0.00    -0.003 C 
ATOM      4  C   UNL     1      30.951  28.532  21.642  1.00  0.00     0.004 C 
ENDBRANCH   2   3
ENDBRANCH   1   2
BRANCH   1   5
ATOM      5  C   UNL     1      28.179  25.988  21.437  1.00  0.00     0.156 C 
BRANCH   5   6
ATOM      6  O   UNL     1      27.825  26.338  20.128  1.00  0.00    -0.396 OA
ATOM      7  H   UNL     1      28.661  26.291  19.596  1.00  0.00     0.210 HD
ENDBRANCH   5   6
ENDBRANCH   1   5
TORSDOF 4
ENDMDL
