MODEL 1
REMARK VINA RESULT:    -4.252      0.000      0.000
REMARK INTER + INTRA:          -4.886
REMARK INTER:                  -5.992
REMARK INTRA:                   1.106
REMARK UNBOUND:                 1.106
REMARK SMILES CC1=CCC(=C(C)C)C(=O)CC(C)=CCC1
REMARK SMILES IDX 12 1 14 2 13 3 15 4 16 5 2 6 1 7 3 8 11 10 9 11 10 12 5 13
REMARK SMILES IDX 6 14 7 15 8 16 4 17
REMARK H PARENT
REMARK Flexibility Score: 60.00
ROOT
ATOM      1  C   UNL     1      -4.055  27.491  30.244  1.00  0.00    -0.070 C 
ATOM      2  C   UNL     1      -2.836  26.928  30.410  1.00  0.00    -0.027 C 
ATOM      3  C   UNL     1      -5.252  26.581  30.128  1.00  0.00     0.039 C 
ENDROOT
BRANCH   2   4
ATOM      4  C   UNL     1      -1.520  27.669  30.420  1.00  0.00     0.032 C 
BRANCH   4   5
ATOM      5  C   UNL     1      -0.770  27.691  29.079  1.00  0.00     0.034 C 
BRANCH   5   6
ATOM      6  C   UNL     1      -1.651  27.413  27.876  1.00  0.00    -0.077 C 
ATOM      7  C   UNL     1      -1.610  26.028  27.278  1.00  0.00     0.039 C 
ATOM      8  C   UNL     1      -2.529  28.300  27.339  1.00  0.00    -0.023 CG0
ATOM      9  G   UNL     1      -2.679  29.778  27.641  1.00  0.00     0.000 G0
ENDBRANCH   5   6
ENDBRANCH   4   5
ENDBRANCH   2   4
BRANCH   1  10
ATOM     10  C   UNL     1      -4.291  28.985  30.256  1.00  0.00     0.111 C 
BRANCH  10  11
ATOM     11  C   UNL     1      -4.846  29.459  28.936  1.00  0.00     0.163 C 
ATOM     12  O   UNL     1      -6.025  29.143  28.623  1.00  0.00    -0.294 OA
BRANCH  11  13
ATOM     13  C   UNL     1      -4.052  30.294  27.997  1.00  0.00    -0.002 C 
ATOM     14  C   UNL     1      -4.499  31.524  27.624  1.00  0.00    -0.069 C 
ATOM     15  C   UNL     1      -3.657  32.449  26.777  1.00  0.00     0.039 C 
ATOM     16  C   UNL     1      -5.876  31.998  28.031  1.00  0.00     0.039 C 
BRANCH  13  17
ATOM     17  C   UNL     1      -2.670  29.787  27.629  1.00  0.00     0.066 CG0
ATOM     18  G   UNL     1      -2.529  28.305  27.339  1.00  0.00     0.000 G0
ENDBRANCH  13  17
ENDBRANCH  11  13
ENDBRANCH  10  11
ENDBRANCH   1  10
TORSDOF 0
ENDMDL
MODEL 2
REMARK VINA RESULT:    -3.955      1.587      4.316
REMARK INTER + INTRA:          -4.468
REMARK INTER:                  -6.139
REMARK INTRA:                   1.670
REMARK UNBOUND:                 1.106
REMARK SMILES CC1=CCC(=C(C)C)C(=O)CC(C)=CCC1
REMARK SMILES IDX 12 1 14 2 13 3 15 4 16 5 2 6 1 7 3 8 11 10 9 11 10 12 5 13
REMARK SMILES IDX 6 14 7 15 8 16 4 17
REMARK H PARENT
REMARK Flexibility Score: 60.00
ROOT
ATOM      1  C   UNL     1      -4.635  27.876  30.053  1.00  0.00    -0.070 C 
ATOM      2  C   UNL     1      -5.665  28.525  29.463  1.00  0.00    -0.027 C 
ATOM      3  C   UNL     1      -4.695  26.372  30.140  1.00  0.00     0.039 C 
ENDROOT
BRANCH   2   4
ATOM      4  C   UNL     1      -5.837  30.024  29.396  1.00  0.00     0.032 C 
BRANCH   4   5
ATOM      5  C   UNL     1      -5.620  30.648  28.010  1.00  0.00     0.034 C 
BRANCH   5   6
ATOM      6  C   UNL     1      -4.180  31.028  27.724  1.00  0.00    -0.077 C 
ATOM      7  C   UNL     1      -3.842  32.497  27.646  1.00  0.00     0.039 C 
ATOM      8  C   UNL     1      -3.156  30.144  27.603  1.00  0.00    -0.023 CG0
ATOM      9  G   UNL     1      -3.222  28.632  27.501  1.00  0.00     0.000 G0
ENDBRANCH   5   6
ENDBRANCH   4   5
ENDBRANCH   2   4
BRANCH   1  10
ATOM     10  C   UNL     1      -3.388  28.573  30.551  1.00  0.00     0.111 C 
BRANCH  10  11
ATOM     11  C   UNL     1      -2.169  28.115  29.792  1.00  0.00     0.163 C 
ATOM     12  O   UNL     1      -1.084  27.965  30.415  1.00  0.00    -0.294 OA
BRANCH  11  13
ATOM     13  C   UNL     1      -2.206  27.826  28.334  1.00  0.00    -0.002 C 
ATOM     14  C   UNL     1      -1.498  26.782  27.822  1.00  0.00    -0.069 C 
ATOM     15  C   UNL     1      -1.616  26.382  26.370  1.00  0.00     0.039 C 
ATOM     16  C   UNL     1      -0.542  26.000  28.693  1.00  0.00     0.039 C 
BRANCH  13  17
ATOM     17  C   UNL     1      -3.190  28.625  27.501  1.00  0.00     0.066 CG0
ATOM     18  G   UNL     1      -3.132  30.135  27.618  1.00  0.00     0.000 G0
ENDBRANCH  13  17
ENDBRANCH  11  13
ENDBRANCH  10  11
ENDBRANCH   1  10
TORSDOF 0
ENDMDL
MODEL 3
REMARK VINA RESULT:    -2.135      1.830      4.652
REMARK INTER + INTRA:          -1.903
REMARK INTER:                  -2.990
REMARK INTRA:                   1.087
REMARK UNBOUND:                 1.106
REMARK SMILES CC1=CCC(=C(C)C)C(=O)CC(C)=CCC1
REMARK SMILES IDX 12 1 14 2 13 3 15 4 16 5 2 6 1 7 3 8 11 10 9 11 10 12 5 13
REMARK SMILES IDX 6 14 7 15 8 16 4 17
REMARK H PARENT
REMARK Flexibility Score: 60.00
ROOT
ATOM      1  C   UNL     1      -4.341  29.558  28.179  1.00  0.00    -0.070 C 
ATOM      2  C   UNL     1      -4.909  29.320  29.384  1.00  0.00    -0.027 C 
ATOM      3  C   UNL     1      -4.357  30.969  27.647  1.00  0.00     0.039 C 
ENDROOT
BRANCH   2   4
ATOM      4  C   UNL     1      -5.097  27.962  30.015  1.00  0.00     0.032 C 
BRANCH   4   5
ATOM      5  C   UNL     1      -3.924  27.471  30.876  1.00  0.00     0.034 C 
BRANCH   5   6
ATOM      6  C   UNL     1      -2.814  28.491  31.044  1.00  0.00    -0.077 C 
ATOM      7  C   UNL     1      -3.121  29.742  31.831  1.00  0.00     0.039 C 
ATOM      8  C   UNL     1      -1.541  28.328  30.600  1.00  0.00    -0.023 CG0
ATOM      9  G   UNL     1      -0.993  27.256  29.678  1.00  0.00     0.000 G0
ENDBRANCH   5   6
ENDBRANCH   4   5
ENDBRANCH   2   4
BRANCH   1  10
ATOM     10  C   UNL     1      -3.615  28.499  27.378  1.00  0.00     0.111 C 
BRANCH  10  11
ATOM     11  C   UNL     1      -2.150  28.457  27.734  1.00  0.00     0.163 C 
ATOM     12  O   UNL     1      -1.459  29.501  27.598  1.00  0.00    -0.294 OA
BRANCH  11  13
ATOM     13  C   UNL     1      -1.496  27.226  28.251  1.00  0.00    -0.002 C 
ATOM     14  C   UNL     1      -1.236  26.183  27.416  1.00  0.00    -0.069 C 
ATOM     15  C   UNL     1      -0.457  24.974  27.878  1.00  0.00     0.039 C 
ATOM     16  C   UNL     1      -1.746  26.192  25.992  1.00  0.00     0.039 C 
BRANCH  13  17
ATOM     17  C   UNL     1      -0.986  27.267  29.679  1.00  0.00     0.066 CG0
ATOM     18  G   UNL     1      -1.556  28.339  30.588  1.00  0.00     0.000 G0
ENDBRANCH  13  17
ENDBRANCH  11  13
ENDBRANCH  10  11
ENDBRANCH   1  10
TORSDOF 0
ENDMDL
MODEL 4
REMARK VINA RESULT:    -1.845      1.590      3.732
REMARK INTER + INTRA:          -1.495
REMARK INTER:                  -2.306
REMARK INTRA:                   0.811
REMARK UNBOUND:                 1.106
REMARK SMILES CC1=CCC(=C(C)C)C(=O)CC(C)=CCC1
REMARK SMILES IDX 12 1 14 2 13 3 15 4 16 5 2 6 1 7 3 8 11 10 9 11 10 12 5 13
REMARK SMILES IDX 6 14 7 15 8 16 4 17
REMARK H PARENT
REMARK Flexibility Score: 60.00
ROOT
ATOM      1  C   UNL     1      -4.458  30.385  27.845  1.00  0.00    -0.070 C 
ATOM      2  C   UNL     1      -3.329  30.119  27.149  1.00  0.00    -0.027 C 
ATOM      3  C   UNL     1      -4.748  31.818  28.216  1.00  0.00     0.039 C 
ENDROOT
BRANCH   2   4
ATOM      4  C   UNL     1      -2.814  28.743  26.801  1.00  0.00     0.032 C 
BRANCH   4   5
ATOM      5  C   UNL     1      -2.016  28.043  27.910  1.00  0.00     0.034 C 
BRANCH   5   6
ATOM      6  C   UNL     1      -2.202  26.537  27.947  1.00  0.00    -0.077 C 
ATOM      7  C   UNL     1      -1.249  25.690  27.140  1.00  0.00     0.039 C 
ATOM      8  C   UNL     1      -3.121  25.891  28.711  1.00  0.00    -0.023 CG0
ATOM      9  G   UNL     1      -4.275  26.480  29.498  1.00  0.00     0.000 G0
ENDBRANCH   5   6
ENDBRANCH   4   5
ENDBRANCH   2   4
BRANCH   1  10
ATOM     10  C   UNL     1      -5.487  29.333  28.196  1.00  0.00     0.111 C 
BRANCH  10  11
ATOM     11  C   UNL     1      -5.297  28.835  29.606  1.00  0.00     0.163 C 
ATOM     12  O   UNL     1      -6.111  29.199  30.496  1.00  0.00    -0.294 OA
BRANCH  11  13
ATOM     13  C   UNL     1      -4.187  27.920  29.980  1.00  0.00    -0.002 C 
ATOM     14  C   UNL     1      -3.207  28.337  30.829  1.00  0.00    -0.069 C 
ATOM     15  C   UNL     1      -2.140  27.395  31.331  1.00  0.00     0.039 C 
ATOM     16  C   UNL     1      -3.144  29.779  31.280  1.00  0.00     0.039 C 
BRANCH  13  17
ATOM     17  C   UNL     1      -4.299  26.479  29.519  1.00  0.00     0.066 CG0
ATOM     18  G   UNL     1      -3.129  25.906  28.744  1.00  0.00     0.000 G0
ENDBRANCH  13  17
ENDBRANCH  11  13
ENDBRANCH  10  11
ENDBRANCH   1  10
TORSDOF 0
ENDMDL
