MODEL 1
REMARK VINA RESULT:    -6.446      0.000      0.000
REMARK INTER + INTRA:         -11.284
REMARK INTER:                 -10.215
REMARK INTRA:                  -1.069
REMARK UNBOUND:                -1.069
REMARK SMILES C[C@H]1O[C@@H](O[C@H]2[C@H](Oc3cc(O)c4c(c3)O[C@@H](c3ccc(O)cc3)CC4=O)O[C@@H](CO)[C@@H](O)[C@H]2O)[C@H](O)[C@@H](O)[C@H]1O
REMARK SMILES IDX 6 1 34 2 32 3 29 4 28 5 7 6 5 7 4 8 1 9 2 10 40 11 3 12
REMARK SMILES IDX 38 13 36 14 41 15 39 17 37 19 35 21 8 23 9 24 10 25 15 26
REMARK SMILES IDX 11 27 14 28 13 29 16 30 26 31 17 32 27 33 25 34 12 35 18 37
REMARK SMILES IDX 19 38 24 39 20 40 23 41 21 42 22 43 33 45 30 47 31 48
REMARK H PARENT 41 16 39 18 37 20 35 22 12 36 22 44 33 46 31 49
REMARK Flexibility Score: inf
ROOT
ATOM      1  C   UNL     1      64.610  51.508  35.376  1.00  0.00     0.221 C 
ATOM      2  C   UNL     1      64.895  52.924  34.827  1.00  0.00     0.181 C 
ATOM      3  C   UNL     1      63.568  53.713  34.724  1.00  0.00     0.177 C 
ATOM      4  C   UNL     1      62.557  52.904  33.861  1.00  0.00     0.179 C 
ATOM      5  O   UNL     1      62.346  51.605  34.400  1.00  0.00    -0.332 OA
ATOM      6  C   UNL     1      63.542  50.842  34.437  1.00  0.00     0.339 C 
ENDROOT
BRANCH   1   7
ATOM      7  O   UNL     1      64.273  51.655  36.757  1.00  0.00    -0.337 OA
BRANCH   7   8
ATOM      8  C   UNL     1      65.276  51.290  37.687  1.00  0.00     0.282 C 
ATOM      9  C   UNL     1      67.648  48.503  37.424  1.00  0.00     0.041 C 
ATOM     10  C   UNL     1      67.055  49.796  37.993  1.00  0.00     0.150 C 
ATOM     11  C   UNL     1      66.719  49.710  39.521  1.00  0.00     0.174 C 
ATOM     12  O   UNL     1      65.911  50.119  37.213  1.00  0.00    -0.344 OA
ATOM     13  C   UNL     1      65.193  49.765  39.763  1.00  0.00     0.179 C 
ATOM     14  C   UNL     1      64.582  50.996  39.050  1.00  0.00     0.202 C 
BRANCH  11  15
ATOM     15  O   UNL     1      67.320  48.608  40.169  1.00  0.00    -0.388 OA
ATOM     16  H   UNL     1      68.182  48.413  39.718  1.00  0.00     0.211 HD
ENDBRANCH  11  15
BRANCH  13  17
ATOM     17  O   UNL     1      64.587  48.586  39.271  1.00  0.00    -0.387 OA
ATOM     18  H   UNL     1      63.905  48.865  38.608  1.00  0.00     0.211 HD
ENDBRANCH  13  17
BRANCH  14  19
ATOM     19  O   UNL     1      64.616  52.134  39.888  1.00  0.00    -0.385 OA
ATOM     20  H   UNL     1      65.343  52.002  40.555  1.00  0.00     0.211 HD
ENDBRANCH  14  19
ENDBRANCH   7   8
ENDBRANCH   1   7
BRANCH   2  21
ATOM     21  O   UNL     1      65.804  53.587  35.674  1.00  0.00    -0.387 OA
ATOM     22  H   UNL     1      66.626  53.027  35.708  1.00  0.00     0.211 HD
ENDBRANCH   2  21
BRANCH   6  23
ATOM     23  O   UNL     1      64.052  50.673  33.108  1.00  0.00    -0.462 OA
BRANCH  23  24
ATOM     24  C   UNL     1      63.531  49.814  32.125  1.00  0.00     0.130 A 
ATOM     25  C   UNL     1      64.317  48.861  31.452  1.00  0.00     0.093 A 
ATOM     26  C   UNL     1      62.178  49.929  31.801  1.00  0.00     0.094 A 
ATOM     27  C   UNL     1      63.780  48.081  30.417  1.00  0.00     0.133 A 
ATOM     28  C   UNL     1      61.609  49.124  30.808  1.00  0.00     0.138 A 
ATOM     29  C   UNL     1      62.403  48.194  30.103  1.00  0.00     0.102 A 
ATOM     30  O   UNL     1      60.248  49.265  30.513  1.00  0.00    -0.484 OA
ATOM     31  C   UNL     1      61.718  47.383  29.062  1.00  0.00     0.174 C 
ATOM     32  C   UNL     1      59.526  48.324  29.715  1.00  0.00     0.211 C 
ATOM     33  O   UNL     1      62.209  46.307  28.627  1.00  0.00    -0.294 OA
ATOM     34  C   UNL     1      60.391  47.843  28.541  1.00  0.00     0.131 C 
BRANCH  27  35
ATOM     35  O   UNL     1      64.668  47.266  29.709  1.00  0.00    -0.507 OA
ATOM     36  H   UNL     1      65.602  47.547  29.446  1.00  0.00     0.293 HD
ENDBRANCH  27  35
BRANCH  32  37
ATOM     37  C   UNL     1      58.242  48.943  29.219  1.00  0.00    -0.007 A 
ATOM     38  C   UNL     1      57.149  48.124  28.857  1.00  0.00     0.011 A 
ATOM     39  C   UNL     1      58.148  50.334  29.027  1.00  0.00     0.011 A 
ATOM     40  C   UNL     1      55.985  48.685  28.324  1.00  0.00     0.046 A 
ATOM     41  C   UNL     1      56.979  50.894  28.498  1.00  0.00     0.046 A 
ATOM     42  C   UNL     1      55.897  50.073  28.153  1.00  0.00     0.115 A 
BRANCH  42  43
ATOM     43  O   UNL     1      54.738  50.646  27.623  1.00  0.00    -0.508 OA
ATOM     44  H   UNL     1      53.842  50.164  27.657  1.00  0.00     0.293 HD
ENDBRANCH  42  43
ENDBRANCH  32  37
ENDBRANCH  23  24
ENDBRANCH   6  23
BRANCH   3  45
ATOM     45  O   UNL     1      63.034  53.921  36.015  1.00  0.00    -0.387 OA
ATOM     46  H   UNL     1      62.512  53.108  36.247  1.00  0.00     0.211 HD
ENDBRANCH   3  45
BRANCH   4  47
ATOM     47  C   UNL     1      61.191  53.607  33.777  1.00  0.00     0.191 C 
BRANCH  47  48
ATOM     48  O   UNL     1      60.146  52.740  34.150  1.00  0.00    -0.394 OA
ATOM     49  H   UNL     1      60.231  52.599  35.131  1.00  0.00     0.210 HD
ENDBRANCH  47  48
ENDBRANCH   4  47
TORSDOF 14
ENDMDL
MODEL 2
REMARK VINA RESULT:    -6.361      2.164      3.946
REMARK INTER + INTRA:         -11.149
REMARK INTER:                  -9.440
REMARK INTRA:                  -1.709
REMARK UNBOUND:                -1.069
REMARK SMILES C[C@H]1O[C@@H](O[C@H]2[C@H](Oc3cc(O)c4c(c3)O[C@@H](c3ccc(O)cc3)CC4=O)O[C@@H](CO)[C@@H](O)[C@H]2O)[C@H](O)[C@@H](O)[C@H]1O
REMARK SMILES IDX 6 1 34 2 32 3 29 4 28 5 7 6 5 7 4 8 1 9 2 10 40 11 3 12
REMARK SMILES IDX 38 13 36 14 41 15 39 17 37 19 35 21 8 23 9 24 10 25 15 26
REMARK SMILES IDX 11 27 14 28 13 29 16 30 26 31 17 32 27 33 25 34 12 35 18 37
REMARK SMILES IDX 19 38 24 39 20 40 23 41 21 42 22 43 33 45 30 47 31 48
REMARK H PARENT 41 16 39 18 37 20 35 22 12 36 22 44 33 46 31 49
REMARK Flexibility Score: inf
ROOT
ATOM      1  C   UNL     1      65.831  51.405  36.376  1.00  0.00     0.221 C 
ATOM      2  C   UNL     1      66.997  51.204  35.382  1.00  0.00     0.181 C 
ATOM      3  C   UNL     1      67.230  52.514  34.592  1.00  0.00     0.177 C 
ATOM      4  C   UNL     1      65.900  52.946  33.911  1.00  0.00     0.179 C 
ATOM      5  O   UNL     1      64.858  53.098  34.868  1.00  0.00    -0.332 OA
ATOM      6  C   UNL     1      64.584  51.887  35.554  1.00  0.00     0.339 C 
ENDROOT
BRANCH   1   7
ATOM      7  O   UNL     1      66.309  52.266  37.413  1.00  0.00    -0.337 OA
BRANCH   7   8
ATOM      8  C   UNL     1      66.286  51.736  38.725  1.00  0.00     0.282 C 
ATOM      9  C   UNL     1      68.290  48.957  40.039  1.00  0.00     0.041 C 
ATOM     10  C   UNL     1      67.348  50.164  40.101  1.00  0.00     0.150 C 
ATOM     11  C   UNL     1      65.981  49.854  40.801  1.00  0.00     0.174 C 
ATOM     12  O   UNL     1      67.171  50.634  38.771  1.00  0.00    -0.344 OA
ATOM     13  C   UNL     1      64.809  49.914  39.794  1.00  0.00     0.179 C 
ATOM     14  C   UNL     1      64.834  51.256  39.023  1.00  0.00     0.202 C 
BRANCH  11  15
ATOM     15  O   UNL     1      65.985  48.650  41.539  1.00  0.00    -0.388 OA
ATOM     16  H   UNL     1      66.905  48.278  41.523  1.00  0.00     0.211 HD
ENDBRANCH  11  15
BRANCH  13  17
ATOM     17  O   UNL     1      64.910  48.842  38.878  1.00  0.00    -0.387 OA
ATOM     18  H   UNL     1      65.024  48.014  39.410  1.00  0.00     0.211 HD
ENDBRANCH  13  17
BRANCH  14  19
ATOM     19  O   UNL     1      64.107  52.251  39.716  1.00  0.00    -0.385 OA
ATOM     20  H   UNL     1      64.633  52.511  40.519  1.00  0.00     0.211 HD
ENDBRANCH  14  19
ENDBRANCH   7   8
ENDBRANCH   1   7
BRANCH   2  21
ATOM     21  O   UNL     1      68.159  50.831  36.083  1.00  0.00    -0.387 OA
ATOM     22  H   UNL     1      67.860  50.425  36.940  1.00  0.00     0.211 HD
ENDBRANCH   2  21
BRANCH   6  23
ATOM     23  O   UNL     1      64.159  50.885  34.620  1.00  0.00    -0.462 OA
BRANCH  23  24
ATOM     24  C   UNL     1      63.029  50.956  33.788  1.00  0.00     0.130 A 
ATOM     25  C   UNL     1      61.923  51.777  34.076  1.00  0.00     0.093 A 
ATOM     26  C   UNL     1      63.006  50.166  32.638  1.00  0.00     0.094 A 
ATOM     27  C   UNL     1      60.777  51.756  33.267  1.00  0.00     0.133 A 
ATOM     28  C   UNL     1      61.895  50.169  31.788  1.00  0.00     0.138 A 
ATOM     29  C   UNL     1      60.767  50.962  32.094  1.00  0.00     0.102 A 
ATOM     30  O   UNL     1      61.909  49.366  30.642  1.00  0.00    -0.484 OA
ATOM     31  C   UNL     1      59.629  50.902  31.140  1.00  0.00     0.174 C 
ATOM     32  C   UNL     1      60.949  49.497  29.591  1.00  0.00     0.211 C 
ATOM     33  O   UNL     1      58.742  51.797  31.104  1.00  0.00    -0.294 OA
ATOM     34  C   UNL     1      59.552  49.761  30.172  1.00  0.00     0.131 C 
BRANCH  27  35
ATOM     35  O   UNL     1      59.674  52.493  33.708  1.00  0.00    -0.507 OA
ATOM     36  H   UNL     1      59.688  53.493  33.855  1.00  0.00     0.293 HD
ENDBRANCH  27  35
BRANCH  32  37
ATOM     37  C   UNL     1      60.950  48.256  28.732  1.00  0.00    -0.007 A 
ATOM     38  C   UNL     1      61.901  47.235  28.954  1.00  0.00     0.011 A 
ATOM     39  C   UNL     1      60.063  48.141  27.645  1.00  0.00     0.011 A 
ATOM     40  C   UNL     1      61.956  46.119  28.113  1.00  0.00     0.046 A 
ATOM     41  C   UNL     1      60.117  47.020  26.809  1.00  0.00     0.046 A 
ATOM     42  C   UNL     1      61.056  46.007  27.045  1.00  0.00     0.115 A 
BRANCH  42  43
ATOM     43  O   UNL     1      61.101  44.896  26.200  1.00  0.00    -0.508 OA
ATOM     44  H   UNL     1      61.939  44.323  26.116  1.00  0.00     0.293 HD
ENDBRANCH  42  43
ENDBRANCH  32  37
ENDBRANCH  23  24
ENDBRANCH   6  23
BRANCH   3  45
ATOM     45  O   UNL     1      67.668  53.530  35.471  1.00  0.00    -0.387 OA
ATOM     46  H   UNL     1      67.751  53.119  36.372  1.00  0.00     0.211 HD
ENDBRANCH   3  45
BRANCH   4  47
ATOM     47  C   UNL     1      66.051  54.282  33.163  1.00  0.00     0.191 C 
BRANCH  47  48
ATOM     48  O   UNL     1      65.968  55.376  34.048  1.00  0.00    -0.394 OA
ATOM     49  H   UNL     1      65.128  55.256  34.568  1.00  0.00     0.210 HD
ENDBRANCH  47  48
ENDBRANCH   4  47
TORSDOF 14
ENDMDL
MODEL 3
REMARK VINA RESULT:    -6.309      3.303      7.299
REMARK INTER + INTRA:         -11.066
REMARK INTER:                  -9.045
REMARK INTRA:                  -2.021
REMARK UNBOUND:                -1.069
REMARK SMILES C[C@H]1O[C@@H](O[C@H]2[C@H](Oc3cc(O)c4c(c3)O[C@@H](c3ccc(O)cc3)CC4=O)O[C@@H](CO)[C@@H](O)[C@H]2O)[C@H](O)[C@@H](O)[C@H]1O
REMARK SMILES IDX 6 1 34 2 32 3 29 4 28 5 7 6 5 7 4 8 1 9 2 10 40 11 3 12
REMARK SMILES IDX 38 13 36 14 41 15 39 17 37 19 35 21 8 23 9 24 10 25 15 26
REMARK SMILES IDX 11 27 14 28 13 29 16 30 26 31 17 32 27 33 25 34 12 35 18 37
REMARK SMILES IDX 19 38 24 39 20 40 23 41 21 42 22 43 33 45 30 47 31 48
REMARK H PARENT 41 16 39 18 37 20 35 22 12 36 22 44 33 46 31 49
REMARK Flexibility Score: inf
ROOT
ATOM      1  C   UNL     1      61.923  49.949  30.636  1.00  0.00     0.221 C 
ATOM      2  C   UNL     1      61.385  48.544  30.987  1.00  0.00     0.181 C 
ATOM      3  C   UNL     1      62.167  47.479  30.183  1.00  0.00     0.177 C 
ATOM      4  C   UNL     1      62.080  47.815  28.666  1.00  0.00     0.179 C 
ATOM      5  O   UNL     1      62.570  49.125  28.402  1.00  0.00    -0.332 OA
ATOM      6  C   UNL     1      61.820  50.121  29.079  1.00  0.00     0.339 C 
ENDROOT
BRANCH   1   7
ATOM      7  O   UNL     1      63.221  50.060  31.226  1.00  0.00    -0.337 OA
BRANCH   7   8
ATOM      8  C   UNL     1      63.411  51.143  32.117  1.00  0.00     0.282 C 
ATOM      9  C   UNL     1      64.034  50.971  35.729  1.00  0.00     0.041 C 
ATOM     10  C   UNL     1      63.938  51.629  34.348  1.00  0.00     0.150 C 
ATOM     11  C   UNL     1      62.970  52.860  34.308  1.00  0.00     0.174 C 
ATOM     12  O   UNL     1      63.556  50.620  33.423  1.00  0.00    -0.344 OA
ATOM     13  C   UNL     1      61.720  52.563  33.448  1.00  0.00     0.179 C 
ATOM     14  C   UNL     1      62.143  52.046  32.051  1.00  0.00     0.202 C 
BRANCH  11  15
ATOM     15  O   UNL     1      62.628  53.350  35.588  1.00  0.00    -0.388 OA
ATOM     16  H   UNL     1      61.643  53.296  35.690  1.00  0.00     0.211 HD
ENDBRANCH  11  15
BRANCH  13  17
ATOM     17  O   UNL     1      60.918  51.590  34.088  1.00  0.00    -0.387 OA
ATOM     18  H   UNL     1      61.526  51.017  34.620  1.00  0.00     0.211 HD
ENDBRANCH  13  17
BRANCH  14  19
ATOM     19  O   UNL     1      62.336  53.120  31.152  1.00  0.00    -0.385 OA
ATOM     20  H   UNL     1      62.006  52.834  30.258  1.00  0.00     0.211 HD
ENDBRANCH  14  19
ENDBRANCH   7   8
ENDBRANCH   1   7
BRANCH   2  21
ATOM     21  O   UNL     1      61.516  48.319  32.371  1.00  0.00    -0.387 OA
ATOM     22  H   UNL     1      61.227  47.381  32.538  1.00  0.00     0.211 HD
ENDBRANCH   2  21
BRANCH   6  23
ATOM     23  O   UNL     1      60.454  50.082  28.642  1.00  0.00    -0.462 OA
BRANCH  23  24
ATOM     24  C   UNL     1      59.574  51.176  28.583  1.00  0.00     0.130 A 
ATOM     25  C   UNL     1      59.467  52.007  27.452  1.00  0.00     0.093 A 
ATOM     26  C   UNL     1      58.786  51.449  29.702  1.00  0.00     0.094 A 
ATOM     27  C   UNL     1      58.640  53.140  27.463  1.00  0.00     0.133 A 
ATOM     28  C   UNL     1      57.915  52.543  29.715  1.00  0.00     0.138 A 
ATOM     29  C   UNL     1      57.834  53.402  28.598  1.00  0.00     0.102 A 
ATOM     30  O   UNL     1      57.137  52.783  30.854  1.00  0.00    -0.484 OA
ATOM     31  C   UNL     1      56.885  54.543  28.698  1.00  0.00     0.174 C 
ATOM     32  C   UNL     1      56.044  53.703  30.868  1.00  0.00     0.211 C 
ATOM     33  O   UNL     1      56.467  55.153  27.678  1.00  0.00    -0.294 OA
ATOM     34  C   UNL     1      56.389  54.957  30.050  1.00  0.00     0.131 C 
BRANCH  27  35
ATOM     35  O   UNL     1      58.707  53.986  26.352  1.00  0.00    -0.507 OA
ATOM     36  H   UNL     1      58.411  54.952  26.363  1.00  0.00     0.293 HD
ENDBRANCH  27  35
BRANCH  32  37
ATOM     37  C   UNL     1      55.690  54.068  32.288  1.00  0.00    -0.007 A 
ATOM     38  C   UNL     1      56.684  54.551  33.169  1.00  0.00     0.011 A 
ATOM     39  C   UNL     1      54.390  53.847  32.780  1.00  0.00     0.011 A 
ATOM     40  C   UNL     1      56.381  54.817  34.508  1.00  0.00     0.046 A 
ATOM     41  C   UNL     1      54.088  54.119  34.119  1.00  0.00     0.046 A 
ATOM     42  C   UNL     1      55.078  54.609  34.980  1.00  0.00     0.115 A 
BRANCH  42  43
ATOM     43  O   UNL     1      54.763  54.873  36.315  1.00  0.00    -0.508 OA
ATOM     44  H   UNL     1      53.874  55.292  36.580  1.00  0.00     0.293 HD
ENDBRANCH  42  43
ENDBRANCH  32  37
ENDBRANCH  23  24
ENDBRANCH   6  23
BRANCH   3  45
ATOM     45  O   UNL     1      63.518  47.466  30.592  1.00  0.00    -0.387 OA
ATOM     46  H   UNL     1      63.876  46.563  30.384  1.00  0.00     0.211 HD
ENDBRANCH   3  45
BRANCH   4  47
ATOM     47  C   UNL     1      62.896  46.826  27.816  1.00  0.00     0.191 C 
BRANCH  47  48
ATOM     48  O   UNL     1      63.163  45.640  28.527  1.00  0.00    -0.394 OA
ATOM     49  H   UNL     1      62.329  45.409  29.017  1.00  0.00     0.210 HD
ENDBRANCH  47  48
ENDBRANCH   4  47
TORSDOF 14
ENDMDL
MODEL 4
REMARK VINA RESULT:    -6.271      2.682      4.508
REMARK INTER + INTRA:         -11.006
REMARK INTER:                  -9.266
REMARK INTRA:                  -1.740
REMARK UNBOUND:                -1.069
REMARK SMILES C[C@H]1O[C@@H](O[C@H]2[C@H](Oc3cc(O)c4c(c3)O[C@@H](c3ccc(O)cc3)CC4=O)O[C@@H](CO)[C@@H](O)[C@H]2O)[C@H](O)[C@@H](O)[C@H]1O
REMARK SMILES IDX 6 1 34 2 32 3 29 4 28 5 7 6 5 7 4 8 1 9 2 10 40 11 3 12
REMARK SMILES IDX 38 13 36 14 41 15 39 17 37 19 35 21 8 23 9 24 10 25 15 26
REMARK SMILES IDX 11 27 14 28 13 29 16 30 26 31 17 32 27 33 25 34 12 35 18 37
REMARK SMILES IDX 19 38 24 39 20 40 23 41 21 42 22 43 33 45 30 47 31 48
REMARK H PARENT 41 16 39 18 37 20 35 22 12 36 22 44 33 46 31 49
REMARK Flexibility Score: inf
ROOT
ATOM      1  C   UNL     1      66.029  51.404  36.366  1.00  0.00     0.221 C 
ATOM      2  C   UNL     1      67.248  51.220  35.435  1.00  0.00     0.181 C 
ATOM      3  C   UNL     1      67.510  52.537  34.666  1.00  0.00     0.177 C 
ATOM      4  C   UNL     1      66.214  52.960  33.916  1.00  0.00     0.179 C 
ATOM      5  O   UNL     1      65.121  53.096  34.817  1.00  0.00    -0.332 OA
ATOM      6  C   UNL     1      64.822  51.877  35.481  1.00  0.00     0.339 C 
ENDROOT
BRANCH   1   7
ATOM      7  O   UNL     1      66.442  52.264  37.431  1.00  0.00    -0.337 OA
BRANCH   7   8
ATOM      8  C   UNL     1      66.325  51.737  38.740  1.00  0.00     0.282 C 
ATOM      9  C   UNL     1      68.154  48.895  40.167  1.00  0.00     0.041 C 
ATOM     10  C   UNL     1      67.251  50.133  40.175  1.00  0.00     0.150 C 
ATOM     11  C   UNL     1      65.836  49.870  40.794  1.00  0.00     0.174 C 
ATOM     12  O   UNL     1      67.169  50.606  38.837  1.00  0.00    -0.344 OA
ATOM     13  C   UNL     1      64.728  49.967  39.721  1.00  0.00     0.179 C 
ATOM     14  C   UNL     1      64.843  51.307  38.952  1.00  0.00     0.202 C 
BRANCH  11  15
ATOM     15  O   UNL     1      65.758  48.668  41.531  1.00  0.00    -0.388 OA
ATOM     16  H   UNL     1      66.330  47.991  41.085  1.00  0.00     0.211 HD
ENDBRANCH  11  15
BRANCH  13  17
ATOM     17  O   UNL     1      64.845  48.890  38.812  1.00  0.00    -0.387 OA
ATOM     18  H   UNL     1      63.926  48.591  38.595  1.00  0.00     0.211 HD
ENDBRANCH  13  17
BRANCH  14  19
ATOM     19  O   UNL     1      64.110  52.326  39.602  1.00  0.00    -0.385 OA
ATOM     20  H   UNL     1      64.741  53.065  39.820  1.00  0.00     0.211 HD
ENDBRANCH  14  19
ENDBRANCH   7   8
ENDBRANCH   1   7
BRANCH   2  21
ATOM     21  O   UNL     1      68.375  50.855  36.195  1.00  0.00    -0.387 OA
ATOM     22  H   UNL     1      68.362  51.416  37.017  1.00  0.00     0.211 HD
ENDBRANCH   2  21
BRANCH   6  23
ATOM     23  O   UNL     1      64.459  50.877  34.520  1.00  0.00    -0.462 OA
BRANCH  23  24
ATOM     24  C   UNL     1      63.306  50.882  33.717  1.00  0.00     0.130 A 
ATOM     25  C   UNL     1      63.136  50.012  32.624  1.00  0.00     0.093 A 
ATOM     26  C   UNL     1      62.299  51.801  34.016  1.00  0.00     0.094 A 
ATOM     27  C   UNL     1      62.008  50.106  31.794  1.00  0.00     0.133 A 
ATOM     28  C   UNL     1      61.142  51.876  33.233  1.00  0.00     0.138 A 
ATOM     29  C   UNL     1      60.985  51.033  32.112  1.00  0.00     0.102 A 
ATOM     30  O   UNL     1      60.152  52.809  33.566  1.00  0.00    -0.484 OA
ATOM     31  C   UNL     1      59.727  51.182  31.334  1.00  0.00     0.174 C 
ATOM     32  C   UNL     1      58.841  52.784  32.997  1.00  0.00     0.211 C 
ATOM     33  O   UNL     1      59.314  50.281  30.555  1.00  0.00    -0.294 OA
ATOM     34  C   UNL     1      58.911  52.427  31.505  1.00  0.00     0.131 C 
BRANCH  27  35
ATOM     35  O   UNL     1      61.992  49.302  30.651  1.00  0.00    -0.507 OA
ATOM     36  H   UNL     1      61.527  49.557  29.791  1.00  0.00     0.293 HD
ENDBRANCH  27  35
BRANCH  32  37
ATOM     37  C   UNL     1      58.163  54.117  33.201  1.00  0.00    -0.007 A 
ATOM     38  C   UNL     1      56.754  54.210  33.182  1.00  0.00     0.011 A 
ATOM     39  C   UNL     1      58.925  55.294  33.322  1.00  0.00     0.011 A 
ATOM     40  C   UNL     1      56.121  55.452  33.292  1.00  0.00     0.046 A 
ATOM     41  C   UNL     1      58.289  56.535  33.437  1.00  0.00     0.046 A 
ATOM     42  C   UNL     1      56.890  56.615  33.429  1.00  0.00     0.115 A 
BRANCH  42  43
ATOM     43  O   UNL     1      56.270  57.861  33.542  1.00  0.00    -0.508 OA
ATOM     44  H   UNL     1      56.433  58.602  32.863  1.00  0.00     0.293 HD
ENDBRANCH  42  43
ENDBRANCH  32  37
ENDBRANCH  23  24
ENDBRANCH   6  23
BRANCH   3  45
ATOM     45  O   UNL     1      67.890  53.552  35.571  1.00  0.00    -0.387 OA
ATOM     46  H   UNL     1      67.136  53.671  36.207  1.00  0.00     0.211 HD
ENDBRANCH   3  45
BRANCH   4  47
ATOM     47  C   UNL     1      66.391  54.301  33.185  1.00  0.00     0.191 C 
BRANCH  47  48
ATOM     48  O   UNL     1      66.065  55.387  34.021  1.00  0.00    -0.394 OA
ATOM     49  H   UNL     1      65.384  55.054  34.665  1.00  0.00     0.210 HD
ENDBRANCH  47  48
ENDBRANCH   4  47
TORSDOF 14
ENDMDL
MODEL 5
REMARK VINA RESULT:    -6.144      3.011      7.211
REMARK INTER + INTRA:         -10.805
REMARK INTER:                  -8.889
REMARK INTRA:                  -1.916
REMARK UNBOUND:                -1.069
REMARK SMILES C[C@H]1O[C@@H](O[C@H]2[C@H](Oc3cc(O)c4c(c3)O[C@@H](c3ccc(O)cc3)CC4=O)O[C@@H](CO)[C@@H](O)[C@H]2O)[C@H](O)[C@@H](O)[C@H]1O
REMARK SMILES IDX 6 1 34 2 32 3 29 4 28 5 7 6 5 7 4 8 1 9 2 10 40 11 3 12
REMARK SMILES IDX 38 13 36 14 41 15 39 17 37 19 35 21 8 23 9 24 10 25 15 26
REMARK SMILES IDX 11 27 14 28 13 29 16 30 26 31 17 32 27 33 25 34 12 35 18 37
REMARK SMILES IDX 19 38 24 39 20 40 23 41 21 42 22 43 33 45 30 47 31 48
REMARK H PARENT 41 16 39 18 37 20 35 22 12 36 22 44 33 46 31 49
REMARK Flexibility Score: inf
ROOT
ATOM      1  C   UNL     1      61.146  50.040  30.844  1.00  0.00     0.221 C 
ATOM      2  C   UNL     1      61.522  48.678  31.471  1.00  0.00     0.181 C 
ATOM      3  C   UNL     1      62.301  47.834  30.435  1.00  0.00     0.177 C 
ATOM      4  C   UNL     1      61.454  47.706  29.136  1.00  0.00     0.179 C 
ATOM      5  O   UNL     1      61.121  48.986  28.613  1.00  0.00    -0.332 OA
ATOM      6  C   UNL     1      60.346  49.749  29.524  1.00  0.00     0.339 C 
ENDROOT
BRANCH   1   7
ATOM      7  O   UNL     1      62.353  50.796  30.729  1.00  0.00    -0.337 OA
BRANCH   7   8
ATOM      8  C   UNL     1      62.514  51.859  31.649  1.00  0.00     0.282 C 
ATOM      9  C   UNL     1      64.660  51.924  34.625  1.00  0.00     0.041 C 
ATOM     10  C   UNL     1      63.748  52.499  33.536  1.00  0.00     0.150 C 
ATOM     11  C   UNL     1      62.492  53.245  34.103  1.00  0.00     0.174 C 
ATOM     12  O   UNL     1      63.387  51.427  32.675  1.00  0.00    -0.344 OA
ATOM     13  C   UNL     1      61.189  52.484  33.770  1.00  0.00     0.179 C 
ATOM     14  C   UNL     1      61.116  52.186  32.252  1.00  0.00     0.202 C 
BRANCH  11  15
ATOM     15  O   UNL     1      62.592  53.551  35.478  1.00  0.00    -0.388 OA
ATOM     16  H   UNL     1      63.317  52.998  35.869  1.00  0.00     0.211 HD
ENDBRANCH  11  15
BRANCH  13  17
ATOM     17  O   UNL     1      61.147  51.268  34.491  1.00  0.00    -0.387 OA
ATOM     18  H   UNL     1      61.621  51.421  35.348  1.00  0.00     0.211 HD
ENDBRANCH  13  17
BRANCH  14  19
ATOM     19  O   UNL     1      60.504  53.255  31.557  1.00  0.00    -0.385 OA
ATOM     20  H   UNL     1      61.027  54.081  31.744  1.00  0.00     0.211 HD
ENDBRANCH  14  19
ENDBRANCH   7   8
ENDBRANCH   1   7
BRANCH   2  21
ATOM     21  O   UNL     1      62.297  48.887  32.628  1.00  0.00    -0.387 OA
ATOM     22  H   UNL     1      62.638  47.996  32.910  1.00  0.00     0.211 HD
ENDBRANCH   2  21
BRANCH   6  23
ATOM     23  O   UNL     1      59.114  49.070  29.803  1.00  0.00    -0.462 OA
BRANCH  23  24
ATOM     24  C   UNL     1      57.917  49.198  29.078  1.00  0.00     0.130 A 
ATOM     25  C   UNL     1      57.242  48.096  28.522  1.00  0.00     0.093 A 
ATOM     26  C   UNL     1      57.392  50.478  28.895  1.00  0.00     0.094 A 
ATOM     27  C   UNL     1      56.096  48.273  27.731  1.00  0.00     0.133 A 
ATOM     28  C   UNL     1      56.221  50.673  28.155  1.00  0.00     0.138 A 
ATOM     29  C   UNL     1      55.562  49.574  27.562  1.00  0.00     0.102 A 
ATOM     30  O   UNL     1      55.722  51.972  27.997  1.00  0.00    -0.484 OA
ATOM     31  C   UNL     1      54.327  49.872  26.790  1.00  0.00     0.174 C 
ATOM     32  C   UNL     1      54.413  52.243  27.490  1.00  0.00     0.211 C 
ATOM     33  O   UNL     1      53.477  48.981  26.523  1.00  0.00    -0.294 OA
ATOM     34  C   UNL     1      54.072  51.280  26.344  1.00  0.00     0.131 C 
BRANCH  27  35
ATOM     35  O   UNL     1      55.576  47.139  27.102  1.00  0.00    -0.507 OA
ATOM     36  H   UNL     1      55.619  46.209  27.495  1.00  0.00     0.293 HD
ENDBRANCH  27  35
BRANCH  32  37
ATOM     37  C   UNL     1      54.321  53.678  27.033  1.00  0.00    -0.007 A 
ATOM     38  C   UNL     1      54.765  54.724  27.873  1.00  0.00     0.011 A 
ATOM     39  C   UNL     1      53.713  53.998  25.805  1.00  0.00     0.011 A 
ATOM     40  C   UNL     1      54.612  56.060  27.488  1.00  0.00     0.046 A 
ATOM     41  C   UNL     1      53.566  55.336  25.420  1.00  0.00     0.046 A 
ATOM     42  C   UNL     1      54.020  56.365  26.256  1.00  0.00     0.115 A 
BRANCH  42  43
ATOM     43  O   UNL     1      53.864  57.695  25.860  1.00  0.00    -0.508 OA
ATOM     44  H   UNL     1      52.961  58.163  25.906  1.00  0.00     0.293 HD
ENDBRANCH  42  43
ENDBRANCH  32  37
ENDBRANCH  23  24
ENDBRANCH   6  23
BRANCH   3  45
ATOM     45  O   UNL     1      63.535  48.456  30.141  1.00  0.00    -0.387 OA
ATOM     46  H   UNL     1      63.365  49.105  29.409  1.00  0.00     0.211 HD
ENDBRANCH   3  45
BRANCH   4  47
ATOM     47  C   UNL     1      62.206  46.931  28.041  1.00  0.00     0.191 C 
BRANCH  47  48
ATOM     48  O   UNL     1      63.090  45.985  28.598  1.00  0.00    -0.394 OA
ATOM     49  H   UNL     1      63.994  46.401  28.585  1.00  0.00     0.210 HD
ENDBRANCH  47  48
ENDBRANCH   4  47
TORSDOF 14
ENDMDL
MODEL 6
REMARK VINA RESULT:    -6.116      3.402      9.488
REMARK INTER + INTRA:         -10.761
REMARK INTER:                  -8.536
REMARK INTRA:                  -2.224
REMARK UNBOUND:                -1.069
REMARK SMILES C[C@H]1O[C@@H](O[C@H]2[C@H](Oc3cc(O)c4c(c3)O[C@@H](c3ccc(O)cc3)CC4=O)O[C@@H](CO)[C@@H](O)[C@H]2O)[C@H](O)[C@@H](O)[C@H]1O
REMARK SMILES IDX 6 1 34 2 32 3 29 4 28 5 7 6 5 7 4 8 1 9 2 10 40 11 3 12
REMARK SMILES IDX 38 13 36 14 41 15 39 17 37 19 35 21 8 23 9 24 10 25 15 26
REMARK SMILES IDX 11 27 14 28 13 29 16 30 26 31 17 32 27 33 25 34 12 35 18 37
REMARK SMILES IDX 19 38 24 39 20 40 23 41 21 42 22 43 33 45 30 47 31 48
REMARK H PARENT 41 16 39 18 37 20 35 22 12 36 22 44 33 46 31 49
REMARK Flexibility Score: inf
ROOT
ATOM      1  C   UNL     1      56.708  54.041  31.125  1.00  0.00     0.221 C 
ATOM      2  C   UNL     1      55.466  54.048  32.044  1.00  0.00     0.181 C 
ATOM      3  C   UNL     1      55.129  55.504  32.442  1.00  0.00     0.177 C 
ATOM      4  C   UNL     1      56.382  56.163  33.086  1.00  0.00     0.179 C 
ATOM      5  O   UNL     1      57.499  56.113  32.206  1.00  0.00    -0.332 OA
ATOM      6  C   UNL     1      57.865  54.780  31.886  1.00  0.00     0.339 C 
ENDROOT
BRANCH   1   7
ATOM      7  O   UNL     1      56.299  54.580  29.865  1.00  0.00    -0.337 OA
BRANCH   7   8
ATOM      8  C   UNL     1      56.465  53.735  28.742  1.00  0.00     0.282 C 
ATOM      9  C   UNL     1      54.092  51.250  27.455  1.00  0.00     0.041 C 
ATOM     10  C   UNL     1      55.334  52.147  27.441  1.00  0.00     0.150 C 
ATOM     11  C   UNL     1      56.673  51.358  27.240  1.00  0.00     0.174 C 
ATOM     12  O   UNL     1      55.331  52.894  28.651  1.00  0.00    -0.344 OA
ATOM     13  C   UNL     1      57.549  51.407  28.514  1.00  0.00     0.179 C 
ATOM     14  C   UNL     1      57.741  52.872  28.975  1.00  0.00     0.202 C 
BRANCH  11  15
ATOM     15  O   UNL     1      56.485  50.038  26.776  1.00  0.00    -0.388 OA
ATOM     16  H   UNL     1      55.590  49.981  26.350  1.00  0.00     0.211 HD
ENDBRANCH  11  15
BRANCH  13  17
ATOM     17  O   UNL     1      56.932  50.664  29.547  1.00  0.00    -0.387 OA
ATOM     18  H   UNL     1      56.576  51.317  30.203  1.00  0.00     0.211 HD
ENDBRANCH  13  17
BRANCH  14  19
ATOM     19  O   UNL     1      58.866  53.455  28.348  1.00  0.00    -0.385 OA
ATOM     20  H   UNL     1      59.355  52.735  27.866  1.00  0.00     0.211 HD
ENDBRANCH  14  19
ENDBRANCH   7   8
ENDBRANCH   1   7
BRANCH   2  21
ATOM     21  O   UNL     1      54.380  53.449  31.378  1.00  0.00    -0.387 OA
ATOM     22  H   UNL     1      53.636  53.388  32.036  1.00  0.00     0.211 HD
ENDBRANCH   2  21
BRANCH   6  23
ATOM     23  O   UNL     1      58.233  54.076  33.080  1.00  0.00    -0.462 OA
BRANCH  23  24
ATOM     24  C   UNL     1      59.385  53.290  33.254  1.00  0.00     0.130 A 
ATOM     25  C   UNL     1      60.381  53.598  34.198  1.00  0.00     0.093 A 
ATOM     26  C   UNL     1      59.543  52.166  32.443  1.00  0.00     0.094 A 
ATOM     27  C   UNL     1      61.557  52.837  34.283  1.00  0.00     0.133 A 
ATOM     28  C   UNL     1      60.684  51.362  32.547  1.00  0.00     0.138 A 
ATOM     29  C   UNL     1      61.704  51.689  33.466  1.00  0.00     0.102 A 
ATOM     30  O   UNL     1      60.806  50.240  31.718  1.00  0.00    -0.484 OA
ATOM     31  C   UNL     1      62.883  50.784  33.507  1.00  0.00     0.174 C 
ATOM     32  C   UNL     1      61.791  49.225  31.927  1.00  0.00     0.211 C 
ATOM     33  O   UNL     1      63.667  50.757  34.493  1.00  0.00    -0.294 OA
ATOM     34  C   UNL     1      63.124  49.854  32.357  1.00  0.00     0.131 C 
BRANCH  27  35
ATOM     35  O   UNL     1      62.553  53.300  35.148  1.00  0.00    -0.507 OA
ATOM     36  H   UNL     1      63.059  52.708  35.791  1.00  0.00     0.293 HD
ENDBRANCH  27  35
BRANCH  32  37
ATOM     37  C   UNL     1      61.963  48.404  30.673  1.00  0.00    -0.007 A 
ATOM     38  C   UNL     1      63.223  47.854  30.348  1.00  0.00     0.011 A 
ATOM     39  C   UNL     1      60.896  48.252  29.768  1.00  0.00     0.011 A 
ATOM     40  C   UNL     1      63.408  47.158  29.149  1.00  0.00     0.046 A 
ATOM     41  C   UNL     1      61.082  47.550  28.571  1.00  0.00     0.046 A 
ATOM     42  C   UNL     1      62.333  46.999  28.264  1.00  0.00     0.115 A 
BRANCH  42  43
ATOM     43  O   UNL     1      62.506  46.304  27.065  1.00  0.00    -0.508 OA
ATOM     44  H   UNL     1      62.975  45.401  27.034  1.00  0.00     0.293 HD
ENDBRANCH  42  43
ENDBRANCH  32  37
ENDBRANCH  23  24
ENDBRANCH   6  23
BRANCH   3  45
ATOM     45  O   UNL     1      54.741  56.235  31.297  1.00  0.00    -0.387 OA
ATOM     46  H   UNL     1      55.575  56.487  30.818  1.00  0.00     0.211 HD
ENDBRANCH   3  45
BRANCH   4  47
ATOM     47  C   UNL     1      56.130  57.638  33.443  1.00  0.00     0.191 C 
BRANCH  47  48
ATOM     48  O   UNL     1      54.783  57.857  33.793  1.00  0.00    -0.394 OA
ATOM     49  H   UNL     1      54.425  56.981  34.103  1.00  0.00     0.210 HD
ENDBRANCH  47  48
ENDBRANCH   4  47
TORSDOF 14
ENDMDL
MODEL 7
REMARK VINA RESULT:    -6.108      1.849      2.591
REMARK INTER + INTRA:         -10.747
REMARK INTER:                  -9.292
REMARK INTRA:                  -1.455
REMARK UNBOUND:                -1.069
REMARK SMILES C[C@H]1O[C@@H](O[C@H]2[C@H](Oc3cc(O)c4c(c3)O[C@@H](c3ccc(O)cc3)CC4=O)O[C@@H](CO)[C@@H](O)[C@H]2O)[C@H](O)[C@@H](O)[C@H]1O
REMARK SMILES IDX 6 1 34 2 32 3 29 4 28 5 7 6 5 7 4 8 1 9 2 10 40 11 3 12
REMARK SMILES IDX 38 13 36 14 41 15 39 17 37 19 35 21 8 23 9 24 10 25 15 26
REMARK SMILES IDX 11 27 14 28 13 29 16 30 26 31 17 32 27 33 25 34 12 35 18 37
REMARK SMILES IDX 19 38 24 39 20 40 23 41 21 42 22 43 33 45 30 47 31 48
REMARK H PARENT 41 16 39 18 37 20 35 22 12 36 22 44 33 46 31 49
REMARK Flexibility Score: inf
ROOT
ATOM      1  C   UNL     1      65.007  51.956  35.179  1.00  0.00     0.221 C 
ATOM      2  C   UNL     1      64.939  53.464  34.849  1.00  0.00     0.181 C 
ATOM      3  C   UNL     1      63.470  53.865  34.578  1.00  0.00     0.177 C 
ATOM      4  C   UNL     1      62.888  52.957  33.457  1.00  0.00     0.179 C 
ATOM      5  O   UNL     1      62.993  51.581  33.804  1.00  0.00    -0.332 OA
ATOM      6  C   UNL     1      64.341  51.179  33.989  1.00  0.00     0.339 C 
ENDROOT
BRANCH   1   7
ATOM      7  O   UNL     1      64.435  51.786  36.478  1.00  0.00    -0.337 OA
BRANCH   7   8
ATOM      8  C   UNL     1      65.328  51.408  37.509  1.00  0.00     0.282 C 
ATOM      9  C   UNL     1      67.932  48.827  37.363  1.00  0.00     0.041 C 
ATOM     10  C   UNL     1      67.164  50.019  37.945  1.00  0.00     0.150 C 
ATOM     11  C   UNL     1      66.631  49.770  39.397  1.00  0.00     0.174 C 
ATOM     12  O   UNL     1      66.115  50.332  37.038  1.00  0.00    -0.344 OA
ATOM     13  C   UNL     1      65.087  49.697  39.422  1.00  0.00     0.179 C 
ATOM     14  C   UNL     1      64.481  50.943  38.731  1.00  0.00     0.202 C 
BRANCH  11  15
ATOM     15  O   UNL     1      67.225  48.657  40.033  1.00  0.00    -0.388 OA
ATOM     16  H   UNL     1      67.994  48.980  40.571  1.00  0.00     0.211 HD
ENDBRANCH  11  15
BRANCH  13  17
ATOM     17  O   UNL     1      64.651  48.529  38.754  1.00  0.00    -0.387 OA
ATOM     18  H   UNL     1      63.681  48.636  38.583  1.00  0.00     0.211 HD
ENDBRANCH  13  17
BRANCH  14  19
ATOM     19  O   UNL     1      64.308  51.999  39.655  1.00  0.00    -0.385 OA
ATOM     20  H   UNL     1      64.396  51.622  40.571  1.00  0.00     0.211 HD
ENDBRANCH  14  19
ENDBRANCH   7   8
ENDBRANCH   1   7
BRANCH   2  21
ATOM     21  O   UNL     1      65.470  54.208  35.919  1.00  0.00    -0.387 OA
ATOM     22  H   UNL     1      66.210  54.760  35.548  1.00  0.00     0.211 HD
ENDBRANCH   2  21
BRANCH   6  23
ATOM     23  O   UNL     1      65.075  51.367  32.771  1.00  0.00    -0.462 OA
BRANCH  23  24
ATOM     24  C   UNL     1      65.195  50.435  31.726  1.00  0.00     0.130 A 
ATOM     25  C   UNL     1      66.414  50.178  31.072  1.00  0.00     0.093 A 
ATOM     26  C   UNL     1      64.049  49.750  31.319  1.00  0.00     0.094 A 
ATOM     27  C   UNL     1      66.477  49.304  29.977  1.00  0.00     0.133 A 
ATOM     28  C   UNL     1      64.100  48.833  30.263  1.00  0.00     0.138 A 
ATOM     29  C   UNL     1      65.312  48.602  29.578  1.00  0.00     0.102 A 
ATOM     30  O   UNL     1      62.931  48.162  29.886  1.00  0.00    -0.484 OA
ATOM     31  C   UNL     1      65.275  47.616  28.467  1.00  0.00     0.174 C 
ATOM     32  C   UNL     1      62.933  47.033  29.009  1.00  0.00     0.211 C 
ATOM     33  O   UNL     1      66.322  47.070  28.025  1.00  0.00    -0.294 OA
ATOM     34  C   UNL     1      63.951  47.237  27.877  1.00  0.00     0.131 C 
BRANCH  27  35
ATOM     35  O   UNL     1      67.697  49.220  29.299  1.00  0.00    -0.507 OA
ATOM     36  H   UNL     1      68.144  48.349  29.052  1.00  0.00     0.293 HD
ENDBRANCH  27  35
BRANCH  32  37
ATOM     37  C   UNL     1      61.549  46.806  28.454  1.00  0.00    -0.007 A 
ATOM     38  C   UNL     1      61.247  45.614  27.757  1.00  0.00     0.011 A 
ATOM     39  C   UNL     1      60.569  47.812  28.545  1.00  0.00     0.011 A 
ATOM     40  C   UNL     1      59.989  45.430  27.173  1.00  0.00     0.046 A 
ATOM     41  C   UNL     1      59.310  47.623  27.964  1.00  0.00     0.046 A 
ATOM     42  C   UNL     1      59.017  46.433  27.285  1.00  0.00     0.115 A 
BRANCH  42  43
ATOM     43  O   UNL     1      57.757  46.259  26.707  1.00  0.00    -0.508 OA
ATOM     44  H   UNL     1      57.009  45.772  27.196  1.00  0.00     0.293 HD
ENDBRANCH  42  43
ENDBRANCH  32  37
ENDBRANCH  23  24
ENDBRANCH   6  23
BRANCH   3  45
ATOM     45  O   UNL     1      62.708  53.714  35.758  1.00  0.00    -0.387 OA
ATOM     46  H   UNL     1      62.463  52.753  35.824  1.00  0.00     0.211 HD
ENDBRANCH   3  45
BRANCH   4  47
ATOM     47  C   UNL     1      61.405  53.264  33.188  1.00  0.00     0.191 C 
BRANCH  47  48
ATOM     48  O   UNL     1      60.569  52.584  34.097  1.00  0.00    -0.394 OA
ATOM     49  H   UNL     1      60.624  51.618  33.864  1.00  0.00     0.210 HD
ENDBRANCH  47  48
ENDBRANCH   4  47
TORSDOF 14
ENDMDL
MODEL 8
REMARK VINA RESULT:    -6.067      3.636      6.243
REMARK INTER + INTRA:         -10.684
REMARK INTER:                  -8.362
REMARK INTRA:                  -2.321
REMARK UNBOUND:                -1.069
REMARK SMILES C[C@H]1O[C@@H](O[C@H]2[C@H](Oc3cc(O)c4c(c3)O[C@@H](c3ccc(O)cc3)CC4=O)O[C@@H](CO)[C@@H](O)[C@H]2O)[C@H](O)[C@@H](O)[C@H]1O
REMARK SMILES IDX 6 1 34 2 32 3 29 4 28 5 7 6 5 7 4 8 1 9 2 10 40 11 3 12
REMARK SMILES IDX 38 13 36 14 41 15 39 17 37 19 35 21 8 23 9 24 10 25 15 26
REMARK SMILES IDX 11 27 14 28 13 29 16 30 26 31 17 32 27 33 25 34 12 35 18 37
REMARK SMILES IDX 19 38 24 39 20 40 23 41 21 42 22 43 33 45 30 47 31 48
REMARK H PARENT 41 16 39 18 37 20 35 22 12 36 22 44 33 46 31 49
REMARK Flexibility Score: inf
ROOT
ATOM      1  C   UNL     1      66.752  53.397  36.966  1.00  0.00     0.221 C 
ATOM      2  C   UNL     1      68.043  53.637  36.151  1.00  0.00     0.181 C 
ATOM      3  C   UNL     1      68.580  55.057  36.445  1.00  0.00     0.177 C 
ATOM      4  C   UNL     1      67.461  56.099  36.156  1.00  0.00     0.179 C 
ATOM      5  O   UNL     1      66.291  55.820  36.917  1.00  0.00    -0.332 OA
ATOM      6  C   UNL     1      65.745  54.547  36.609  1.00  0.00     0.339 C 
ENDROOT
BRANCH   1   7
ATOM      7  O   UNL     1      67.141  53.263  38.335  1.00  0.00    -0.337 OA
BRANCH   7   8
ATOM      8  C   UNL     1      66.684  52.101  39.003  1.00  0.00     0.282 C 
ATOM      9  C   UNL     1      67.036  48.618  37.903  1.00  0.00     0.041 C 
ATOM     10  C   UNL     1      66.721  49.762  38.874  1.00  0.00     0.150 C 
ATOM     11  C   UNL     1      65.267  49.707  39.453  1.00  0.00     0.174 C 
ATOM     12  O   UNL     1      66.978  50.982  38.190  1.00  0.00    -0.344 OA
ATOM     13  C   UNL     1      64.412  50.886  38.934  1.00  0.00     0.179 C 
ATOM     14  C   UNL     1      65.143  52.228  39.185  1.00  0.00     0.202 C 
BRANCH  11  15
ATOM     15  O   UNL     1      64.629  48.462  39.257  1.00  0.00    -0.388 OA
ATOM     16  H   UNL     1      64.970  47.826  39.938  1.00  0.00     0.211 HD
ENDBRANCH  11  15
BRANCH  13  17
ATOM     17  O   UNL     1      64.173  50.731  37.548  1.00  0.00    -0.387 OA
ATOM     18  H   UNL     1      64.951  51.121  37.074  1.00  0.00     0.211 HD
ENDBRANCH  13  17
BRANCH  14  19
ATOM     19  O   UNL     1      64.827  52.743  40.463  1.00  0.00    -0.385 OA
ATOM     20  H   UNL     1      63.836  52.798  40.535  1.00  0.00     0.211 HD
ENDBRANCH  14  19
ENDBRANCH   7   8
ENDBRANCH   1   7
BRANCH   2  21
ATOM     21  O   UNL     1      69.002  52.662  36.485  1.00  0.00    -0.387 OA
ATOM     22  H   UNL     1      68.520  51.935  36.964  1.00  0.00     0.211 HD
ENDBRANCH   2  21
BRANCH   6  23
ATOM     23  O   UNL     1      65.373  54.501  35.225  1.00  0.00    -0.462 OA
BRANCH  23  24
ATOM     24  C   UNL     1      64.657  53.468  34.596  1.00  0.00     0.130 A 
ATOM     25  C   UNL     1      63.336  53.135  34.946  1.00  0.00     0.093 A 
ATOM     26  C   UNL     1      65.297  52.738  33.593  1.00  0.00     0.094 A 
ATOM     27  C   UNL     1      62.684  52.042  34.356  1.00  0.00     0.133 A 
ATOM     28  C   UNL     1      64.647  51.677  32.953  1.00  0.00     0.138 A 
ATOM     29  C   UNL     1      63.336  51.315  33.329  1.00  0.00     0.102 A 
ATOM     30  O   UNL     1      65.320  50.971  31.949  1.00  0.00    -0.484 OA
ATOM     31  C   UNL     1      62.722  50.173  32.601  1.00  0.00     0.174 C 
ATOM     32  C   UNL     1      64.662  50.057  31.069  1.00  0.00     0.211 C 
ATOM     33  O   UNL     1      61.476  49.984  32.587  1.00  0.00    -0.294 OA
ATOM     34  C   UNL     1      63.610  49.240  31.835  1.00  0.00     0.131 C 
BRANCH  27  35
ATOM     35  O   UNL     1      61.429  51.698  34.867  1.00  0.00    -0.507 OA
ATOM     36  H   UNL     1      61.173  51.794  35.839  1.00  0.00     0.293 HD
ENDBRANCH  27  35
BRANCH  32  37
ATOM     37  C   UNL     1      65.673  49.151  30.411  1.00  0.00    -0.007 A 
ATOM     38  C   UNL     1      66.921  49.662  29.990  1.00  0.00     0.011 A 
ATOM     39  C   UNL     1      65.352  47.810  30.128  1.00  0.00     0.011 A 
ATOM     40  C   UNL     1      67.832  48.847  29.311  1.00  0.00     0.046 A 
ATOM     41  C   UNL     1      66.267  46.995  29.452  1.00  0.00     0.046 A 
ATOM     42  C   UNL     1      67.507  47.509  29.050  1.00  0.00     0.115 A 
BRANCH  42  43
ATOM     43  O   UNL     1      68.409  46.685  28.374  1.00  0.00    -0.508 OA
ATOM     44  H   UNL     1      69.121  46.152  28.871  1.00  0.00     0.293 HD
ENDBRANCH  42  43
ENDBRANCH  32  37
ENDBRANCH  23  24
ENDBRANCH   6  23
BRANCH   3  45
ATOM     45  O   UNL     1      68.978  55.148  37.797  1.00  0.00    -0.387 OA
ATOM     46  H   UNL     1      68.182  55.441  38.315  1.00  0.00     0.211 HD
ENDBRANCH   3  45
BRANCH   4  47
ATOM     47  C   UNL     1      67.914  57.529  36.495  1.00  0.00     0.191 C 
BRANCH  47  48
ATOM     48  O   UNL     1      69.297  57.691  36.284  1.00  0.00    -0.394 OA
ATOM     49  H   UNL     1      69.405  58.023  35.352  1.00  0.00     0.210 HD
ENDBRANCH  47  48
ENDBRANCH   4  47
TORSDOF 14
ENDMDL
MODEL 9
REMARK VINA RESULT:    -6.058      4.663      9.491
REMARK INTER + INTRA:         -10.669
REMARK INTER:                  -8.957
REMARK INTRA:                  -1.712
REMARK UNBOUND:                -1.069
REMARK SMILES C[C@H]1O[C@@H](O[C@H]2[C@H](Oc3cc(O)c4c(c3)O[C@@H](c3ccc(O)cc3)CC4=O)O[C@@H](CO)[C@@H](O)[C@H]2O)[C@H](O)[C@@H](O)[C@H]1O
REMARK SMILES IDX 6 1 34 2 32 3 29 4 28 5 7 6 5 7 4 8 1 9 2 10 40 11 3 12
REMARK SMILES IDX 38 13 36 14 41 15 39 17 37 19 35 21 8 23 9 24 10 25 15 26
REMARK SMILES IDX 11 27 14 28 13 29 16 30 26 31 17 32 27 33 25 34 12 35 18 37
REMARK SMILES IDX 19 38 24 39 20 40 23 41 21 42 22 43 33 45 30 47 31 48
REMARK H PARENT 41 16 39 18 37 20 35 22 12 36 22 44 33 46 31 49
REMARK Flexibility Score: inf
ROOT
ATOM      1  C   UNL     1      64.046  52.383  35.866  1.00  0.00     0.221 C 
ATOM      2  C   UNL     1      62.872  52.238  34.871  1.00  0.00     0.181 C 
ATOM      3  C   UNL     1      63.423  51.828  33.484  1.00  0.00     0.177 C 
ATOM      4  C   UNL     1      64.495  52.861  33.033  1.00  0.00     0.179 C 
ATOM      5  O   UNL     1      65.540  52.969  33.993  1.00  0.00    -0.332 OA
ATOM      6  C   UNL     1      65.063  53.410  35.254  1.00  0.00     0.339 C 
ENDROOT
BRANCH   1   7
ATOM      7  O   UNL     1      64.527  51.065  36.142  1.00  0.00    -0.337 OA
BRANCH   7   8
ATOM      8  C   UNL     1      65.346  50.927  37.287  1.00  0.00     0.282 C 
ATOM      9  C   UNL     1      67.987  48.442  37.850  1.00  0.00     0.041 C 
ATOM     10  C   UNL     1      67.163  49.705  38.123  1.00  0.00     0.150 C 
ATOM     11  C   UNL     1      66.527  49.738  39.554  1.00  0.00     0.174 C 
ATOM     12  O   UNL     1      66.180  49.800  37.100  1.00  0.00    -0.344 OA
ATOM     13  C   UNL     1      64.986  49.630  39.486  1.00  0.00     0.179 C 
ATOM     14  C   UNL     1      64.417  50.694  38.516  1.00  0.00     0.202 C 
BRANCH  11  15
ATOM     15  O   UNL     1      67.086  48.793  40.442  1.00  0.00    -0.388 OA
ATOM     16  H   UNL     1      67.157  47.924  39.969  1.00  0.00     0.211 HD
ENDBRANCH  11  15
BRANCH  13  17
ATOM     17  O   UNL     1      64.616  48.339  39.040  1.00  0.00    -0.387 OA
ATOM     18  H   UNL     1      63.710  48.416  38.648  1.00  0.00     0.211 HD
ENDBRANCH  13  17
BRANCH  14  19
ATOM     19  O   UNL     1      64.162  51.909  39.192  1.00  0.00    -0.385 OA
ATOM     20  H   UNL     1      64.771  52.602  38.818  1.00  0.00     0.211 HD
ENDBRANCH  14  19
ENDBRANCH   7   8
ENDBRANCH   1   7
BRANCH   2  21
ATOM     21  O   UNL     1      61.962  51.276  35.349  1.00  0.00    -0.387 OA
ATOM     22  H   UNL     1      61.097  51.443  34.885  1.00  0.00     0.211 HD
ENDBRANCH   2  21
BRANCH   6  23
ATOM     23  O   UNL     1      64.471  54.710  35.122  1.00  0.00    -0.462 OA
BRANCH  23  24
ATOM     24  C   UNL     1      64.446  55.711  36.108  1.00  0.00     0.130 A 
ATOM     25  C   UNL     1      65.569  56.497  36.423  1.00  0.00     0.093 A 
ATOM     26  C   UNL     1      63.256  55.916  36.808  1.00  0.00     0.094 A 
ATOM     27  C   UNL     1      65.530  57.427  37.473  1.00  0.00     0.133 A 
ATOM     28  C   UNL     1      63.179  56.875  37.824  1.00  0.00     0.138 A 
ATOM     29  C   UNL     1      64.315  57.639  38.170  1.00  0.00     0.102 A 
ATOM     30  O   UNL     1      61.968  57.055  38.502  1.00  0.00    -0.484 OA
ATOM     31  C   UNL     1      64.145  58.632  39.263  1.00  0.00     0.174 C 
ATOM     32  C   UNL     1      61.717  58.171  39.359  1.00  0.00     0.211 C 
ATOM     33  O   UNL     1      64.947  59.592  39.421  1.00  0.00    -0.294 OA
ATOM     34  C   UNL     1      62.969  58.505  40.183  1.00  0.00     0.131 C 
BRANCH  27  35
ATOM     35  O   UNL     1      66.731  58.058  37.809  1.00  0.00    -0.507 OA
ATOM     36  H   UNL     1      66.792  58.865  38.414  1.00  0.00     0.293 HD
ENDBRANCH  27  35
BRANCH  32  37
ATOM     37  C   UNL     1      60.542  57.878  40.260  1.00  0.00    -0.007 A 
ATOM     38  C   UNL     1      60.369  56.589  40.810  1.00  0.00     0.011 A 
ATOM     39  C   UNL     1      59.559  58.858  40.491  1.00  0.00     0.011 A 
ATOM     40  C   UNL     1      59.243  56.289  41.583  1.00  0.00     0.046 A 
ATOM     41  C   UNL     1      58.434  58.557  41.269  1.00  0.00     0.046 A 
ATOM     42  C   UNL     1      58.279  57.278  41.819  1.00  0.00     0.115 A 
BRANCH  42  43
ATOM     43  O   UNL     1      57.150  56.992  42.590  1.00  0.00    -0.508 OA
ATOM     44  H   UNL     1      56.292  57.533  42.502  1.00  0.00     0.293 HD
ENDBRANCH  42  43
ENDBRANCH  32  37
ENDBRANCH  23  24
ENDBRANCH   6  23
BRANCH   3  45
ATOM     45  O   UNL     1      64.001  50.542  33.559  1.00  0.00    -0.387 OA
ATOM     46  H   UNL     1      63.433  50.004  34.172  1.00  0.00     0.211 HD
ENDBRANCH   3  45
BRANCH   4  47
ATOM     47  C   UNL     1      65.130  52.472  31.687  1.00  0.00     0.191 C 
BRANCH  47  48
ATOM     48  O   UNL     1      66.110  51.474  31.853  1.00  0.00    -0.394 OA
ATOM     49  H   UNL     1      65.626  50.606  31.901  1.00  0.00     0.210 HD
ENDBRANCH  47  48
ENDBRANCH   4  47
TORSDOF 14
ENDMDL
