MODEL 1
REMARK VINA RESULT:    -5.726      0.000      0.000
REMARK INTER + INTRA:          -6.341
REMARK INTER:                  -6.061
REMARK INTRA:                  -0.280
REMARK UNBOUND:                -0.280
REMARK SMILES C=C1CC[C@@H](C(C)C)[C@@H]2C=C(C)CC[C@H]12
REMARK SMILES IDX 12 1 11 2 10 3 9 4 15 5 14 6 13 7 2 8 1 9 3 10 4 11 5 12
REMARK SMILES IDX 6 13 7 14 8 15
REMARK H PARENT
REMARK Flexibility Score: inf
ROOT
ATOM      1  C   UNL     1     169.726 163.384 199.332  1.00  0.00     0.039 C 
ATOM      2  C   UNL     1     169.319 164.518 200.234  1.00  0.00    -0.077 C 
ATOM      3  C   UNL     1     169.745 165.765 199.944  1.00  0.00    -0.024 C 
ATOM      4  C   UNL     1     169.366 166.992 200.748  1.00  0.00     0.022 C 
ATOM      5  C   UNL     1     169.034 166.586 202.209  1.00  0.00     0.022 C 
ATOM      6  C   UNL     1     168.030 165.420 202.240  1.00  0.00     0.013 C 
ATOM      7  C   UNL     1     168.596 164.191 201.523  1.00  0.00     0.031 C 
ATOM      8  C   UNL     1     168.497 167.758 203.002  1.00  0.00    -0.074 C 
ATOM      9  C   UNL     1     168.840 167.927 204.289  1.00  0.00     0.008 C 
ATOM     10  C   UNL     1     167.442 168.632 202.375  1.00  0.00     0.031 C 
ATOM     11  C   UNL     1     167.865 169.041 200.964  1.00  0.00     0.009 C 
ATOM     12  C   UNL     1     168.211 167.817 200.078  1.00  0.00    -0.001 C 
ENDROOT
BRANCH  12  13
ATOM     13  C   UNL     1     168.474 168.302 198.607  1.00  0.00    -0.014 C 
ATOM     14  C   UNL     1     168.307 169.822 198.430  1.00  0.00     0.007 C 
ATOM     15  C   UNL     1     167.683 167.533 197.535  1.00  0.00     0.007 C 
ENDBRANCH  12  13
TORSDOF 1
ENDMDL
MODEL 2
REMARK VINA RESULT:    -5.720      5.137      6.768
REMARK INTER + INTRA:          -6.335
REMARK INTER:                  -6.052
REMARK INTRA:                  -0.282
REMARK UNBOUND:                -0.280
REMARK SMILES C=C1CC[C@@H](C(C)C)[C@@H]2C=C(C)CC[C@H]12
REMARK SMILES IDX 12 1 11 2 10 3 9 4 15 5 14 6 13 7 2 8 1 9 3 10 4 11 5 12
REMARK SMILES IDX 6 13 7 14 8 15
REMARK H PARENT
REMARK Flexibility Score: inf
ROOT
ATOM      1  C   UNL     1     162.266 168.615 199.344  1.00  0.00     0.039 C 
ATOM      2  C   UNL     1     162.679 167.481 200.241  1.00  0.00    -0.077 C 
ATOM      3  C   UNL     1     162.254 166.233 199.950  1.00  0.00    -0.024 C 
ATOM      4  C   UNL     1     162.639 165.004 200.749  1.00  0.00     0.022 C 
ATOM      5  C   UNL     1     162.976 165.408 202.211  1.00  0.00     0.022 C 
ATOM      6  C   UNL     1     163.978 166.576 202.240  1.00  0.00     0.013 C 
ATOM      7  C   UNL     1     163.406 167.805 201.529  1.00  0.00     0.031 C 
ATOM      8  C   UNL     1     163.519 164.234 202.998  1.00  0.00    -0.074 C 
ATOM      9  C   UNL     1     163.181 164.062 204.286  1.00  0.00     0.008 C 
ATOM     10  C   UNL     1     164.573 163.364 202.364  1.00  0.00     0.031 C 
ATOM     11  C   UNL     1     164.145 162.958 200.954  1.00  0.00     0.009 C 
ATOM     12  C   UNL     1     163.793 164.184 200.073  1.00  0.00    -0.001 C 
ENDROOT
BRANCH  12  13
ATOM     13  C   UNL     1     163.525 163.702 198.602  1.00  0.00    -0.014 C 
ATOM     14  C   UNL     1     163.686 162.182 198.421  1.00  0.00     0.007 C 
ATOM     15  C   UNL     1     164.316 164.470 197.529  1.00  0.00     0.007 C 
ENDBRANCH  12  13
TORSDOF 1
ENDMDL
MODEL 3
REMARK VINA RESULT:    -5.459      3.280      4.893
REMARK INTER + INTRA:          -6.058
REMARK INTER:                  -5.780
REMARK INTRA:                  -0.278
REMARK UNBOUND:                -0.280
REMARK SMILES C=C1CC[C@@H](C(C)C)[C@@H]2C=C(C)CC[C@H]12
REMARK SMILES IDX 12 1 11 2 10 3 9 4 15 5 14 6 13 7 2 8 1 9 3 10 4 11 5 12
REMARK SMILES IDX 6 13 7 14 8 15
REMARK H PARENT
REMARK Flexibility Score: inf
ROOT
ATOM      1  C   UNL     1     168.530 169.810 198.667  1.00  0.00     0.039 C 
ATOM      2  C   UNL     1     167.495 169.568 199.732  1.00  0.00    -0.077 C 
ATOM      3  C   UNL     1     166.211 169.897 199.478  1.00  0.00    -0.024 C 
ATOM      4  C   UNL     1     165.073 169.660 200.451  1.00  0.00     0.022 C 
ATOM      5  C   UNL     1     165.616 169.642 201.906  1.00  0.00     0.022 C 
ATOM      6  C   UNL     1     166.822 168.693 202.030  1.00  0.00     0.013 C 
ATOM      7  C   UNL     1     167.960 169.130 201.105  1.00  0.00     0.031 C 
ATOM      8  C   UNL     1     164.539 169.249 202.894  1.00  0.00    -0.074 C 
ATOM      9  C   UNL     1     164.466 169.843 204.096  1.00  0.00     0.008 C 
ATOM     10  C   UNL     1     163.659 168.069 202.573  1.00  0.00     0.031 C 
ATOM     11  C   UNL     1     163.115 168.187 201.150  1.00  0.00     0.009 C 
ATOM     12  C   UNL     1     164.244 168.374 200.104  1.00  0.00    -0.001 C 
ENDROOT
BRANCH  12  13
ATOM     13  C   UNL     1     163.625 168.321 198.661  1.00  0.00    -0.014 C 
ATOM     14  C   UNL     1     162.248 169.002 198.566  1.00  0.00     0.007 C 
ATOM     15  C   UNL     1     163.588 166.915 198.039  1.00  0.00     0.007 C 
ENDBRANCH  12  13
TORSDOF 1
ENDMDL
MODEL 4
REMARK VINA RESULT:    -5.432      3.249      5.112
REMARK INTER + INTRA:          -6.030
REMARK INTER:                  -5.753
REMARK INTRA:                  -0.276
REMARK UNBOUND:                -0.280
REMARK SMILES C=C1CC[C@@H](C(C)C)[C@@H]2C=C(C)CC[C@H]12
REMARK SMILES IDX 12 1 11 2 10 3 9 4 15 5 14 6 13 7 2 8 1 9 3 10 4 11 5 12
REMARK SMILES IDX 6 13 7 14 8 15
REMARK H PARENT
REMARK Flexibility Score: inf
ROOT
ATOM      1  C   UNL     1     163.500 162.262 198.595  1.00  0.00     0.039 C 
ATOM      2  C   UNL     1     164.533 162.468 199.668  1.00  0.00    -0.077 C 
ATOM      3  C   UNL     1     165.819 162.160 199.401  1.00  0.00    -0.024 C 
ATOM      4  C   UNL     1     166.956 162.367 200.382  1.00  0.00     0.022 C 
ATOM      5  C   UNL     1     166.414 162.323 201.837  1.00  0.00     0.022 C 
ATOM      6  C   UNL     1     165.201 163.256 201.999  1.00  0.00     0.013 C 
ATOM      7  C   UNL     1     164.066 162.847 201.057  1.00  0.00     0.031 C 
ATOM      8  C   UNL     1     167.489 162.683 202.839  1.00  0.00    -0.074 C 
ATOM      9  C   UNL     1     167.567 162.042 204.016  1.00  0.00     0.008 C 
ATOM     10  C   UNL     1     168.358 163.883 202.567  1.00  0.00     0.031 C 
ATOM     11  C   UNL     1     168.903 163.827 201.139  1.00  0.00     0.009 C 
ATOM     12  C   UNL     1     167.775 163.673 200.087  1.00  0.00    -0.001 C 
ENDROOT
BRANCH  12  13
ATOM     13  C   UNL     1     168.393 163.789 198.648  1.00  0.00    -0.014 C 
ATOM     14  C   UNL     1     169.705 163.002 198.484  1.00  0.00     0.007 C 
ATOM     15  C   UNL     1     168.550 165.232 198.140  1.00  0.00     0.007 C 
ENDBRANCH  12  13
TORSDOF 1
ENDMDL
MODEL 5
REMARK VINA RESULT:    -5.355      5.063      6.616
REMARK INTER + INTRA:          -5.948
REMARK INTER:                  -5.664
REMARK INTRA:                  -0.285
REMARK UNBOUND:                -0.280
REMARK SMILES C=C1CC[C@@H](C(C)C)[C@@H]2C=C(C)CC[C@H]12
REMARK SMILES IDX 12 1 11 2 10 3 9 4 15 5 14 6 13 7 2 8 1 9 3 10 4 11 5 12
REMARK SMILES IDX 6 13 7 14 8 15
REMARK H PARENT
REMARK Flexibility Score: inf
ROOT
ATOM      1  C   UNL     1     163.233 164.623 204.817  1.00  0.00     0.039 C 
ATOM      2  C   UNL     1     163.464 164.377 203.351  1.00  0.00    -0.077 C 
ATOM      3  C   UNL     1     162.632 164.950 202.456  1.00  0.00    -0.024 C 
ATOM      4  C   UNL     1     162.788 164.815 200.955  1.00  0.00     0.022 C 
ATOM      5  C   UNL     1     163.531 163.494 200.616  1.00  0.00     0.022 C 
ATOM      6  C   UNL     1     164.820 163.361 201.446  1.00  0.00     0.013 C 
ATOM      7  C   UNL     1     164.509 163.360 202.945  1.00  0.00     0.031 C 
ATOM      8  C   UNL     1     163.848 163.399 199.139  1.00  0.00    -0.074 C 
ATOM      9  C   UNL     1     163.753 162.226 198.495  1.00  0.00     0.008 C 
ATOM     10  C   UNL     1     164.433 164.603 198.447  1.00  0.00     0.031 C 
ATOM     11  C   UNL     1     163.616 165.852 198.778  1.00  0.00     0.009 C 
ATOM     12  C   UNL     1     163.473 166.070 200.306  1.00  0.00    -0.001 C 
ENDROOT
BRANCH  12  13
ATOM     13  C   UNL     1     162.769 167.450 200.566  1.00  0.00    -0.014 C 
ATOM     14  C   UNL     1     162.404 168.199 199.273  1.00  0.00     0.007 C 
ATOM     15  C   UNL     1     163.521 168.371 201.542  1.00  0.00     0.007 C 
ENDBRANCH  12  13
TORSDOF 1
ENDMDL
MODEL 6
REMARK VINA RESULT:    -5.254      2.089      4.149
REMARK INTER + INTRA:          -5.841
REMARK INTER:                  -5.545
REMARK INTRA:                  -0.296
REMARK UNBOUND:                -0.280
REMARK SMILES C=C1CC[C@@H](C(C)C)[C@@H]2C=C(C)CC[C@H]12
REMARK SMILES IDX 12 1 11 2 10 3 9 4 15 5 14 6 13 7 2 8 1 9 3 10 4 11 5 12
REMARK SMILES IDX 6 13 7 14 8 15
REMARK H PARENT
REMARK Flexibility Score: inf
ROOT
ATOM      1  C   UNL     1     168.860 163.019 198.089  1.00  0.00     0.039 C 
ATOM      2  C   UNL     1     168.366 162.995 199.509  1.00  0.00    -0.077 C 
ATOM      3  C   UNL     1     169.106 163.593 200.466  1.00  0.00    -0.024 C 
ATOM      4  C   UNL     1     168.692 163.675 201.922  1.00  0.00     0.022 C 
ATOM      5  C   UNL     1     167.747 162.494 202.271  1.00  0.00     0.022 C 
ATOM      6  C   UNL     1     166.603 162.385 201.248  1.00  0.00     0.013 C 
ATOM      7  C   UNL     1     167.150 162.153 199.838  1.00  0.00     0.031 C 
ATOM      8  C   UNL     1     167.185 162.629 203.671  1.00  0.00    -0.074 C 
ATOM      9  C   UNL     1     167.029 161.548 204.451  1.00  0.00     0.008 C 
ATOM     10  C   UNL     1     166.650 163.968 204.108  1.00  0.00     0.031 C 
ATOM     11  C   UNL     1     167.657 165.071 203.787  1.00  0.00     0.009 C 
ATOM     12  C   UNL     1     168.073 165.069 202.293  1.00  0.00    -0.001 C 
ENDROOT
BRANCH  12  13
ATOM     13  C   UNL     1     168.975 166.323 202.007  1.00  0.00    -0.014 C 
ATOM     14  C   UNL     1     169.361 167.097 203.280  1.00  0.00     0.007 C 
ATOM     15  C   UNL     1     168.417 167.273 200.934  1.00  0.00     0.007 C 
ENDBRANCH  12  13
TORSDOF 1
ENDMDL
MODEL 7
REMARK VINA RESULT:    -5.226      4.440      6.241
REMARK INTER + INTRA:          -5.812
REMARK INTER:                  -5.518
REMARK INTRA:                  -0.294
REMARK UNBOUND:                -0.280
REMARK SMILES C=C1CC[C@@H](C(C)C)[C@@H]2C=C(C)CC[C@H]12
REMARK SMILES IDX 12 1 11 2 10 3 9 4 15 5 14 6 13 7 2 8 1 9 3 10 4 11 5 12
REMARK SMILES IDX 6 13 7 14 8 15
REMARK H PARENT
REMARK Flexibility Score: inf
ROOT
ATOM      1  C   UNL     1     163.300 168.827 197.823  1.00  0.00     0.039 C 
ATOM      2  C   UNL     1     163.706 168.895 199.270  1.00  0.00    -0.077 C 
ATOM      3  C   UNL     1     162.918 168.308 200.195  1.00  0.00    -0.024 C 
ATOM      4  C   UNL     1     163.243 168.269 201.675  1.00  0.00     0.022 C 
ATOM      5  C   UNL     1     164.147 169.475 202.051  1.00  0.00     0.022 C 
ATOM      6  C   UNL     1     165.349 169.578 201.096  1.00  0.00     0.013 C 
ATOM      7  C   UNL     1     164.885 169.765 199.649  1.00  0.00     0.031 C 
ATOM      8  C   UNL     1     164.624 169.384 203.484  1.00  0.00    -0.074 C 
ATOM      9  C   UNL     1     164.715 170.487 204.244  1.00  0.00     0.008 C 
ATOM     10  C   UNL     1     165.153 168.067 203.988  1.00  0.00     0.031 C 
ATOM     11  C   UNL     1     164.184 166.938 203.635  1.00  0.00     0.009 C 
ATOM     12  C   UNL     1     163.861 166.896 202.119  1.00  0.00    -0.001 C 
ENDROOT
BRANCH  12  13
ATOM     13  C   UNL     1     162.998 165.620 201.811  1.00  0.00    -0.014 C 
ATOM     14  C   UNL     1     162.626 164.819 203.071  1.00  0.00     0.007 C 
ATOM     15  C   UNL     1     163.591 164.700 200.730  1.00  0.00     0.007 C 
ENDBRANCH  12  13
TORSDOF 1
ENDMDL
MODEL 8
REMARK VINA RESULT:    -5.216      0.910      4.667
REMARK INTER + INTRA:          -5.801
REMARK INTER:                  -5.505
REMARK INTRA:                  -0.295
REMARK UNBOUND:                -0.280
REMARK SMILES C=C1CC[C@@H](C(C)C)[C@@H]2C=C(C)CC[C@H]12
REMARK SMILES IDX 12 1 11 2 10 3 9 4 15 5 14 6 13 7 2 8 1 9 3 10 4 11 5 12
REMARK SMILES IDX 6 13 7 14 8 15
REMARK H PARENT
REMARK Flexibility Score: inf
ROOT
ATOM      1  C   UNL     1     168.819 167.810 204.025  1.00  0.00     0.039 C 
ATOM      2  C   UNL     1     168.572 167.787 202.542  1.00  0.00    -0.077 C 
ATOM      3  C   UNL     1     169.400 167.070 201.755  1.00  0.00    -0.024 C 
ATOM      4  C   UNL     1     169.228 166.933 200.255  1.00  0.00     0.022 C 
ATOM      5  C   UNL     1     168.468 168.166 199.694  1.00  0.00     0.022 C 
ATOM      6  C   UNL     1     167.186 168.435 200.501  1.00  0.00     0.013 C 
ATOM      7  C   UNL     1     167.512 168.707 201.972  1.00  0.00     0.031 C 
ATOM      8  C   UNL     1     168.136 167.992 198.228  1.00  0.00    -0.074 C 
ATOM      9  C   UNL     1     168.213 169.032 197.383  1.00  0.00     0.008 C 
ATOM     10  C   UNL     1     167.556 166.679 197.769  1.00  0.00     0.031 C 
ATOM     11  C   UNL     1     168.389 165.516 198.309  1.00  0.00     0.009 C 
ATOM     12  C   UNL     1     168.550 165.577 199.850  1.00  0.00    -0.001 C 
ENDROOT
BRANCH  12  13
ATOM     13  C   UNL     1     169.270 164.271 200.345  1.00  0.00    -0.014 C 
ATOM     14  C   UNL     1     169.738 163.362 199.194  1.00  0.00     0.007 C 
ATOM     15  C   UNL     1     168.479 163.469 201.392  1.00  0.00     0.007 C 
ENDBRANCH  12  13
TORSDOF 1
ENDMDL
MODEL 9
REMARK VINA RESULT:    -5.200      1.702      5.251
REMARK INTER + INTRA:          -5.784
REMARK INTER:                  -5.509
REMARK INTRA:                  -0.276
REMARK UNBOUND:                -0.280
REMARK SMILES C=C1CC[C@@H](C(C)C)[C@@H]2C=C(C)CC[C@H]12
REMARK SMILES IDX 12 1 11 2 10 3 9 4 15 5 14 6 13 7 2 8 1 9 3 10 4 11 5 12
REMARK SMILES IDX 6 13 7 14 8 15
REMARK H PARENT
REMARK Flexibility Score: inf
ROOT
ATOM      1  C   UNL     1     164.112 169.326 203.535  1.00  0.00     0.039 C 
ATOM      2  C   UNL     1     165.158 169.164 202.466  1.00  0.00    -0.077 C 
ATOM      3  C   UNL     1     166.451 169.044 202.833  1.00  0.00    -0.024 C 
ATOM      4  C   UNL     1     167.588 168.830 201.854  1.00  0.00     0.022 C 
ATOM      5  C   UNL     1     167.207 169.412 200.466  1.00  0.00     0.022 C 
ATOM      6  C   UNL     1     165.824 168.906 200.018  1.00  0.00     0.013 C 
ATOM      7  C   UNL     1     164.741 169.318 201.019  1.00  0.00     0.031 C 
ATOM      8  C   UNL     1     168.249 169.077 199.420  1.00  0.00    -0.074 C 
ATOM      9  C   UNL     1     168.587 169.975 198.481  1.00  0.00     0.008 C 
ATOM     10  C   UNL     1     168.774 167.667 199.349  1.00  0.00     0.031 C 
ATOM     11  C   UNL     1     169.184 167.184 200.740  1.00  0.00     0.009 C 
ATOM     12  C   UNL     1     168.036 167.328 201.772  1.00  0.00    -0.001 C 
ENDROOT
BRANCH  12  13
ATOM     13  C   UNL     1     168.473 166.663 203.126  1.00  0.00    -0.014 C 
ATOM     14  C   UNL     1     169.726 167.310 203.743  1.00  0.00     0.007 C 
ATOM     15  C   UNL     1     168.618 165.133 203.064  1.00  0.00     0.007 C 
ENDBRANCH  12  13
TORSDOF 1
ENDMDL
