MODEL 1
REMARK VINA RESULT:    -4.165      0.000      0.000
REMARK INTER + INTRA:          -7.765
REMARK INTER:                  -7.087
REMARK INTRA:                  -0.678
REMARK UNBOUND:                -0.678
REMARK SMILES CCCCCCCCCCCCCC(=O)[O-]
REMARK SMILES IDX 8 1 9 2 10 3 11 4 12 5 13 6 14 7 15 8 16 9 7 10 6 11 5 12
REMARK SMILES IDX 4 13 3 14 2 15 1 16
REMARK H PARENT
REMARK Flexibility Score: inf
ROOT
ATOM      1  C   UNL     1       1.841  -5.427   6.167  1.00  0.00     0.000 C 
ENDROOT
BRANCH   1   2
ATOM      2  C   UNL     1       1.097  -4.240   5.535  1.00  0.00     0.000 C 
BRANCH   2   3
ATOM      3  C   UNL     1       0.142  -3.545   6.518  1.00  0.00     0.000 C 
BRANCH   3   4
ATOM      4  C   UNL     1      -1.247  -4.201   6.486  1.00  0.00     0.000 C 
BRANCH   4   5
ATOM      5  C   UNL     1      -2.379  -3.205   6.786  1.00  0.00     0.006 C 
BRANCH   5   6
ATOM      6  C   UNL     1      -3.533  -3.301   5.780  1.00  0.00     0.053 C 
BRANCH   6   7
ATOM      7  C   UNL     1      -4.586  -2.286   6.094  1.00  0.00     0.041 C 
ATOM      8  O   UNL     1      -5.799  -2.545   5.880  1.00  0.00    -0.550 OA
ATOM      9  O   UNL     1      -4.231  -1.073   6.670  1.00  0.00    -0.550 OA
ENDBRANCH   6   7
ENDBRANCH   5   6
ENDBRANCH   4   5
ENDBRANCH   3   4
ENDBRANCH   2   3
ENDBRANCH   1   2
BRANCH   1  10
ATOM     10  C   UNL     1       2.180  -6.525   5.144  1.00  0.00     0.000 C 
BRANCH  10  11
ATOM     11  C   UNL     1       0.965  -7.402   4.799  1.00  0.00    -0.000 C 
BRANCH  11  12
ATOM     12  C   UNL     1       1.360  -8.708   4.085  1.00  0.00    -0.000 C 
BRANCH  12  13
ATOM     13  C   UNL     1       2.806  -9.138   4.389  1.00  0.00    -0.000 C 
BRANCH  13  14
ATOM     14  C   UNL     1       3.518  -9.882   3.240  1.00  0.00    -0.000 C 
BRANCH  14  15
ATOM     15  C   UNL     1       4.919  -9.349   2.892  1.00  0.00    -0.003 C 
ATOM     16  C   UNL     1       5.414  -8.290   3.876  1.00  0.00     0.004 C 
ENDBRANCH  14  15
ENDBRANCH  13  14
ENDBRANCH  12  13
ENDBRANCH  11  12
ENDBRANCH  10  11
ENDBRANCH   1  10
TORSDOF 12
ENDMDL
MODEL 2
REMARK VINA RESULT:    -4.066      3.988      5.869
REMARK INTER + INTRA:          -7.597
REMARK INTER:                  -6.306
REMARK INTRA:                  -1.290
REMARK UNBOUND:                -0.678
REMARK SMILES CCCCCCCCCCCCCC(=O)[O-]
REMARK SMILES IDX 8 1 9 2 10 3 11 4 12 5 13 6 14 7 15 8 16 9 7 10 6 11 5 12
REMARK SMILES IDX 4 13 3 14 2 15 1 16
REMARK H PARENT
REMARK Flexibility Score: inf
ROOT
ATOM      1  C   UNL     1       4.843  -9.010   3.173  1.00  0.00     0.000 C 
ENDROOT
BRANCH   1   2
ATOM      2  C   UNL     1       3.930  -9.981   3.938  1.00  0.00     0.000 C 
BRANCH   2   3
ATOM      3  C   UNL     1       2.463  -9.897   3.489  1.00  0.00     0.000 C 
BRANCH   3   4
ATOM      4  C   UNL     1       1.582  -9.321   4.608  1.00  0.00     0.000 C 
BRANCH   4   5
ATOM      5  C   UNL     1       1.269  -7.829   4.408  1.00  0.00     0.006 C 
BRANCH   5   6
ATOM      6  C   UNL     1       0.174  -7.323   5.355  1.00  0.00     0.053 C 
BRANCH   6   7
ATOM      7  C   UNL     1      -1.165  -7.834   4.926  1.00  0.00     0.041 C 
ATOM      8  O   UNL     1      -1.976  -8.282   5.778  1.00  0.00    -0.550 OA
ATOM      9  O   UNL     1      -1.538  -7.768   3.590  1.00  0.00    -0.550 OA
ENDBRANCH   6   7
ENDBRANCH   5   6
ENDBRANCH   4   5
ENDBRANCH   3   4
ENDBRANCH   2   3
ENDBRANCH   1   2
BRANCH   1  10
ATOM     10  C   UNL     1       5.828  -8.272   4.097  1.00  0.00     0.000 C 
BRANCH  10  11
ATOM     11  C   UNL     1       5.141  -7.682   5.339  1.00  0.00    -0.000 C 
BRANCH  11  12
ATOM     12  C   UNL     1       4.675  -6.231   5.126  1.00  0.00    -0.000 C 
BRANCH  12  13
ATOM     13  C   UNL     1       5.750  -5.198   5.508  1.00  0.00    -0.000 C 
BRANCH  13  14
ATOM     14  C   UNL     1       6.404  -4.470   4.316  1.00  0.00    -0.000 C 
BRANCH  14  15
ATOM     15  C   UNL     1       7.812  -4.968   3.944  1.00  0.00    -0.003 C 
ATOM     16  C   UNL     1       7.852  -5.685   2.595  1.00  0.00     0.004 C 
ENDBRANCH  14  15
ENDBRANCH  13  14
ENDBRANCH  12  13
ENDBRANCH  11  12
ENDBRANCH  10  11
ENDBRANCH   1  10
TORSDOF 12
ENDMDL
MODEL 3
REMARK VINA RESULT:    -4.052      4.662      5.924
REMARK INTER + INTRA:          -7.573
REMARK INTER:                  -6.350
REMARK INTRA:                  -1.223
REMARK UNBOUND:                -0.678
REMARK SMILES CCCCCCCCCCCCCC(=O)[O-]
REMARK SMILES IDX 8 1 9 2 10 3 11 4 12 5 13 6 14 7 15 8 16 9 7 10 6 11 5 12
REMARK SMILES IDX 4 13 3 14 2 15 1 16
REMARK H PARENT
REMARK Flexibility Score: inf
ROOT
ATOM      1  C   UNL     1       2.489  -7.192   4.771  1.00  0.00     0.000 C 
ENDROOT
BRANCH   1   2
ATOM      2  C   UNL     1       2.142  -6.979   6.252  1.00  0.00     0.000 C 
BRANCH   2   3
ATOM      3  C   UNL     1       2.545  -5.587   6.763  1.00  0.00     0.000 C 
BRANCH   3   4
ATOM      4  C   UNL     1       3.328  -4.817   5.689  1.00  0.00     0.000 C 
BRANCH   4   5
ATOM      5  C   UNL     1       3.603  -3.357   6.088  1.00  0.00     0.006 C 
BRANCH   5   6
ATOM      6  C   UNL     1       5.016  -2.897   5.709  1.00  0.00     0.053 C 
BRANCH   6   7
ATOM      7  C   UNL     1       4.954  -1.794   4.701  1.00  0.00     0.041 C 
ATOM      8  O   UNL     1       3.899  -1.595   4.044  1.00  0.00    -0.550 OA
ATOM      9  O   UNL     1       6.045  -0.953   4.524  1.00  0.00    -0.550 OA
ENDBRANCH   6   7
ENDBRANCH   5   6
ENDBRANCH   4   5
ENDBRANCH   3   4
ENDBRANCH   2   3
ENDBRANCH   1   2
BRANCH   1  10
ATOM     10  C   UNL     1       2.587  -8.681   4.394  1.00  0.00     0.000 C 
BRANCH  10  11
ATOM     11  C   UNL     1       3.903  -9.021   3.675  1.00  0.00    -0.000 C 
BRANCH  11  12
ATOM     12  C   UNL     1       5.146  -8.653   4.505  1.00  0.00    -0.000 C 
BRANCH  12  13
ATOM     13  C   UNL     1       6.054  -7.632   3.797  1.00  0.00    -0.000 C 
BRANCH  13  14
ATOM     14  C   UNL     1       6.276  -6.315   4.568  1.00  0.00    -0.000 C 
BRANCH  14  15
ATOM     15  C   UNL     1       7.241  -5.323   3.894  1.00  0.00    -0.003 C 
ATOM     16  C   UNL     1       7.756  -5.818   2.544  1.00  0.00     0.004 C 
ENDBRANCH  14  15
ENDBRANCH  13  14
ENDBRANCH  12  13
ENDBRANCH  11  12
ENDBRANCH  10  11
ENDBRANCH   1  10
TORSDOF 12
ENDMDL
MODEL 4
REMARK VINA RESULT:    -4.018      4.530      6.081
REMARK INTER + INTRA:          -7.514
REMARK INTER:                  -5.906
REMARK INTRA:                  -1.608
REMARK UNBOUND:                -0.678
REMARK SMILES CCCCCCCCCCCCCC(=O)[O-]
REMARK SMILES IDX 8 1 9 2 10 3 11 4 12 5 13 6 14 7 15 8 16 9 7 10 6 11 5 12
REMARK SMILES IDX 4 13 3 14 2 15 1 16
REMARK H PARENT
REMARK Flexibility Score: inf
ROOT
ATOM      1  C   UNL     1       2.365  -6.016   6.897  1.00  0.00     0.000 C 
ENDROOT
BRANCH   1   2
ATOM      2  C   UNL     1       1.277  -5.552   5.915  1.00  0.00     0.000 C 
BRANCH   2   3
ATOM      3  C   UNL     1       1.173  -4.022   5.822  1.00  0.00     0.000 C 
BRANCH   3   4
ATOM      4  C   UNL     1       2.382  -3.351   6.492  1.00  0.00     0.000 C 
BRANCH   4   5
ATOM      5  C   UNL     1       3.337  -2.701   5.477  1.00  0.00     0.006 C 
BRANCH   5   6
ATOM      6  C   UNL     1       4.689  -3.420   5.394  1.00  0.00     0.053 C 
BRANCH   6   7
ATOM      7  C   UNL     1       5.677  -2.588   4.640  1.00  0.00     0.041 C 
ATOM      8  O   UNL     1       5.307  -1.534   4.060  1.00  0.00    -0.550 OA
ATOM      9  O   UNL     1       7.018  -2.950   4.620  1.00  0.00    -0.550 OA
ENDBRANCH   6   7
ENDBRANCH   5   6
ENDBRANCH   4   5
ENDBRANCH   3   4
ENDBRANCH   2   3
ENDBRANCH   1   2
BRANCH   1  10
ATOM     10  C   UNL     1       3.425  -6.907   6.226  1.00  0.00     0.000 C 
BRANCH  10  11
ATOM     11  C   UNL     1       3.159  -7.112   4.726  1.00  0.00    -0.000 C 
BRANCH  11  12
ATOM     12  C   UNL     1       3.060  -8.598   4.338  1.00  0.00    -0.000 C 
BRANCH  12  13
ATOM     13  C   UNL     1       1.632  -9.018   3.948  1.00  0.00    -0.000 C 
BRANCH  13  14
ATOM     14  C   UNL     1       0.795  -9.619   5.096  1.00  0.00    -0.000 C 
BRANCH  14  15
ATOM     15  C   UNL     1      -0.450  -8.803   5.489  1.00  0.00    -0.003 C 
ATOM     16  C   UNL     1      -1.045  -8.023   4.318  1.00  0.00     0.004 C 
ENDBRANCH  14  15
ENDBRANCH  13  14
ENDBRANCH  12  13
ENDBRANCH  11  12
ENDBRANCH  10  11
ENDBRANCH   1  10
TORSDOF 12
ENDMDL
MODEL 5
REMARK VINA RESULT:    -4.008      3.576      6.484
REMARK INTER + INTRA:          -7.497
REMARK INTER:                  -6.527
REMARK INTRA:                  -0.970
REMARK UNBOUND:                -0.678
REMARK SMILES CCCCCCCCCCCCCC(=O)[O-]
REMARK SMILES IDX 8 1 9 2 10 3 11 4 12 5 13 6 14 7 15 8 16 9 7 10 6 11 5 12
REMARK SMILES IDX 4 13 3 14 2 15 1 16
REMARK H PARENT
REMARK Flexibility Score: inf
ROOT
ATOM      1  C   UNL     1       5.841  -7.912   4.368  1.00  0.00     0.000 C 
ENDROOT
BRANCH   1   2
ATOM      2  C   UNL     1       5.226  -8.796   3.271  1.00  0.00     0.000 C 
BRANCH   2   3
ATOM      3  C   UNL     1       3.891  -9.426   3.696  1.00  0.00     0.000 C 
BRANCH   3   4
ATOM      4  C   UNL     1       2.914  -8.351   4.197  1.00  0.00     0.000 C 
BRANCH   4   5
ATOM      5  C   UNL     1       1.454  -8.834   4.203  1.00  0.00     0.006 C 
BRANCH   5   6
ATOM      6  C   UNL     1       0.466  -7.722   4.577  1.00  0.00     0.053 C 
BRANCH   6   7
ATOM      7  C   UNL     1      -0.942  -8.218   4.475  1.00  0.00     0.041 C 
ATOM      8  O   UNL     1      -1.393  -9.025   5.329  1.00  0.00    -0.550 OA
ATOM      9  O   UNL     1      -1.771  -7.751   3.464  1.00  0.00    -0.550 OA
ENDBRANCH   6   7
ENDBRANCH   5   6
ENDBRANCH   4   5
ENDBRANCH   3   4
ENDBRANCH   2   3
ENDBRANCH   1   2
BRANCH   1  10
ATOM     10  C   UNL     1       6.676  -6.753   3.794  1.00  0.00     0.000 C 
BRANCH  10  11
ATOM     11  C   UNL     1       6.997  -5.681   4.848  1.00  0.00    -0.000 C 
BRANCH  11  12
ATOM     12  C   UNL     1       6.003  -4.507   4.823  1.00  0.00    -0.000 C 
BRANCH  12  13
ATOM     13  C   UNL     1       5.054  -4.504   6.035  1.00  0.00    -0.000 C 
BRANCH  13  14
ATOM     14  C   UNL     1       3.614  -4.968   5.736  1.00  0.00    -0.000 C 
BRANCH  14  15
ATOM     15  C   UNL     1       2.509  -4.118   6.388  1.00  0.00    -0.003 C 
ATOM     16  C   UNL     1       1.211  -4.109   5.581  1.00  0.00     0.004 C 
ENDBRANCH  14  15
ENDBRANCH  13  14
ENDBRANCH  12  13
ENDBRANCH  11  12
ENDBRANCH  10  11
ENDBRANCH   1  10
TORSDOF 12
ENDMDL
MODEL 6
REMARK VINA RESULT:    -3.975      4.426      5.562
REMARK INTER + INTRA:          -7.442
REMARK INTER:                  -6.315
REMARK INTRA:                  -1.127
REMARK UNBOUND:                -0.678
REMARK SMILES CCCCCCCCCCCCCC(=O)[O-]
REMARK SMILES IDX 8 1 9 2 10 3 11 4 12 5 13 6 14 7 15 8 16 9 7 10 6 11 5 12
REMARK SMILES IDX 4 13 3 14 2 15 1 16
REMARK H PARENT
REMARK Flexibility Score: inf
ROOT
ATOM      1  C   UNL     1       2.280  -6.332   5.498  1.00  0.00     0.000 C 
ENDROOT
BRANCH   1   2
ATOM      2  C   UNL     1       1.065  -5.392   5.535  1.00  0.00     0.000 C 
BRANCH   2   3
ATOM      3  C   UNL     1       1.444  -3.942   5.876  1.00  0.00     0.000 C 
BRANCH   3   4
ATOM      4  C   UNL     1       2.970  -3.762   5.872  1.00  0.00     0.000 C 
BRANCH   4   5
ATOM      5  C   UNL     1       3.418  -2.483   6.598  1.00  0.00     0.006 C 
BRANCH   5   6
ATOM      6  C   UNL     1       4.909  -2.182   6.399  1.00  0.00     0.053 C 
BRANCH   6   7
ATOM      7  C   UNL     1       5.099  -1.191   5.295  1.00  0.00     0.041 C 
ATOM      8  O   UNL     1       5.141   0.041   5.550  1.00  0.00    -0.550 OA
ATOM      9  O   UNL     1       5.281  -1.631   3.991  1.00  0.00    -0.550 OA
ENDBRANCH   6   7
ENDBRANCH   5   6
ENDBRANCH   4   5
ENDBRANCH   3   4
ENDBRANCH   2   3
ENDBRANCH   1   2
BRANCH   1  10
ATOM     10  C   UNL     1       2.007  -7.621   4.704  1.00  0.00     0.000 C 
BRANCH  10  11
ATOM     11  C   UNL     1       3.142  -8.648   4.841  1.00  0.00    -0.000 C 
BRANCH  11  12
ATOM     12  C   UNL     1       3.565  -9.248   3.488  1.00  0.00    -0.000 C 
BRANCH  12  13
ATOM     13  C   UNL     1       5.078  -9.126   3.230  1.00  0.00    -0.000 C 
BRANCH  13  14
ATOM     14  C   UNL     1       5.870  -8.401   4.338  1.00  0.00    -0.000 C 
BRANCH  14  15
ATOM     15  C   UNL     1       6.422  -7.019   3.944  1.00  0.00    -0.003 C 
ATOM     16  C   UNL     1       5.913  -5.897   4.847  1.00  0.00     0.004 C 
ENDBRANCH  14  15
ENDBRANCH  13  14
ENDBRANCH  12  13
ENDBRANCH  11  12
ENDBRANCH  10  11
ENDBRANCH   1  10
TORSDOF 12
ENDMDL
MODEL 7
REMARK VINA RESULT:    -3.975      2.847      6.387
REMARK INTER + INTRA:          -7.441
REMARK INTER:                  -6.303
REMARK INTRA:                  -1.138
REMARK UNBOUND:                -0.678
REMARK SMILES CCCCCCCCCCCCCC(=O)[O-]
REMARK SMILES IDX 8 1 9 2 10 3 11 4 12 5 13 6 14 7 15 8 16 9 7 10 6 11 5 12
REMARK SMILES IDX 4 13 3 14 2 15 1 16
REMARK H PARENT
REMARK Flexibility Score: inf
ROOT
ATOM      1  C   UNL     1       4.814  -5.734   5.314  1.00  0.00     0.000 C 
ENDROOT
BRANCH   1   2
ATOM      2  C   UNL     1       4.554  -7.179   4.862  1.00  0.00     0.000 C 
BRANCH   2   3
ATOM      3  C   UNL     1       3.114  -7.639   5.138  1.00  0.00     0.000 C 
BRANCH   3   4
ATOM      4  C   UNL     1       2.614  -8.570   4.022  1.00  0.00     0.000 C 
BRANCH   4   5
ATOM      5  C   UNL     1       1.093  -8.789   4.069  1.00  0.00     0.006 C 
BRANCH   5   6
ATOM      6  C   UNL     1       0.352  -7.640   4.764  1.00  0.00     0.053 C 
BRANCH   6   7
ATOM      7  C   UNL     1      -1.127  -7.813   4.625  1.00  0.00     0.041 C 
ATOM      8  O   UNL     1      -1.656  -7.850   3.483  1.00  0.00    -0.550 OA
ATOM      9  O   UNL     1      -1.915  -7.984   5.755  1.00  0.00    -0.550 OA
ENDBRANCH   6   7
ENDBRANCH   5   6
ENDBRANCH   4   5
ENDBRANCH   3   4
ENDBRANCH   2   3
ENDBRANCH   1   2
BRANCH   1  10
ATOM     10  C   UNL     1       3.686  -5.181   6.204  1.00  0.00     0.000 C 
BRANCH  10  11
ATOM     11  C   UNL     1       3.319  -3.729   5.854  1.00  0.00    -0.000 C 
BRANCH  11  12
ATOM     12  C   UNL     1       1.971  -3.296   6.459  1.00  0.00    -0.000 C 
BRANCH  12  13
ATOM     13  C   UNL     1       0.773  -4.023   5.823  1.00  0.00    -0.000 C 
BRANCH  13  14
ATOM     14  C   UNL     1      -0.191  -4.688   6.826  1.00  0.00    -0.000 C 
BRANCH  14  15
ATOM     15  C   UNL     1      -1.687  -4.487   6.521  1.00  0.00    -0.003 C 
ATOM     16  C   UNL     1      -2.126  -3.029   6.637  1.00  0.00     0.004 C 
ENDBRANCH  14  15
ENDBRANCH  13  14
ENDBRANCH  12  13
ENDBRANCH  11  12
ENDBRANCH  10  11
ENDBRANCH   1  10
TORSDOF 12
ENDMDL
MODEL 8
REMARK VINA RESULT:    -3.974      4.648      6.779
REMARK INTER + INTRA:          -7.439
REMARK INTER:                  -6.335
REMARK INTRA:                  -1.104
REMARK UNBOUND:                -0.678
REMARK SMILES CCCCCCCCCCCCCC(=O)[O-]
REMARK SMILES IDX 8 1 9 2 10 3 11 4 12 5 13 6 14 7 15 8 16 9 7 10 6 11 5 12
REMARK SMILES IDX 4 13 3 14 2 15 1 16
REMARK H PARENT
REMARK Flexibility Score: inf
ROOT
ATOM      1  C   UNL     1       6.372  -7.371   4.500  1.00  0.00     0.000 C 
ENDROOT
BRANCH   1   2
ATOM      2  C   UNL     1       7.138  -6.365   3.626  1.00  0.00     0.000 C 
BRANCH   2   3
ATOM      3  C   UNL     1       6.810  -4.905   3.973  1.00  0.00     0.000 C 
BRANCH   3   4
ATOM      4  C   UNL     1       6.211  -4.800   5.384  1.00  0.00     0.000 C 
BRANCH   4   5
ATOM      5  C   UNL     1       4.826  -4.131   5.392  1.00  0.00     0.006 C 
BRANCH   5   6
ATOM      6  C   UNL     1       4.873  -2.683   5.895  1.00  0.00     0.053 C 
BRANCH   6   7
ATOM      7  C   UNL     1       4.882  -1.730   4.742  1.00  0.00     0.041 C 
ATOM      8  O   UNL     1       5.940  -1.123   4.430  1.00  0.00    -0.550 OA
ATOM      9  O   UNL     1       3.735  -1.550   3.981  1.00  0.00    -0.550 OA
ENDBRANCH   6   7
ENDBRANCH   5   6
ENDBRANCH   4   5
ENDBRANCH   3   4
ENDBRANCH   2   3
ENDBRANCH   1   2
BRANCH   1  10
ATOM     10  C   UNL     1       5.655  -8.449   3.670  1.00  0.00     0.000 C 
BRANCH  10  11
ATOM     11  C   UNL     1       4.136  -8.462   3.908  1.00  0.00    -0.000 C 
BRANCH  11  12
ATOM     12  C   UNL     1       3.711  -7.561   5.081  1.00  0.00    -0.000 C 
BRANCH  12  13
ATOM     13  C   UNL     1       2.239  -7.121   4.991  1.00  0.00    -0.000 C 
BRANCH  13  14
ATOM     14  C   UNL     1       1.295  -8.143   4.325  1.00  0.00    -0.000 C 
BRANCH  14  15
ATOM     15  C   UNL     1      -0.197  -7.964   4.661  1.00  0.00    -0.003 C 
ATOM     16  C   UNL     1      -0.538  -8.379   6.091  1.00  0.00     0.004 C 
ENDBRANCH  14  15
ENDBRANCH  13  14
ENDBRANCH  12  13
ENDBRANCH  11  12
ENDBRANCH  10  11
ENDBRANCH   1  10
TORSDOF 12
ENDMDL
MODEL 9
REMARK VINA RESULT:    -3.966      2.009      2.922
REMARK INTER + INTRA:          -7.427
REMARK INTER:                  -6.660
REMARK INTRA:                  -0.766
REMARK UNBOUND:                -0.678
REMARK SMILES CCCCCCCCCCCCCC(=O)[O-]
REMARK SMILES IDX 8 1 9 2 10 3 11 4 12 5 13 6 14 7 15 8 16 9 7 10 6 11 5 12
REMARK SMILES IDX 4 13 3 14 2 15 1 16
REMARK H PARENT
REMARK Flexibility Score: inf
ROOT
ATOM      1  C   UNL     1       0.924  -6.597   5.172  1.00  0.00     0.000 C 
ENDROOT
BRANCH   1   2
ATOM      2  C   UNL     1       1.659  -5.433   5.856  1.00  0.00     0.000 C 
BRANCH   2   3
ATOM      3  C   UNL     1       0.899  -4.103   5.744  1.00  0.00     0.000 C 
BRANCH   3   4
ATOM      4  C   UNL     1       0.682  -3.480   7.132  1.00  0.00     0.000 C 
BRANCH   4   5
ATOM      5  C   UNL     1      -0.780  -3.565   7.599  1.00  0.00     0.006 C 
BRANCH   5   6
ATOM      6  C   UNL     1      -1.779  -3.311   6.464  1.00  0.00     0.053 C 
BRANCH   6   7
ATOM      7  C   UNL     1      -2.743  -4.450   6.351  1.00  0.00     0.041 C 
ATOM      8  O   UNL     1      -2.325  -5.612   6.108  1.00  0.00    -0.550 OA
ATOM      9  O   UNL     1      -4.098  -4.236   6.565  1.00  0.00    -0.550 OA
ENDBRANCH   6   7
ENDBRANCH   5   6
ENDBRANCH   4   5
ENDBRANCH   3   4
ENDBRANCH   2   3
ENDBRANCH   1   2
BRANCH   1  10
ATOM     10  C   UNL     1       1.884  -7.695   4.680  1.00  0.00     0.000 C 
BRANCH  10  11
ATOM     11  C   UNL     1       3.355  -7.252   4.721  1.00  0.00    -0.000 C 
BRANCH  11  12
ATOM     12  C   UNL     1       4.323  -8.365   4.281  1.00  0.00    -0.000 C 
BRANCH  12  13
ATOM     13  C   UNL     1       5.712  -7.827   3.892  1.00  0.00    -0.000 C 
BRANCH  13  14
ATOM     14  C   UNL     1       6.236  -6.679   4.779  1.00  0.00    -0.000 C 
BRANCH  14  15
ATOM     15  C   UNL     1       6.770  -5.456   4.011  1.00  0.00    -0.003 C 
ATOM     16  C   UNL     1       7.689  -5.837   2.852  1.00  0.00     0.004 C 
ENDBRANCH  14  15
ENDBRANCH  13  14
ENDBRANCH  12  13
ENDBRANCH  11  12
ENDBRANCH  10  11
ENDBRANCH   1  10
TORSDOF 12
ENDMDL
