MODEL 1
REMARK VINA RESULT:    -4.102      0.000      0.000
REMARK INTER + INTRA:          -6.445
REMARK INTER:                  -5.900
REMARK INTRA:                  -0.545
REMARK UNBOUND:                -0.545
REMARK SMILES O=C(CO)[C@H](O)[C@@H](O)[C@H](O)CO
REMARK SMILES IDX 7 1 9 2 11 3 12 4 10 6 5 8 2 9 1 10 3 11 4 12 6 14 8 16
REMARK H PARENT 12 5 10 7 4 13 6 15 8 17
REMARK Flexibility Score: inf
ROOT
ATOM      1  C   UNL     1     -42.119  22.870   6.884  1.00  0.00     0.181 C 
ENDROOT
BRANCH   1   2
ATOM      2  C   UNL     1     -42.125  22.692   8.430  1.00  0.00     0.171 C 
BRANCH   2   3
ATOM      3  C   UNL     1     -41.590  21.319   8.877  1.00  0.00     0.190 C 
BRANCH   3   4
ATOM      4  O   UNL     1     -40.195  21.372   8.995  1.00  0.00    -0.394 OA
ATOM      5  H   UNL     1     -39.833  21.118   8.107  1.00  0.00     0.210 HD
ENDBRANCH   3   4
ENDBRANCH   2   3
BRANCH   2   6
ATOM      6  O   UNL     1     -41.376  23.719   9.035  1.00  0.00    -0.388 OA
ATOM      7  H   UNL     1     -41.163  24.387   8.333  1.00  0.00     0.211 HD
ENDBRANCH   2   6
ENDBRANCH   1   2
BRANCH   1   8
ATOM      8  C   UNL     1     -41.538  24.233   6.418  1.00  0.00     0.214 C 
BRANCH   8   9
ATOM      9  C   UNL     1     -40.062  24.128   6.080  1.00  0.00     0.189 C 
ATOM     10  O   UNL     1     -39.718  23.750   4.970  1.00  0.00    -0.294 OA
BRANCH   9  11
ATOM     11  C   UNL     1     -39.003  24.480   7.090  1.00  0.00     0.234 C 
BRANCH  11  12
ATOM     12  O   UNL     1     -38.734  23.376   7.911  1.00  0.00    -0.388 OA
ATOM     13  H   UNL     1     -37.746  23.282   7.942  1.00  0.00     0.211 HD
ENDBRANCH  11  12
ENDBRANCH   9  11
ENDBRANCH   8   9
BRANCH   8  14
ATOM     14  O   UNL     1     -41.763  25.253   7.362  1.00  0.00    -0.382 OA
ATOM     15  H   UNL     1     -42.160  26.031   6.891  1.00  0.00     0.211 HD
ENDBRANCH   8  14
ENDBRANCH   1   8
BRANCH   1  16
ATOM     16  O   UNL     1     -41.445  21.797   6.268  1.00  0.00    -0.387 OA
ATOM     17  H   UNL     1     -40.493  22.054   6.164  1.00  0.00     0.211 HD
ENDBRANCH   1  16
TORSDOF 10
ENDMDL
MODEL 2
REMARK VINA RESULT:    -3.847      1.180      2.632
REMARK INTER + INTRA:          -6.078
REMARK INTER:                  -5.611
REMARK INTRA:                  -0.467
REMARK UNBOUND:                -0.545
REMARK SMILES O=C(CO)[C@H](O)[C@@H](O)[C@H](O)CO
REMARK SMILES IDX 7 1 9 2 11 3 12 4 10 6 5 8 2 9 1 10 3 11 4 12 6 14 8 16
REMARK H PARENT 12 5 10 7 4 13 6 15 8 17
REMARK Flexibility Score: inf
ROOT
ATOM      1  C   UNL     1     -41.277  23.363   8.501  1.00  0.00     0.181 C 
ENDROOT
BRANCH   1   2
ATOM      2  C   UNL     1     -39.896  22.743   8.138  1.00  0.00     0.171 C 
BRANCH   2   3
ATOM      3  C   UNL     1     -38.733  23.741   8.292  1.00  0.00     0.190 C 
BRANCH   3   4
ATOM      4  O   UNL     1     -37.991  23.787   7.104  1.00  0.00    -0.394 OA
ATOM      5  H   UNL     1     -37.974  24.740   6.827  1.00  0.00     0.210 HD
ENDBRANCH   3   4
ENDBRANCH   2   3
BRANCH   2   6
ATOM      6  O   UNL     1     -39.658  21.603   8.928  1.00  0.00    -0.388 OA
ATOM      7  H   UNL     1     -38.714  21.331   8.782  1.00  0.00     0.211 HD
ENDBRANCH   2   6
ENDBRANCH   1   2
BRANCH   1   8
ATOM      8  C   UNL     1     -41.965  24.085   7.309  1.00  0.00     0.214 C 
BRANCH   8   9
ATOM      9  C   UNL     1     -41.554  23.484   5.977  1.00  0.00     0.189 C 
ATOM     10  O   UNL     1     -41.893  22.345   5.693  1.00  0.00    -0.294 OA
BRANCH   9  11
ATOM     11  C   UNL     1     -40.732  24.267   4.989  1.00  0.00     0.234 C 
BRANCH  11  12
ATOM     12  O   UNL     1     -39.585  23.542   4.636  1.00  0.00    -0.388 OA
ATOM     13  H   UNL     1     -39.035  24.144   4.070  1.00  0.00     0.211 HD
ENDBRANCH  11  12
ENDBRANCH   9  11
ENDBRANCH   8   9
BRANCH   8  14
ATOM     14  O   UNL     1     -41.729  25.473   7.326  1.00  0.00    -0.382 OA
ATOM     15  H   UNL     1     -42.606  25.937   7.308  1.00  0.00     0.211 HD
ENDBRANCH   8  14
ENDBRANCH   1   8
BRANCH   1  16
ATOM     16  O   UNL     1     -42.125  22.384   9.055  1.00  0.00    -0.387 OA
ATOM     17  H   UNL     1     -42.259  21.674   8.375  1.00  0.00     0.211 HD
ENDBRANCH   1  16
TORSDOF 10
ENDMDL
MODEL 3
REMARK VINA RESULT:    -3.619      1.433      2.445
REMARK INTER + INTRA:          -5.751
REMARK INTER:                  -5.487
REMARK INTRA:                  -0.264
REMARK UNBOUND:                -0.545
REMARK SMILES O=C(CO)[C@H](O)[C@@H](O)[C@H](O)CO
REMARK SMILES IDX 7 1 9 2 11 3 12 4 10 6 5 8 2 9 1 10 3 11 4 12 6 14 8 16
REMARK H PARENT 12 5 10 7 4 13 6 15 8 17
REMARK Flexibility Score: inf
ROOT
ATOM      1  C   UNL     1     -40.168  23.787   7.678  1.00  0.00     0.181 C 
ENDROOT
BRANCH   1   2
ATOM      2  C   UNL     1     -40.646  22.938   8.893  1.00  0.00     0.171 C 
BRANCH   2   3
ATOM      3  C   UNL     1     -42.080  22.405   8.724  1.00  0.00     0.190 C 
BRANCH   3   4
ATOM      4  O   UNL     1     -42.125  21.500   7.655  1.00  0.00    -0.394 OA
ATOM      5  H   UNL     1     -43.084  21.284   7.516  1.00  0.00     0.210 HD
ENDBRANCH   3   4
ENDBRANCH   2   3
BRANCH   2   6
ATOM      6  O   UNL     1     -39.759  21.867   9.110  1.00  0.00    -0.388 OA
ATOM      7  H   UNL     1     -39.360  21.627   8.233  1.00  0.00     0.211 HD
ENDBRANCH   2   6
ENDBRANCH   1   2
BRANCH   1   8
ATOM      8  C   UNL     1     -41.260  24.742   7.122  1.00  0.00     0.214 C 
BRANCH   8   9
ATOM      9  C   UNL     1     -41.271  24.759   5.605  1.00  0.00     0.189 C 
ATOM     10  O   UNL     1     -41.933  25.596   5.010  1.00  0.00    -0.294 OA
BRANCH   9  11
ATOM     11  C   UNL     1     -40.477  23.759   4.807  1.00  0.00     0.234 C 
BRANCH  11  12
ATOM     12  O   UNL     1     -40.995  22.470   4.999  1.00  0.00    -0.388 OA
ATOM     13  H   UNL     1     -41.937  22.586   5.290  1.00  0.00     0.211 HD
ENDBRANCH  11  12
ENDBRANCH   9  11
ENDBRANCH   8   9
BRANCH   8  14
ATOM     14  O   UNL     1     -41.131  26.047   7.636  1.00  0.00    -0.382 OA
ATOM     15  H   UNL     1     -42.032  26.365   7.903  1.00  0.00     0.211 HD
ENDBRANCH   8  14
ENDBRANCH   1   8
BRANCH   1  16
ATOM     16  O   UNL     1     -38.996  24.495   8.004  1.00  0.00    -0.387 OA
ATOM     17  H   UNL     1     -39.225  25.459   8.057  1.00  0.00     0.211 HD
ENDBRANCH   1  16
TORSDOF 10
ENDMDL
MODEL 4
REMARK VINA RESULT:    -3.512      1.372      3.242
REMARK INTER + INTRA:          -5.596
REMARK INTER:                  -4.966
REMARK INTRA:                  -0.630
REMARK UNBOUND:                -0.545
REMARK SMILES O=C(CO)[C@H](O)[C@@H](O)[C@H](O)CO
REMARK SMILES IDX 7 1 9 2 11 3 12 4 10 6 5 8 2 9 1 10 3 11 4 12 6 14 8 16
REMARK H PARENT 12 5 10 7 4 13 6 15 8 17
REMARK Flexibility Score: inf
ROOT
ATOM      1  C   UNL     1     -40.114  24.598   6.230  1.00  0.00     0.181 C 
ENDROOT
BRANCH   1   2
ATOM      2  C   UNL     1     -41.224  24.352   5.167  1.00  0.00     0.171 C 
BRANCH   2   3
ATOM      3  C   UNL     1     -41.994  23.038   5.397  1.00  0.00     0.190 C 
BRANCH   3   4
ATOM      4  O   UNL     1     -41.115  21.952   5.290  1.00  0.00    -0.394 OA
ATOM      5  H   UNL     1     -41.193  21.449   6.142  1.00  0.00     0.210 HD
ENDBRANCH   3   4
ENDBRANCH   2   3
BRANCH   2   6
ATOM      6  O   UNL     1     -42.121  25.436   5.147  1.00  0.00    -0.388 OA
ATOM      7  H   UNL     1     -42.922  25.171   5.672  1.00  0.00     0.211 HD
ENDBRANCH   2   6
ENDBRANCH   1   2
BRANCH   1   8
ATOM      8  C   UNL     1     -40.638  24.565   7.692  1.00  0.00     0.214 C 
BRANCH   8   9
ATOM      9  C   UNL     1     -40.142  23.340   8.438  1.00  0.00     0.189 C 
ATOM     10  O   UNL     1     -38.954  23.227   8.700  1.00  0.00    -0.294 OA
BRANCH   9  11
ATOM     11  C   UNL     1     -41.089  22.251   8.867  1.00  0.00     0.234 C 
BRANCH  11  12
ATOM     12  O   UNL     1     -40.871  21.095   8.104  1.00  0.00    -0.388 OA
ATOM     13  H   UNL     1     -40.454  21.394   7.254  1.00  0.00     0.211 HD
ENDBRANCH  11  12
ENDBRANCH   9  11
ENDBRANCH   8   9
BRANCH   8  14
ATOM     14  O   UNL     1     -42.042  24.654   7.752  1.00  0.00    -0.382 OA
ATOM     15  H   UNL     1     -42.280  25.415   8.342  1.00  0.00     0.211 HD
ENDBRANCH   8  14
ENDBRANCH   1   8
BRANCH   1  16
ATOM     16  O   UNL     1     -39.054  23.688   6.053  1.00  0.00    -0.387 OA
ATOM     17  H   UNL     1     -38.271  24.192   5.711  1.00  0.00     0.211 HD
ENDBRANCH   1  16
TORSDOF 10
ENDMDL
MODEL 5
REMARK VINA RESULT:    -3.356      1.329      2.382
REMARK INTER + INTRA:          -5.372
REMARK INTER:                  -4.672
REMARK INTRA:                  -0.700
REMARK UNBOUND:                -0.545
REMARK SMILES O=C(CO)[C@H](O)[C@@H](O)[C@H](O)CO
REMARK SMILES IDX 7 1 9 2 11 3 12 4 10 6 5 8 2 9 1 10 3 11 4 12 6 14 8 16
REMARK H PARENT 12 5 10 7 4 13 6 15 8 17
REMARK Flexibility Score: inf
ROOT
ATOM      1  C   UNL     1     -40.911  24.487   6.729  1.00  0.00     0.181 C 
ENDROOT
BRANCH   1   2
ATOM      2  C   UNL     1     -42.089  23.669   7.335  1.00  0.00     0.171 C 
BRANCH   2   3
ATOM      3  C   UNL     1     -42.125  22.212   6.837  1.00  0.00     0.190 C 
BRANCH   3   4
ATOM      4  O   UNL     1     -41.929  21.340   7.916  1.00  0.00    -0.394 OA
ATOM      5  H   UNL     1     -40.964  21.110   7.913  1.00  0.00     0.210 HD
ENDBRANCH   3   4
ENDBRANCH   2   3
BRANCH   2   6
ATOM      6  O   UNL     1     -42.019  23.693   8.740  1.00  0.00    -0.388 OA
ATOM      7  H   UNL     1     -42.026  22.752   9.056  1.00  0.00     0.211 HD
ENDBRANCH   2   6
ENDBRANCH   1   2
BRANCH   1   8
ATOM      8  C   UNL     1     -39.636  23.638   6.468  1.00  0.00     0.214 C 
BRANCH   8   9
ATOM      9  C   UNL     1     -38.559  23.912   7.502  1.00  0.00     0.189 C 
ATOM     10  O   UNL     1     -37.669  24.713   7.256  1.00  0.00    -0.294 OA
BRANCH   9  11
ATOM     11  C   UNL     1     -38.562  23.213   8.835  1.00  0.00     0.234 C 
BRANCH  11  12
ATOM     12  O   UNL     1     -39.417  22.103   8.796  1.00  0.00    -0.388 OA
ATOM     13  H   UNL     1     -38.847  21.303   8.942  1.00  0.00     0.211 HD
ENDBRANCH  11  12
ENDBRANCH   9  11
ENDBRANCH   8   9
BRANCH   8  14
ATOM     14  O   UNL     1     -39.137  23.822   5.165  1.00  0.00    -0.382 OA
ATOM     15  H   UNL     1     -39.717  24.479   4.700  1.00  0.00     0.211 HD
ENDBRANCH   8  14
ENDBRANCH   1   8
BRANCH   1  16
ATOM     16  O   UNL     1     -41.325  25.149   5.557  1.00  0.00    -0.387 OA
ATOM     17  H   UNL     1     -41.960  24.556   5.078  1.00  0.00     0.211 HD
ENDBRANCH   1  16
TORSDOF 10
ENDMDL
MODEL 6
REMARK VINA RESULT:    -3.294      1.344      2.639
REMARK INTER + INTRA:          -5.283
REMARK INTER:                  -5.363
REMARK INTRA:                   0.081
REMARK UNBOUND:                -0.545
REMARK SMILES O=C(CO)[C@H](O)[C@@H](O)[C@H](O)CO
REMARK SMILES IDX 7 1 9 2 11 3 12 4 10 6 5 8 2 9 1 10 3 11 4 12 6 14 8 16
REMARK H PARENT 12 5 10 7 4 13 6 15 8 17
REMARK Flexibility Score: inf
ROOT
ATOM      1  C   UNL     1     -41.552  22.715   6.445  1.00  0.00     0.181 C 
ENDROOT
BRANCH   1   2
ATOM      2  C   UNL     1     -41.718  22.528   7.982  1.00  0.00     0.171 C 
BRANCH   2   3
ATOM      3  C   UNL     1     -40.452  21.969   8.657  1.00  0.00     0.190 C 
BRANCH   3   4
ATOM      4  O   UNL     1     -39.587  23.023   8.983  1.00  0.00    -0.394 OA
ATOM      5  H   UNL     1     -39.442  22.967   9.963  1.00  0.00     0.210 HD
ENDBRANCH   3   4
ENDBRANCH   2   3
BRANCH   2   6
ATOM      6  O   UNL     1     -42.081  23.749   8.579  1.00  0.00    -0.388 OA
ATOM      7  H   UNL     1     -42.751  24.184   7.988  1.00  0.00     0.211 HD
ENDBRANCH   2   6
ENDBRANCH   1   2
BRANCH   1   8
ATOM      8  C   UNL     1     -40.592  23.874   6.062  1.00  0.00     0.214 C 
BRANCH   8   9
ATOM      9  C   UNL     1     -41.270  25.227   6.180  1.00  0.00     0.189 C 
ATOM     10  O   UNL     1     -41.126  25.893   7.194  1.00  0.00    -0.294 OA
BRANCH   9  11
ATOM     11  C   UNL     1     -42.123  25.772   5.066  1.00  0.00     0.234 C 
BRANCH  11  12
ATOM     12  O   UNL     1     -42.125  27.173   5.102  1.00  0.00    -0.388 OA
ATOM     13  H   UNL     1     -41.484  27.437   5.813  1.00  0.00     0.211 HD
ENDBRANCH  11  12
ENDBRANCH   9  11
ENDBRANCH   8   9
BRANCH   8  14
ATOM     14  O   UNL     1     -40.041  23.700   4.777  1.00  0.00    -0.382 OA
ATOM     15  H   UNL     1     -39.834  22.738   4.656  1.00  0.00     0.211 HD
ENDBRANCH   8  14
ENDBRANCH   1   8
BRANCH   1  16
ATOM     16  O   UNL     1     -41.151  21.506   5.844  1.00  0.00    -0.387 OA
ATOM     17  H   UNL     1     -40.681  21.726   4.998  1.00  0.00     0.211 HD
ENDBRANCH   1  16
TORSDOF 10
ENDMDL
MODEL 7
REMARK VINA RESULT:    -3.067      1.153      3.214
REMARK INTER + INTRA:          -4.956
REMARK INTER:                  -5.273
REMARK INTRA:                   0.317
REMARK UNBOUND:                -0.545
REMARK SMILES O=C(CO)[C@H](O)[C@@H](O)[C@H](O)CO
REMARK SMILES IDX 7 1 9 2 11 3 12 4 10 6 5 8 2 9 1 10 3 11 4 12 6 14 8 16
REMARK H PARENT 12 5 10 7 4 13 6 15 8 17
REMARK Flexibility Score: inf
ROOT
ATOM      1  C   UNL     1     -42.049  24.094   7.298  1.00  0.00     0.181 C 
ENDROOT
BRANCH   1   2
ATOM      2  C   UNL     1     -41.725  23.431   5.927  1.00  0.00     0.171 C 
BRANCH   2   3
ATOM      3  C   UNL     1     -40.794  24.291   5.052  1.00  0.00     0.190 C 
BRANCH   3   4
ATOM      4  O   UNL     1     -39.666  23.544   4.688  1.00  0.00    -0.394 OA
ATOM      5  H   UNL     1     -38.884  24.020   5.071  1.00  0.00     0.210 HD
ENDBRANCH   3   4
ENDBRANCH   2   3
BRANCH   2   6
ATOM      6  O   UNL     1     -41.156  22.161   6.129  1.00  0.00    -0.388 OA
ATOM      7  H   UNL     1     -40.216  22.297   6.420  1.00  0.00     0.211 HD
ENDBRANCH   2   6
ENDBRANCH   1   2
BRANCH   1   8
ATOM      8  C   UNL     1     -41.475  23.315   8.513  1.00  0.00     0.214 C 
BRANCH   8   9
ATOM      9  C   UNL     1     -39.967  23.168   8.423  1.00  0.00     0.189 C 
ATOM     10  O   UNL     1     -39.443  22.096   8.685  1.00  0.00    -0.294 OA
BRANCH   9  11
ATOM     11  C   UNL     1     -39.093  24.324   8.015  1.00  0.00     0.234 C 
BRANCH  11  12
ATOM     12  O   UNL     1     -38.023  23.867   7.234  1.00  0.00    -0.388 OA
ATOM     13  H   UNL     1     -37.224  24.381   7.524  1.00  0.00     0.211 HD
ENDBRANCH  11  12
ENDBRANCH   9  11
ENDBRANCH   8   9
BRANCH   8  14
ATOM     14  O   UNL     1     -42.091  22.060   8.676  1.00  0.00    -0.382 OA
ATOM     15  H   UNL     1     -42.584  22.065   9.537  1.00  0.00     0.211 HD
ENDBRANCH   8  14
ENDBRANCH   1   8
BRANCH   1  16
ATOM     16  O   UNL     1     -41.621  25.435   7.309  1.00  0.00    -0.387 OA
ATOM     17  H   UNL     1     -40.736  25.478   6.864  1.00  0.00     0.211 HD
ENDBRANCH   1  16
TORSDOF 10
ENDMDL
