MODEL 1
REMARK VINA RESULT:    -3.433      0.000      0.000
REMARK INTER + INTRA:          -7.664
REMARK INTER:                  -5.841
REMARK INTRA:                  -1.823
REMARK UNBOUND:                -1.823
REMARK SMILES CCCCCCCCCCCCCC(=O)[O-]
REMARK SMILES IDX 8 1 9 2 10 3 11 4 12 5 13 6 14 7 15 8 16 9 7 10 6 11 5 12
REMARK SMILES IDX 4 13 3 14 2 15 1 16
REMARK H PARENT
REMARK Flexibility Score: inf
ROOT
ATOM      1  C   UNL     1      -8.137  30.619  45.417  1.00  0.00     0.000 C 
ENDROOT
BRANCH   1   2
ATOM      2  C   UNL     1      -8.572  31.988  44.879  1.00  0.00     0.000 C 
BRANCH   2   3
ATOM      3  C   UNL     1      -8.204  33.109  45.862  1.00  0.00     0.000 C 
BRANCH   3   4
ATOM      4  C   UNL     1      -6.963  33.904  45.426  1.00  0.00     0.000 C 
BRANCH   4   5
ATOM      5  C   UNL     1      -6.003  34.240  46.588  1.00  0.00     0.006 C 
BRANCH   5   6
ATOM      6  C   UNL     1      -6.630  33.951  47.959  1.00  0.00     0.053 C 
BRANCH   6   7
ATOM      7  C   UNL     1      -5.566  33.676  48.974  1.00  0.00     0.041 C 
ATOM      8  O   UNL     1      -4.375  33.491  48.608  1.00  0.00    -0.550 OA
ATOM      9  O   UNL     1      -5.878  33.674  50.327  1.00  0.00    -0.550 OA
ENDBRANCH   6   7
ENDBRANCH   5   6
ENDBRANCH   4   5
ENDBRANCH   3   4
ENDBRANCH   2   3
ENDBRANCH   1   2
BRANCH   1  10
ATOM     10  C   UNL     1      -7.931  30.668  46.938  1.00  0.00     0.000 C 
BRANCH  10  11
ATOM     11  C   UNL     1      -6.514  30.246  47.358  1.00  0.00    -0.000 C 
BRANCH  11  12
ATOM     12  C   UNL     1      -5.462  30.535  46.273  1.00  0.00    -0.000 C 
BRANCH  12  13
ATOM     13  C   UNL     1      -4.764  29.249  45.781  1.00  0.00    -0.000 C 
BRANCH  13  14
ATOM     14  C   UNL     1      -5.069  28.015  46.645  1.00  0.00    -0.000 C 
BRANCH  14  15
ATOM     15  C   UNL     1      -5.655  26.849  45.837  1.00  0.00    -0.003 C 
ATOM     16  C   UNL     1      -7.159  27.016  45.641  1.00  0.00     0.004 C 
ENDBRANCH  14  15
ENDBRANCH  13  14
ENDBRANCH  12  13
ENDBRANCH  11  12
ENDBRANCH  10  11
ENDBRANCH   1  10
TORSDOF 12
ENDMDL
MODEL 2
REMARK VINA RESULT:    -3.418      2.990      5.847
REMARK INTER + INTRA:          -7.638
REMARK INTER:                  -5.951
REMARK INTRA:                  -1.687
REMARK UNBOUND:                -1.823
REMARK SMILES CCCCCCCCCCCCCC(=O)[O-]
REMARK SMILES IDX 8 1 9 2 10 3 11 4 12 5 13 6 14 7 15 8 16 9 7 10 6 11 5 12
REMARK SMILES IDX 4 13 3 14 2 15 1 16
REMARK H PARENT
REMARK Flexibility Score: inf
ROOT
ATOM      1  C   UNL     1      -7.879  31.366  45.719  1.00  0.00     0.000 C 
ENDROOT
BRANCH   1   2
ATOM      2  C   UNL     1      -7.709  30.741  47.109  1.00  0.00     0.000 C 
BRANCH   2   3
ATOM      3  C   UNL     1      -6.278  30.223  47.309  1.00  0.00     0.000 C 
BRANCH   3   4
ATOM      4  C   UNL     1      -5.493  30.104  45.992  1.00  0.00     0.000 C 
BRANCH   4   5
ATOM      5  C   UNL     1      -4.825  28.727  45.792  1.00  0.00     0.006 C 
BRANCH   5   6
ATOM      6  C   UNL     1      -5.576  27.606  46.524  1.00  0.00     0.053 C 
BRANCH   6   7
ATOM      7  C   UNL     1      -6.525  26.918  45.595  1.00  0.00     0.041 C 
ATOM      8  O   UNL     1      -7.735  27.263  45.557  1.00  0.00    -0.550 OA
ATOM      9  O   UNL     1      -6.064  25.929  44.735  1.00  0.00    -0.550 OA
ENDBRANCH   6   7
ENDBRANCH   5   6
ENDBRANCH   4   5
ENDBRANCH   3   4
ENDBRANCH   2   3
ENDBRANCH   1   2
BRANCH   1  10
ATOM     10  C   UNL     1      -7.968  32.896  45.813  1.00  0.00     0.000 C 
BRANCH  10  11
ATOM     11  C   UNL     1      -6.827  33.604  45.065  1.00  0.00    -0.000 C 
BRANCH  11  12
ATOM     12  C   UNL     1      -5.937  34.445  45.996  1.00  0.00    -0.000 C 
BRANCH  12  13
ATOM     13  C   UNL     1      -4.937  33.575  46.788  1.00  0.00    -0.000 C 
BRANCH  13  14
ATOM     14  C   UNL     1      -4.857  33.933  48.281  1.00  0.00    -0.000 C 
BRANCH  14  15
ATOM     15  C   UNL     1      -6.135  33.575  49.051  1.00  0.00    -0.003 C 
ATOM     16  C   UNL     1      -5.961  33.817  50.548  1.00  0.00     0.004 C 
ENDBRANCH  14  15
ENDBRANCH  13  14
ENDBRANCH  12  13
ENDBRANCH  11  12
ENDBRANCH  10  11
ENDBRANCH   1  10
TORSDOF 12
ENDMDL
MODEL 3
REMARK VINA RESULT:    -3.372      3.145      6.317
REMARK INTER + INTRA:          -7.559
REMARK INTER:                  -6.106
REMARK INTRA:                  -1.453
REMARK UNBOUND:                -1.823
REMARK SMILES CCCCCCCCCCCCCC(=O)[O-]
REMARK SMILES IDX 8 1 9 2 10 3 11 4 12 5 13 6 14 7 15 8 16 9 7 10 6 11 5 12
REMARK SMILES IDX 4 13 3 14 2 15 1 16
REMARK H PARENT
REMARK Flexibility Score: inf
ROOT
ATOM      1  C   UNL     1      -5.213  30.512  46.280  1.00  0.00     0.000 C 
ENDROOT
BRANCH   1   2
ATOM      2  C   UNL     1      -4.548  29.194  45.862  1.00  0.00     0.000 C 
BRANCH   2   3
ATOM      3  C   UNL     1      -5.120  28.013  46.658  1.00  0.00     0.000 C 
BRANCH   3   4
ATOM      4  C   UNL     1      -5.774  26.948  45.762  1.00  0.00     0.000 C 
BRANCH   4   5
ATOM      5  C   UNL     1      -7.310  27.075  45.670  1.00  0.00     0.006 C 
BRANCH   5   6
ATOM      6  C   UNL     1      -7.772  27.534  44.280  1.00  0.00     0.053 C 
BRANCH   6   7
ATOM      7  C   UNL     1      -9.075  28.262  44.376  1.00  0.00     0.041 C 
ATOM      8  O   UNL     1      -9.095  29.519  44.445  1.00  0.00    -0.550 OA
ATOM      9  O   UNL     1     -10.271  27.556  44.336  1.00  0.00    -0.550 OA
ENDBRANCH   6   7
ENDBRANCH   5   6
ENDBRANCH   4   5
ENDBRANCH   3   4
ENDBRANCH   2   3
ENDBRANCH   1   2
BRANCH   1  10
ATOM     10  C   UNL     1      -6.316  30.266  47.318  1.00  0.00     0.000 C 
BRANCH  10  11
ATOM     11  C   UNL     1      -7.540  31.173  47.109  1.00  0.00    -0.000 C 
BRANCH  11  12
ATOM     12  C   UNL     1      -7.209  32.438  46.298  1.00  0.00    -0.000 C 
BRANCH  12  13
ATOM     13  C   UNL     1      -7.211  33.708  47.176  1.00  0.00    -0.000 C 
BRANCH  13  14
ATOM     14  C   UNL     1      -5.811  34.301  47.404  1.00  0.00    -0.000 C 
BRANCH  14  15
ATOM     15  C   UNL     1      -5.042  33.601  48.534  1.00  0.00    -0.003 C 
ATOM     16  C   UNL     1      -5.801  33.694  49.855  1.00  0.00     0.004 C 
ENDBRANCH  14  15
ENDBRANCH  13  14
ENDBRANCH  12  13
ENDBRANCH  11  12
ENDBRANCH  10  11
ENDBRANCH   1  10
TORSDOF 12
ENDMDL
MODEL 4
REMARK VINA RESULT:    -3.365      3.110      6.106
REMARK INTER + INTRA:          -7.548
REMARK INTER:                  -5.986
REMARK INTRA:                  -1.562
REMARK UNBOUND:                -1.823
REMARK SMILES CCCCCCCCCCCCCC(=O)[O-]
REMARK SMILES IDX 8 1 9 2 10 3 11 4 12 5 13 6 14 7 15 8 16 9 7 10 6 11 5 12
REMARK SMILES IDX 4 13 3 14 2 15 1 16
REMARK H PARENT
REMARK Flexibility Score: inf
ROOT
ATOM      1  C   UNL     1      -4.189  31.164  46.818  1.00  0.00     0.000 C 
ENDROOT
BRANCH   1   2
ATOM      2  C   UNL     1      -5.067  29.908  46.874  1.00  0.00     0.000 C 
BRANCH   2   3
ATOM      3  C   UNL     1      -6.502  30.257  47.292  1.00  0.00     0.000 C 
BRANCH   3   4
ATOM      4  C   UNL     1      -7.564  29.634  46.371  1.00  0.00     0.000 C 
BRANCH   4   5
ATOM      5  C   UNL     1      -6.975  28.705  45.288  1.00  0.00     0.006 C 
BRANCH   5   6
ATOM      6  C   UNL     1      -7.416  27.246  45.473  1.00  0.00     0.053 C 
BRANCH   6   7
ATOM      7  C   UNL     1      -6.282  26.417  45.985  1.00  0.00     0.041 C 
ATOM      8  O   UNL     1      -5.108  26.635  45.586  1.00  0.00    -0.550 OA
ATOM      9  O   UNL     1      -6.512  25.436  46.941  1.00  0.00    -0.550 OA
ENDBRANCH   6   7
ENDBRANCH   5   6
ENDBRANCH   4   5
ENDBRANCH   3   4
ENDBRANCH   2   3
ENDBRANCH   1   2
BRANCH   1  10
ATOM     10  C   UNL     1      -4.402  31.924  45.501  1.00  0.00     0.000 C 
BRANCH  10  11
ATOM     11  C   UNL     1      -4.740  33.407  45.721  1.00  0.00    -0.000 C 
BRANCH  11  12
ATOM     12  C   UNL     1      -6.245  33.698  45.596  1.00  0.00    -0.000 C 
BRANCH  12  13
ATOM     13  C   UNL     1      -6.934  33.802  46.974  1.00  0.00    -0.000 C 
BRANCH  13  14
ATOM     14  C   UNL     1      -6.017  34.345  48.081  1.00  0.00    -0.000 C 
BRANCH  14  15
ATOM     15  C   UNL     1      -5.856  33.371  49.256  1.00  0.00    -0.003 C 
ATOM     16  C   UNL     1      -6.184  34.050  50.583  1.00  0.00     0.004 C 
ENDBRANCH  14  15
ENDBRANCH  13  14
ENDBRANCH  12  13
ENDBRANCH  11  12
ENDBRANCH  10  11
ENDBRANCH   1  10
TORSDOF 12
ENDMDL
MODEL 5
REMARK VINA RESULT:    -3.347      1.534      2.805
REMARK INTER + INTRA:          -7.517
REMARK INTER:                  -5.526
REMARK INTRA:                  -1.991
REMARK UNBOUND:                -1.823
REMARK SMILES CCCCCCCCCCCCCC(=O)[O-]
REMARK SMILES IDX 8 1 9 2 10 3 11 4 12 5 13 6 14 7 15 8 16 9 7 10 6 11 5 12
REMARK SMILES IDX 4 13 3 14 2 15 1 16
REMARK H PARENT
REMARK Flexibility Score: inf
ROOT
ATOM      1  C   UNL     1      -8.071  29.069  45.263  1.00  0.00     0.000 C 
ENDROOT
BRANCH   1   2
ATOM      2  C   UNL     1      -8.269  30.214  46.265  1.00  0.00     0.000 C 
BRANCH   2   3
ATOM      3  C   UNL     1      -8.224  31.577  45.560  1.00  0.00     0.000 C 
BRANCH   3   4
ATOM      4  C   UNL     1      -7.400  32.623  46.330  1.00  0.00     0.000 C 
BRANCH   4   5
ATOM      5  C   UNL     1      -6.846  32.106  47.675  1.00  0.00     0.006 C 
BRANCH   5   6
ATOM      6  C   UNL     1      -5.698  32.978  48.203  1.00  0.00     0.053 C 
BRANCH   6   7
ATOM      7  C   UNL     1      -6.156  33.798  49.367  1.00  0.00     0.041 C 
ATOM      8  O   UNL     1      -6.957  34.753  49.193  1.00  0.00    -0.550 OA
ATOM      9  O   UNL     1      -5.737  33.477  50.652  1.00  0.00    -0.550 OA
ENDBRANCH   6   7
ENDBRANCH   5   6
ENDBRANCH   4   5
ENDBRANCH   3   4
ENDBRANCH   2   3
ENDBRANCH   1   2
BRANCH   1  10
ATOM     10  C   UNL     1      -6.843  28.225  45.632  1.00  0.00     0.000 C 
BRANCH  10  11
ATOM     11  C   UNL     1      -6.026  28.837  46.781  1.00  0.00    -0.000 C 
BRANCH  11  12
ATOM     12  C   UNL     1      -4.509  28.749  46.544  1.00  0.00    -0.000 C 
BRANCH  12  13
ATOM     13  C   UNL     1      -4.098  29.339  45.178  1.00  0.00    -0.000 C 
BRANCH  13  14
ATOM     14  C   UNL     1      -4.253  30.866  45.095  1.00  0.00    -0.000 C 
BRANCH  14  15
ATOM     15  C   UNL     1      -4.957  31.327  43.811  1.00  0.00    -0.003 C 
ATOM     16  C   UNL     1      -4.830  32.837  43.626  1.00  0.00     0.004 C 
ENDBRANCH  14  15
ENDBRANCH  13  14
ENDBRANCH  12  13
ENDBRANCH  11  12
ENDBRANCH  10  11
ENDBRANCH   1  10
TORSDOF 12
ENDMDL
MODEL 6
REMARK VINA RESULT:    -3.327      1.640      3.387
REMARK INTER + INTRA:          -7.483
REMARK INTER:                  -6.317
REMARK INTRA:                  -1.167
REMARK UNBOUND:                -1.823
REMARK SMILES CCCCCCCCCCCCCC(=O)[O-]
REMARK SMILES IDX 8 1 9 2 10 3 11 4 12 5 13 6 14 7 15 8 16 9 7 10 6 11 5 12
REMARK SMILES IDX 4 13 3 14 2 15 1 16
REMARK H PARENT
REMARK Flexibility Score: inf
ROOT
ATOM      1  C   UNL     1      -3.889  30.186  46.622  1.00  0.00     0.000 C 
ENDROOT
BRANCH   1   2
ATOM      2  C   UNL     1      -4.657  31.389  46.061  1.00  0.00     0.000 C 
BRANCH   2   3
ATOM      3  C   UNL     1      -3.940  32.705  46.393  1.00  0.00     0.000 C 
BRANCH   3   4
ATOM      4  C   UNL     1      -3.995  33.056  47.889  1.00  0.00     0.000 C 
BRANCH   4   5
ATOM      5  C   UNL     1      -4.983  34.194  48.222  1.00  0.00     0.006 C 
BRANCH   5   6
ATOM      6  C   UNL     1      -6.308  33.664  48.789  1.00  0.00     0.053 C 
BRANCH   6   7
ATOM      7  C   UNL     1      -6.451  34.044  50.228  1.00  0.00     0.041 C 
ATOM      8  O   UNL     1      -5.595  33.667  51.070  1.00  0.00    -0.550 OA
ATOM      9  O   UNL     1      -7.502  34.857  50.632  1.00  0.00    -0.550 OA
ENDBRANCH   6   7
ENDBRANCH   5   6
ENDBRANCH   4   5
ENDBRANCH   3   4
ENDBRANCH   2   3
ENDBRANCH   1   2
BRANCH   1  10
ATOM     10  C   UNL     1      -4.834  29.004  46.881  1.00  0.00     0.000 C 
BRANCH  10  11
ATOM     11  C   UNL     1      -5.369  28.378  45.583  1.00  0.00    -0.000 C 
BRANCH  11  12
ATOM     12  C   UNL     1      -6.391  27.257  45.842  1.00  0.00    -0.000 C 
BRANCH  12  13
ATOM     13  C   UNL     1      -7.807  27.638  45.360  1.00  0.00    -0.000 C 
BRANCH  13  14
ATOM     14  C   UNL     1      -7.910  29.077  44.828  1.00  0.00    -0.000 C 
BRANCH  14  15
ATOM     15  C   UNL     1      -8.840  29.960  45.670  1.00  0.00    -0.003 C 
ATOM     16  C   UNL     1      -8.045  30.981  46.479  1.00  0.00     0.004 C 
ENDBRANCH  14  15
ENDBRANCH  13  14
ENDBRANCH  12  13
ENDBRANCH  11  12
ENDBRANCH  10  11
ENDBRANCH   1  10
TORSDOF 12
ENDMDL
MODEL 7
REMARK VINA RESULT:    -3.320     17.479     19.591
REMARK INTER + INTRA:          -7.472
REMARK INTER:                  -6.840
REMARK INTRA:                  -0.632
REMARK UNBOUND:                -1.823
REMARK SMILES CCCCCCCCCCCCCC(=O)[O-]
REMARK SMILES IDX 8 1 9 2 10 3 11 4 12 5 13 6 14 7 15 8 16 9 7 10 6 11 5 12
REMARK SMILES IDX 4 13 3 14 2 15 1 16
REMARK H PARENT
REMARK Flexibility Score: inf
ROOT
ATOM      1  C   UNL     1     -22.981  21.243  38.496  1.00  0.00     0.000 C 
ENDROOT
BRANCH   1   2
ATOM      2  C   UNL     1     -22.792  21.237  36.974  1.00  0.00     0.000 C 
BRANCH   2   3
ATOM      3  C   UNL     1     -21.515  21.990  36.574  1.00  0.00     0.000 C 
BRANCH   3   4
ATOM      4  C   UNL     1     -21.434  22.273  35.064  1.00  0.00     0.000 C 
BRANCH   4   5
ATOM      5  C   UNL     1     -20.005  22.167  34.491  1.00  0.00     0.006 C 
BRANCH   5   6
ATOM      6  C   UNL     1     -19.777  23.131  33.318  1.00  0.00     0.053 C 
BRANCH   6   7
ATOM      7  C   UNL     1     -19.899  24.550  33.775  1.00  0.00     0.041 C 
ATOM      8  O   UNL     1     -19.137  24.993  34.674  1.00  0.00    -0.550 OA
ATOM      9  O   UNL     1     -20.821  25.398  33.175  1.00  0.00    -0.550 OA
ENDBRANCH   6   7
ENDBRANCH   5   6
ENDBRANCH   4   5
ENDBRANCH   3   4
ENDBRANCH   2   3
ENDBRANCH   1   2
BRANCH   1  10
ATOM     10  C   UNL     1     -21.853  22.023  39.185  1.00  0.00     0.000 C 
BRANCH  10  11
ATOM     11  C   UNL     1     -22.020  22.081  40.712  1.00  0.00    -0.000 C 
BRANCH  11  12
ATOM     12  C   UNL     1     -20.956  21.256  41.458  1.00  0.00    -0.000 C 
BRANCH  12  13
ATOM     13  C   UNL     1     -19.653  22.053  41.681  1.00  0.00    -0.000 C 
BRANCH  13  14
ATOM     14  C   UNL     1     -18.378  21.219  41.472  1.00  0.00    -0.000 C 
BRANCH  14  15
ATOM     15  C   UNL     1     -18.453  19.836  42.134  1.00  0.00    -0.003 C 
ATOM     16  C   UNL     1     -17.375  18.905  41.586  1.00  0.00     0.004 C 
ENDBRANCH  14  15
ENDBRANCH  13  14
ENDBRANCH  12  13
ENDBRANCH  11  12
ENDBRANCH  10  11
ENDBRANCH   1  10
TORSDOF 12
ENDMDL
MODEL 8
REMARK VINA RESULT:    -3.287      1.282      2.289
REMARK INTER + INTRA:          -7.416
REMARK INTER:                  -5.545
REMARK INTRA:                  -1.871
REMARK UNBOUND:                -1.823
REMARK SMILES CCCCCCCCCCCCCC(=O)[O-]
REMARK SMILES IDX 8 1 9 2 10 3 11 4 12 5 13 6 14 7 15 8 16 9 7 10 6 11 5 12
REMARK SMILES IDX 4 13 3 14 2 15 1 16
REMARK H PARENT
REMARK Flexibility Score: inf
ROOT
ATOM      1  C   UNL     1      -6.710  31.346  43.475  1.00  0.00     0.000 C 
ENDROOT
BRANCH   1   2
ATOM      2  C   UNL     1      -7.752  30.673  44.377  1.00  0.00     0.000 C 
BRANCH   2   3
ATOM      3  C   UNL     1      -8.036  31.525  45.622  1.00  0.00     0.000 C 
BRANCH   3   4
ATOM      4  C   UNL     1      -7.552  30.865  46.924  1.00  0.00     0.000 C 
BRANCH   4   5
ATOM      5  C   UNL     1      -6.313  31.549  47.541  1.00  0.00     0.006 C 
BRANCH   5   6
ATOM      6  C   UNL     1      -6.596  33.001  47.953  1.00  0.00     0.053 C 
BRANCH   6   7
ATOM      7  C   UNL     1      -5.606  33.458  48.976  1.00  0.00     0.041 C 
ATOM      8  O   UNL     1      -5.956  33.598  50.177  1.00  0.00    -0.550 OA
ATOM      9  O   UNL     1      -4.284  33.681  48.614  1.00  0.00    -0.550 OA
ENDBRANCH   6   7
ENDBRANCH   5   6
ENDBRANCH   4   5
ENDBRANCH   3   4
ENDBRANCH   2   3
ENDBRANCH   1   2
BRANCH   1  10
ATOM     10  C   UNL     1      -5.509  30.419  43.240  1.00  0.00     0.000 C 
BRANCH  10  11
ATOM     11  C   UNL     1      -4.497  30.455  44.396  1.00  0.00    -0.000 C 
BRANCH  11  12
ATOM     12  C   UNL     1      -4.080  29.050  44.865  1.00  0.00    -0.000 C 
BRANCH  12  13
ATOM     13  C   UNL     1      -4.440  28.799  46.345  1.00  0.00    -0.000 C 
BRANCH  13  14
ATOM     14  C   UNL     1      -5.492  27.696  46.545  1.00  0.00    -0.000 C 
BRANCH  14  15
ATOM     15  C   UNL     1      -6.184  27.286  45.238  1.00  0.00    -0.003 C 
ATOM     16  C   UNL     1      -7.702  27.308  45.389  1.00  0.00     0.004 C 
ENDBRANCH  14  15
ENDBRANCH  13  14
ENDBRANCH  12  13
ENDBRANCH  11  12
ENDBRANCH  10  11
ENDBRANCH   1  10
TORSDOF 12
ENDMDL
MODEL 9
REMARK VINA RESULT:    -3.241      1.531      3.180
REMARK INTER + INTRA:          -7.337
REMARK INTER:                  -6.079
REMARK INTRA:                  -1.258
REMARK UNBOUND:                -1.823
REMARK SMILES CCCCCCCCCCCCCC(=O)[O-]
REMARK SMILES IDX 8 1 9 2 10 3 11 4 12 5 13 6 14 7 15 8 16 9 7 10 6 11 5 12
REMARK SMILES IDX 4 13 3 14 2 15 1 16
REMARK H PARENT
REMARK Flexibility Score: inf
ROOT
ATOM      1  C   UNL     1      -4.934  30.185  46.850  1.00  0.00     0.000 C 
ENDROOT
BRANCH   1   2
ATOM      2  C   UNL     1      -6.400  30.322  47.280  1.00  0.00     0.000 C 
BRANCH   2   3
ATOM      3  C   UNL     1      -6.798  31.798  47.418  1.00  0.00     0.000 C 
BRANCH   3   4
ATOM      4  C   UNL     1      -5.638  32.763  47.121  1.00  0.00     0.000 C 
BRANCH   4   5
ATOM      5  C   UNL     1      -5.082  33.467  48.377  1.00  0.00     0.006 C 
BRANCH   5   6
ATOM      6  C   UNL     1      -5.988  34.614  48.847  1.00  0.00     0.053 C 
BRANCH   6   7
ATOM      7  C   UNL     1      -6.433  34.386  50.256  1.00  0.00     0.041 C 
ATOM      8  O   UNL     1      -7.517  34.879  50.666  1.00  0.00    -0.550 OA
ATOM      9  O   UNL     1      -5.677  33.587  51.105  1.00  0.00    -0.550 OA
ENDBRANCH   6   7
ENDBRANCH   5   6
ENDBRANCH   4   5
ENDBRANCH   3   4
ENDBRANCH   2   3
ENDBRANCH   1   2
BRANCH   1  10
ATOM     10  C   UNL     1      -4.696  28.850  46.130  1.00  0.00     0.000 C 
BRANCH  10  11
ATOM     11  C   UNL     1      -5.725  27.776  46.519  1.00  0.00    -0.000 C 
BRANCH  11  12
ATOM     12  C   UNL     1      -6.494  27.222  45.307  1.00  0.00    -0.000 C 
BRANCH  12  13
ATOM     13  C   UNL     1      -7.990  27.600  45.345  1.00  0.00    -0.000 C 
BRANCH  13  14
ATOM     14  C   UNL     1      -8.550  28.036  43.981  1.00  0.00    -0.000 C 
BRANCH  14  15
ATOM     15  C   UNL     1      -7.671  29.081  43.280  1.00  0.00    -0.003 C 
ATOM     16  C   UNL     1      -7.822  30.453  43.933  1.00  0.00     0.004 C 
ENDBRANCH  14  15
ENDBRANCH  13  14
ENDBRANCH  12  13
ENDBRANCH  11  12
ENDBRANCH  10  11
ENDBRANCH   1  10
TORSDOF 12
ENDMDL
