MODEL 1
REMARK VINA RESULT:    -3.371      0.000      0.000
REMARK INTER + INTRA:          -6.106
REMARK INTER:                  -5.341
REMARK INTRA:                  -0.765
REMARK UNBOUND:                -0.765
REMARK SMILES CCCCCCCCCCCC(=O)[O-]
REMARK SMILES IDX 7 1 8 2 9 3 10 4 11 5 12 6 13 7 14 8 6 9 5 10 4 11 3 12 2 13
REMARK SMILES IDX 1 14
REMARK H PARENT
REMARK Flexibility Score: inf
ROOT
ATOM      1  C   UNL     1      -7.556   5.985   7.440  1.00  0.00     0.000 C 
ENDROOT
BRANCH   1   2
ATOM      2  C   UNL     1      -7.591   5.187   8.752  1.00  0.00     0.000 C 
BRANCH   2   3
ATOM      3  C   UNL     1      -6.336   5.400   9.619  1.00  0.00     0.000 C 
BRANCH   3   4
ATOM      4  C   UNL     1      -5.251   6.297   8.989  1.00  0.00     0.006 C 
BRANCH   4   5
ATOM      5  C   UNL     1      -4.859   7.516   9.838  1.00  0.00     0.053 C 
BRANCH   5   6
ATOM      6  C   UNL     1      -4.688   8.749   9.006  1.00  0.00     0.041 C 
ATOM      7  O   UNL     1      -5.316   8.874   7.921  1.00  0.00    -0.550 OA
ATOM      8  O   UNL     1      -3.863   9.777   9.444  1.00  0.00    -0.550 OA
ENDBRANCH   5   6
ENDBRANCH   4   5
ENDBRANCH   3   4
ENDBRANCH   2   3
ENDBRANCH   1   2
BRANCH   1   9
ATOM      9  C   UNL     1      -8.887   5.859   6.685  1.00  0.00     0.000 C 
BRANCH   9  10
ATOM     10  C   UNL     1      -9.784   7.095   6.858  1.00  0.00    -0.000 C 
BRANCH  10  11
ATOM     11  C   UNL     1      -9.944   7.899   5.558  1.00  0.00    -0.000 C 
BRANCH  11  12
ATOM     12  C   UNL     1      -9.441   7.094   4.351  1.00  0.00    -0.000 C 
BRANCH  12  13
ATOM     13  C   UNL     1      -8.299   7.801   3.603  1.00  0.00    -0.003 C 
ATOM     14  C   UNL     1      -7.789   9.040   4.339  1.00  0.00     0.004 C 
ENDBRANCH  12  13
ENDBRANCH  11  12
ENDBRANCH  10  11
ENDBRANCH   9  10
ENDBRANCH   1   9
TORSDOF 10
ENDMDL
MODEL 2
REMARK VINA RESULT:    -3.261      1.315      1.876
REMARK INTER + INTRA:          -5.932
REMARK INTER:                  -5.091
REMARK INTRA:                  -0.841
REMARK UNBOUND:                -0.765
REMARK SMILES CCCCCCCCCCCC(=O)[O-]
REMARK SMILES IDX 7 1 8 2 9 3 10 4 11 5 12 6 13 7 14 8 6 9 5 10 4 11 3 12 2 13
REMARK SMILES IDX 1 14
REMARK H PARENT
REMARK Flexibility Score: inf
ROOT
ATOM      1  C   UNL     1      -9.349   5.889   6.964  1.00  0.00     0.000 C 
ENDROOT
BRANCH   1   2
ATOM      2  C   UNL     1      -7.919   5.673   7.480  1.00  0.00     0.000 C 
BRANCH   2   3
ATOM      3  C   UNL     1      -7.875   5.111   8.913  1.00  0.00     0.000 C 
BRANCH   3   4
ATOM      4  C   UNL     1      -6.655   5.546   9.750  1.00  0.00     0.006 C 
BRANCH   4   5
ATOM      5  C   UNL     1      -6.290   7.033   9.620  1.00  0.00     0.053 C 
BRANCH   5   6
ATOM      6  C   UNL     1      -5.035   7.236   8.829  1.00  0.00     0.041 C 
ATOM      7  O   UNL     1      -4.797   8.350   8.293  1.00  0.00    -0.550 OA
ATOM      8  O   UNL     1      -4.110   6.205   8.713  1.00  0.00    -0.550 OA
ENDBRANCH   5   6
ENDBRANCH   4   5
ENDBRANCH   3   4
ENDBRANCH   2   3
ENDBRANCH   1   2
BRANCH   1   9
ATOM      9  C   UNL     1      -9.594   7.366   6.627  1.00  0.00     0.000 C 
BRANCH   9  10
ATOM     10  C   UNL     1      -8.312   8.211   6.698  1.00  0.00    -0.000 C 
BRANCH  10  11
ATOM     11  C   UNL     1      -8.060   9.018   5.415  1.00  0.00    -0.000 C 
BRANCH  11  12
ATOM     12  C   UNL     1      -8.212   8.131   4.171  1.00  0.00    -0.000 C 
BRANCH  12  13
ATOM     13  C   UNL     1      -7.416   8.661   2.967  1.00  0.00    -0.003 C 
ATOM     14  C   UNL     1      -6.391   9.725   3.357  1.00  0.00     0.004 C 
ENDBRANCH  12  13
ENDBRANCH  11  12
ENDBRANCH  10  11
ENDBRANCH   9  10
ENDBRANCH   1   9
TORSDOF 10
ENDMDL
MODEL 3
REMARK VINA RESULT:    -3.200      2.710      5.080
REMARK INTER + INTRA:          -5.835
REMARK INTER:                  -4.488
REMARK INTRA:                  -1.347
REMARK UNBOUND:                -0.765
REMARK SMILES CCCCCCCCCCCC(=O)[O-]
REMARK SMILES IDX 7 1 8 2 9 3 10 4 11 5 12 6 13 7 14 8 6 9 5 10 4 11 3 12 2 13
REMARK SMILES IDX 1 14
REMARK H PARENT
REMARK Flexibility Score: inf
ROOT
ATOM      1  C   UNL     1      -8.350   4.500   9.021  1.00  0.00     0.000 C 
ENDROOT
BRANCH   1   2
ATOM      2  C   UNL     1      -9.220   5.691   9.449  1.00  0.00     0.000 C 
BRANCH   2   3
ATOM      3  C   UNL     1      -9.613   6.603   8.272  1.00  0.00     0.000 C 
BRANCH   3   4
ATOM      4  C   UNL     1      -9.312   6.029   6.872  1.00  0.00     0.006 C 
BRANCH   4   5
ATOM      5  C   UNL     1      -8.342   6.873   6.031  1.00  0.00     0.053 C 
BRANCH   5   6
ATOM      6  C   UNL     1      -8.882   7.154   4.664  1.00  0.00     0.041 C 
ATOM      7  O   UNL     1     -10.123   7.120   4.453  1.00  0.00    -0.550 OA
ATOM      8  O   UNL     1      -8.018   7.490   3.628  1.00  0.00    -0.550 OA
ENDBRANCH   5   6
ENDBRANCH   4   5
ENDBRANCH   3   4
ENDBRANCH   2   3
ENDBRANCH   1   2
BRANCH   1   9
ATOM      9  C   UNL     1      -7.093   4.396   9.897  1.00  0.00     0.000 C 
BRANCH   9  10
ATOM     10  C   UNL     1      -6.370   5.742  10.059  1.00  0.00    -0.000 C 
BRANCH  10  11
ATOM     11  C   UNL     1      -5.763   6.252   8.742  1.00  0.00    -0.000 C 
BRANCH  11  12
ATOM     12  C   UNL     1      -5.235   7.685   8.902  1.00  0.00    -0.000 C 
BRANCH  12  13
ATOM     13  C   UNL     1      -6.080   8.716   8.137  1.00  0.00    -0.003 C 
ATOM     14  C   UNL     1      -7.190   9.323   8.995  1.00  0.00     0.004 C 
ENDBRANCH  12  13
ENDBRANCH  11  12
ENDBRANCH  10  11
ENDBRANCH   9  10
ENDBRANCH   1   9
TORSDOF 10
ENDMDL
MODEL 4
REMARK VINA RESULT:    -3.197     23.720     24.659
REMARK INTER + INTRA:          -5.831
REMARK INTER:                  -5.229
REMARK INTRA:                  -0.602
REMARK UNBOUND:                -0.765
REMARK SMILES CCCCCCCCCCCC(=O)[O-]
REMARK SMILES IDX 7 1 8 2 9 3 10 4 11 5 12 6 13 7 14 8 6 9 5 10 4 11 3 12 2 13
REMARK SMILES IDX 1 14
REMARK H PARENT
REMARK Flexibility Score: inf
ROOT
ATOM      1  C   UNL     1       8.719  -5.758  -9.324  1.00  0.00     0.000 C 
ENDROOT
BRANCH   1   2
ATOM      2  C   UNL     1       9.285  -6.666  -8.222  1.00  0.00     0.000 C 
BRANCH   2   3
ATOM      3  C   UNL     1      10.104  -5.895  -7.170  1.00  0.00     0.000 C 
BRANCH   3   4
ATOM      4  C   UNL     1       9.296  -5.372  -5.966  1.00  0.00     0.006 C 
BRANCH   4   5
ATOM      5  C   UNL     1      10.124  -5.139  -4.693  1.00  0.00     0.053 C 
BRANCH   5   6
ATOM      6  C   UNL     1       9.414  -4.258  -3.714  1.00  0.00     0.041 C 
ATOM      7  O   UNL     1       9.511  -3.005  -3.801  1.00  0.00    -0.550 OA
ATOM      8  O   UNL     1       8.614  -4.817  -2.725  1.00  0.00    -0.550 OA
ENDBRANCH   5   6
ENDBRANCH   4   5
ENDBRANCH   3   4
ENDBRANCH   2   3
ENDBRANCH   1   2
BRANCH   1   9
ATOM      9  C   UNL     1       9.849  -5.045 -10.082  1.00  0.00     0.000 C 
BRANCH   9  10
ATOM     10  C   UNL     1       9.665  -3.520 -10.123  1.00  0.00    -0.000 C 
BRANCH  10  11
ATOM     11  C   UNL     1       8.216  -3.089  -9.848  1.00  0.00    -0.000 C 
BRANCH  11  12
ATOM     12  C   UNL     1       8.124  -1.567  -9.665  1.00  0.00    -0.000 C 
BRANCH  12  13
ATOM     13  C   UNL     1       7.454  -1.170  -8.340  1.00  0.00    -0.003 C 
ATOM     14  C   UNL     1       6.910   0.258  -8.356  1.00  0.00     0.004 C 
ENDBRANCH  12  13
ENDBRANCH  11  12
ENDBRANCH  10  11
ENDBRANCH   9  10
ENDBRANCH   1   9
TORSDOF 10
ENDMDL
MODEL 5
REMARK VINA RESULT:    -3.190      2.583      5.191
REMARK INTER + INTRA:          -5.820
REMARK INTER:                  -4.548
REMARK INTRA:                  -1.272
REMARK UNBOUND:                -0.765
REMARK SMILES CCCCCCCCCCCC(=O)[O-]
REMARK SMILES IDX 7 1 8 2 9 3 10 4 11 5 12 6 13 7 14 8 6 9 5 10 4 11 3 12 2 13
REMARK SMILES IDX 1 14
REMARK H PARENT
REMARK Flexibility Score: inf
ROOT
ATOM      1  C   UNL     1      -9.159   5.651   8.132  1.00  0.00     0.000 C 
ENDROOT
BRANCH   1   2
ATOM      2  C   UNL     1      -9.024   6.055   6.656  1.00  0.00     0.000 C 
BRANCH   2   3
ATOM      3  C   UNL     1      -9.855   7.300   6.295  1.00  0.00     0.000 C 
BRANCH   3   4
ATOM      4  C   UNL     1      -9.702   7.790   4.841  1.00  0.00     0.006 C 
BRANCH   4   5
ATOM      5  C   UNL     1      -8.398   7.355   4.155  1.00  0.00     0.053 C 
BRANCH   5   6
ATOM      6  C   UNL     1      -8.021   8.272   3.033  1.00  0.00     0.041 C 
ATOM      7  O   UNL     1      -8.856   8.551   2.133  1.00  0.00    -0.550 OA
ATOM      8  O   UNL     1      -6.757   8.848   2.999  1.00  0.00    -0.550 OA
ENDBRANCH   5   6
ENDBRANCH   4   5
ENDBRANCH   3   4
ENDBRANCH   2   3
ENDBRANCH   1   2
BRANCH   1   9
ATOM      9  C   UNL     1      -7.795   5.267   8.722  1.00  0.00     0.000 C 
BRANCH   9  10
ATOM     10  C   UNL     1      -6.636   6.069   8.110  1.00  0.00    -0.000 C 
BRANCH  10  11
ATOM     11  C   UNL     1      -5.894   6.927   9.147  1.00  0.00    -0.000 C 
BRANCH  11  12
ATOM     12  C   UNL     1      -5.719   8.367   8.643  1.00  0.00    -0.000 C 
BRANCH  12  13
ATOM     13  C   UNL     1      -7.012   8.946   8.048  1.00  0.00    -0.003 C 
ATOM     14  C   UNL     1      -6.796   9.590   6.678  1.00  0.00     0.004 C 
ENDBRANCH  12  13
ENDBRANCH  11  12
ENDBRANCH  10  11
ENDBRANCH   9  10
ENDBRANCH   1   9
TORSDOF 10
ENDMDL
MODEL 6
REMARK VINA RESULT:    -3.071      3.009      5.972
REMARK INTER + INTRA:          -5.631
REMARK INTER:                  -4.881
REMARK INTRA:                  -0.750
REMARK UNBOUND:                -0.765
REMARK SMILES CCCCCCCCCCCC(=O)[O-]
REMARK SMILES IDX 7 1 8 2 9 3 10 4 11 5 12 6 13 7 14 8 6 9 5 10 4 11 3 12 2 13
REMARK SMILES IDX 1 14
REMARK H PARENT
REMARK Flexibility Score: inf
ROOT
ATOM      1  C   UNL     1      -9.309   5.990   6.786  1.00  0.00     0.000 C 
ENDROOT
BRANCH   1   2
ATOM      2  C   UNL     1      -9.762   7.455   6.714  1.00  0.00     0.000 C 
BRANCH   2   3
ATOM      3  C   UNL     1      -9.805   8.000   5.274  1.00  0.00     0.000 C 
BRANCH   3   4
ATOM      4  C   UNL     1      -8.463   8.542   4.739  1.00  0.00     0.006 C 
BRANCH   4   5
ATOM      5  C   UNL     1      -8.013   7.929   3.405  1.00  0.00     0.053 C 
BRANCH   5   6
ATOM      6  C   UNL     1      -8.519   8.706   2.230  1.00  0.00     0.041 C 
ATOM      7  O   UNL     1      -7.895   9.722   1.825  1.00  0.00    -0.550 OA
ATOM      8  O   UNL     1      -9.663   8.290   1.559  1.00  0.00    -0.550 OA
ENDBRANCH   5   6
ENDBRANCH   4   5
ENDBRANCH   3   4
ENDBRANCH   2   3
ENDBRANCH   1   2
BRANCH   1   9
ATOM      9  C   UNL     1      -7.848   5.889   7.247  1.00  0.00     0.000 C 
BRANCH   9  10
ATOM     10  C   UNL     1      -7.700   5.167   8.595  1.00  0.00    -0.000 C 
BRANCH  10  11
ATOM     11  C   UNL     1      -6.757   5.900   9.562  1.00  0.00    -0.000 C 
BRANCH  11  12
ATOM     12  C   UNL     1      -6.400   7.295   9.027  1.00  0.00    -0.000 C 
BRANCH  12  13
ATOM     13  C   UNL     1      -4.888   7.480   8.820  1.00  0.00    -0.003 C 
ATOM     14  C   UNL     1      -4.106   6.177   8.981  1.00  0.00     0.004 C 
ENDBRANCH  12  13
ENDBRANCH  11  12
ENDBRANCH  10  11
ENDBRANCH   9  10
ENDBRANCH   1   9
TORSDOF 10
ENDMDL
MODEL 7
REMARK VINA RESULT:    -3.029      2.030      3.209
REMARK INTER + INTRA:          -5.565
REMARK INTER:                  -5.081
REMARK INTRA:                  -0.484
REMARK UNBOUND:                -0.765
REMARK SMILES CCCCCCCCCCCC(=O)[O-]
REMARK SMILES IDX 7 1 8 2 9 3 10 4 11 5 12 6 13 7 14 8 6 9 5 10 4 11 3 12 2 13
REMARK SMILES IDX 1 14
REMARK H PARENT
REMARK Flexibility Score: inf
ROOT
ATOM      1  C   UNL     1      -9.651   7.526   5.473  1.00  0.00     0.000 C 
ENDROOT
BRANCH   1   2
ATOM      2  C   UNL     1      -9.299   6.937   6.847  1.00  0.00     0.000 C 
BRANCH   2   3
ATOM      3  C   UNL     1      -7.942   6.209   6.859  1.00  0.00     0.000 C 
BRANCH   3   4
ATOM      4  C   UNL     1      -7.396   5.866   8.260  1.00  0.00     0.006 C 
BRANCH   4   5
ATOM      5  C   UNL     1      -6.747   7.047   8.999  1.00  0.00     0.053 C 
BRANCH   5   6
ATOM      6  C   UNL     1      -5.307   7.217   8.630  1.00  0.00     0.041 C 
ATOM      7  O   UNL     1      -4.501   6.259   8.763  1.00  0.00    -0.550 OA
ATOM      8  O   UNL     1      -4.860   8.424   8.104  1.00  0.00    -0.550 OA
ENDBRANCH   5   6
ENDBRANCH   4   5
ENDBRANCH   3   4
ENDBRANCH   2   3
ENDBRANCH   1   2
BRANCH   1   9
ATOM      9  C   UNL     1      -8.696   7.002   4.391  1.00  0.00     0.000 C 
BRANCH   9  10
ATOM     10  C   UNL     1      -8.123   8.125   3.512  1.00  0.00    -0.000 C 
BRANCH  10  11
ATOM     11  C   UNL     1      -9.143   8.663   2.496  1.00  0.00    -0.000 C 
BRANCH  11  12
ATOM     12  C   UNL     1      -8.517   9.757   1.619  1.00  0.00    -0.000 C 
BRANCH  12  13
ATOM     13  C   UNL     1      -8.560   9.412   0.122  1.00  0.00    -0.003 C 
ATOM     14  C   UNL     1      -9.756   8.535  -0.248  1.00  0.00     0.004 C 
ENDBRANCH  12  13
ENDBRANCH  11  12
ENDBRANCH  10  11
ENDBRANCH   9  10
ENDBRANCH   1   9
TORSDOF 10
ENDMDL
MODEL 8
REMARK VINA RESULT:    -3.024      2.630      4.464
REMARK INTER + INTRA:          -5.557
REMARK INTER:                  -5.071
REMARK INTRA:                  -0.486
REMARK UNBOUND:                -0.765
REMARK SMILES CCCCCCCCCCCC(=O)[O-]
REMARK SMILES IDX 7 1 8 2 9 3 10 4 11 5 12 6 13 7 14 8 6 9 5 10 4 11 3 12 2 13
REMARK SMILES IDX 1 14
REMARK H PARENT
REMARK Flexibility Score: inf
ROOT
ATOM      1  C   UNL     1      -9.296   7.021   4.616  1.00  0.00     0.000 C 
ENDROOT
BRANCH   1   2
ATOM      2  C   UNL     1      -9.919   7.782   5.796  1.00  0.00     0.000 C 
BRANCH   2   3
ATOM      3  C   UNL     1      -9.747   7.051   7.141  1.00  0.00     0.000 C 
BRANCH   3   4
ATOM      4  C   UNL     1      -8.783   5.847   7.112  1.00  0.00     0.006 C 
BRANCH   4   5
ATOM      5  C   UNL     1      -8.578   5.161   8.471  1.00  0.00     0.053 C 
BRANCH   5   6
ATOM      6  C   UNL     1      -7.150   5.213   8.916  1.00  0.00     0.041 C 
ATOM      7  O   UNL     1      -6.372   6.089   8.452  1.00  0.00    -0.550 OA
ATOM      8  O   UNL     1      -6.684   4.317   9.871  1.00  0.00    -0.550 OA
ENDBRANCH   5   6
ENDBRANCH   4   5
ENDBRANCH   3   4
ENDBRANCH   2   3
ENDBRANCH   1   2
BRANCH   1   9
ATOM      9  C   UNL     1      -9.273   7.892   3.352  1.00  0.00     0.000 C 
BRANCH   9  10
ATOM     10  C   UNL     1      -7.859   8.371   2.988  1.00  0.00    -0.000 C 
BRANCH  10  11
ATOM     11  C   UNL     1      -7.862   9.704   2.223  1.00  0.00    -0.000 C 
BRANCH  11  12
ATOM     12  C   UNL     1      -8.972   9.724   1.162  1.00  0.00    -0.000 C 
BRANCH  12  13
ATOM     13  C   UNL     1      -8.425   9.584  -0.268  1.00  0.00    -0.003 C 
ATOM     14  C   UNL     1      -9.297   8.689  -1.149  1.00  0.00     0.004 C 
ENDBRANCH  12  13
ENDBRANCH  11  12
ENDBRANCH  10  11
ENDBRANCH   9  10
ENDBRANCH   1   9
TORSDOF 10
ENDMDL
MODEL 9
REMARK VINA RESULT:    -3.001      2.569      4.504
REMARK INTER + INTRA:          -5.520
REMARK INTER:                  -4.096
REMARK INTRA:                  -1.423
REMARK UNBOUND:                -0.765
REMARK SMILES CCCCCCCCCCCC(=O)[O-]
REMARK SMILES IDX 7 1 8 2 9 3 10 4 11 5 12 6 13 7 14 8 6 9 5 10 4 11 3 12 2 13
REMARK SMILES IDX 1 14
REMARK H PARENT
REMARK Flexibility Score: inf
ROOT
ATOM      1  C   UNL     1      -8.250   7.727   4.776  1.00  0.00     0.000 C 
ENDROOT
BRANCH   1   2
ATOM      2  C   UNL     1      -9.249   6.621   5.145  1.00  0.00     0.000 C 
BRANCH   2   3
ATOM      3  C   UNL     1      -9.319   6.355   6.660  1.00  0.00     0.000 C 
BRANCH   3   4
ATOM      4  C   UNL     1      -7.988   5.927   7.311  1.00  0.00     0.006 C 
BRANCH   4   5
ATOM      5  C   UNL     1      -8.039   5.797   8.841  1.00  0.00     0.053 C 
BRANCH   5   6
ATOM      6  C   UNL     1      -7.269   4.610   9.330  1.00  0.00     0.041 C 
ATOM      7  O   UNL     1      -6.053   4.725   9.637  1.00  0.00    -0.550 OA
ATOM      8  O   UNL     1      -7.903   3.383   9.482  1.00  0.00    -0.550 OA
ENDBRANCH   5   6
ENDBRANCH   4   5
ENDBRANCH   3   4
ENDBRANCH   2   3
ENDBRANCH   1   2
BRANCH   1   9
ATOM      9  C   UNL     1      -8.848   9.116   5.038  1.00  0.00     0.000 C 
BRANCH   9  10
ATOM     10  C   UNL     1      -7.993   9.958   5.999  1.00  0.00    -0.000 C 
BRANCH  10  11
ATOM     11  C   UNL     1      -8.552   9.975   7.430  1.00  0.00    -0.000 C 
BRANCH  11  12
ATOM     12  C   UNL     1      -7.505   9.465   8.432  1.00  0.00    -0.000 C 
BRANCH  12  13
ATOM     13  C   UNL     1      -6.212   8.994   7.748  1.00  0.00    -0.003 C 
ATOM     14  C   UNL     1      -5.185   8.447   8.739  1.00  0.00     0.004 C 
ENDBRANCH  12  13
ENDBRANCH  11  12
ENDBRANCH  10  11
ENDBRANCH   9  10
ENDBRANCH   1   9
TORSDOF 10
ENDMDL
