MODEL 1
REMARK VINA RESULT:    -6.699      0.000      0.000
REMARK INTER + INTRA:         -10.618
REMARK INTER:                  -9.441
REMARK INTRA:                  -1.177
REMARK UNBOUND:                -1.177
REMARK SMILES COC(=O)C1=CO[C@H](O[C@H]2O[C@@H](CO)[C@H](O)[C@@H](O)[C@@H]2O)[C@H]2C(CO)=CC[C@@H]12
REMARK SMILES IDX 9 1 8 2 5 3 6 4 27 5 7 6 21 7 26 8 22 9 25 10 3 11 4 12 2 13
REMARK SMILES IDX 1 14 23 15 24 16 10 18 19 19 11 20 17 21 12 22 15 23 20 24
REMARK SMILES IDX 18 26 13 28 14 29 16 31
REMARK H PARENT 24 17 20 25 18 27 14 30 16 32
REMARK Flexibility Score: inf
ROOT
ATOM      1  O   UNL     1       9.299  13.657 -18.623  1.00  0.00    -0.310 OA
ENDROOT
BRANCH   1   2
ATOM      2  C   UNL     1       8.174  14.166 -19.312  1.00  0.00     0.316 C 
ATOM      3  C   UNL     1       6.776  16.108 -17.520  1.00  0.00     0.076 C 
ATOM      4  C   UNL     1       6.093  15.343 -18.251  1.00  0.00     0.202 C 
ATOM      5  C   UNL     1       8.096  16.501 -18.130  1.00  0.00     0.047 C 
ATOM      6  O   UNL     1       6.708  14.327 -19.013  1.00  0.00    -0.471 OA
ATOM      7  C   UNL     1       8.681  15.537 -19.286  1.00  0.00     0.094 C 
ATOM      8  C   UNL     1       8.032  17.678 -19.108  1.00  0.00     0.037 C 
ATOM      9  C   UNL     1       8.526  15.959 -20.699  1.00  0.00    -0.039 C 
ATOM     10  C   UNL     1       8.074  17.169 -20.614  1.00  0.00    -0.024 C 
BRANCH   3  11
ATOM     11  C   UNL     1       6.437  16.169 -16.080  1.00  0.00     0.337 C 
ATOM     12  O   UNL     1       6.555  15.157 -15.292  1.00  0.00    -0.246 OA
BRANCH  11  13
ATOM     13  O   UNL     1       5.965  17.291 -15.347  1.00  0.00    -0.466 OA
ATOM     14  C   UNL     1       5.876  18.637 -14.954  1.00  0.00     0.282 C 
ENDBRANCH  11  13
ENDBRANCH   3  11
BRANCH   9  15
ATOM     15  C   UNL     1       8.532  15.046 -22.043  1.00  0.00     0.187 C 
BRANCH  15  16
ATOM     16  O   UNL     1       7.827  15.562 -23.137  1.00  0.00    -0.392 OA
ATOM     17  H   UNL     1       6.791  15.785 -23.093  1.00  0.00     0.211 HD
ENDBRANCH  15  16
ENDBRANCH   9  15
ENDBRANCH   1   2
BRANCH   1  18
ATOM     18  C   UNL     1       9.370  12.652 -17.468  1.00  0.00     0.286 C 
ATOM     19  C   UNL     1       9.287  10.933 -18.053  1.00  0.00     0.202 C 
ATOM     20  O   UNL     1       8.683  12.898 -16.091  1.00  0.00    -0.341 OA
ATOM     21  C   UNL     1       7.899  10.597 -17.282  1.00  0.00     0.179 C 
ATOM     22  C   UNL     1       8.759  11.785 -15.001  1.00  0.00     0.178 C 
ATOM     23  C   UNL     1       8.622  10.300 -15.749  1.00  0.00     0.177 C 
BRANCH  19  24
ATOM     24  O   UNL     1       9.839   9.497 -18.461  1.00  0.00    -0.385 OA
ATOM     25  H   UNL     1      10.802   8.938 -18.314  1.00  0.00     0.211 HD
ENDBRANCH  19  24
BRANCH  21  26
ATOM     26  O   UNL     1       6.851  11.595 -17.413  1.00  0.00    -0.387 OA
ATOM     27  H   UNL     1       7.157  12.571 -17.680  1.00  0.00     0.211 HD
ENDBRANCH  21  26
BRANCH  22  28
ATOM     28  C   UNL     1       7.724  12.171 -13.684  1.00  0.00     0.191 C 
BRANCH  28  29
ATOM     29  O   UNL     1       8.321  12.704 -12.348  1.00  0.00    -0.394 OA
ATOM     30  H   UNL     1       8.729  12.694 -11.245  1.00  0.00     0.210 HD
ENDBRANCH  28  29
ENDBRANCH  22  28
BRANCH  23  31
ATOM     31  O   UNL     1      10.058   9.894 -15.781  1.00  0.00    -0.387 OA
ATOM     32  H   UNL     1      10.803  10.686 -15.480  1.00  0.00     0.211 HD
ENDBRANCH  23  31
ENDBRANCH   1  18
TORSDOF 11
ENDMDL
MODEL 2
REMARK VINA RESULT:    -6.624      1.453      2.801
REMARK INTER + INTRA:         -10.512
REMARK INTER:                  -9.270
REMARK INTRA:                  -1.242
REMARK UNBOUND:                -1.177
REMARK SMILES COC(=O)C1=CO[C@H](O[C@H]2O[C@@H](CO)[C@H](O)[C@@H](O)[C@@H]2O)[C@H]2C(CO)=CC[C@@H]12
REMARK SMILES IDX 9 1 8 2 5 3 6 4 27 5 7 6 21 7 26 8 22 9 25 10 3 11 4 12 2 13
REMARK SMILES IDX 1 14 23 15 24 16 10 18 19 19 11 20 17 21 12 22 15 23 20 24
REMARK SMILES IDX 18 26 13 28 14 29 16 31
REMARK H PARENT 24 17 20 25 18 27 14 30 16 32
REMARK Flexibility Score: inf
ROOT
ATOM      1  O   UNL     1       8.732  12.834 -19.111  1.00  0.00    -0.310 OA
ENDROOT
BRANCH   1   2
ATOM      2  C   UNL     1       7.809  13.763 -19.643  1.00  0.00     0.316 C 
ATOM      3  C   UNL     1       6.982  15.622 -17.453  1.00  0.00     0.076 C 
ATOM      4  C   UNL     1       6.124  15.239 -18.292  1.00  0.00     0.202 C 
ATOM      5  C   UNL     1       8.370  15.743 -18.026  1.00  0.00     0.047 C 
ATOM      6  O   UNL     1       6.442  14.264 -19.263  1.00  0.00    -0.471 OA
ATOM      7  C   UNL     1       8.681  14.904 -19.369  1.00  0.00     0.094 C 
ATOM      8  C   UNL     1       8.657  17.062 -18.751  1.00  0.00     0.037 C 
ATOM      9  C   UNL     1       8.677  15.625 -20.665  1.00  0.00    -0.039 C 
ATOM     10  C   UNL     1       8.582  16.871 -20.328  1.00  0.00    -0.024 C 
BRANCH   3  11
ATOM     11  C   UNL     1       6.647  15.488 -16.017  1.00  0.00     0.337 C 
ATOM     12  O   UNL     1       6.408  16.502 -15.259  1.00  0.00    -0.246 OA
BRANCH  11  13
ATOM     13  O   UNL     1       6.519  14.290 -15.265  1.00  0.00    -0.466 OA
ATOM     14  C   UNL     1       6.367  12.911 -15.041  1.00  0.00     0.282 C 
ENDBRANCH  11  13
ENDBRANCH   3  11
BRANCH   9  15
ATOM     15  C   UNL     1       8.451  15.033 -22.161  1.00  0.00     0.187 C 
BRANCH  15  16
ATOM     16  O   UNL     1       7.687  15.826 -23.025  1.00  0.00    -0.392 OA
ATOM     17  H   UNL     1       7.287  16.763 -22.732  1.00  0.00     0.211 HD
ENDBRANCH  15  16
ENDBRANCH   9  15
ENDBRANCH   1   2
BRANCH   1  18
ATOM     18  C   UNL     1       8.579  11.859 -17.939  1.00  0.00     0.286 C 
ATOM     19  C   UNL     1      10.101  11.728 -16.955  1.00  0.00     0.202 C 
ATOM     20  O   UNL     1       7.763  10.535 -18.043  1.00  0.00    -0.341 OA
ATOM     21  C   UNL     1      10.329  10.153 -17.272  1.00  0.00     0.179 C 
ATOM     22  C   UNL     1       7.719   9.578 -16.813  1.00  0.00     0.178 C 
ATOM     23  C   UNL     1       9.222   9.578 -16.088  1.00  0.00     0.177 C 
BRANCH  19  24
ATOM     24  O   UNL     1      11.084  12.004 -15.734  1.00  0.00    -0.385 OA
ATOM     25  H   UNL     1      11.478  11.402 -14.871  1.00  0.00     0.211 HD
ENDBRANCH  19  24
BRANCH  21  26
ATOM     26  O   UNL     1      10.175   9.764 -18.664  1.00  0.00    -0.387 OA
ATOM     27  H   UNL     1      11.052   9.461 -19.171  1.00  0.00     0.211 HD
ENDBRANCH  21  26
BRANCH  22  28
ATOM     28  C   UNL     1       6.986   8.084 -17.247  1.00  0.00     0.191 C 
BRANCH  28  29
ATOM     29  O   UNL     1       6.992   7.611 -18.731  1.00  0.00    -0.394 OA
ATOM     30  H   UNL     1       7.341   7.502 -19.849  1.00  0.00     0.210 HD
ENDBRANCH  28  29
ENDBRANCH  22  28
BRANCH  23  31
ATOM     31  O   UNL     1       8.958  10.504 -14.948  1.00  0.00    -0.387 OA
ATOM     32  H   UNL     1       9.373  11.548 -15.052  1.00  0.00     0.211 HD
ENDBRANCH  23  31
ENDBRANCH   1  18
TORSDOF 11
ENDMDL
MODEL 3
REMARK VINA RESULT:    -6.483      1.579      2.127
REMARK INTER + INTRA:         -10.313
REMARK INTER:                  -9.481
REMARK INTRA:                  -0.833
REMARK UNBOUND:                -1.177
REMARK SMILES COC(=O)C1=CO[C@H](O[C@H]2O[C@@H](CO)[C@H](O)[C@@H](O)[C@@H]2O)[C@H]2C(CO)=CC[C@@H]12
REMARK SMILES IDX 9 1 8 2 5 3 6 4 27 5 7 6 21 7 26 8 22 9 25 10 3 11 4 12 2 13
REMARK SMILES IDX 1 14 23 15 24 16 10 18 19 19 11 20 17 21 12 22 15 23 20 24
REMARK SMILES IDX 18 26 13 28 14 29 16 31
REMARK H PARENT 24 17 20 25 18 27 14 30 16 32
REMARK Flexibility Score: inf
ROOT
ATOM      1  O   UNL     1       9.084  14.066 -17.856  1.00  0.00    -0.310 OA
ENDROOT
BRANCH   1   2
ATOM      2  C   UNL     1       7.946  14.433 -18.610  1.00  0.00     0.316 C 
ATOM      3  C   UNL     1       8.036  17.386 -19.068  1.00  0.00     0.076 C 
ATOM      4  C   UNL     1       6.929  16.833 -18.836  1.00  0.00     0.202 C 
ATOM      5  C   UNL     1       9.004  16.503 -19.812  1.00  0.00     0.047 C 
ATOM      6  O   UNL     1       6.858  15.466 -18.488  1.00  0.00    -0.471 OA
ATOM      7  C   UNL     1       8.748  14.911 -19.735  1.00  0.00     0.094 C 
ATOM      8  C   UNL     1       8.823  16.485 -21.334  1.00  0.00     0.037 C 
ATOM      9  C   UNL     1       8.102  14.245 -20.891  1.00  0.00    -0.039 C 
ATOM     10  C   UNL     1       8.064  15.167 -21.799  1.00  0.00    -0.024 C 
BRANCH   3  11
ATOM     11  C   UNL     1       8.394  18.575 -18.261  1.00  0.00     0.337 C 
ATOM     12  O   UNL     1       9.574  19.091 -18.265  1.00  0.00    -0.246 OA
BRANCH  11  13
ATOM     13  O   UNL     1       7.548  19.326 -17.403  1.00  0.00    -0.466 OA
ATOM     14  C   UNL     1       6.357  19.924 -16.956  1.00  0.00     0.282 C 
ENDBRANCH  11  13
ENDBRANCH   3  11
BRANCH   9  15
ATOM     15  C   UNL     1       7.279  12.845 -20.933  1.00  0.00     0.187 C 
BRANCH  15  16
ATOM     16  O   UNL     1       5.884  12.953 -20.889  1.00  0.00    -0.392 OA
ATOM     17  H   UNL     1       5.385  13.888 -20.897  1.00  0.00     0.211 HD
ENDBRANCH  15  16
ENDBRANCH   9  15
ENDBRANCH   1   2
BRANCH   1  18
ATOM     18  C   UNL     1       9.310  12.852 -16.949  1.00  0.00     0.286 C 
ATOM     19  C   UNL     1       9.318  11.293 -17.883  1.00  0.00     0.202 C 
ATOM     20  O   UNL     1       8.703  12.743 -15.518  1.00  0.00    -0.341 OA
ATOM     21  C   UNL     1       8.015  10.682 -17.133  1.00  0.00     0.179 C 
ATOM     22  C   UNL     1       8.938  11.438 -14.697  1.00  0.00     0.178 C 
ATOM     23  C   UNL     1       8.862  10.136 -15.738  1.00  0.00     0.177 C 
BRANCH  19  24
ATOM     24  O   UNL     1       9.947  10.029 -18.618  1.00  0.00    -0.385 OA
ATOM     25  H   UNL     1       9.663   8.949 -18.738  1.00  0.00     0.211 HD
ENDBRANCH  19  24
BRANCH  21  26
ATOM     26  O   UNL     1       6.888  11.588 -16.993  1.00  0.00    -0.387 OA
ATOM     27  H   UNL     1       7.088  12.618 -17.129  1.00  0.00     0.211 HD
ENDBRANCH  21  26
BRANCH  22  28
ATOM     28  C   UNL     1       7.969  11.446 -13.277  1.00  0.00     0.191 C 
BRANCH  28  29
ATOM     29  O   UNL     1       8.062  12.632 -12.272  1.00  0.00    -0.394 OA
ATOM     30  H   UNL     1       8.084  13.740 -11.878  1.00  0.00     0.210 HD
ENDBRANCH  28  29
ENDBRANCH  22  28
BRANCH  23  31
ATOM     31  O   UNL     1      10.319   9.874 -15.929  1.00  0.00    -0.387 OA
ATOM     32  H   UNL     1      10.678   9.828 -16.999  1.00  0.00     0.211 HD
ENDBRANCH  23  31
ENDBRANCH   1  18
TORSDOF 11
ENDMDL
MODEL 4
REMARK VINA RESULT:    -6.403      2.564      6.873
REMARK INTER + INTRA:         -10.200
REMARK INTER:                  -8.069
REMARK INTRA:                  -2.131
REMARK UNBOUND:                -1.177
REMARK SMILES COC(=O)C1=CO[C@H](O[C@H]2O[C@@H](CO)[C@H](O)[C@@H](O)[C@@H]2O)[C@H]2C(CO)=CC[C@@H]12
REMARK SMILES IDX 9 1 8 2 5 3 6 4 27 5 7 6 21 7 26 8 22 9 25 10 3 11 4 12 2 13
REMARK SMILES IDX 1 14 23 15 24 16 10 18 19 19 11 20 17 21 12 22 15 23 20 24
REMARK SMILES IDX 18 26 13 28 14 29 16 31
REMARK H PARENT 24 17 20 25 18 27 14 30 16 32
REMARK Flexibility Score: inf
ROOT
ATOM      1  O   UNL     1       6.105   9.699 -16.927  1.00  0.00    -0.310 OA
ENDROOT
BRANCH   1   2
ATOM      2  C   UNL     1       7.165   9.016 -16.289  1.00  0.00     0.316 C 
ATOM      3  C   UNL     1       7.986  10.590 -13.885  1.00  0.00     0.076 C 
ATOM      4  C   UNL     1       8.870  10.023 -14.580  1.00  0.00     0.202 C 
ATOM      5  C   UNL     1       6.675   9.847 -13.857  1.00  0.00     0.047 C 
ATOM      6  O   UNL     1       8.538   9.379 -15.792  1.00  0.00    -0.471 OA
ATOM      7  C   UNL     1       6.399   8.810 -15.062  1.00  0.00     0.094 C 
ATOM      8  C   UNL     1       6.597   8.714 -12.828  1.00  0.00     0.037 C 
ATOM      9  C   UNL     1       6.596   7.363 -14.804  1.00  0.00    -0.039 C 
ATOM     10  C   UNL     1       6.792   7.299 -13.526  1.00  0.00    -0.024 C 
BRANCH   3  11
ATOM     11  C   UNL     1       8.174  12.025 -13.568  1.00  0.00     0.337 C 
ATOM     12  O   UNL     1       7.700  12.572 -12.503  1.00  0.00    -0.246 OA
BRANCH  11  13
ATOM     13  O   UNL     1       8.883  12.994 -14.327  1.00  0.00    -0.466 OA
ATOM     14  C   UNL     1       9.645  14.151 -14.563  1.00  0.00     0.282 C 
ENDBRANCH  11  13
ENDBRANCH   3  11
BRANCH   9  15
ATOM     15  C   UNL     1       6.892   6.168 -15.864  1.00  0.00     0.187 C 
BRANCH  15  16
ATOM     16  O   UNL     1       6.490   4.887 -15.470  1.00  0.00    -0.392 OA
ATOM     17  H   UNL     1       5.610   4.715 -14.905  1.00  0.00     0.211 HD
ENDBRANCH  15  16
ENDBRANCH   9  15
ENDBRANCH   1   2
BRANCH   1  18
ATOM     18  C   UNL     1       6.026  11.148 -17.418  1.00  0.00     0.286 C 
ATOM     19  C   UNL     1       6.924  11.390 -18.980  1.00  0.00     0.202 C 
ATOM     20  O   UNL     1       6.071  12.371 -16.453  1.00  0.00    -0.341 OA
ATOM     21  C   UNL     1       7.995  12.438 -18.356  1.00  0.00     0.179 C 
ATOM     22  C   UNL     1       6.050  13.809 -17.056  1.00  0.00     0.178 C 
ATOM     23  C   UNL     1       6.964  13.813 -18.451  1.00  0.00     0.177 C 
BRANCH  19  24
ATOM     24  O   UNL     1       7.108  11.565 -20.551  1.00  0.00    -0.385 OA
ATOM     25  H   UNL     1       7.643  11.001 -21.362  1.00  0.00     0.211 HD
ENDBRANCH  19  24
BRANCH  21  26
ATOM     26  O   UNL     1       8.582  12.054 -17.084  1.00  0.00    -0.387 OA
ATOM     27  H   UNL     1       8.147  11.225 -16.593  1.00  0.00     0.211 HD
ENDBRANCH  21  26
BRANCH  22  28
ATOM     28  C   UNL     1       6.367  14.973 -15.830  1.00  0.00     0.191 C 
BRANCH  28  29
ATOM     29  O   UNL     1       6.159  14.608 -14.331  1.00  0.00    -0.394 OA
ATOM     30  H   UNL     1       5.610  14.268 -13.348  1.00  0.00     0.210 HD
ENDBRANCH  28  29
ENDBRANCH  22  28
BRANCH  23  31
ATOM     31  O   UNL     1       5.877  13.735 -19.472  1.00  0.00    -0.387 OA
ATOM     32  H   UNL     1       4.947  14.334 -19.250  1.00  0.00     0.211 HD
ENDBRANCH  23  31
ENDBRANCH   1  18
TORSDOF 11
ENDMDL
MODEL 5
REMARK VINA RESULT:    -6.342      2.122      3.254
REMARK INTER + INTRA:         -10.114
REMARK INTER:                  -8.263
REMARK INTRA:                  -1.851
REMARK UNBOUND:                -1.177
REMARK SMILES COC(=O)C1=CO[C@H](O[C@H]2O[C@@H](CO)[C@H](O)[C@@H](O)[C@@H]2O)[C@H]2C(CO)=CC[C@@H]12
REMARK SMILES IDX 9 1 8 2 5 3 6 4 27 5 7 6 21 7 26 8 22 9 25 10 3 11 4 12 2 13
REMARK SMILES IDX 1 14 23 15 24 16 10 18 19 19 11 20 17 21 12 22 15 23 20 24
REMARK SMILES IDX 18 26 13 28 14 29 16 31
REMARK H PARENT 24 17 20 25 18 27 14 30 16 32
REMARK Flexibility Score: inf
ROOT
ATOM      1  O   UNL     1       8.192  13.689 -17.444  1.00  0.00    -0.310 OA
ENDROOT
BRANCH   1   2
ATOM      2  C   UNL     1       7.214  14.201 -18.328  1.00  0.00     0.316 C 
ATOM      3  C   UNL     1       7.954  17.013 -19.020  1.00  0.00     0.076 C 
ATOM      4  C   UNL     1       6.742  16.721 -18.845  1.00  0.00     0.202 C 
ATOM      5  C   UNL     1       8.767  15.883 -19.596  1.00  0.00     0.047 C 
ATOM      6  O   UNL     1       6.361  15.439 -18.393  1.00  0.00    -0.471 OA
ATOM      7  C   UNL     1       8.178  14.391 -19.410  1.00  0.00     0.094 C 
ATOM      8  C   UNL     1       8.697  15.748 -21.121  1.00  0.00     0.037 C 
ATOM      9  C   UNL     1       7.493  13.757 -20.561  1.00  0.00    -0.039 C 
ATOM     10  C   UNL     1       7.715  14.571 -21.543  1.00  0.00    -0.024 C 
BRANCH   3  11
ATOM     11  C   UNL     1       8.494  18.180 -18.286  1.00  0.00     0.337 C 
ATOM     12  O   UNL     1       9.748  18.475 -18.270  1.00  0.00    -0.246 OA
BRANCH  11  13
ATOM     13  O   UNL     1       7.770  19.137 -17.526  1.00  0.00    -0.466 OA
ATOM     14  C   UNL     1       6.644  19.838 -17.059  1.00  0.00     0.282 C 
ENDBRANCH  11  13
ENDBRANCH   3  11
BRANCH   9  15
ATOM     15  C   UNL     1       6.400  12.555 -20.562  1.00  0.00     0.187 C 
BRANCH  15  16
ATOM     16  O   UNL     1       6.894  11.277 -20.276  1.00  0.00    -0.392 OA
ATOM     17  H   UNL     1       7.091  10.951 -19.287  1.00  0.00     0.211 HD
ENDBRANCH  15  16
ENDBRANCH   9  15
ENDBRANCH   1   2
BRANCH   1  18
ATOM     18  C   UNL     1       8.386  12.265 -16.915  1.00  0.00     0.286 C 
ATOM     19  C   UNL     1      10.143  11.818 -16.785  1.00  0.00     0.202 C 
ATOM     20  O   UNL     1       7.448  11.083 -17.306  1.00  0.00    -0.341 OA
ATOM     21  C   UNL     1      10.054  10.612 -17.866  1.00  0.00     0.179 C 
ATOM     22  C   UNL     1       7.768   9.656 -16.765  1.00  0.00     0.178 C 
ATOM     23  C   UNL     1       9.423   9.445 -16.770  1.00  0.00     0.177 C 
BRANCH  19  24
ATOM     24  O   UNL     1      11.541  11.567 -16.066  1.00  0.00    -0.385 OA
ATOM     25  H   UNL     1      12.474  12.169 -15.897  1.00  0.00     0.211 HD
ENDBRANCH  19  24
BRANCH  21  26
ATOM     26  O   UNL     1       9.340  10.920 -19.093  1.00  0.00    -0.387 OA
ATOM     27  H   UNL     1       8.675  10.181 -19.453  1.00  0.00     0.211 HD
ENDBRANCH  21  26
BRANCH  22  28
ATOM     28  C   UNL     1       6.762   8.490 -17.530  1.00  0.00     0.191 C 
BRANCH  28  29
ATOM     29  O   UNL     1       6.546   8.533 -19.072  1.00  0.00    -0.394 OA
ATOM     30  H   UNL     1       6.445   8.148 -20.179  1.00  0.00     0.210 HD
ENDBRANCH  28  29
ENDBRANCH  22  28
BRANCH  23  31
ATOM     31  O   UNL     1       9.719   9.689 -15.328  1.00  0.00    -0.387 OA
ATOM     32  H   UNL     1      10.693  10.213 -15.104  1.00  0.00     0.211 HD
ENDBRANCH  23  31
ENDBRANCH   1  18
TORSDOF 11
ENDMDL
MODEL 6
REMARK VINA RESULT:    -6.325      3.036      8.118
REMARK INTER + INTRA:         -10.090
REMARK INTER:                  -8.899
REMARK INTRA:                  -1.190
REMARK UNBOUND:                -1.177
REMARK SMILES COC(=O)C1=CO[C@H](O[C@H]2O[C@@H](CO)[C@H](O)[C@@H](O)[C@@H]2O)[C@H]2C(CO)=CC[C@@H]12
REMARK SMILES IDX 9 1 8 2 5 3 6 4 27 5 7 6 21 7 26 8 22 9 25 10 3 11 4 12 2 13
REMARK SMILES IDX 1 14 23 15 24 16 10 18 19 19 11 20 17 21 12 22 15 23 20 24
REMARK SMILES IDX 18 26 13 28 14 29 16 31
REMARK H PARENT 24 17 20 25 18 27 14 30 16 32
REMARK Flexibility Score: inf
ROOT
ATOM      1  O   UNL     1       8.794  10.677 -14.420  1.00  0.00    -0.310 OA
ENDROOT
BRANCH   1   2
ATOM      2  C   UNL     1       7.505  10.155 -14.167  1.00  0.00     0.316 C 
ATOM      3  C   UNL     1       6.757   8.360 -16.438  1.00  0.00     0.076 C 
ATOM      4  C   UNL     1       5.877   9.097 -15.920  1.00  0.00     0.202 C 
ATOM      5  C   UNL     1       7.806   7.899 -15.460  1.00  0.00     0.047 C 
ATOM      6  O   UNL     1       6.214  10.049 -14.934  1.00  0.00    -0.471 OA
ATOM      7  C   UNL     1       7.987   8.776 -14.117  1.00  0.00     0.094 C 
ATOM      8  C   UNL     1       7.422   6.666 -14.635  1.00  0.00     0.037 C 
ATOM      9  C   UNL     1       7.379   8.273 -12.861  1.00  0.00    -0.039 C 
ATOM     10  C   UNL     1       6.975   7.082 -13.167  1.00  0.00    -0.024 C 
BRANCH   3  11
ATOM     11  C   UNL     1       6.904   8.395 -17.911  1.00  0.00     0.337 C 
ATOM     12  O   UNL     1       7.260   9.454 -18.552  1.00  0.00    -0.246 OA
BRANCH  11  13
ATOM     13  O   UNL     1       6.708   7.328 -18.827  1.00  0.00    -0.466 OA
ATOM     14  C   UNL     1       6.615   5.994 -19.263  1.00  0.00     0.282 C 
ENDBRANCH  11  13
ENDBRANCH   3  11
BRANCH   9  15
ATOM     15  C   UNL     1       6.952   9.102 -11.531  1.00  0.00     0.187 C 
BRANCH  15  16
ATOM     16  O   UNL     1       5.875   8.580 -10.804  1.00  0.00    -0.392 OA
ATOM     17  H   UNL     1       5.418   7.656 -11.049  1.00  0.00     0.211 HD
ENDBRANCH  15  16
ENDBRANCH   9  15
ENDBRANCH   1   2
BRANCH   1  18
ATOM     18  C   UNL     1       9.245  11.725 -15.441  1.00  0.00     0.286 C 
ATOM     19  C   UNL     1       9.114  13.416 -14.788  1.00  0.00     0.202 C 
ATOM     20  O   UNL     1       8.951  11.599 -16.967  1.00  0.00    -0.341 OA
ATOM     21  C   UNL     1       8.017  13.897 -15.883  1.00  0.00     0.179 C 
ATOM     22  C   UNL     1       9.396  12.752 -17.918  1.00  0.00     0.178 C 
ATOM     23  C   UNL     1       9.153  14.207 -17.138  1.00  0.00     0.177 C 
BRANCH  19  24
ATOM     24  O   UNL     1       9.622  14.783 -14.150  1.00  0.00    -0.385 OA
ATOM     25  H   UNL     1      10.490  15.475 -14.325  1.00  0.00     0.211 HD
ENDBRANCH  19  24
BRANCH  21  26
ATOM     26  O   UNL     1       6.913  12.981 -16.110  1.00  0.00    -0.387 OA
ATOM     27  H   UNL     1       6.329  13.147 -16.976  1.00  0.00     0.211 HD
ENDBRANCH  21  26
BRANCH  22  28
ATOM     28  C   UNL     1       8.743  12.512 -19.490  1.00  0.00     0.191 C 
BRANCH  28  29
ATOM     29  O   UNL     1       9.460  11.568 -20.500  1.00  0.00    -0.394 OA
ATOM     30  H   UNL     1       9.655  10.959 -21.488  1.00  0.00     0.210 HD
ENDBRANCH  28  29
ENDBRANCH  22  28
BRANCH  23  31
ATOM     31  O   UNL     1      10.547  14.496 -16.690  1.00  0.00    -0.387 OA
ATOM     32  H   UNL     1      11.047  13.691 -16.077  1.00  0.00     0.211 HD
ENDBRANCH  23  31
ENDBRANCH   1  18
TORSDOF 11
ENDMDL
MODEL 7
REMARK VINA RESULT:    -6.302      2.612      7.025
REMARK INTER + INTRA:         -10.058
REMARK INTER:                  -8.302
REMARK INTRA:                  -1.755
REMARK UNBOUND:                -1.177
REMARK SMILES COC(=O)C1=CO[C@H](O[C@H]2O[C@@H](CO)[C@H](O)[C@@H](O)[C@@H]2O)[C@H]2C(CO)=CC[C@@H]12
REMARK SMILES IDX 9 1 8 2 5 3 6 4 27 5 7 6 21 7 26 8 22 9 25 10 3 11 4 12 2 13
REMARK SMILES IDX 1 14 23 15 24 16 10 18 19 19 11 20 17 21 12 22 15 23 20 24
REMARK SMILES IDX 18 26 13 28 14 29 16 31
REMARK H PARENT 24 17 20 25 18 27 14 30 16 32
REMARK Flexibility Score: inf
ROOT
ATOM      1  O   UNL     1       6.946  11.338 -16.747  1.00  0.00    -0.310 OA
ENDROOT
BRANCH   1   2
ATOM      2  C   UNL     1       7.873  11.350 -15.680  1.00  0.00     0.316 C 
ATOM      3  C   UNL     1       8.168   8.554 -14.663  1.00  0.00     0.076 C 
ATOM      4  C   UNL     1       8.163   9.510 -13.843  1.00  0.00     0.202 C 
ATOM      5  C   UNL     1       8.768   8.911 -15.997  1.00  0.00     0.047 C 
ATOM      6  O   UNL     1       7.899  10.830 -14.268  1.00  0.00    -0.471 OA
ATOM      7  C   UNL     1       8.813  10.478 -16.383  1.00  0.00     0.094 C 
ATOM      8  C   UNL     1      10.296   8.824 -16.062  1.00  0.00     0.037 C 
ATOM      9  C   UNL     1      10.096  11.204 -16.228  1.00  0.00    -0.039 C 
ATOM     10  C   UNL     1      10.952  10.270 -15.962  1.00  0.00    -0.024 C 
BRANCH   3  11
ATOM     11  C   UNL     1       7.254   7.418 -14.401  1.00  0.00     0.337 C 
ATOM     12  O   UNL     1       6.353   7.445 -13.480  1.00  0.00    -0.246 OA
BRANCH  11  13
ATOM     13  O   UNL     1       7.198   6.176 -15.086  1.00  0.00    -0.466 OA
ATOM     14  C   UNL     1       6.999   4.794 -15.250  1.00  0.00     0.282 C 
ENDBRANCH  11  13
ENDBRANCH   3  11
BRANCH   9  15
ATOM     15  C   UNL     1      10.351  12.798 -16.040  1.00  0.00     0.187 C 
BRANCH  15  16
ATOM     16  O   UNL     1      10.144  13.588 -17.176  1.00  0.00    -0.392 OA
ATOM     17  H   UNL     1      10.440  14.605 -17.224  1.00  0.00     0.211 HD
ENDBRANCH  15  16
ENDBRANCH   9  15
ENDBRANCH   1   2
BRANCH   1  18
ATOM     18  C   UNL     1       6.808  12.294 -17.936  1.00  0.00     0.286 C 
ATOM     19  C   UNL     1       6.663  11.405 -19.515  1.00  0.00     0.202 C 
ATOM     20  O   UNL     1       7.578  13.646 -18.027  1.00  0.00    -0.341 OA
ATOM     21  C   UNL     1       8.034  12.010 -20.136  1.00  0.00     0.179 C 
ATOM     22  C   UNL     1       7.420  14.519 -19.310  1.00  0.00     0.178 C 
ATOM     23  C   UNL     1       7.349  13.508 -20.635  1.00  0.00     0.177 C 
BRANCH  19  24
ATOM     24  O   UNL     1       5.929  10.780 -20.781  1.00  0.00    -0.385 OA
ATOM     25  H   UNL     1       4.998  11.016 -21.365  1.00  0.00     0.211 HD
ENDBRANCH  19  24
BRANCH  21  26
ATOM     26  O   UNL     1       9.185  11.995 -19.250  1.00  0.00    -0.387 OA
ATOM     27  H   UNL     1      10.135  12.088 -19.705  1.00  0.00     0.211 HD
ENDBRANCH  21  26
BRANCH  22  28
ATOM     28  C   UNL     1       8.549  15.815 -19.290  1.00  0.00     0.191 C 
BRANCH  28  29
ATOM     29  O   UNL     1       9.168  16.295 -17.944  1.00  0.00    -0.394 OA
ATOM     30  H   UNL     1       9.462  17.019 -17.065  1.00  0.00     0.210 HD
ENDBRANCH  28  29
ENDBRANCH  22  28
BRANCH  23  31
ATOM     31  O   UNL     1       5.875  13.496 -20.871  1.00  0.00    -0.387 OA
ATOM     32  H   UNL     1       5.288  12.720 -20.299  1.00  0.00     0.211 HD
ENDBRANCH  23  31
ENDBRANCH   1  18
TORSDOF 11
ENDMDL
MODEL 8
REMARK VINA RESULT:    -6.229      1.231      2.648
REMARK INTER + INTRA:          -9.955
REMARK INTER:                  -8.797
REMARK INTRA:                  -1.158
REMARK UNBOUND:                -1.177
REMARK SMILES COC(=O)C1=CO[C@H](O[C@H]2O[C@@H](CO)[C@H](O)[C@@H](O)[C@@H]2O)[C@H]2C(CO)=CC[C@@H]12
REMARK SMILES IDX 9 1 8 2 5 3 6 4 27 5 7 6 21 7 26 8 22 9 25 10 3 11 4 12 2 13
REMARK SMILES IDX 1 14 23 15 24 16 10 18 19 19 11 20 17 21 12 22 15 23 20 24
REMARK SMILES IDX 18 26 13 28 14 29 16 31
REMARK H PARENT 24 17 20 25 18 27 14 30 16 32
REMARK Flexibility Score: inf
ROOT
ATOM      1  O   UNL     1       8.856  13.364 -18.655  1.00  0.00    -0.310 OA
ENDROOT
BRANCH   1   2
ATOM      2  C   UNL     1       7.829  14.058 -19.334  1.00  0.00     0.316 C 
ATOM      3  C   UNL     1       6.700  16.113 -17.480  1.00  0.00     0.076 C 
ATOM      4  C   UNL     1       5.924  15.484 -18.248  1.00  0.00     0.202 C 
ATOM      5  C   UNL     1       8.072  16.332 -18.061  1.00  0.00     0.047 C 
ATOM      6  O   UNL     1       6.397  14.419 -19.045  1.00  0.00    -0.471 OA
ATOM      7  C   UNL     1       8.529  15.339 -19.249  1.00  0.00     0.094 C 
ATOM      8  C   UNL     1       8.195  17.543 -18.992  1.00  0.00     0.037 C 
ATOM      9  C   UNL     1       8.459  15.832 -20.645  1.00  0.00    -0.039 C 
ATOM     10  C   UNL     1       8.187  17.091 -20.516  1.00  0.00    -0.024 C 
BRANCH   3  11
ATOM     11  C   UNL     1       6.350  16.168 -16.043  1.00  0.00     0.337 C 
ATOM     12  O   UNL     1       6.390  15.135 -15.275  1.00  0.00    -0.246 OA
BRANCH  11  13
ATOM     13  O   UNL     1       5.948  17.304 -15.291  1.00  0.00    -0.466 OA
ATOM     14  C   UNL     1       5.875  18.661 -14.932  1.00  0.00     0.282 C 
ENDBRANCH  11  13
ENDBRANCH   3  11
BRANCH   9  15
ATOM     15  C   UNL     1       8.354  14.981 -22.025  1.00  0.00     0.187 C 
BRANCH  15  16
ATOM     16  O   UNL     1       8.124  15.725 -23.187  1.00  0.00    -0.392 OA
ATOM     17  H   UNL     1       7.363  16.460 -23.252  1.00  0.00     0.211 HD
ENDBRANCH  15  16
ENDBRANCH   9  15
ENDBRANCH   1   2
BRANCH   1  18
ATOM     18  C   UNL     1       8.791  12.072 -17.835  1.00  0.00     0.286 C 
ATOM     19  C   UNL     1       8.174  12.362 -16.150  1.00  0.00     0.202 C 
ATOM     20  O   UNL     1       9.866  10.949 -17.942  1.00  0.00    -0.341 OA
ATOM     21  C   UNL     1       9.542  11.883 -15.422  1.00  0.00     0.179 C 
ATOM     22  C   UNL     1       9.746   9.699 -17.017  1.00  0.00     0.178 C 
ATOM     23  C   UNL     1       9.206  10.198 -15.519  1.00  0.00     0.177 C 
BRANCH  19  24
ATOM     24  O   UNL     1       7.114  12.387 -14.963  1.00  0.00    -0.385 OA
ATOM     25  H   UNL     1       6.936  11.780 -14.035  1.00  0.00     0.211 HD
ENDBRANCH  19  24
BRANCH  21  26
ATOM     26  O   UNL     1      10.772  12.414 -15.985  1.00  0.00    -0.387 OA
ATOM     27  H   UNL     1      11.620  11.784 -15.949  1.00  0.00     0.211 HD
ENDBRANCH  21  26
BRANCH  22  28
ATOM     28  C   UNL     1      11.165   8.736 -17.130  1.00  0.00     0.191 C 
BRANCH  28  29
ATOM     29  O   UNL     1      11.914   8.601 -18.490  1.00  0.00    -0.394 OA
ATOM     30  H   UNL     1      12.212   8.168 -19.542  1.00  0.00     0.210 HD
ENDBRANCH  28  29
ENDBRANCH  22  28
BRANCH  23  31
ATOM     31  O   UNL     1       7.763   9.834 -15.630  1.00  0.00    -0.387 OA
ATOM     32  H   UNL     1       7.086  10.621 -16.071  1.00  0.00     0.211 HD
ENDBRANCH  23  31
ENDBRANCH   1  18
TORSDOF 11
ENDMDL
MODEL 9
REMARK VINA RESULT:    -6.211      2.768      7.941
REMARK INTER + INTRA:          -9.930
REMARK INTER:                  -8.952
REMARK INTRA:                  -0.978
REMARK UNBOUND:                -1.177
REMARK SMILES COC(=O)C1=CO[C@H](O[C@H]2O[C@@H](CO)[C@H](O)[C@@H](O)[C@@H]2O)[C@H]2C(CO)=CC[C@@H]12
REMARK SMILES IDX 9 1 8 2 5 3 6 4 27 5 7 6 21 7 26 8 22 9 25 10 3 11 4 12 2 13
REMARK SMILES IDX 1 14 23 15 24 16 10 18 19 19 11 20 17 21 12 22 15 23 20 24
REMARK SMILES IDX 18 26 13 28 14 29 16 31
REMARK H PARENT 24 17 20 25 18 27 14 30 16 32
REMARK Flexibility Score: inf
ROOT
ATOM      1  O   UNL     1       8.672  11.021 -15.864  1.00  0.00    -0.310 OA
ENDROOT
BRANCH   1   2
ATOM      2  C   UNL     1       7.452  10.774 -15.194  1.00  0.00     0.316 C 
ATOM      3  C   UNL     1       6.806   7.868 -15.464  1.00  0.00     0.076 C 
ATOM      4  C   UNL     1       5.875   8.714 -15.531  1.00  0.00     0.202 C 
ATOM      5  C   UNL     1       7.930   8.282 -14.552  1.00  0.00     0.047 C 
ATOM      6  O   UNL     1       6.151  10.098 -15.537  1.00  0.00    -0.471 OA
ATOM      7  C   UNL     1       8.071   9.859 -14.237  1.00  0.00     0.094 C 
ATOM      8  C   UNL     1       7.702   7.980 -13.067  1.00  0.00     0.037 C 
ATOM      9  C   UNL     1       7.563  10.366 -12.940  1.00  0.00    -0.039 C 
ATOM     10  C   UNL     1       7.269   9.292 -12.280  1.00  0.00    -0.024 C 
BRANCH   3  11
ATOM     11  C   UNL     1       6.894   6.856 -16.542  1.00  0.00     0.337 C 
ATOM     12  O   UNL     1       6.968   7.170 -17.789  1.00  0.00    -0.246 OA
BRANCH  11  13
ATOM     13  O   UNL     1       6.930   5.443 -16.404  1.00  0.00    -0.466 OA
ATOM     14  C   UNL     1       6.943   4.206 -15.736  1.00  0.00     0.282 C 
ENDBRANCH  11  13
ENDBRANCH   3  11
BRANCH   9  15
ATOM     15  C   UNL     1       7.104  11.873 -12.542  1.00  0.00     0.187 C 
BRANCH  15  16
ATOM     16  O   UNL     1       8.136  12.766 -12.234  1.00  0.00    -0.392 OA
ATOM     17  H   UNL     1       9.137  12.451 -12.087  1.00  0.00     0.211 HD
ENDBRANCH  15  16
ENDBRANCH   9  15
ENDBRANCH   1   2
BRANCH   1  18
ATOM     18  C   UNL     1       9.196  12.311 -16.503  1.00  0.00     0.286 C 
ATOM     19  C   UNL     1       9.369  13.654 -15.291  1.00  0.00     0.202 C 
ATOM     20  O   UNL     1       8.773  12.779 -17.928  1.00  0.00    -0.341 OA
ATOM     21  C   UNL     1       8.277  14.618 -16.005  1.00  0.00     0.179 C 
ATOM     22  C   UNL     1       9.312  14.140 -18.466  1.00  0.00     0.178 C 
ATOM     23  C   UNL     1       9.348  15.232 -17.204  1.00  0.00     0.177 C 
BRANCH  19  24
ATOM     24  O   UNL     1      10.122  14.631 -14.285  1.00  0.00    -0.385 OA
ATOM     25  H   UNL     1       9.913  15.643 -13.845  1.00  0.00     0.211 HD
ENDBRANCH  19  24
BRANCH  21  26
ATOM     26  O   UNL     1       7.034  13.977 -16.398  1.00  0.00    -0.387 OA
ATOM     27  H   UNL     1       6.228  14.616 -16.645  1.00  0.00     0.211 HD
ENDBRANCH  21  26
BRANCH  22  28
ATOM     28  C   UNL     1       8.513  14.560 -19.929  1.00  0.00     0.191 C 
BRANCH  28  29
ATOM     29  O   UNL     1       6.975  14.357 -20.068  1.00  0.00    -0.394 OA
ATOM     30  H   UNL     1       5.859  14.579 -20.367  1.00  0.00     0.210 HD
ENDBRANCH  28  29
ENDBRANCH  22  28
BRANCH  23  31
ATOM     31  O   UNL     1      10.799  15.180 -16.860  1.00  0.00    -0.387 OA
ATOM     32  H   UNL     1      11.503  15.638 -17.614  1.00  0.00     0.211 HD
ENDBRANCH  23  31
ENDBRANCH   1  18
TORSDOF 11
ENDMDL
