MODEL 1
REMARK VINA RESULT:    -3.696      0.000      0.000
REMARK INTER + INTRA:          -4.466
REMARK INTER:                  -4.237
REMARK INTRA:                  -0.229
REMARK UNBOUND:                -0.229
REMARK SMILES CC=Cc1ccc(O)c(OC)c1
REMARK SMILES IDX 4 1 12 2 9 3 7 4 6 5 5 6 3 7 1 8 2 9 10 10 11 11 8 12
REMARK H PARENT 8 13
REMARK Flexibility Score: inf
ROOT
ATOM      1  C   UNL     1     139.470 146.687 138.421  1.00  0.00    -0.022 A 
ATOM      2  C   UNL     1     138.200 147.148 138.807  1.00  0.00     0.058 A 
ATOM      3  C   UNL     1     137.711 148.381 138.331  1.00  0.00     0.161 A 
ATOM      4  C   UNL     1     138.514 149.158 137.483  1.00  0.00     0.157 A 
ATOM      5  C   UNL     1     139.793 148.712 137.125  1.00  0.00     0.051 A 
ATOM      6  C   UNL     1     140.271 147.489 137.599  1.00  0.00     0.012 A 
ENDROOT
BRANCH   1   7
ATOM      7  C   UNL     1     140.012 145.409 138.927  1.00  0.00     0.003 C 
ATOM      8  C   UNL     1     139.404 144.096 136.875  1.00  0.00     0.035 C 
ATOM      9  C   UNL     1     139.967 144.248 138.257  1.00  0.00    -0.030 C 
ENDBRANCH   1   7
BRANCH   3  10
ATOM     10  O   UNL     1     136.442 148.868 138.680  1.00  0.00    -0.493 OA
ATOM     11  C   UNL     1     135.235 148.532 138.000  1.00  0.00     0.278 C 
ENDBRANCH   3  10
BRANCH   4  12
ATOM     12  O   UNL     1     138.035 150.377 137.006  1.00  0.00    -0.504 OA
ATOM     13  H   UNL     1     137.772 150.500 136.035  1.00  0.00     0.293 HD
ENDBRANCH   4  12
TORSDOF 3
ENDMDL
MODEL 2
REMARK VINA RESULT:    -3.691     12.206     14.884
REMARK INTER + INTRA:          -4.460
REMARK INTER:                  -4.238
REMARK INTRA:                  -0.222
REMARK UNBOUND:                -0.229
REMARK SMILES CC=Cc1ccc(O)c(OC)c1
REMARK SMILES IDX 4 1 12 2 9 3 7 4 6 5 5 6 3 7 1 8 2 9 10 10 11 11 8 12
REMARK H PARENT 8 13
REMARK Flexibility Score: inf
ROOT
ATOM      1  C   UNL     1     142.164 134.817 138.469  1.00  0.00    -0.022 A 
ATOM      2  C   UNL     1     143.444 134.358 138.825  1.00  0.00     0.058 A 
ATOM      3  C   UNL     1     143.917 133.118 138.350  1.00  0.00     0.161 A 
ATOM      4  C   UNL     1     143.089 132.332 137.536  1.00  0.00     0.157 A 
ATOM      5  C   UNL     1     141.801 132.776 137.208  1.00  0.00     0.051 A 
ATOM      6  C   UNL     1     141.339 134.006 137.680  1.00  0.00     0.012 A 
ENDROOT
BRANCH   1   7
ATOM      7  C   UNL     1     141.639 136.102 138.973  1.00  0.00     0.003 C 
ATOM      8  C   UNL     1     142.161 137.380 136.876  1.00  0.00     0.035 C 
ATOM      9  C   UNL     1     141.654 137.251 138.282  1.00  0.00    -0.030 C 
ENDBRANCH   1   7
BRANCH   3  10
ATOM     10  O   UNL     1     145.196 132.634 138.669  1.00  0.00    -0.493 OA
ATOM     11  C   UNL     1     146.381 132.947 137.943  1.00  0.00     0.278 C 
ENDBRANCH   3  10
BRANCH   4  12
ATOM     12  O   UNL     1     143.552 131.106 137.061  1.00  0.00    -0.504 OA
ATOM     13  H   UNL     1     144.363 131.044 136.456  1.00  0.00     0.293 HD
ENDBRANCH   4  12
TORSDOF 3
ENDMDL
MODEL 3
REMARK VINA RESULT:    -3.664      8.801     10.550
REMARK INTER + INTRA:          -4.428
REMARK INTER:                  -4.189
REMARK INTRA:                  -0.239
REMARK UNBOUND:                -0.229
REMARK SMILES CC=Cc1ccc(O)c(OC)c1
REMARK SMILES IDX 4 1 12 2 9 3 7 4 6 5 5 6 3 7 1 8 2 9 10 10 11 11 8 12
REMARK H PARENT 8 13
REMARK Flexibility Score: inf
ROOT
ATOM      1  C   UNL     1     146.790 142.118 138.448  1.00  0.00    -0.022 A 
ATOM      2  C   UNL     1     147.247 143.410 138.758  1.00  0.00     0.058 A 
ATOM      3  C   UNL     1     148.478 143.874 138.253  1.00  0.00     0.161 A 
ATOM      4  C   UNL     1     149.258 143.024 137.455  1.00  0.00     0.157 A 
ATOM      5  C   UNL     1     148.816 141.725 137.173  1.00  0.00     0.051 A 
ATOM      6  C   UNL     1     147.594 141.272 137.675  1.00  0.00     0.012 A 
ENDROOT
BRANCH   1   7
ATOM      7  C   UNL     1     145.513 141.604 138.984  1.00  0.00     0.003 C 
ATOM      8  C   UNL     1     144.190 142.125 136.916  1.00  0.00     0.035 C 
ATOM      9  C   UNL     1     144.348 141.623 138.321  1.00  0.00    -0.030 C 
ENDBRANCH   1   7
BRANCH   3  10
ATOM     10  O   UNL     1     148.961 145.164 138.525  1.00  0.00    -0.493 OA
ATOM     11  C   UNL     1     148.583 146.334 137.806  1.00  0.00     0.278 C 
ENDBRANCH   3  10
BRANCH   4  12
ATOM     12  O   UNL     1     150.476 143.478 136.950  1.00  0.00    -0.504 OA
ATOM     13  H   UNL     1     151.344 142.993 137.144  1.00  0.00     0.293 HD
ENDBRANCH   4  12
TORSDOF 3
ENDMDL
MODEL 4
REMARK VINA RESULT:    -3.662      8.753     10.489
REMARK INTER + INTRA:          -4.426
REMARK INTER:                  -4.182
REMARK INTRA:                  -0.244
REMARK UNBOUND:                -0.229
REMARK SMILES CC=Cc1ccc(O)c(OC)c1
REMARK SMILES IDX 4 1 12 2 9 3 7 4 6 5 5 6 3 7 1 8 2 9 10 10 11 11 8 12
REMARK H PARENT 8 13
REMARK Flexibility Score: inf
ROOT
ATOM      1  C   UNL     1     134.815 139.455 138.417  1.00  0.00    -0.022 A 
ATOM      2  C   UNL     1     134.348 138.170 138.741  1.00  0.00     0.058 A 
ATOM      3  C   UNL     1     133.117 137.707 138.234  1.00  0.00     0.161 A 
ATOM      4  C   UNL     1     132.348 138.551 137.420  1.00  0.00     0.157 A 
ATOM      5  C   UNL     1     132.800 139.844 137.124  1.00  0.00     0.051 A 
ATOM      6  C   UNL     1     134.021 140.296 137.627  1.00  0.00     0.012 A 
ENDROOT
BRANCH   1   7
ATOM      7  C   UNL     1     136.092 139.968 138.954  1.00  0.00     0.003 C 
ATOM      8  C   UNL     1     137.434 139.369 136.920  1.00  0.00     0.035 C 
ATOM      9  C   UNL     1     137.265 139.914 138.307  1.00  0.00    -0.030 C 
ENDBRANCH   1   7
BRANCH   3  10
ATOM     10  O   UNL     1     132.624 136.425 138.521  1.00  0.00    -0.493 OA
ATOM     11  C   UNL     1     132.992 135.244 137.815  1.00  0.00     0.278 C 
ENDBRANCH   3  10
BRANCH   4  12
ATOM     12  O   UNL     1     131.130 138.099 136.914  1.00  0.00    -0.504 OA
ATOM     13  H   UNL     1     130.620 138.624 136.213  1.00  0.00     0.293 HD
ENDBRANCH   4  12
TORSDOF 3
ENDMDL
MODEL 5
REMARK VINA RESULT:    -3.601      1.748      3.256
REMARK INTER + INTRA:          -4.356
REMARK INTER:                  -4.162
REMARK INTRA:                  -0.194
REMARK UNBOUND:                -0.229
REMARK SMILES CC=Cc1ccc(O)c(OC)c1
REMARK SMILES IDX 4 1 12 2 9 3 7 4 6 5 5 6 3 7 1 8 2 9 10 10 11 11 8 12
REMARK H PARENT 8 13
REMARK Flexibility Score: inf
ROOT
ATOM      1  C   UNL     1     137.924 147.370 138.995  1.00  0.00    -0.022 A 
ATOM      2  C   UNL     1     137.082 148.298 138.360  1.00  0.00     0.058 A 
ATOM      3  C   UNL     1     135.681 148.188 138.471  1.00  0.00     0.161 A 
ATOM      4  C   UNL     1     135.132 147.126 139.205  1.00  0.00     0.157 A 
ATOM      5  C   UNL     1     135.972 146.184 139.812  1.00  0.00     0.051 A 
ATOM      6  C   UNL     1     137.359 146.300 139.699  1.00  0.00     0.012 A 
ENDROOT
BRANCH   1   7
ATOM      7  C   UNL     1     139.394 147.454 138.873  1.00  0.00     0.003 C 
ATOM      8  C   UNL     1     139.544 145.797 136.994  1.00  0.00     0.035 C 
ATOM      9  C   UNL     1     140.125 146.743 138.002  1.00  0.00    -0.030 C 
ENDBRANCH   1   7
BRANCH   3  10
ATOM     10  O   UNL     1     134.808 149.104 137.866  1.00  0.00    -0.493 OA
ATOM     11  C   UNL     1     135.218 150.318 137.243  1.00  0.00     0.278 C 
ENDBRANCH   3  10
BRANCH   4  12
ATOM     12  O   UNL     1     133.747 147.013 139.322  1.00  0.00    -0.504 OA
ATOM     13  H   UNL     1     133.124 147.376 138.611  1.00  0.00     0.293 HD
ENDBRANCH   4  12
TORSDOF 3
ENDMDL
MODEL 6
REMARK VINA RESULT:    -3.581      8.482      9.726
REMARK INTER + INTRA:          -4.333
REMARK INTER:                  -4.107
REMARK INTRA:                  -0.227
REMARK UNBOUND:                -0.229
REMARK SMILES CC=Cc1ccc(O)c(OC)c1
REMARK SMILES IDX 4 1 12 2 9 3 7 4 6 5 5 6 3 7 1 8 2 9 10 10 11 11 8 12
REMARK H PARENT 8 13
REMARK Flexibility Score: inf
ROOT
ATOM      1  C   UNL     1     147.287 143.484 138.993  1.00  0.00    -0.022 A 
ATOM      2  C   UNL     1     148.081 144.297 138.167  1.00  0.00     0.058 A 
ATOM      3  C   UNL     1     148.031 145.700 138.281  1.00  0.00     0.161 A 
ATOM      4  C   UNL     1     147.161 146.283 139.214  1.00  0.00     0.157 A 
ATOM      5  C   UNL     1     146.346 145.473 140.015  1.00  0.00     0.051 A 
ATOM      6  C   UNL     1     146.402 144.083 139.899  1.00  0.00     0.012 A 
ENDROOT
BRANCH   1   7
ATOM      7  C   UNL     1     147.307 142.012 138.875  1.00  0.00     0.003 C 
ATOM      8  C   UNL     1     145.393 141.904 137.255  1.00  0.00     0.035 C 
ATOM      9  C   UNL     1     146.456 141.299 138.123  1.00  0.00    -0.030 C 
ENDBRANCH   1   7
BRANCH   3  10
ATOM     10  O   UNL     1     148.821 146.545 137.485  1.00  0.00    -0.493 OA
ATOM     11  C   UNL     1     150.243 146.499 137.428  1.00  0.00     0.278 C 
ENDBRANCH   3  10
BRANCH   4  12
ATOM     12  O   UNL     1     147.108 147.671 139.334  1.00  0.00    -0.504 OA
ATOM     13  H   UNL     1     146.918 148.120 140.222  1.00  0.00     0.293 HD
ENDBRANCH   4  12
TORSDOF 3
ENDMDL
MODEL 7
REMARK VINA RESULT:    -3.494      9.984     12.011
REMARK INTER + INTRA:          -4.234
REMARK INTER:                  -3.994
REMARK INTRA:                  -0.240
REMARK UNBOUND:                -0.229
REMARK SMILES CC=Cc1ccc(O)c(OC)c1
REMARK SMILES IDX 4 1 12 2 9 3 7 4 6 5 5 6 3 7 1 8 2 9 10 10 11 11 8 12
REMARK H PARENT 8 13
REMARK Flexibility Score: inf
ROOT
ATOM      1  C   UNL     1     134.571 138.089 139.113  1.00  0.00    -0.022 A 
ATOM      2  C   UNL     1     133.775 137.340 138.230  1.00  0.00     0.058 A 
ATOM      3  C   UNL     1     133.763 135.932 138.295  1.00  0.00     0.161 A 
ATOM      4  C   UNL     1     134.573 135.281 139.236  1.00  0.00     0.157 A 
ATOM      5  C   UNL     1     135.391 136.028 140.095  1.00  0.00     0.051 A 
ATOM      6  C   UNL     1     135.396 137.422 140.027  1.00  0.00     0.012 A 
ENDROOT
BRANCH   1   7
ATOM      7  C   UNL     1     134.615 139.564 139.048  1.00  0.00     0.003 C 
ATOM      8  C   UNL     1     136.493 139.645 137.384  1.00  0.00     0.035 C 
ATOM      9  C   UNL     1     135.480 140.265 138.300  1.00  0.00    -0.030 C 
ENDBRANCH   1   7
BRANCH   3  10
ATOM     10  O   UNL     1     132.969 135.150 137.442  1.00  0.00    -0.493 OA
ATOM     11  C   UNL     1     131.553 135.030 137.545  1.00  0.00     0.278 C 
ENDBRANCH   3  10
BRANCH   4  12
ATOM     12  O   UNL     1     134.565 133.889 139.308  1.00  0.00    -0.504 OA
ATOM     13  H   UNL     1     134.917 133.397 140.121  1.00  0.00     0.293 HD
ENDBRANCH   4  12
TORSDOF 3
ENDMDL
MODEL 8
REMARK VINA RESULT:    -3.354      2.031      2.744
REMARK INTER + INTRA:          -4.073
REMARK INTER:                  -3.850
REMARK INTRA:                  -0.223
REMARK UNBOUND:                -0.229
REMARK SMILES CC=Cc1ccc(O)c(OC)c1
REMARK SMILES IDX 4 1 12 2 9 3 7 4 6 5 5 6 3 7 1 8 2 9 10 10 11 11 8 12
REMARK H PARENT 8 13
REMARK Flexibility Score: inf
ROOT
ATOM      1  C   UNL     1     137.446 146.221 138.765  1.00  0.00    -0.022 A 
ATOM      2  C   UNL     1     136.970 147.540 138.679  1.00  0.00     0.058 A 
ATOM      3  C   UNL     1     137.807 148.574 138.216  1.00  0.00     0.161 A 
ATOM      4  C   UNL     1     139.132 148.280 137.863  1.00  0.00     0.157 A 
ATOM      5  C   UNL     1     139.615 146.970 137.980  1.00  0.00     0.051 A 
ATOM      6  C   UNL     1     138.780 145.949 138.438  1.00  0.00     0.012 A 
ENDROOT
BRANCH   1   7
ATOM      7  C   UNL     1     136.592 145.125 139.269  1.00  0.00     0.003 C 
ATOM      8  C   UNL     1     137.183 145.490 141.681  1.00  0.00     0.035 C 
ATOM      9  C   UNL     1     136.486 144.778 140.560  1.00  0.00    -0.030 C 
ENDBRANCH   1   7
BRANCH   3  10
ATOM     10  O   UNL     1     137.363 149.901 138.098  1.00  0.00    -0.493 OA
ATOM     11  C   UNL     1     136.537 150.561 139.052  1.00  0.00     0.278 C 
ENDBRANCH   3  10
BRANCH   4  12
ATOM     12  O   UNL     1     139.965 149.298 137.401  1.00  0.00    -0.504 OA
ATOM     13  H   UNL     1     139.609 150.226 137.203  1.00  0.00     0.293 HD
ENDBRANCH   4  12
TORSDOF 3
ENDMDL
MODEL 9
REMARK VINA RESULT:    -3.349     12.477     14.092
REMARK INTER + INTRA:          -4.068
REMARK INTER:                  -3.826
REMARK INTRA:                  -0.242
REMARK UNBOUND:                -0.229
REMARK SMILES CC=Cc1ccc(O)c(OC)c1
REMARK SMILES IDX 4 1 12 2 9 3 7 4 6 5 5 6 3 7 1 8 2 9 10 10 11 11 8 12
REMARK H PARENT 8 13
REMARK Flexibility Score: inf
ROOT
ATOM      1  C   UNL     1     142.842 135.768 138.626  1.00  0.00    -0.022 A 
ATOM      2  C   UNL     1     143.294 134.438 138.668  1.00  0.00     0.058 A 
ATOM      3  C   UNL     1     144.640 134.147 138.967  1.00  0.00     0.161 A 
ATOM      4  C   UNL     1     145.535 135.202 139.199  1.00  0.00     0.157 A 
ATOM      5  C   UNL     1     145.091 136.529 139.124  1.00  0.00     0.051 A 
ATOM      6  C   UNL     1     143.756 136.809 138.830  1.00  0.00     0.012 A 
ENDROOT
BRANCH   1   7
ATOM      7  C   UNL     1     141.441 136.095 138.293  1.00  0.00     0.003 C 
ATOM      8  C   UNL     1     140.687 136.248 140.682  1.00  0.00     0.035 C 
ATOM      9  C   UNL     1     140.471 136.288 139.198  1.00  0.00    -0.030 C 
ENDBRANCH   1   7
BRANCH   3  10
ATOM     10  O   UNL     1     145.125 132.832 139.036  1.00  0.00    -0.493 OA
ATOM     11  C   UNL     1     144.814 131.808 138.096  1.00  0.00     0.278 C 
ENDBRANCH   3  10
BRANCH   4  12
ATOM     12  O   UNL     1     146.868 134.922 139.497  1.00  0.00    -0.504 OA
ATOM     13  H   UNL     1     147.325 134.088 139.147  1.00  0.00     0.293 HD
ENDBRANCH   4  12
TORSDOF 3
ENDMDL
