MODEL 1
REMARK VINA RESULT:    -5.251      0.000      0.000
REMARK INTER + INTRA:         -17.211
REMARK INTER:                 -13.233
REMARK INTRA:                  -3.977
REMARK UNBOUND:                -3.977
REMARK SMILES CCCCCCCCCCCCCCCCCCCCCCCCCCCC(=O)[O-]
REMARK SMILES IDX 15 1 16 2 17 3 18 4 19 5 20 6 21 7 22 8 23 9 24 10 25 11
REMARK SMILES IDX 26 12 27 13 28 14 29 15 30 16 14 17 13 18 12 19 11 20 10 21
REMARK SMILES IDX 9 22 8 23 7 24 6 25 5 26 4 27 3 28 2 29 1 30
REMARK H PARENT
REMARK Flexibility Score: inf
ROOT
ATOM      1  C   UNL     1      13.718 -31.107  22.568  1.00  0.00     0.000 C 
ENDROOT
BRANCH   1   2
ATOM      2  C   UNL     1      13.216 -31.284  21.127  1.00  0.00     0.000 C 
BRANCH   2   3
ATOM      3  C   UNL     1      13.871 -32.487  20.411  1.00  0.00     0.000 C 
BRANCH   3   4
ATOM      4  C   UNL     1      14.621 -33.443  21.358  1.00  0.00     0.000 C 
BRANCH   4   5
ATOM      5  C   UNL     1      15.373 -34.588  20.656  1.00  0.00     0.000 C 
BRANCH   5   6
ATOM      6  C   UNL     1      16.254 -34.124  19.474  1.00  0.00     0.000 C 
BRANCH   6   7
ATOM      7  C   UNL     1      17.120 -35.259  18.906  1.00  0.00     0.000 C 
BRANCH   7   8
ATOM      8  C   UNL     1      16.851 -36.617  19.580  1.00  0.00     0.000 C 
BRANCH   8   9
ATOM      9  C   UNL     1      18.072 -37.259  20.272  1.00  0.00     0.000 C 
BRANCH   9  10
ATOM     10  C   UNL     1      18.212 -36.954  21.774  1.00  0.00     0.000 C 
BRANCH  10  11
ATOM     11  C   UNL     1      19.435 -36.084  22.101  1.00  0.00     0.000 C 
BRANCH  11  12
ATOM     12  C   UNL     1      19.063 -34.985  23.106  1.00  0.00     0.006 C 
BRANCH  12  13
ATOM     13  C   UNL     1      17.569 -34.996  23.457  1.00  0.00     0.053 C 
BRANCH  13  14
ATOM     14  C   UNL     1      17.327 -34.955  24.937  1.00  0.00     0.041 C 
ATOM     15  O   UNL     1      17.204 -36.027  25.585  1.00  0.00    -0.550 OA
ATOM     16  O   UNL     1      17.176 -33.738  25.591  1.00  0.00    -0.550 OA
ENDBRANCH  13  14
ENDBRANCH  12  13
ENDBRANCH  11  12
ENDBRANCH  10  11
ENDBRANCH   9  10
ENDBRANCH   8   9
ENDBRANCH   7   8
ENDBRANCH   6   7
ENDBRANCH   5   6
ENDBRANCH   4   5
ENDBRANCH   3   4
ENDBRANCH   2   3
ENDBRANCH   1   2
BRANCH   1  17
ATOM     17  C   UNL     1      14.433 -29.762  22.792  1.00  0.00     0.000 C 
BRANCH  17  18
ATOM     18  C   UNL     1      15.937 -29.803  22.445  1.00  0.00     0.000 C 
BRANCH  18  19
ATOM     19  C   UNL     1      16.767 -30.472  23.554  1.00  0.00     0.000 C 
BRANCH  19  20
ATOM     20  C   UNL     1      17.948 -31.284  23.004  1.00  0.00     0.000 C 
BRANCH  20  21
ATOM     21  C   UNL     1      17.733 -31.737  21.552  1.00  0.00     0.000 C 
BRANCH  21  22
ATOM     22  C   UNL     1      18.960 -31.402  20.690  1.00  0.00    -0.000 C 
BRANCH  22  23
ATOM     23  C   UNL     1      20.074 -30.696  21.481  1.00  0.00    -0.000 C 
BRANCH  23  24
ATOM     24  C   UNL     1      20.407 -29.269  21.007  1.00  0.00    -0.000 C 
BRANCH  24  25
ATOM     25  C   UNL     1      19.169 -28.410  20.670  1.00  0.00    -0.000 C 
BRANCH  25  26
ATOM     26  C   UNL     1      19.538 -26.958  20.317  1.00  0.00    -0.000 C 
BRANCH  26  27
ATOM     27  C   UNL     1      20.997 -26.608  20.661  1.00  0.00    -0.000 C 
BRANCH  27  28
ATOM     28  C   UNL     1      21.578 -25.401  19.897  1.00  0.00    -0.000 C 
BRANCH  28  29
ATOM     29  C   UNL     1      23.102 -25.227  20.020  1.00  0.00    -0.003 C 
ATOM     30  C   UNL     1      23.595 -23.880  19.493  1.00  0.00     0.004 C 
ENDBRANCH  28  29
ENDBRANCH  27  28
ENDBRANCH  26  27
ENDBRANCH  25  26
ENDBRANCH  24  25
ENDBRANCH  23  24
ENDBRANCH  22  23
ENDBRANCH  21  22
ENDBRANCH  20  21
ENDBRANCH  19  20
ENDBRANCH  18  19
ENDBRANCH  17  18
ENDBRANCH   1  17
TORSDOF 26
ENDMDL
MODEL 2
REMARK VINA RESULT:    -5.235      3.603      8.233
REMARK INTER + INTRA:         -17.170
REMARK INTER:                 -13.303
REMARK INTRA:                  -3.867
REMARK UNBOUND:                -3.977
REMARK SMILES CCCCCCCCCCCCCCCCCCCCCCCCCCCC(=O)[O-]
REMARK SMILES IDX 15 1 16 2 17 3 18 4 19 5 20 6 21 7 22 8 23 9 24 10 25 11
REMARK SMILES IDX 26 12 27 13 28 14 29 15 30 16 14 17 13 18 12 19 11 20 10 21
REMARK SMILES IDX 9 22 8 23 7 24 6 25 5 26 4 27 3 28 2 29 1 30
REMARK H PARENT
REMARK Flexibility Score: inf
ROOT
ATOM      1  C   UNL     1      13.788 -29.282  23.329  1.00  0.00     0.000 C 
ENDROOT
BRANCH   1   2
ATOM      2  C   UNL     1      14.913 -28.955  22.335  1.00  0.00     0.000 C 
BRANCH   2   3
ATOM      3  C   UNL     1      16.201 -29.765  22.604  1.00  0.00     0.000 C 
BRANCH   3   4
ATOM      4  C   UNL     1      16.899 -30.268  21.327  1.00  0.00     0.000 C 
BRANCH   4   5
ATOM      5  C   UNL     1      17.643 -31.607  21.482  1.00  0.00     0.000 C 
BRANCH   5   6
ATOM      6  C   UNL     1      19.052 -31.614  20.847  1.00  0.00     0.000 C 
BRANCH   6   7
ATOM      7  C   UNL     1      20.164 -31.812  21.889  1.00  0.00     0.000 C 
BRANCH   7   8
ATOM      8  C   UNL     1      21.147 -30.629  21.952  1.00  0.00     0.000 C 
BRANCH   8   9
ATOM      9  C   UNL     1      20.507 -29.235  21.783  1.00  0.00     0.000 C 
BRANCH   9  10
ATOM     10  C   UNL     1      20.942 -28.461  20.525  1.00  0.00     0.000 C 
BRANCH  10  11
ATOM     11  C   UNL     1      21.851 -27.264  20.839  1.00  0.00     0.000 C 
BRANCH  11  12
ATOM     12  C   UNL     1      21.225 -25.959  20.326  1.00  0.00     0.006 C 
BRANCH  12  13
ATOM     13  C   UNL     1      22.109 -24.737  20.609  1.00  0.00     0.053 C 
BRANCH  13  14
ATOM     14  C   UNL     1      23.161 -24.535  19.560  1.00  0.00     0.041 C 
ATOM     15  O   UNL     1      23.970 -23.576  19.654  1.00  0.00    -0.550 OA
ATOM     16  O   UNL     1      23.212 -25.366  18.446  1.00  0.00    -0.550 OA
ENDBRANCH  13  14
ENDBRANCH  12  13
ENDBRANCH  11  12
ENDBRANCH  10  11
ENDBRANCH   9  10
ENDBRANCH   8   9
ENDBRANCH   7   8
ENDBRANCH   6   7
ENDBRANCH   5   6
ENDBRANCH   4   5
ENDBRANCH   3   4
ENDBRANCH   2   3
ENDBRANCH   1   2
BRANCH   1  17
ATOM     17  C   UNL     1      13.080 -30.611  23.015  1.00  0.00     0.000 C 
BRANCH  17  18
ATOM     18  C   UNL     1      12.338 -30.606  21.661  1.00  0.00     0.000 C 
BRANCH  18  19
ATOM     19  C   UNL     1      13.018 -31.520  20.627  1.00  0.00     0.000 C 
BRANCH  19  20
ATOM     20  C   UNL     1      13.989 -32.523  21.267  1.00  0.00     0.000 C 
BRANCH  20  21
ATOM     21  C   UNL     1      14.650 -33.449  20.235  1.00  0.00     0.000 C 
BRANCH  21  22
ATOM     22  C   UNL     1      15.383 -34.607  20.932  1.00  0.00    -0.000 C 
BRANCH  22  23
ATOM     23  C   UNL     1      16.060 -35.570  19.943  1.00  0.00    -0.000 C 
BRANCH  23  24
ATOM     24  C   UNL     1      17.452 -35.129  19.451  1.00  0.00    -0.000 C 
BRANCH  24  25
ATOM     25  C   UNL     1      18.540 -35.136  20.547  1.00  0.00    -0.000 C 
BRANCH  25  26
ATOM     26  C   UNL     1      18.482 -36.398  21.426  1.00  0.00    -0.000 C 
BRANCH  26  27
ATOM     27  C   UNL     1      18.086 -36.097  22.883  1.00  0.00    -0.000 C 
BRANCH  27  28
ATOM     28  C   UNL     1      18.453 -34.684  23.381  1.00  0.00    -0.000 C 
BRANCH  28  29
ATOM     29  C   UNL     1      17.658 -34.201  24.608  1.00  0.00    -0.003 C 
ATOM     30  C   UNL     1      16.326 -33.550  24.238  1.00  0.00     0.004 C 
ENDBRANCH  28  29
ENDBRANCH  27  28
ENDBRANCH  26  27
ENDBRANCH  25  26
ENDBRANCH  24  25
ENDBRANCH  23  24
ENDBRANCH  22  23
ENDBRANCH  21  22
ENDBRANCH  20  21
ENDBRANCH  19  20
ENDBRANCH  18  19
ENDBRANCH  17  18
ENDBRANCH   1  17
TORSDOF 26
ENDMDL
MODEL 3
REMARK VINA RESULT:    -5.228      3.194      5.714
REMARK INTER + INTRA:         -17.151
REMARK INTER:                 -12.857
REMARK INTRA:                  -4.293
REMARK UNBOUND:                -3.977
REMARK SMILES CCCCCCCCCCCCCCCCCCCCCCCCCCCC(=O)[O-]
REMARK SMILES IDX 15 1 16 2 17 3 18 4 19 5 20 6 21 7 22 8 23 9 24 10 25 11
REMARK SMILES IDX 26 12 27 13 28 14 29 15 30 16 14 17 13 18 12 19 11 20 10 21
REMARK SMILES IDX 9 22 8 23 7 24 6 25 5 26 4 27 3 28 2 29 1 30
REMARK H PARENT
REMARK Flexibility Score: inf
ROOT
ATOM      1  C   UNL     1      19.085 -31.265  21.882  1.00  0.00     0.000 C 
ENDROOT
BRANCH   1   2
ATOM      2  C   UNL     1      18.434 -31.670  20.550  1.00  0.00     0.000 C 
BRANCH   2   3
ATOM      3  C   UNL     1      18.281 -33.200  20.402  1.00  0.00     0.000 C 
BRANCH   3   4
ATOM      4  C   UNL     1      17.543 -33.630  19.120  1.00  0.00     0.000 C 
BRANCH   4   5
ATOM      5  C   UNL     1      16.113 -34.154  19.343  1.00  0.00     0.000 C 
BRANCH   5   6
ATOM      6  C   UNL     1      16.055 -35.597  19.895  1.00  0.00     0.000 C 
BRANCH   6   7
ATOM      7  C   UNL     1      17.082 -36.522  19.223  1.00  0.00     0.000 C 
BRANCH   7   8
ATOM      8  C   UNL     1      17.954 -37.289  20.234  1.00  0.00     0.000 C 
BRANCH   8   9
ATOM      9  C   UNL     1      18.027 -36.664  21.643  1.00  0.00     0.000 C 
BRANCH   9  10
ATOM     10  C   UNL     1      19.438 -36.274  22.117  1.00  0.00     0.000 C 
BRANCH  10  11
ATOM     11  C   UNL     1      20.039 -37.278  23.112  1.00  0.00     0.000 C 
BRANCH  11  12
ATOM     12  C   UNL     1      19.021 -37.632  24.205  1.00  0.00     0.006 C 
BRANCH  12  13
ATOM     13  C   UNL     1      19.374 -36.999  25.558  1.00  0.00     0.053 C 
BRANCH  13  14
ATOM     14  C   UNL     1      18.413 -37.389  26.641  1.00  0.00     0.041 C 
ATOM     15  O   UNL     1      18.805 -37.461  27.835  1.00  0.00    -0.550 OA
ATOM     16  O   UNL     1      17.103 -37.731  26.329  1.00  0.00    -0.550 OA
ENDBRANCH  13  14
ENDBRANCH  12  13
ENDBRANCH  11  12
ENDBRANCH  10  11
ENDBRANCH   9  10
ENDBRANCH   8   9
ENDBRANCH   7   8
ENDBRANCH   6   7
ENDBRANCH   5   6
ENDBRANCH   4   5
ENDBRANCH   3   4
ENDBRANCH   2   3
ENDBRANCH   1   2
BRANCH   1  17
ATOM     17  C   UNL     1      20.373 -32.052  22.182  1.00  0.00     0.000 C 
BRANCH  17  18
ATOM     18  C   UNL     1      20.281 -32.914  23.459  1.00  0.00     0.000 C 
BRANCH  18  19
ATOM     19  C   UNL     1      19.039 -32.571  24.299  1.00  0.00     0.000 C 
BRANCH  19  20
ATOM     20  C   UNL     1      17.982 -33.686  24.280  1.00  0.00     0.000 C 
BRANCH  20  21
ATOM     21  C   UNL     1      16.546 -33.141  24.233  1.00  0.00     0.000 C 
BRANCH  21  22
ATOM     22  C   UNL     1      15.808 -33.657  22.989  1.00  0.00    -0.000 C 
BRANCH  22  23
ATOM     23  C   UNL     1      14.632 -32.758  22.573  1.00  0.00    -0.000 C 
BRANCH  23  24
ATOM     24  C   UNL     1      15.027 -31.466  21.833  1.00  0.00    -0.000 C 
BRANCH  24  25
ATOM     25  C   UNL     1      13.827 -30.638  21.325  1.00  0.00    -0.000 C 
BRANCH  25  26
ATOM     26  C   UNL     1      12.546 -30.899  22.137  1.00  0.00    -0.000 C 
BRANCH  26  27
ATOM     27  C   UNL     1      11.456 -29.839  21.898  1.00  0.00    -0.000 C 
BRANCH  27  28
ATOM     28  C   UNL     1      11.384 -28.725  22.963  1.00  0.00    -0.000 C 
BRANCH  28  29
ATOM     29  C   UNL     1      12.523 -28.742  23.999  1.00  0.00    -0.003 C 
ATOM     30  C   UNL     1      12.668 -27.419  24.750  1.00  0.00     0.004 C 
ENDBRANCH  28  29
ENDBRANCH  27  28
ENDBRANCH  26  27
ENDBRANCH  25  26
ENDBRANCH  24  25
ENDBRANCH  23  24
ENDBRANCH  22  23
ENDBRANCH  21  22
ENDBRANCH  20  21
ENDBRANCH  19  20
ENDBRANCH  18  19
ENDBRANCH  17  18
ENDBRANCH   1  17
TORSDOF 26
ENDMDL
MODEL 4
REMARK VINA RESULT:    -5.215      3.406      7.773
REMARK INTER + INTRA:         -17.119
REMARK INTER:                 -12.244
REMARK INTRA:                  -4.875
REMARK UNBOUND:                -3.977
REMARK SMILES CCCCCCCCCCCCCCCCCCCCCCCCCCCC(=O)[O-]
REMARK SMILES IDX 15 1 16 2 17 3 18 4 19 5 20 6 21 7 22 8 23 9 24 10 25 11
REMARK SMILES IDX 26 12 27 13 28 14 29 15 30 16 14 17 13 18 12 19 11 20 10 21
REMARK SMILES IDX 9 22 8 23 7 24 6 25 5 26 4 27 3 28 2 29 1 30
REMARK H PARENT
REMARK Flexibility Score: inf
ROOT
ATOM      1  C   UNL     1      15.039 -30.236  23.070  1.00  0.00     0.000 C 
ENDROOT
BRANCH   1   2
ATOM      2  C   UNL     1      15.699 -29.854  21.737  1.00  0.00     0.000 C 
BRANCH   2   3
ATOM      3  C   UNL     1      17.236 -30.016  21.764  1.00  0.00     0.000 C 
BRANCH   3   4
ATOM      4  C   UNL     1      17.738 -31.303  21.084  1.00  0.00     0.000 C 
BRANCH   4   5
ATOM      5  C   UNL     1      19.247 -31.326  20.779  1.00  0.00     0.000 C 
BRANCH   5   6
ATOM      6  C   UNL     1      20.086 -32.076  21.838  1.00  0.00     0.000 C 
BRANCH   6   7
ATOM      7  C   UNL     1      21.181 -31.190  22.455  1.00  0.00     0.000 C 
BRANCH   7   8
ATOM      8  C   UNL     1      20.767 -29.712  22.567  1.00  0.00     0.000 C 
BRANCH   8   9
ATOM      9  C   UNL     1      21.725 -28.710  21.887  1.00  0.00     0.000 C 
BRANCH   9  10
ATOM     10  C   UNL     1      21.252 -28.168  20.526  1.00  0.00     0.000 C 
BRANCH  10  11
ATOM     11  C   UNL     1      19.818 -27.620  20.561  1.00  0.00     0.000 C 
BRANCH  11  12
ATOM     12  C   UNL     1      19.825 -26.085  20.575  1.00  0.00     0.006 C 
BRANCH  12  13
ATOM     13  C   UNL     1      21.094 -25.502  19.938  1.00  0.00     0.053 C 
BRANCH  13  14
ATOM     14  C   UNL     1      21.947 -24.767  20.929  1.00  0.00     0.041 C 
ATOM     15  O   UNL     1      23.183 -25.000  20.992  1.00  0.00    -0.550 OA
ATOM     16  O   UNL     1      21.373 -23.872  21.824  1.00  0.00    -0.550 OA
ENDBRANCH  13  14
ENDBRANCH  12  13
ENDBRANCH  11  12
ENDBRANCH  10  11
ENDBRANCH   9  10
ENDBRANCH   8   9
ENDBRANCH   7   8
ENDBRANCH   6   7
ENDBRANCH   5   6
ENDBRANCH   4   5
ENDBRANCH   3   4
ENDBRANCH   2   3
ENDBRANCH   1   2
BRANCH   1  17
ATOM     17  C   UNL     1      14.246 -31.553  22.990  1.00  0.00     0.000 C 
BRANCH  17  18
ATOM     18  C   UNL     1      14.192 -32.150  21.567  1.00  0.00     0.000 C 
BRANCH  18  19
ATOM     19  C   UNL     1      14.814 -33.555  21.507  1.00  0.00     0.000 C 
BRANCH  19  20
ATOM     20  C   UNL     1      15.194 -33.977  20.080  1.00  0.00     0.000 C 
BRANCH  20  21
ATOM     21  C   UNL     1      15.706 -35.423  20.005  1.00  0.00     0.000 C 
BRANCH  21  22
ATOM     22  C   UNL     1      17.137 -35.466  19.447  1.00  0.00    -0.000 C 
BRANCH  22  23
ATOM     23  C   UNL     1      18.190 -34.988  20.460  1.00  0.00    -0.000 C 
BRANCH  23  24
ATOM     24  C   UNL     1      18.345 -35.876  21.709  1.00  0.00    -0.000 C 
BRANCH  24  25
ATOM     25  C   UNL     1      18.650 -35.094  23.006  1.00  0.00    -0.000 C 
BRANCH  25  26
ATOM     26  C   UNL     1      17.643 -35.400  24.128  1.00  0.00    -0.000 C 
BRANCH  26  27
ATOM     27  C   UNL     1      16.741 -34.200  24.470  1.00  0.00    -0.000 C 
BRANCH  27  28
ATOM     28  C   UNL     1      17.390 -32.816  24.265  1.00  0.00    -0.000 C 
BRANCH  28  29
ATOM     29  C   UNL     1      18.403 -32.406  25.349  1.00  0.00    -0.003 C 
ATOM     30  C   UNL     1      18.652 -30.899  25.396  1.00  0.00     0.004 C 
ENDBRANCH  28  29
ENDBRANCH  27  28
ENDBRANCH  26  27
ENDBRANCH  25  26
ENDBRANCH  24  25
ENDBRANCH  23  24
ENDBRANCH  22  23
ENDBRANCH  21  22
ENDBRANCH  20  21
ENDBRANCH  19  20
ENDBRANCH  18  19
ENDBRANCH  17  18
ENDBRANCH   1  17
TORSDOF 26
ENDMDL
MODEL 5
REMARK VINA RESULT:    -5.207      3.026      7.652
REMARK INTER + INTRA:         -17.100
REMARK INTER:                 -12.685
REMARK INTRA:                  -4.415
REMARK UNBOUND:                -3.977
REMARK SMILES CCCCCCCCCCCCCCCCCCCCCCCCCCCC(=O)[O-]
REMARK SMILES IDX 15 1 16 2 17 3 18 4 19 5 20 6 21 7 22 8 23 9 24 10 25 11
REMARK SMILES IDX 26 12 27 13 28 14 29 15 30 16 14 17 13 18 12 19 11 20 10 21
REMARK SMILES IDX 9 22 8 23 7 24 6 25 5 26 4 27 3 28 2 29 1 30
REMARK H PARENT
REMARK Flexibility Score: inf
ROOT
ATOM      1  C   UNL     1      19.216 -36.933  24.766  1.00  0.00     0.000 C 
ENDROOT
BRANCH   1   2
ATOM      2  C   UNL     1      18.032 -37.192  25.710  1.00  0.00     0.000 C 
BRANCH   2   3
ATOM      3  C   UNL     1      17.164 -35.933  25.937  1.00  0.00     0.000 C 
BRANCH   3   4
ATOM      4  C   UNL     1      17.165 -34.954  24.748  1.00  0.00     0.000 C 
BRANCH   4   5
ATOM      5  C   UNL     1      17.557 -33.508  25.103  1.00  0.00     0.000 C 
BRANCH   5   6
ATOM      6  C   UNL     1      18.515 -32.853  24.081  1.00  0.00     0.000 C 
BRANCH   6   7
ATOM      7  C   UNL     1      18.421 -33.502  22.691  1.00  0.00     0.000 C 
BRANCH   7   8
ATOM      8  C   UNL     1      19.129 -32.684  21.596  1.00  0.00     0.000 C 
BRANCH   8   9
ATOM      9  C   UNL     1      18.227 -31.690  20.834  1.00  0.00     0.000 C 
BRANCH   9  10
ATOM     10  C   UNL     1      18.725 -30.234  20.811  1.00  0.00     0.000 C 
BRANCH  10  11
ATOM     11  C   UNL     1      20.151 -30.077  21.359  1.00  0.00     0.000 C 
BRANCH  11  12
ATOM     12  C   UNL     1      20.796 -28.788  20.829  1.00  0.00     0.006 C 
BRANCH  12  13
ATOM     13  C   UNL     1      19.755 -27.711  20.493  1.00  0.00     0.053 C 
BRANCH  13  14
ATOM     14  C   UNL     1      20.275 -26.322  20.717  1.00  0.00     0.041 C 
ATOM     15  O   UNL     1      19.907 -25.383  19.965  1.00  0.00    -0.550 OA
ATOM     16  O   UNL     1      21.209 -26.074  21.716  1.00  0.00    -0.550 OA
ENDBRANCH  13  14
ENDBRANCH  12  13
ENDBRANCH  11  12
ENDBRANCH  10  11
ENDBRANCH   9  10
ENDBRANCH   8   9
ENDBRANCH   7   8
ENDBRANCH   6   7
ENDBRANCH   5   6
ENDBRANCH   4   5
ENDBRANCH   3   4
ENDBRANCH   2   3
ENDBRANCH   1   2
BRANCH   1  17
ATOM     17  C   UNL     1      19.231 -37.880  23.553  1.00  0.00     0.000 C 
BRANCH  17  18
ATOM     18  C   UNL     1      19.552 -37.165  22.222  1.00  0.00     0.000 C 
BRANCH  18  19
ATOM     19  C   UNL     1      18.280 -36.694  21.498  1.00  0.00     0.000 C 
BRANCH  19  20
ATOM     20  C   UNL     1      18.011 -37.471  20.202  1.00  0.00     0.000 C 
BRANCH  20  21
ATOM     21  C   UNL     1      17.340 -36.609  19.121  1.00  0.00     0.000 C 
BRANCH  21  22
ATOM     22  C   UNL     1      17.441 -35.117  19.475  1.00  0.00    -0.000 C 
BRANCH  22  23
ATOM     23  C   UNL     1      16.125 -34.355  19.241  1.00  0.00    -0.000 C 
BRANCH  23  24
ATOM     24  C   UNL     1      15.016 -34.634  20.273  1.00  0.00    -0.000 C 
BRANCH  24  25
ATOM     25  C   UNL     1      15.095 -33.752  21.538  1.00  0.00    -0.000 C 
BRANCH  25  26
ATOM     26  C   UNL     1      14.364 -32.409  21.365  1.00  0.00    -0.000 C 
BRANCH  26  27
ATOM     27  C   UNL     1      13.794 -31.860  22.685  1.00  0.00    -0.000 C 
BRANCH  27  28
ATOM     28  C   UNL     1      14.849 -31.380  23.703  1.00  0.00    -0.000 C 
BRANCH  28  29
ATOM     29  C   UNL     1      15.870 -30.368  23.152  1.00  0.00    -0.003 C 
ATOM     30  C   UNL     1      15.215 -29.128  22.545  1.00  0.00     0.004 C 
ENDBRANCH  28  29
ENDBRANCH  27  28
ENDBRANCH  26  27
ENDBRANCH  25  26
ENDBRANCH  24  25
ENDBRANCH  23  24
ENDBRANCH  22  23
ENDBRANCH  21  22
ENDBRANCH  20  21
ENDBRANCH  19  20
ENDBRANCH  18  19
ENDBRANCH  17  18
ENDBRANCH   1  17
TORSDOF 26
ENDMDL
MODEL 6
REMARK VINA RESULT:    -5.187      3.461      7.194
REMARK INTER + INTRA:         -17.048
REMARK INTER:                 -11.927
REMARK INTRA:                  -5.121
REMARK UNBOUND:                -3.977
REMARK SMILES CCCCCCCCCCCCCCCCCCCCCCCCCCCC(=O)[O-]
REMARK SMILES IDX 15 1 16 2 17 3 18 4 19 5 20 6 21 7 22 8 23 9 24 10 25 11
REMARK SMILES IDX 26 12 27 13 28 14 29 15 30 16 14 17 13 18 12 19 11 20 10 21
REMARK SMILES IDX 9 22 8 23 7 24 6 25 5 26 4 27 3 28 2 29 1 30
REMARK H PARENT
REMARK Flexibility Score: inf
ROOT
ATOM      1  C   UNL     1      19.042 -36.647  22.801  1.00  0.00     0.000 C 
ENDROOT
BRANCH   1   2
ATOM      2  C   UNL     1      19.819 -35.587  23.597  1.00  0.00     0.000 C 
BRANCH   2   3
ATOM      3  C   UNL     1      21.319 -35.544  23.226  1.00  0.00     0.000 C 
BRANCH   3   4
ATOM      4  C   UNL     1      21.823 -34.143  22.833  1.00  0.00     0.000 C 
BRANCH   4   5
ATOM      5  C   UNL     1      20.726 -33.067  22.731  1.00  0.00     0.000 C 
BRANCH   5   6
ATOM      6  C   UNL     1      21.258 -31.670  22.337  1.00  0.00     0.000 C 
BRANCH   6   7
ATOM      7  C   UNL     1      20.241 -30.867  21.511  1.00  0.00     0.000 C 
BRANCH   7   8
ATOM      8  C   UNL     1      19.078 -31.728  20.986  1.00  0.00     0.000 C 
BRANCH   8   9
ATOM      9  C   UNL     1      17.826 -30.940  20.547  1.00  0.00     0.000 C 
BRANCH   9  10
ATOM     10  C   UNL     1      17.129 -30.137  21.661  1.00  0.00     0.000 C 
BRANCH  10  11
ATOM     11  C   UNL     1      15.608 -30.037  21.470  1.00  0.00     0.000 C 
BRANCH  11  12
ATOM     12  C   UNL     1      14.960 -29.315  22.660  1.00  0.00     0.006 C 
BRANCH  12  13
ATOM     13  C   UNL     1      13.831 -30.137  23.296  1.00  0.00     0.053 C 
BRANCH  13  14
ATOM     14  C   UNL     1      12.530 -29.392  23.332  1.00  0.00     0.041 C 
ATOM     15  O   UNL     1      11.693 -29.540  22.403  1.00  0.00    -0.550 OA
ATOM     16  O   UNL     1      12.265 -28.489  24.355  1.00  0.00    -0.550 OA
ENDBRANCH  13  14
ENDBRANCH  12  13
ENDBRANCH  11  12
ENDBRANCH  10  11
ENDBRANCH   9  10
ENDBRANCH   8   9
ENDBRANCH   7   8
ENDBRANCH   6   7
ENDBRANCH   5   6
ENDBRANCH   4   5
ENDBRANCH   3   4
ENDBRANCH   2   3
ENDBRANCH   1   2
BRANCH   1  17
ATOM     17  C   UNL     1      18.725 -36.202  21.362  1.00  0.00     0.000 C 
BRANCH  17  18
ATOM     18  C   UNL     1      17.889 -37.232  20.573  1.00  0.00     0.000 C 
BRANCH  18  19
ATOM     19  C   UNL     1      16.811 -36.558  19.707  1.00  0.00     0.000 C 
BRANCH  19  20
ATOM     20  C   UNL     1      17.255 -35.194  19.159  1.00  0.00     0.000 C 
BRANCH  20  21
ATOM     21  C   UNL     1      16.231 -34.082  19.435  1.00  0.00     0.000 C 
BRANCH  21  22
ATOM     22  C   UNL     1      15.222 -34.525  20.507  1.00  0.00    -0.000 C 
BRANCH  22  23
ATOM     23  C   UNL     1      15.253 -33.637  21.762  1.00  0.00    -0.000 C 
BRANCH  23  24
ATOM     24  C   UNL     1      16.501 -33.803  22.650  1.00  0.00    -0.000 C 
BRANCH  24  25
ATOM     25  C   UNL     1      16.357 -33.192  24.061  1.00  0.00    -0.000 C 
BRANCH  25  26
ATOM     26  C   UNL     1      17.531 -32.264  24.422  1.00  0.00    -0.000 C 
BRANCH  26  27
ATOM     27  C   UNL     1      18.268 -32.699  25.702  1.00  0.00    -0.000 C 
BRANCH  27  28
ATOM     28  C   UNL     1      19.663 -32.069  25.898  1.00  0.00    -0.000 C 
BRANCH  28  29
ATOM     29  C   UNL     1      19.726 -30.548  25.671  1.00  0.00    -0.003 C 
ATOM     30  C   UNL     1      19.084 -29.747  26.804  1.00  0.00     0.004 C 
ENDBRANCH  28  29
ENDBRANCH  27  28
ENDBRANCH  26  27
ENDBRANCH  25  26
ENDBRANCH  24  25
ENDBRANCH  23  24
ENDBRANCH  22  23
ENDBRANCH  21  22
ENDBRANCH  20  21
ENDBRANCH  19  20
ENDBRANCH  18  19
ENDBRANCH  17  18
ENDBRANCH   1  17
TORSDOF 26
ENDMDL
MODEL 7
REMARK VINA RESULT:    -5.130      3.925      9.007
REMARK INTER + INTRA:         -16.905
REMARK INTER:                 -13.343
REMARK INTRA:                  -3.562
REMARK UNBOUND:                -3.977
REMARK SMILES CCCCCCCCCCCCCCCCCCCCCCCCCCCC(=O)[O-]
REMARK SMILES IDX 15 1 16 2 17 3 18 4 19 5 20 6 21 7 22 8 23 9 24 10 25 11
REMARK SMILES IDX 26 12 27 13 28 14 29 15 30 16 14 17 13 18 12 19 11 20 10 21
REMARK SMILES IDX 9 22 8 23 7 24 6 25 5 26 4 27 3 28 2 29 1 30
REMARK H PARENT
REMARK Flexibility Score: inf
ROOT
ATOM      1  C   UNL     1      15.014 -29.564  22.982  1.00  0.00     0.000 C 
ENDROOT
BRANCH   1   2
ATOM      2  C   UNL     1      15.887 -30.679  23.578  1.00  0.00     0.000 C 
BRANCH   2   3
ATOM      3  C   UNL     1      17.282 -30.761  22.918  1.00  0.00     0.000 C 
BRANCH   3   4
ATOM      4  C   UNL     1      17.252 -30.647  21.382  1.00  0.00     0.000 C 
BRANCH   4   5
ATOM      5  C   UNL     1      18.569 -31.024  20.681  1.00  0.00     0.000 C 
BRANCH   5   6
ATOM      6  C   UNL     1      19.731 -30.046  20.970  1.00  0.00     0.000 C 
BRANCH   6   7
ATOM      7  C   UNL     1      19.346 -28.582  20.705  1.00  0.00     0.000 C 
BRANCH   7   8
ATOM      8  C   UNL     1      20.543 -27.619  20.790  1.00  0.00     0.000 C 
BRANCH   8   9
ATOM      9  C   UNL     1      20.243 -26.162  20.376  1.00  0.00     0.000 C 
BRANCH   9  10
ATOM     10  C   UNL     1      21.380 -25.444  19.627  1.00  0.00     0.000 C 
BRANCH  10  11
ATOM     11  C   UNL     1      22.733 -25.542  20.348  1.00  0.00     0.000 C 
BRANCH  11  12
ATOM     12  C   UNL     1      23.257 -24.145  20.707  1.00  0.00     0.006 C 
BRANCH  12  13
ATOM     13  C   UNL     1      22.672 -23.624  22.027  1.00  0.00     0.053 C 
BRANCH  13  14
ATOM     14  C   UNL     1      23.234 -22.289  22.416  1.00  0.00     0.041 C 
ATOM     15  O   UNL     1      24.480 -22.125  22.483  1.00  0.00    -0.550 OA
ATOM     16  O   UNL     1      22.385 -21.244  22.763  1.00  0.00    -0.550 OA
ENDBRANCH  13  14
ENDBRANCH  12  13
ENDBRANCH  11  12
ENDBRANCH  10  11
ENDBRANCH   9  10
ENDBRANCH   8   9
ENDBRANCH   7   8
ENDBRANCH   6   7
ENDBRANCH   5   6
ENDBRANCH   4   5
ENDBRANCH   3   4
ENDBRANCH   2   3
ENDBRANCH   1   2
BRANCH   1  17
ATOM     17  C   UNL     1      13.509 -29.798  23.207  1.00  0.00     0.000 C 
BRANCH  17  18
ATOM     18  C   UNL     1      12.941 -30.971  22.380  1.00  0.00     0.000 C 
BRANCH  18  19
ATOM     19  C   UNL     1      13.455 -30.957  20.930  1.00  0.00     0.000 C 
BRANCH  19  20
ATOM     20  C   UNL     1      13.598 -32.366  20.336  1.00  0.00     0.000 C 
BRANCH  20  21
ATOM     21  C   UNL     1      14.580 -33.246  21.126  1.00  0.00     0.000 C 
BRANCH  21  22
ATOM     22  C   UNL     1      15.076 -34.417  20.265  1.00  0.00    -0.000 C 
BRANCH  22  23
ATOM     23  C   UNL     1      16.167 -34.004  19.263  1.00  0.00    -0.000 C 
BRANCH  23  24
ATOM     24  C   UNL     1      17.409 -34.915  19.236  1.00  0.00    -0.000 C 
BRANCH  24  25
ATOM     25  C   UNL     1      17.197 -36.291  19.906  1.00  0.00    -0.000 C 
BRANCH  25  26
ATOM     26  C   UNL     1      18.024 -36.452  21.194  1.00  0.00    -0.000 C 
BRANCH  26  27
ATOM     27  C   UNL     1      18.966 -35.262  21.455  1.00  0.00    -0.000 C 
BRANCH  27  28
ATOM     28  C   UNL     1      18.546 -34.340  22.618  1.00  0.00    -0.000 C 
BRANCH  28  29
ATOM     29  C   UNL     1      17.196 -34.690  23.270  1.00  0.00    -0.003 C 
ATOM     30  C   UNL     1      17.317 -35.007  24.760  1.00  0.00     0.004 C 
ENDBRANCH  28  29
ENDBRANCH  27  28
ENDBRANCH  26  27
ENDBRANCH  25  26
ENDBRANCH  24  25
ENDBRANCH  23  24
ENDBRANCH  22  23
ENDBRANCH  21  22
ENDBRANCH  20  21
ENDBRANCH  19  20
ENDBRANCH  18  19
ENDBRANCH  17  18
ENDBRANCH   1  17
TORSDOF 26
ENDMDL
MODEL 8
REMARK VINA RESULT:    -5.114      2.895      4.491
REMARK INTER + INTRA:         -16.864
REMARK INTER:                 -11.652
REMARK INTRA:                  -5.212
REMARK UNBOUND:                -3.977
REMARK SMILES CCCCCCCCCCCCCCCCCCCCCCCCCCCC(=O)[O-]
REMARK SMILES IDX 15 1 16 2 17 3 18 4 19 5 20 6 21 7 22 8 23 9 24 10 25 11
REMARK SMILES IDX 26 12 27 13 28 14 29 15 30 16 14 17 13 18 12 19 11 20 10 21
REMARK SMILES IDX 9 22 8 23 7 24 6 25 5 26 4 27 3 28 2 29 1 30
REMARK H PARENT
REMARK Flexibility Score: inf
ROOT
ATOM      1  C   UNL     1      16.131 -29.854  22.862  1.00  0.00     0.000 C 
ENDROOT
BRANCH   1   2
ATOM      2  C   UNL     1      17.481 -30.066  22.161  1.00  0.00     0.000 C 
BRANCH   2   3
ATOM      3  C   UNL     1      17.382 -31.018  20.949  1.00  0.00     0.000 C 
BRANCH   3   4
ATOM      4  C   UNL     1      18.667 -31.825  20.683  1.00  0.00     0.000 C 
BRANCH   4   5
ATOM      5  C   UNL     1      18.444 -33.326  20.424  1.00  0.00     0.000 C 
BRANCH   5   6
ATOM      6  C   UNL     1      17.337 -33.623  19.387  1.00  0.00     0.000 C 
BRANCH   6   7
ATOM      7  C   UNL     1      16.628 -34.960  19.653  1.00  0.00     0.000 C 
BRANCH   7   8
ATOM      8  C   UNL     1      17.505 -36.183  19.328  1.00  0.00     0.000 C 
BRANCH   8   9
ATOM      9  C   UNL     1      17.679 -37.190  20.484  1.00  0.00     0.000 C 
BRANCH   9  10
ATOM     10  C   UNL     1      18.804 -36.858  21.481  1.00  0.00     0.000 C 
BRANCH  10  11
ATOM     11  C   UNL     1      18.286 -36.242  22.789  1.00  0.00     0.000 C 
BRANCH  11  12
ATOM     12  C   UNL     1      19.238 -36.560  23.951  1.00  0.00     0.006 C 
BRANCH  12  13
ATOM     13  C   UNL     1      18.842 -37.844  24.693  1.00  0.00     0.053 C 
BRANCH  13  14
ATOM     14  C   UNL     1      18.372 -37.576  26.092  1.00  0.00     0.041 C 
ATOM     15  O   UNL     1      19.207 -37.338  27.003  1.00  0.00    -0.550 OA
ATOM     16  O   UNL     1      17.019 -37.648  26.405  1.00  0.00    -0.550 OA
ENDBRANCH  13  14
ENDBRANCH  12  13
ENDBRANCH  11  12
ENDBRANCH  10  11
ENDBRANCH   9  10
ENDBRANCH   8   9
ENDBRANCH   7   8
ENDBRANCH   6   7
ENDBRANCH   5   6
ENDBRANCH   4   5
ENDBRANCH   3   4
ENDBRANCH   2   3
ENDBRANCH   1   2
BRANCH   1  17
ATOM     17  C   UNL     1      15.121 -29.081  21.995  1.00  0.00     0.000 C 
BRANCH  17  18
ATOM     18  C   UNL     1      13.678 -29.133  22.540  1.00  0.00     0.000 C 
BRANCH  18  19
ATOM     19  C   UNL     1      13.086 -30.551  22.470  1.00  0.00     0.000 C 
BRANCH  19  20
ATOM     20  C   UNL     1      13.286 -31.212  21.099  1.00  0.00     0.000 C 
BRANCH  20  21
ATOM     21  C   UNL     1      14.086 -32.522  21.184  1.00  0.00     0.000 C 
BRANCH  21  22
ATOM     22  C   UNL     1      14.346 -32.907  22.649  1.00  0.00    -0.000 C 
BRANCH  22  23
ATOM     23  C   UNL     1      15.709 -33.589  22.856  1.00  0.00    -0.000 C 
BRANCH  23  24
ATOM     24  C   UNL     1      16.380 -33.307  24.213  1.00  0.00    -0.000 C 
BRANCH  24  25
ATOM     25  C   UNL     1      17.906 -33.083  24.128  1.00  0.00    -0.000 C 
BRANCH  25  26
ATOM     26  C   UNL     1      18.467 -32.377  25.375  1.00  0.00    -0.000 C 
BRANCH  26  27
ATOM     27  C   UNL     1      19.951 -31.994  25.232  1.00  0.00    -0.000 C 
BRANCH  27  28
ATOM     28  C   UNL     1      20.209 -30.580  24.672  1.00  0.00    -0.000 C 
BRANCH  28  29
ATOM     29  C   UNL     1      20.978 -30.540  23.338  1.00  0.00    -0.003 C 
ATOM     30  C   UNL     1      21.636 -31.874  22.987  1.00  0.00     0.004 C 
ENDBRANCH  28  29
ENDBRANCH  27  28
ENDBRANCH  26  27
ENDBRANCH  25  26
ENDBRANCH  24  25
ENDBRANCH  23  24
ENDBRANCH  22  23
ENDBRANCH  21  22
ENDBRANCH  20  21
ENDBRANCH  19  20
ENDBRANCH  18  19
ENDBRANCH  17  18
ENDBRANCH   1  17
TORSDOF 26
ENDMDL
MODEL 9
REMARK VINA RESULT:    -5.054      3.104      5.178
REMARK INTER + INTRA:         -16.712
REMARK INTER:                 -12.108
REMARK INTRA:                  -4.604
REMARK UNBOUND:                -3.977
REMARK SMILES CCCCCCCCCCCCCCCCCCCCCCCCCCCC(=O)[O-]
REMARK SMILES IDX 15 1 16 2 17 3 18 4 19 5 20 6 21 7 22 8 23 9 24 10 25 11
REMARK SMILES IDX 26 12 27 13 28 14 29 15 30 16 14 17 13 18 12 19 11 20 10 21
REMARK SMILES IDX 9 22 8 23 7 24 6 25 5 26 4 27 3 28 2 29 1 30
REMARK H PARENT
REMARK Flexibility Score: inf
ROOT
ATOM      1  C   UNL     1      17.378 -31.287  20.824  1.00  0.00     0.000 C 
ENDROOT
BRANCH   1   2
ATOM      2  C   UNL     1      18.592 -32.215  20.673  1.00  0.00     0.000 C 
BRANCH   2   3
ATOM      3  C   UNL     1      18.272 -33.489  19.858  1.00  0.00     0.000 C 
BRANCH   3   4
ATOM      4  C   UNL     1      16.766 -33.784  19.731  1.00  0.00     0.000 C 
BRANCH   4   5
ATOM      5  C   UNL     1      16.401 -35.280  19.710  1.00  0.00     0.000 C 
BRANCH   5   6
ATOM      6  C   UNL     1      17.616 -36.215  19.511  1.00  0.00     0.000 C 
BRANCH   6   7
ATOM      7  C   UNL     1      17.657 -37.350  20.545  1.00  0.00     0.000 C 
BRANCH   7   8
ATOM      8  C   UNL     1      18.732 -37.141  21.627  1.00  0.00     0.000 C 
BRANCH   8   9
ATOM      9  C   UNL     1      18.405 -36.055  22.674  1.00  0.00     0.000 C 
BRANCH   9  10
ATOM     10  C   UNL     1      19.181 -36.164  23.999  1.00  0.00     0.000 C 
BRANCH  10  11
ATOM     11  C   UNL     1      18.620 -37.241  24.939  1.00  0.00     0.000 C 
BRANCH  11  12
ATOM     12  C   UNL     1      17.921 -36.596  26.145  1.00  0.00     0.006 C 
BRANCH  12  13
ATOM     13  C   UNL     1      18.267 -37.300  27.464  1.00  0.00     0.053 C 
BRANCH  13  14
ATOM     14  C   UNL     1      17.055 -37.567  28.306  1.00  0.00     0.041 C 
ATOM     15  O   UNL     1      17.117 -37.445  29.558  1.00  0.00    -0.550 OA
ATOM     16  O   UNL     1      15.875 -38.009  27.720  1.00  0.00    -0.550 OA
ENDBRANCH  13  14
ENDBRANCH  12  13
ENDBRANCH  11  12
ENDBRANCH  10  11
ENDBRANCH   9  10
ENDBRANCH   8   9
ENDBRANCH   7   8
ENDBRANCH   6   7
ENDBRANCH   5   6
ENDBRANCH   4   5
ENDBRANCH   3   4
ENDBRANCH   2   3
ENDBRANCH   1   2
BRANCH   1  17
ATOM     17  C   UNL     1      17.651 -30.089  21.752  1.00  0.00     0.000 C 
BRANCH  17  18
ATOM     18  C   UNL     1      16.489 -29.788  22.722  1.00  0.00     0.000 C 
BRANCH  18  19
ATOM     19  C   UNL     1      15.302 -29.117  22.011  1.00  0.00     0.000 C 
BRANCH  19  20
ATOM     20  C   UNL     1      13.988 -29.247  22.795  1.00  0.00     0.000 C 
BRANCH  20  21
ATOM     21  C   UNL     1      13.777 -30.656  23.370  1.00  0.00     0.000 C 
BRANCH  21  22
ATOM     22  C   UNL     1      13.812 -31.711  22.252  1.00  0.00    -0.000 C 
BRANCH  22  23
ATOM     23  C   UNL     1      14.616 -32.964  22.636  1.00  0.00    -0.000 C 
BRANCH  23  24
ATOM     24  C   UNL     1      14.749 -33.217  24.150  1.00  0.00    -0.000 C 
BRANCH  24  25
ATOM     25  C   UNL     1      16.083 -33.876  24.564  1.00  0.00    -0.000 C 
BRANCH  25  26
ATOM     26  C   UNL     1      17.304 -33.013  24.201  1.00  0.00    -0.000 C 
BRANCH  26  27
ATOM     27  C   UNL     1      18.138 -32.606  25.429  1.00  0.00    -0.000 C 
BRANCH  27  28
ATOM     28  C   UNL     1      19.665 -32.601  25.208  1.00  0.00    -0.000 C 
BRANCH  28  29
ATOM     29  C   UNL     1      20.126 -31.993  23.871  1.00  0.00    -0.003 C 
ATOM     30  C   UNL     1      20.739 -30.602  24.027  1.00  0.00     0.004 C 
ENDBRANCH  28  29
ENDBRANCH  27  28
ENDBRANCH  26  27
ENDBRANCH  25  26
ENDBRANCH  24  25
ENDBRANCH  23  24
ENDBRANCH  22  23
ENDBRANCH  21  22
ENDBRANCH  20  21
ENDBRANCH  19  20
ENDBRANCH  18  19
ENDBRANCH  17  18
ENDBRANCH   1  17
TORSDOF 26
ENDMDL
