MODEL 1
REMARK VINA RESULT:    -3.937      0.000      0.000
REMARK INTER + INTRA:          -5.247
REMARK INTER:                  -5.088
REMARK INTRA:                  -0.159
REMARK UNBOUND:                -0.159
REMARK SMILES CCCCCCC=O
REMARK SMILES IDX 4 1 3 2 2 3 1 4 5 5 6 6 7 7 8 8
REMARK H PARENT
REMARK Flexibility Score: inf
ROOT
ATOM      1  C   UNL     1      27.326  45.234  -1.092  1.00  0.00     0.000 C 
ENDROOT
BRANCH   1   2
ATOM      2  C   UNL     1      28.678  44.649  -0.662  1.00  0.00    -0.000 C 
BRANCH   2   3
ATOM      3  C   UNL     1      29.295  45.473   0.474  1.00  0.00    -0.003 C 
ATOM      4  C   UNL     1      30.559  44.809   1.015  1.00  0.00     0.004 C 
ENDBRANCH   2   3
ENDBRANCH   1   2
BRANCH   1   5
ATOM      5  C   UNL     1      27.195  46.734  -0.769  1.00  0.00     0.008 C 
BRANCH   5   6
ATOM      6  C   UNL     1      26.949  47.623  -1.998  1.00  0.00     0.072 C 
BRANCH   6   7
ATOM      7  C   UNL     1      25.679  47.267  -2.714  1.00  0.00     0.224 C 
ATOM      8  O   UNL     1      24.717  48.017  -2.680  1.00  0.00    -0.303 OA
ENDBRANCH   6   7
ENDBRANCH   5   6
ENDBRANCH   1   5
TORSDOF 5
ENDMDL
MODEL 2
REMARK VINA RESULT:    -3.838     11.992     13.967
REMARK INTER + INTRA:          -5.119
REMARK INTER:                  -5.069
REMARK INTRA:                  -0.049
REMARK UNBOUND:                -0.159
REMARK SMILES CCCCCCC=O
REMARK SMILES IDX 4 1 3 2 2 3 1 4 5 5 6 6 7 7 8 8
REMARK H PARENT
REMARK Flexibility Score: inf
ROOT
ATOM      1  C   UNL     1      25.655  56.734  -9.190  1.00  0.00     0.000 C 
ENDROOT
BRANCH   1   2
ATOM      2  C   UNL     1      25.772  58.220  -9.562  1.00  0.00    -0.000 C 
BRANCH   2   3
ATOM      3  C   UNL     1      26.971  58.461 -10.486  1.00  0.00    -0.003 C 
ATOM      4  C   UNL     1      27.310  59.946 -10.575  1.00  0.00     0.004 C 
ENDBRANCH   2   3
ENDBRANCH   1   2
BRANCH   1   5
ATOM      5  C   UNL     1      24.196  56.283  -8.991  1.00  0.00     0.008 C 
BRANCH   5   6
ATOM      6  C   UNL     1      24.047  54.934  -8.270  1.00  0.00     0.072 C 
BRANCH   6   7
ATOM      7  C   UNL     1      22.669  54.737  -7.711  1.00  0.00     0.224 C 
ATOM      8  O   UNL     1      22.513  54.453  -6.534  1.00  0.00    -0.303 OA
ENDBRANCH   6   7
ENDBRANCH   5   6
ENDBRANCH   1   5
TORSDOF 5
ENDMDL
MODEL 3
REMARK VINA RESULT:    -3.810     11.906     13.635
REMARK INTER + INTRA:          -5.083
REMARK INTER:                  -5.014
REMARK INTRA:                  -0.068
REMARK UNBOUND:                -0.159
REMARK SMILES CCCCCCC=O
REMARK SMILES IDX 4 1 3 2 2 3 1 4 5 5 6 6 7 7 8 8
REMARK H PARENT
REMARK Flexibility Score: inf
ROOT
ATOM      1  C   UNL     1      24.355  55.826  -9.110  1.00  0.00     0.000 C 
ENDROOT
BRANCH   1   2
ATOM      2  C   UNL     1      24.012  55.239  -7.733  1.00  0.00    -0.000 C 
BRANCH   2   3
ATOM      3  C   UNL     1      22.567  54.729  -7.699  1.00  0.00    -0.003 C 
ATOM      4  C   UNL     1      22.201  54.200  -6.315  1.00  0.00     0.004 C 
ENDBRANCH   2   3
ENDBRANCH   1   2
BRANCH   1   5
ATOM      5  C   UNL     1      25.641  56.673  -9.094  1.00  0.00     0.008 C 
BRANCH   5   6
ATOM      6  C   UNL     1      25.431  58.145  -9.483  1.00  0.00     0.072 C 
BRANCH   6   7
ATOM      7  C   UNL     1      26.656  58.750 -10.103  1.00  0.00     0.224 C 
ATOM      8  O   UNL     1      27.156  58.252 -11.099  1.00  0.00    -0.303 OA
ENDBRANCH   6   7
ENDBRANCH   5   6
ENDBRANCH   1   5
TORSDOF 5
ENDMDL
MODEL 4
REMARK VINA RESULT:    -3.745      2.923      5.197
REMARK INTER + INTRA:          -4.998
REMARK INTER:                  -4.925
REMARK INTRA:                  -0.074
REMARK UNBOUND:                -0.159
REMARK SMILES CCCCCCC=O
REMARK SMILES IDX 4 1 3 2 2 3 1 4 5 5 6 6 7 7 8 8
REMARK H PARENT
REMARK Flexibility Score: inf
ROOT
ATOM      1  C   UNL     1      27.216  46.553  -0.788  1.00  0.00     0.000 C 
ENDROOT
BRANCH   1   2
ATOM      2  C   UNL     1      27.102  47.241  -2.157  1.00  0.00    -0.000 C 
BRANCH   2   3
ATOM      3  C   UNL     1      25.787  48.019  -2.271  1.00  0.00    -0.003 C 
ATOM      4  C   UNL     1      24.829  47.344  -3.249  1.00  0.00     0.004 C 
ENDBRANCH   2   3
ENDBRANCH   1   2
BRANCH   1   5
ATOM      5  C   UNL     1      28.123  45.309  -0.820  1.00  0.00     0.008 C 
BRANCH   5   6
ATOM      6  C   UNL     1      29.311  45.370   0.153  1.00  0.00     0.072 C 
BRANCH   6   7
ATOM      7  C   UNL     1      30.357  44.341  -0.161  1.00  0.00     0.224 C 
ATOM      8  O   UNL     1      31.535  44.653  -0.219  1.00  0.00    -0.303 OA
ENDBRANCH   6   7
ENDBRANCH   5   6
ENDBRANCH   1   5
TORSDOF 5
ENDMDL
MODEL 5
REMARK VINA RESULT:    -3.687     12.731     14.336
REMARK INTER + INTRA:          -4.924
REMARK INTER:                  -4.861
REMARK INTRA:                  -0.063
REMARK UNBOUND:                -0.159
REMARK SMILES CCCCCCC=O
REMARK SMILES IDX 4 1 3 2 2 3 1 4 5 5 6 6 7 7 8 8
REMARK H PARENT
REMARK Flexibility Score: inf
ROOT
ATOM      1  C   UNL     1      25.535  56.359  -8.990  1.00  0.00     0.000 C 
ENDROOT
BRANCH   1   2
ATOM      2  C   UNL     1      24.189  55.621  -9.024  1.00  0.00    -0.000 C 
BRANCH   2   3
ATOM      3  C   UNL     1      23.734  55.245  -7.609  1.00  0.00    -0.003 C 
ATOM      4  C   UNL     1      22.377  54.548  -7.632  1.00  0.00     0.004 C 
ENDBRANCH   2   3
ENDBRANCH   1   2
BRANCH   1   5
ATOM      5  C   UNL     1      25.404  57.854  -9.333  1.00  0.00     0.008 C 
BRANCH   5   6
ATOM      6  C   UNL     1      26.593  58.426 -10.123  1.00  0.00     0.072 C 
BRANCH   6   7
ATOM      7  C   UNL     1      26.605  59.926 -10.125  1.00  0.00     0.224 C 
ATOM      8  O   UNL     1      27.628  60.538  -9.862  1.00  0.00    -0.303 OA
ENDBRANCH   6   7
ENDBRANCH   5   6
ENDBRANCH   1   5
TORSDOF 5
ENDMDL
MODEL 6
REMARK VINA RESULT:    -3.638      2.914      5.236
REMARK INTER + INTRA:          -4.861
REMARK INTER:                  -4.801
REMARK INTRA:                  -0.060
REMARK UNBOUND:                -0.159
REMARK SMILES CCCCCCC=O
REMARK SMILES IDX 4 1 3 2 2 3 1 4 5 5 6 6 7 7 8 8
REMARK H PARENT
REMARK Flexibility Score: inf
ROOT
ATOM      1  C   UNL     1      27.536  45.536  -1.098  1.00  0.00     0.000 C 
ENDROOT
BRANCH   1   2
ATOM      2  C   UNL     1      26.908  46.925  -1.282  1.00  0.00    -0.000 C 
BRANCH   2   3
ATOM      3  C   UNL     1      26.268  47.059  -2.669  1.00  0.00    -0.003 C 
ATOM      4  C   UNL     1      25.089  48.027  -2.642  1.00  0.00     0.004 C 
ENDBRANCH   2   3
ENDBRANCH   1   2
BRANCH   1   5
ATOM      5  C   UNL     1      28.779  45.560  -0.190  1.00  0.00     0.008 C 
BRANCH   5   6
ATOM      6  C   UNL     1      29.668  44.311  -0.306  1.00  0.00     0.072 C 
BRANCH   6   7
ATOM      7  C   UNL     1      30.882  44.393   0.571  1.00  0.00     0.224 C 
ATOM      8  O   UNL     1      30.960  45.244   1.442  1.00  0.00    -0.303 OA
ENDBRANCH   6   7
ENDBRANCH   5   6
ENDBRANCH   1   5
TORSDOF 5
ENDMDL
MODEL 7
REMARK VINA RESULT:    -3.316      2.156      3.711
REMARK INTER + INTRA:          -4.445
REMARK INTER:                  -4.326
REMARK INTRA:                  -0.119
REMARK UNBOUND:                -0.159
REMARK SMILES CCCCCCC=O
REMARK SMILES IDX 4 1 3 2 2 3 1 4 5 5 6 6 7 7 8 8
REMARK H PARENT
REMARK Flexibility Score: inf
ROOT
ATOM      1  C   UNL     1      31.235  45.061   0.605  1.00  0.00     0.000 C 
ENDROOT
BRANCH   1   2
ATOM      2  C   UNL     1      31.996  44.875   1.925  1.00  0.00    -0.000 C 
BRANCH   2   3
ATOM      3  C   UNL     1      32.735  46.159   2.318  1.00  0.00    -0.003 C 
ATOM      4  C   UNL     1      32.010  46.891   3.445  1.00  0.00     0.004 C 
ENDBRANCH   2   3
ENDBRANCH   1   2
BRANCH   1   5
ATOM      5  C   UNL     1      29.730  45.314   0.815  1.00  0.00     0.008 C 
BRANCH   5   6
ATOM      6  C   UNL     1      28.852  44.914  -0.382  1.00  0.00     0.072 C 
BRANCH   6   7
ATOM      7  C   UNL     1      27.938  46.023  -0.813  1.00  0.00     0.224 C 
ATOM      8  O   UNL     1      26.884  45.774  -1.376  1.00  0.00    -0.303 OA
ENDBRANCH   6   7
ENDBRANCH   5   6
ENDBRANCH   1   5
TORSDOF 5
ENDMDL
MODEL 8
REMARK VINA RESULT:    -3.259      3.896      6.112
REMARK INTER + INTRA:          -4.370
REMARK INTER:                  -4.273
REMARK INTRA:                  -0.098
REMARK UNBOUND:                -0.159
REMARK SMILES CCCCCCC=O
REMARK SMILES IDX 4 1 3 2 2 3 1 4 5 5 6 6 7 7 8 8
REMARK H PARENT
REMARK Flexibility Score: inf
ROOT
ATOM      1  C   UNL     1      31.362  45.249   0.652  1.00  0.00     0.000 C 
ENDROOT
BRANCH   1   2
ATOM      2  C   UNL     1      29.846  45.246   0.898  1.00  0.00    -0.000 C 
BRANCH   2   3
ATOM      3  C   UNL     1      29.088  44.799  -0.357  1.00  0.00    -0.003 C 
ATOM      4  C   UNL     1      28.120  45.879  -0.832  1.00  0.00     0.004 C 
ENDBRANCH   2   3
ENDBRANCH   1   2
BRANCH   1   5
ATOM      5  C   UNL     1      32.174  45.009   1.938  1.00  0.00     0.008 C 
BRANCH   5   6
ATOM      6  C   UNL     1      32.851  46.270   2.500  1.00  0.00     0.072 C 
BRANCH   6   7
ATOM      7  C   UNL     1      32.011  46.952   3.538  1.00  0.00     0.224 C 
ATOM      8  O   UNL     1      31.983  48.171   3.610  1.00  0.00    -0.303 OA
ENDBRANCH   6   7
ENDBRANCH   5   6
ENDBRANCH   1   5
TORSDOF 5
ENDMDL
