MODEL 1
REMARK VINA RESULT:    -4.183      0.000      0.000
REMARK INTER + INTRA:          -6.389
REMARK INTER:                  -5.895
REMARK INTRA:                  -0.494
REMARK UNBOUND:                -0.494
REMARK SMILES CCCCCCCCC(=O)[O-]
REMARK SMILES IDX 6 1 7 2 8 3 9 4 10 5 11 6 5 7 4 8 3 9 2 10 1 11
REMARK H PARENT
REMARK Flexibility Score: inf
ROOT
ATOM      1  C   UNL     1      13.135 -29.968  23.729  1.00  0.00     0.000 C 
ENDROOT
BRANCH   1   2
ATOM      2  C   UNL     1      14.467 -30.234  23.008  1.00  0.00     0.006 C 
BRANCH   2   3
ATOM      3  C   UNL     1      14.292 -30.328  21.486  1.00  0.00     0.053 C 
BRANCH   3   4
ATOM      4  C   UNL     1      13.818 -31.685  21.063  1.00  0.00     0.041 C 
ATOM      5  O   UNL     1      12.840 -31.798  20.279  1.00  0.00    -0.550 OA
ATOM      6  O   UNL     1      14.433 -32.825  21.565  1.00  0.00    -0.550 OA
ENDBRANCH   3   4
ENDBRANCH   2   3
ENDBRANCH   1   2
BRANCH   1   7
ATOM      7  C   UNL     1      12.135 -29.191  22.858  1.00  0.00     0.000 C 
BRANCH   7   8
ATOM      8  C   UNL     1      11.788 -27.813  23.441  1.00  0.00    -0.000 C 
BRANCH   8   9
ATOM      9  C   UNL     1      12.397 -27.638  24.837  1.00  0.00    -0.000 C 
BRANCH   9  10
ATOM     10  C   UNL     1      13.387 -26.467  24.862  1.00  0.00    -0.003 C 
ATOM     11  C   UNL     1      13.172 -25.539  23.670  1.00  0.00     0.004 C 
ENDBRANCH   9  10
ENDBRANCH   8   9
ENDBRANCH   7   8
ENDBRANCH   1   7
TORSDOF 7
ENDMDL
MODEL 2
REMARK VINA RESULT:    -4.116      2.117      3.153
REMARK INTER + INTRA:          -6.294
REMARK INTER:                  -6.066
REMARK INTRA:                  -0.228
REMARK UNBOUND:                -0.494
REMARK SMILES CCCCCCCCC(=O)[O-]
REMARK SMILES IDX 6 1 7 2 8 3 9 4 10 5 11 6 5 7 4 8 3 9 2 10 1 11
REMARK H PARENT
REMARK Flexibility Score: inf
ROOT
ATOM      1  C   UNL     1      13.172 -31.658  20.825  1.00  0.00     0.000 C 
ENDROOT
BRANCH   1   2
ATOM      2  C   UNL     1      14.273 -32.651  21.238  1.00  0.00     0.006 C 
BRANCH   2   3
ATOM      3  C   UNL     1      14.633 -33.619  20.104  1.00  0.00     0.053 C 
BRANCH   3   4
ATOM      4  C   UNL     1      15.553 -34.706  20.571  1.00  0.00     0.041 C 
ATOM      5  O   UNL     1      15.653 -35.775  19.916  1.00  0.00    -0.550 OA
ATOM      6  O   UNL     1      16.271 -34.550  21.750  1.00  0.00    -0.550 OA
ENDBRANCH   3   4
ENDBRANCH   2   3
ENDBRANCH   1   2
BRANCH   1   7
ATOM      7  C   UNL     1      12.663 -30.815  22.005  1.00  0.00     0.000 C 
BRANCH   7   8
ATOM      8  C   UNL     1      11.280 -30.201  21.740  1.00  0.00    -0.000 C 
BRANCH   8   9
ATOM      9  C   UNL     1      11.115 -28.877  22.495  1.00  0.00    -0.000 C 
BRANCH   9  10
ATOM     10  C   UNL     1      12.101 -28.785  23.666  1.00  0.00    -0.003 C 
ATOM     11  C   UNL     1      12.940 -27.514  23.580  1.00  0.00     0.004 C 
ENDBRANCH   9  10
ENDBRANCH   8   9
ENDBRANCH   7   8
ENDBRANCH   1   7
TORSDOF 7
ENDMDL
MODEL 3
REMARK VINA RESULT:    -4.076      1.739      2.501
REMARK INTER + INTRA:          -6.237
REMARK INTER:                  -5.971
REMARK INTRA:                  -0.266
REMARK UNBOUND:                -0.494
REMARK SMILES CCCCCCCCC(=O)[O-]
REMARK SMILES IDX 6 1 7 2 8 3 9 4 10 5 11 6 5 7 4 8 3 9 2 10 1 11
REMARK H PARENT
REMARK Flexibility Score: inf
ROOT
ATOM      1  C   UNL     1      14.008 -31.890  23.667  1.00  0.00     0.000 C 
ENDROOT
BRANCH   1   2
ATOM      2  C   UNL     1      15.258 -32.113  22.798  1.00  0.00     0.006 C 
BRANCH   2   3
ATOM      3  C   UNL     1      15.466 -33.593  22.454  1.00  0.00     0.053 C 
BRANCH   3   4
ATOM      4  C   UNL     1      14.970 -33.919  21.077  1.00  0.00     0.041 C 
ATOM      5  O   UNL     1      15.313 -34.994  20.520  1.00  0.00    -0.550 OA
ATOM      6  O   UNL     1      14.160 -33.019  20.398  1.00  0.00    -0.550 OA
ENDBRANCH   3   4
ENDBRANCH   2   3
ENDBRANCH   1   2
BRANCH   1   7
ATOM      7  C   UNL     1      12.976 -30.971  22.995  1.00  0.00     0.000 C 
BRANCH   7   8
ATOM      8  C   UNL     1      13.072 -29.517  23.482  1.00  0.00    -0.000 C 
BRANCH   8   9
ATOM      9  C   UNL     1      11.828 -28.719  23.075  1.00  0.00    -0.000 C 
BRANCH   9  10
ATOM     10  C   UNL     1      11.546 -27.593  24.077  1.00  0.00    -0.003 C 
ATOM     11  C   UNL     1      12.787 -27.264  24.900  1.00  0.00     0.004 C 
ENDBRANCH   9  10
ENDBRANCH   8   9
ENDBRANCH   7   8
ENDBRANCH   1   7
TORSDOF 7
ENDMDL
MODEL 4
REMARK VINA RESULT:    -4.037      1.947      2.369
REMARK INTER + INTRA:          -6.183
REMARK INTER:                  -5.696
REMARK INTRA:                  -0.488
REMARK UNBOUND:                -0.494
REMARK SMILES CCCCCCCCC(=O)[O-]
REMARK SMILES IDX 6 1 7 2 8 3 9 4 10 5 11 6 5 7 4 8 3 9 2 10 1 11
REMARK H PARENT
REMARK Flexibility Score: inf
ROOT
ATOM      1  C   UNL     1      12.624 -30.856  22.271  1.00  0.00     0.000 C 
ENDROOT
BRANCH   1   2
ATOM      2  C   UNL     1      13.746 -30.894  21.219  1.00  0.00     0.006 C 
BRANCH   2   3
ATOM      3  C   UNL     1      14.761 -29.761  21.415  1.00  0.00     0.053 C 
BRANCH   3   4
ATOM      4  C   UNL     1      16.067 -30.270  21.947  1.00  0.00     0.041 C 
ATOM      5  O   UNL     1      16.333 -30.168  23.173  1.00  0.00    -0.550 OA
ATOM      6  O   UNL     1      17.003 -30.822  21.083  1.00  0.00    -0.550 OA
ENDBRANCH   3   4
ENDBRANCH   2   3
ENDBRANCH   1   2
BRANCH   1   7
ATOM      7  C   UNL     1      11.352 -30.165  21.755  1.00  0.00     0.000 C 
BRANCH   7   8
ATOM      8  C   UNL     1      11.019 -28.882  22.532  1.00  0.00    -0.000 C 
BRANCH   8   9
ATOM      9  C   UNL     1      11.958 -28.707  23.731  1.00  0.00    -0.000 C 
BRANCH   9  10
ATOM     10  C   UNL     1      11.900 -27.273  24.270  1.00  0.00    -0.003 C 
ATOM     11  C   UNL     1      13.042 -26.428  23.714  1.00  0.00     0.004 C 
ENDBRANCH   9  10
ENDBRANCH   8   9
ENDBRANCH   7   8
ENDBRANCH   1   7
TORSDOF 7
ENDMDL
MODEL 5
REMARK VINA RESULT:    -3.994      2.840      3.962
REMARK INTER + INTRA:          -6.122
REMARK INTER:                  -5.592
REMARK INTRA:                  -0.530
REMARK UNBOUND:                -0.494
REMARK SMILES CCCCCCCCC(=O)[O-]
REMARK SMILES IDX 6 1 7 2 8 3 9 4 10 5 11 6 5 7 4 8 3 9 2 10 1 11
REMARK H PARENT
REMARK Flexibility Score: inf
ROOT
ATOM      1  C   UNL     1      14.863 -33.203  23.881  1.00  0.00     0.000 C 
ENDROOT
BRANCH   1   2
ATOM      2  C   UNL     1      15.606 -33.001  22.549  1.00  0.00     0.006 C 
BRANCH   2   3
ATOM      3  C   UNL     1      14.862 -33.641  21.369  1.00  0.00     0.053 C 
BRANCH   3   4
ATOM      4  C   UNL     1      15.772 -34.484  20.529  1.00  0.00     0.041 C 
ATOM      5  O   UNL     1      15.758 -34.375  19.275  1.00  0.00    -0.550 OA
ATOM      6  O   UNL     1      16.610 -35.415  21.129  1.00  0.00    -0.550 OA
ENDBRANCH   3   4
ENDBRANCH   2   3
ENDBRANCH   1   2
BRANCH   1   7
ATOM      7  C   UNL     1      13.709 -32.207  24.072  1.00  0.00     0.000 C 
BRANCH   7   8
ATOM      8  C   UNL     1      14.085 -30.778  23.649  1.00  0.00    -0.000 C 
BRANCH   8   9
ATOM      9  C   UNL     1      12.884 -30.055  23.029  1.00  0.00    -0.000 C 
BRANCH   9  10
ATOM     10  C   UNL     1      12.384 -30.792  21.781  1.00  0.00    -0.003 C 
ATOM     11  C   UNL     1      10.963 -30.367  21.422  1.00  0.00     0.004 C 
ENDBRANCH   9  10
ENDBRANCH   8   9
ENDBRANCH   7   8
ENDBRANCH   1   7
TORSDOF 7
ENDMDL
MODEL 6
REMARK VINA RESULT:    -3.983      2.840      4.322
REMARK INTER + INTRA:          -6.107
REMARK INTER:                  -5.688
REMARK INTRA:                  -0.419
REMARK UNBOUND:                -0.494
REMARK SMILES CCCCCCCCC(=O)[O-]
REMARK SMILES IDX 6 1 7 2 8 3 9 4 10 5 11 6 5 7 4 8 3 9 2 10 1 11
REMARK H PARENT
REMARK Flexibility Score: inf
ROOT
ATOM      1  C   UNL     1      14.773 -32.879  22.029  1.00  0.00     0.000 C 
ENDROOT
BRANCH   1   2
ATOM      2  C   UNL     1      15.733 -34.009  21.617  1.00  0.00     0.006 C 
BRANCH   2   3
ATOM      3  C   UNL     1      15.284 -34.706  20.326  1.00  0.00     0.053 C 
BRANCH   3   4
ATOM      4  C   UNL     1      16.423 -34.892  19.369  1.00  0.00     0.041 C 
ATOM      5  O   UNL     1      16.916 -33.899  18.773  1.00  0.00    -0.550 OA
ATOM      6  O   UNL     1      16.913 -36.165  19.109  1.00  0.00    -0.550 OA
ENDBRANCH   3   4
ENDBRANCH   2   3
ENDBRANCH   1   2
BRANCH   1   7
ATOM      7  C   UNL     1      13.883 -32.406  20.869  1.00  0.00     0.000 C 
BRANCH   7   8
ATOM      8  C   UNL     1      13.507 -30.921  20.980  1.00  0.00    -0.000 C 
BRANCH   8   9
ATOM      9  C   UNL     1      12.228 -30.739  21.805  1.00  0.00    -0.000 C 
BRANCH   9  10
ATOM     10  C   UNL     1      12.363 -29.559  22.775  1.00  0.00    -0.003 C 
ATOM     11  C   UNL     1      13.788 -29.444  23.308  1.00  0.00     0.004 C 
ENDBRANCH   9  10
ENDBRANCH   8   9
ENDBRANCH   7   8
ENDBRANCH   1   7
TORSDOF 7
ENDMDL
MODEL 7
REMARK VINA RESULT:    -3.937      9.131     10.384
REMARK INTER + INTRA:          -6.042
REMARK INTER:                  -5.737
REMARK INTRA:                  -0.304
REMARK UNBOUND:                -0.494
REMARK SMILES CCCCCCCCC(=O)[O-]
REMARK SMILES IDX 6 1 7 2 8 3 9 4 10 5 11 6 5 7 4 8 3 9 2 10 1 11
REMARK H PARENT
REMARK Flexibility Score: inf
ROOT
ATOM      1  C   UNL     1      20.309 -25.517  20.274  1.00  0.00     0.000 C 
ENDROOT
BRANCH   1   2
ATOM      2  C   UNL     1      21.757 -25.382  19.774  1.00  0.00     0.006 C 
BRANCH   2   3
ATOM      3  C   UNL     1      22.650 -24.644  20.780  1.00  0.00     0.053 C 
BRANCH   3   4
ATOM      4  C   UNL     1      23.650 -23.763  20.094  1.00  0.00     0.041 C 
ATOM      5  O   UNL     1      24.201 -22.822  20.722  1.00  0.00    -0.550 OA
ATOM      6  O   UNL     1      23.945 -23.959  18.751  1.00  0.00    -0.550 OA
ENDBRANCH   3   4
ENDBRANCH   2   3
ENDBRANCH   1   2
BRANCH   1   7
ATOM      7  C   UNL     1      19.856 -26.982  20.385  1.00  0.00     0.000 C 
BRANCH   7   8
ATOM      8  C   UNL     1      20.988 -27.919  20.833  1.00  0.00    -0.000 C 
BRANCH   8   9
ATOM      9  C   UNL     1      20.496 -29.368  20.924  1.00  0.00    -0.000 C 
BRANCH   9  10
ATOM     10  C   UNL     1      18.964 -29.429  20.923  1.00  0.00    -0.003 C 
ATOM     11  C   UNL     1      18.470 -30.871  20.846  1.00  0.00     0.004 C 
ENDBRANCH   9  10
ENDBRANCH   8   9
ENDBRANCH   7   8
ENDBRANCH   1   7
TORSDOF 7
ENDMDL
MODEL 8
REMARK VINA RESULT:    -3.885      3.099      6.143
REMARK INTER + INTRA:          -5.968
REMARK INTER:                  -5.611
REMARK INTRA:                  -0.358
REMARK UNBOUND:                -0.494
REMARK SMILES CCCCCCCCC(=O)[O-]
REMARK SMILES IDX 6 1 7 2 8 3 9 4 10 5 11 6 5 7 4 8 3 9 2 10 1 11
REMARK H PARENT
REMARK Flexibility Score: inf
ROOT
ATOM      1  C   UNL     1      13.066 -31.252  21.376  1.00  0.00     0.000 C 
ENDROOT
BRANCH   1   2
ATOM      2  C   UNL     1      13.147 -30.945  22.881  1.00  0.00     0.006 C 
BRANCH   2   3
ATOM      3  C   UNL     1      13.604 -29.506  23.155  1.00  0.00     0.053 C 
BRANCH   3   4
ATOM      4  C   UNL     1      12.475 -28.646  23.635  1.00  0.00     0.041 C 
ATOM      5  O   UNL     1      11.398 -28.595  22.986  1.00  0.00    -0.550 OA
ATOM      6  O   UNL     1      12.627 -27.872  24.778  1.00  0.00    -0.550 OA
ENDBRANCH   3   4
ENDBRANCH   2   3
ENDBRANCH   1   2
BRANCH   1   7
ATOM      7  C   UNL     1      13.972 -32.422  20.962  1.00  0.00     0.000 C 
BRANCH   7   8
ATOM      8  C   UNL     1      14.749 -33.017  22.146  1.00  0.00    -0.000 C 
BRANCH   8   9
ATOM      9  C   UNL     1      15.718 -34.107  21.674  1.00  0.00    -0.000 C 
BRANCH   9  10
ATOM     10  C   UNL     1      15.253 -34.718  20.346  1.00  0.00    -0.003 C 
ATOM     11  C   UNL     1      16.422 -34.899  19.383  1.00  0.00     0.004 C 
ENDBRANCH   9  10
ENDBRANCH   8   9
ENDBRANCH   7   8
ENDBRANCH   1   7
TORSDOF 7
ENDMDL
MODEL 9
REMARK VINA RESULT:    -3.564      1.629      2.883
REMARK INTER + INTRA:          -5.516
REMARK INTER:                  -5.091
REMARK INTRA:                  -0.425
REMARK UNBOUND:                -0.494
REMARK SMILES CCCCCCCCC(=O)[O-]
REMARK SMILES IDX 6 1 7 2 8 3 9 4 10 5 11 6 5 7 4 8 3 9 2 10 1 11
REMARK H PARENT
REMARK Flexibility Score: inf
ROOT
ATOM      1  C   UNL     1      14.948 -30.507  21.795  1.00  0.00     0.000 C 
ENDROOT
BRANCH   1   2
ATOM      2  C   UNL     1      14.005 -31.720  21.869  1.00  0.00     0.006 C 
BRANCH   2   3
ATOM      3  C   UNL     1      14.753 -33.015  22.213  1.00  0.00     0.053 C 
BRANCH   3   4
ATOM      4  C   UNL     1      15.001 -33.853  20.995  1.00  0.00     0.041 C 
ATOM      5  O   UNL     1      15.881 -34.753  21.016  1.00  0.00    -0.550 OA
ATOM      6  O   UNL     1      14.286 -33.616  19.829  1.00  0.00    -0.550 OA
ENDBRANCH   3   4
ENDBRANCH   2   3
ENDBRANCH   1   2
BRANCH   1   7
ATOM      7  C   UNL     1      14.446 -29.317  22.627  1.00  0.00     0.000 C 
BRANCH   7   8
ATOM      8  C   UNL     1      13.162 -29.639  23.408  1.00  0.00    -0.000 C 
BRANCH   8   9
ATOM      9  C   UNL     1      12.475 -28.356  23.887  1.00  0.00    -0.000 C 
BRANCH   9  10
ATOM     10  C   UNL     1      11.077 -28.219  23.271  1.00  0.00    -0.003 C 
ATOM     11  C   UNL     1      10.875 -29.217  22.135  1.00  0.00     0.004 C 
ENDBRANCH   9  10
ENDBRANCH   8   9
ENDBRANCH   7   8
ENDBRANCH   1   7
TORSDOF 7
ENDMDL
