MODEL 1
REMARK VINA RESULT:    -4.279      0.000      0.000
REMARK INTER + INTRA:          -5.464
REMARK INTER:                  -5.280
REMARK INTRA:                  -0.184
REMARK UNBOUND:                -0.184
REMARK SMILES CCCCC=CC(C)=O
REMARK SMILES IDX 4 1 3 2 2 3 1 4 5 5 6 6 7 7 9 8 8 9
REMARK H PARENT
REMARK Flexibility Score: inf
ROOT
ATOM      1  C   UNL     1     -42.078  17.779  16.344  1.00  0.00     0.027 C 
ENDROOT
BRANCH   1   2
ATOM      2  C   UNL     1     -43.583  17.907  16.060  1.00  0.00     0.004 C 
BRANCH   2   3
ATOM      3  C   UNL     1     -44.393  18.246  17.322  1.00  0.00    -0.003 C 
ATOM      4  C   UNL     1     -43.619  17.980  18.612  1.00  0.00     0.004 C 
ENDBRANCH   2   3
ENDBRANCH   1   2
BRANCH   1   5
ATOM      5  C   UNL     1     -41.484  16.614  15.608  1.00  0.00    -0.023 C 
ATOM      6  C   UNL     1     -40.416  15.960  16.081  1.00  0.00     0.042 C 
BRANCH   6   7
ATOM      7  C   UNL     1     -39.805  14.802  15.398  1.00  0.00     0.152 C 
ATOM      8  O   UNL     1     -38.866  15.009  14.584  1.00  0.00    -0.295 OA
ATOM      9  C   UNL     1     -40.261  13.394  15.636  1.00  0.00     0.093 C 
ENDBRANCH   6   7
ENDBRANCH   1   5
TORSDOF 4
ENDMDL
MODEL 2
REMARK VINA RESULT:    -4.272      0.586      1.126
REMARK INTER + INTRA:          -5.455
REMARK INTER:                  -5.242
REMARK INTRA:                  -0.213
REMARK UNBOUND:                -0.184
REMARK SMILES CCCCC=CC(C)=O
REMARK SMILES IDX 4 1 3 2 2 3 1 4 5 5 6 6 7 7 9 8 8 9
REMARK H PARENT
REMARK Flexibility Score: inf
ROOT
ATOM      1  C   UNL     1     -41.758  17.892  16.467  1.00  0.00     0.027 C 
ENDROOT
BRANCH   1   2
ATOM      2  C   UNL     1     -41.930  17.550  17.954  1.00  0.00     0.004 C 
BRANCH   2   3
ATOM      3  C   UNL     1     -43.312  17.953  18.496  1.00  0.00    -0.003 C 
ATOM      4  C   UNL     1     -44.356  18.109  17.392  1.00  0.00     0.004 C 
ENDBRANCH   2   3
ENDBRANCH   1   2
BRANCH   1   5
ATOM      5  C   UNL     1     -41.316  16.692  15.681  1.00  0.00    -0.023 C 
ATOM      6  C   UNL     1     -40.329  15.898  16.116  1.00  0.00     0.042 C 
BRANCH   6   7
ATOM      7  C   UNL     1     -39.869  14.700  15.384  1.00  0.00     0.152 C 
ATOM      8  O   UNL     1     -39.039  14.848  14.448  1.00  0.00    -0.295 OA
ATOM      9  C   UNL     1     -40.354  13.320  15.712  1.00  0.00     0.093 C 
ENDBRANCH   6   7
ENDBRANCH   1   5
TORSDOF 4
ENDMDL
MODEL 3
REMARK VINA RESULT:    -4.231      1.105      1.335
REMARK INTER + INTRA:          -5.404
REMARK INTER:                  -5.190
REMARK INTRA:                  -0.215
REMARK UNBOUND:                -0.184
REMARK SMILES CCCCC=CC(C)=O
REMARK SMILES IDX 4 1 3 2 2 3 1 4 5 5 6 6 7 7 9 8 8 9
REMARK H PARENT
REMARK Flexibility Score: inf
ROOT
ATOM      1  C   UNL     1     -41.904  18.031  17.118  1.00  0.00     0.027 C 
ENDROOT
BRANCH   1   2
ATOM      2  C   UNL     1     -43.123  17.827  16.206  1.00  0.00     0.004 C 
BRANCH   2   3
ATOM      3  C   UNL     1     -44.448  18.161  16.911  1.00  0.00    -0.003 C 
ATOM      4  C   UNL     1     -44.361  18.023  18.430  1.00  0.00     0.004 C 
ENDBRANCH   2   3
ENDBRANCH   1   2
BRANCH   1   5
ATOM      5  C   UNL     1     -40.955  16.871  17.024  1.00  0.00    -0.023 C 
ATOM      6  C   UNL     1     -40.770  16.213  15.872  1.00  0.00     0.042 C 
BRANCH   6   7
ATOM      7  C   UNL     1     -39.839  15.075  15.730  1.00  0.00     0.152 C 
ATOM      8  O   UNL     1     -40.316  13.911  15.665  1.00  0.00    -0.295 OA
ATOM      9  C   UNL     1     -38.352  15.255  15.659  1.00  0.00     0.093 C 
ENDBRANCH   6   7
ENDBRANCH   1   5
TORSDOF 4
ENDMDL
MODEL 4
REMARK VINA RESULT:    -4.005      1.992      4.950
REMARK INTER + INTRA:          -5.126
REMARK INTER:                  -4.927
REMARK INTRA:                  -0.198
REMARK UNBOUND:                -0.184
REMARK SMILES CCCCC=CC(C)=O
REMARK SMILES IDX 4 1 3 2 2 3 1 4 5 5 6 6 7 7 9 8 8 9
REMARK H PARENT
REMARK Flexibility Score: inf
ROOT
ATOM      1  C   UNL     1     -39.338  15.692  15.652  1.00  0.00     0.027 C 
ENDROOT
BRANCH   1   2
ATOM      2  C   UNL     1     -39.182  14.182  15.421  1.00  0.00     0.004 C 
BRANCH   2   3
ATOM      3  C   UNL     1     -40.476  13.405  15.714  1.00  0.00    -0.003 C 
ATOM      4  C   UNL     1     -40.222  12.085  16.440  1.00  0.00     0.004 C 
ENDBRANCH   2   3
ENDBRANCH   1   2
BRANCH   1   5
ATOM      5  C   UNL     1     -40.733  16.034  16.089  1.00  0.00    -0.023 C 
ATOM      6  C   UNL     1     -41.290  17.213  15.786  1.00  0.00     0.042 C 
BRANCH   6   7
ATOM      7  C   UNL     1     -42.663  17.587  16.183  1.00  0.00     0.152 C 
ATOM      8  O   UNL     1     -43.585  17.495  15.329  1.00  0.00    -0.295 OA
ATOM      9  C   UNL     1     -42.998  18.072  17.562  1.00  0.00     0.093 C 
ENDBRANCH   6   7
ENDBRANCH   1   5
TORSDOF 4
ENDMDL
MODEL 5
REMARK VINA RESULT:    -3.793      1.826      2.258
REMARK INTER + INTRA:          -4.864
REMARK INTER:                  -4.627
REMARK INTRA:                  -0.237
REMARK UNBOUND:                -0.184
REMARK SMILES CCCCC=CC(C)=O
REMARK SMILES IDX 4 1 3 2 2 3 1 4 5 5 6 6 7 7 9 8 8 9
REMARK H PARENT
REMARK Flexibility Score: inf
ROOT
ATOM      1  C   UNL     1     -41.856  17.469  16.325  1.00  0.00     0.027 C 
ENDROOT
BRANCH   1   2
ATOM      2  C   UNL     1     -41.509  17.384  17.819  1.00  0.00     0.004 C 
BRANCH   2   3
ATOM      3  C   UNL     1     -41.294  18.768  18.454  1.00  0.00    -0.003 C 
ATOM      4  C   UNL     1     -39.927  18.905  19.123  1.00  0.00     0.004 C 
ENDBRANCH   2   3
ENDBRANCH   1   2
BRANCH   1   5
ATOM      5  C   UNL     1     -40.814  16.787  15.487  1.00  0.00    -0.023 C 
ATOM      6  C   UNL     1     -39.924  15.945  16.028  1.00  0.00     0.042 C 
BRANCH   6   7
ATOM      7  C   UNL     1     -38.889  15.243  15.241  1.00  0.00     0.152 C 
ATOM      8  O   UNL     1     -39.171  14.870  14.072  1.00  0.00    -0.295 OA
ATOM      9  C   UNL     1     -37.520  14.958  15.783  1.00  0.00     0.093 C 
ENDBRANCH   6   7
ENDBRANCH   1   5
TORSDOF 4
ENDMDL
MODEL 6
REMARK VINA RESULT:    -3.787      2.442      5.046
REMARK INTER + INTRA:          -4.857
REMARK INTER:                  -4.644
REMARK INTRA:                  -0.212
REMARK UNBOUND:                -0.184
REMARK SMILES CCCCC=CC(C)=O
REMARK SMILES IDX 4 1 3 2 2 3 1 4 5 5 6 6 7 7 9 8 8 9
REMARK H PARENT
REMARK Flexibility Score: inf
ROOT
ATOM      1  C   UNL     1     -40.964  16.714  15.076  1.00  0.00     0.027 C 
ENDROOT
BRANCH   1   2
ATOM      2  C   UNL     1     -39.943  15.946  15.929  1.00  0.00     0.004 C 
BRANCH   2   3
ATOM      3  C   UNL     1     -39.488  14.635  15.265  1.00  0.00    -0.003 C 
ATOM      4  C   UNL     1     -40.283  13.422  15.747  1.00  0.00     0.004 C 
ENDBRANCH   2   3
ENDBRANCH   1   2
BRANCH   1   5
ATOM      5  C   UNL     1     -42.066  17.276  15.926  1.00  0.00    -0.023 C 
ATOM      6  C   UNL     1     -41.862  17.599  17.210  1.00  0.00     0.042 C 
BRANCH   6   7
ATOM      7  C   UNL     1     -42.912  18.167  18.080  1.00  0.00     0.152 C 
ATOM      8  O   UNL     1     -42.564  18.778  19.125  1.00  0.00    -0.295 OA
ATOM      9  C   UNL     1     -44.373  18.041  17.767  1.00  0.00     0.093 C 
ENDBRANCH   6   7
ENDBRANCH   1   5
TORSDOF 4
ENDMDL
MODEL 7
REMARK VINA RESULT:    -3.606      8.778     11.019
REMARK INTER + INTRA:          -4.633
REMARK INTER:                  -4.432
REMARK INTRA:                  -0.201
REMARK UNBOUND:                -0.184
REMARK SMILES CCCCC=CC(C)=O
REMARK SMILES IDX 4 1 3 2 2 3 1 4 5 5 6 6 7 7 9 8 8 9
REMARK H PARENT
REMARK Flexibility Score: inf
ROOT
ATOM      1  C   UNL     1     -35.835  16.150   6.702  1.00  0.00     0.027 C 
ENDROOT
BRANCH   1   2
ATOM      2  C   UNL     1     -34.327  15.883   6.815  1.00  0.00     0.004 C 
BRANCH   2   3
ATOM      3  C   UNL     1     -33.539  16.436   5.616  1.00  0.00    -0.003 C 
ATOM      4  C   UNL     1     -34.334  17.461   4.809  1.00  0.00     0.004 C 
ENDBRANCH   2   3
ENDBRANCH   1   2
BRANCH   1   5
ATOM      5  C   UNL     1     -36.515  15.993   8.032  1.00  0.00    -0.023 C 
ATOM      6  C   UNL     1     -36.061  16.618   9.126  1.00  0.00     0.042 C 
BRANCH   6   7
ATOM      7  C   UNL     1     -36.704  16.503  10.451  1.00  0.00     0.152 C 
ATOM      8  O   UNL     1     -36.028  16.045  11.411  1.00  0.00    -0.295 OA
ATOM      9  C   UNL     1     -38.126  16.910  10.694  1.00  0.00     0.093 C 
ENDBRANCH   6   7
ENDBRANCH   1   5
TORSDOF 4
ENDMDL
MODEL 8
REMARK VINA RESULT:    -3.557      1.753      2.648
REMARK INTER + INTRA:          -4.573
REMARK INTER:                  -4.366
REMARK INTRA:                  -0.207
REMARK UNBOUND:                -0.184
REMARK SMILES CCCCC=CC(C)=O
REMARK SMILES IDX 4 1 3 2 2 3 1 4 5 5 6 6 7 7 9 8 8 9
REMARK H PARENT
REMARK Flexibility Score: inf
ROOT
ATOM      1  C   UNL     1     -41.944  17.306  16.318  1.00  0.00     0.027 C 
ENDROOT
BRANCH   1   2
ATOM      2  C   UNL     1     -42.713  18.272  15.404  1.00  0.00     0.004 C 
BRANCH   2   3
ATOM      3  C   UNL     1     -42.383  18.063  13.917  1.00  0.00    -0.003 C 
ATOM      4  C   UNL     1     -42.181  19.378  13.166  1.00  0.00     0.004 C 
ENDBRANCH   2   3
ENDBRANCH   1   2
BRANCH   1   5
ATOM      5  C   UNL     1     -41.024  16.425  15.525  1.00  0.00    -0.023 C 
ATOM      6  C   UNL     1     -39.763  16.201  15.916  1.00  0.00     0.042 C 
BRANCH   6   7
ATOM      7  C   UNL     1     -38.825  15.332  15.175  1.00  0.00     0.152 C 
ATOM      8  O   UNL     1     -39.138  14.962  14.012  1.00  0.00    -0.295 OA
ATOM      9  C   UNL     1     -37.520  14.876  15.755  1.00  0.00     0.093 C 
ENDBRANCH   6   7
ENDBRANCH   1   5
TORSDOF 4
ENDMDL
MODEL 9
REMARK VINA RESULT:    -3.539     10.262     12.168
REMARK INTER + INTRA:          -4.550
REMARK INTER:                  -4.289
REMARK INTRA:                  -0.261
REMARK UNBOUND:                -0.184
REMARK SMILES CCCCC=CC(C)=O
REMARK SMILES IDX 4 1 3 2 2 3 1 4 5 5 6 6 7 7 9 8 8 9
REMARK H PARENT
REMARK Flexibility Score: inf
ROOT
ATOM      1  C   UNL     1     -33.568  16.527   5.889  1.00  0.00     0.027 C 
ENDROOT
BRANCH   1   2
ATOM      2  C   UNL     1     -34.283  17.483   4.922  1.00  0.00     0.004 C 
BRANCH   2   3
ATOM      3  C   UNL     1     -33.859  18.948   5.122  1.00  0.00    -0.003 C 
ATOM      4  C   UNL     1     -32.973  19.144   6.351  1.00  0.00     0.004 C 
ENDBRANCH   2   3
ENDBRANCH   1   2
BRANCH   1   5
ATOM      5  C   UNL     1     -34.550  15.824   6.781  1.00  0.00    -0.023 C 
ATOM      6  C   UNL     1     -35.796  16.285   6.947  1.00  0.00     0.042 C 
BRANCH   6   7
ATOM      7  C   UNL     1     -36.799  15.621   7.805  1.00  0.00     0.152 C 
ATOM      8  O   UNL     1     -36.705  14.379   7.991  1.00  0.00    -0.295 OA
ATOM      9  C   UNL     1     -37.922  16.370   8.459  1.00  0.00     0.093 C 
ENDBRANCH   6   7
ENDBRANCH   1   5
TORSDOF 4
ENDMDL
