MODEL 1
REMARK VINA RESULT:    -3.130      0.000      0.000
REMARK INTER + INTRA:          -5.142
REMARK INTER:                  -4.411
REMARK INTRA:                  -0.731
REMARK UNBOUND:                -0.731
REMARK SMILES CCCCCCCCC(=O)[O-]
REMARK SMILES IDX 6 1 7 2 8 3 9 4 10 5 11 6 5 7 4 8 3 9 2 10 1 11
REMARK H PARENT
REMARK Flexibility Score: inf
ROOT
ATOM      1  C   UNL     1       3.852  -9.046   8.833  1.00  0.00     0.000 C 
ENDROOT
BRANCH   1   2
ATOM      2  C   UNL     1       4.595  -9.523   7.580  1.00  0.00     0.006 C 
BRANCH   2   3
ATOM      3  C   UNL     1       4.157  -8.730   6.345  1.00  0.00     0.053 C 
BRANCH   3   4
ATOM      4  C   UNL     1       5.349  -8.245   5.583  1.00  0.00     0.041 C 
ATOM      5  O   UNL     1       5.623  -7.017   5.548  1.00  0.00    -0.550 OA
ATOM      6  O   UNL     1       6.130  -9.145   4.869  1.00  0.00    -0.550 OA
ENDBRANCH   3   4
ENDBRANCH   2   3
ENDBRANCH   1   2
BRANCH   1   7
ATOM      7  C   UNL     1       4.792  -9.004  10.048  1.00  0.00     0.000 C 
BRANCH   7   8
ATOM      8  C   UNL     1       6.277  -9.123   9.662  1.00  0.00    -0.000 C 
BRANCH   8   9
ATOM      9  C   UNL     1       7.081  -7.813   9.759  1.00  0.00    -0.000 C 
BRANCH   9  10
ATOM     10  C   UNL     1       7.822  -7.467   8.460  1.00  0.00    -0.003 C 
ATOM     11  C   UNL     1       8.250  -8.730   7.718  1.00  0.00     0.004 C 
ENDBRANCH   9  10
ENDBRANCH   8   9
ENDBRANCH   7   8
ENDBRANCH   1   7
TORSDOF 7
ENDMDL
MODEL 2
REMARK VINA RESULT:    -3.093      2.207      3.444
REMARK INTER + INTRA:          -5.090
REMARK INTER:                  -4.405
REMARK INTRA:                  -0.685
REMARK UNBOUND:                -0.731
REMARK SMILES CCCCCCCCC(=O)[O-]
REMARK SMILES IDX 6 1 7 2 8 3 9 4 10 5 11 6 5 7 4 8 3 9 2 10 1 11
REMARK H PARENT
REMARK Flexibility Score: inf
ROOT
ATOM      1  C   UNL     1       5.865  -7.971   5.724  1.00  0.00     0.000 C 
ENDROOT
BRANCH   1   2
ATOM      2  C   UNL     1       4.392  -8.246   6.047  1.00  0.00     0.006 C 
BRANCH   2   3
ATOM      3  C   UNL     1       4.219  -9.623   6.696  1.00  0.00     0.053 C 
BRANCH   3   4
ATOM      4  C   UNL     1       3.736  -9.481   8.104  1.00  0.00     0.041 C 
ATOM      5  O   UNL     1       4.416  -8.838   8.947  1.00  0.00    -0.550 OA
ATOM      6  O   UNL     1       2.559 -10.102   8.501  1.00  0.00    -0.550 OA
ENDBRANCH   3   4
ENDBRANCH   2   3
ENDBRANCH   1   2
BRANCH   1   7
ATOM      7  C   UNL     1       6.577  -9.252   5.265  1.00  0.00     0.000 C 
BRANCH   7   8
ATOM      8  C   UNL     1       7.950  -9.449   5.933  1.00  0.00    -0.000 C 
BRANCH   8   9
ATOM      9  C   UNL     1       7.910  -9.607   7.464  1.00  0.00    -0.000 C 
BRANCH   9  10
ATOM     10  C   UNL     1       8.663  -8.491   8.201  1.00  0.00    -0.003 C 
ATOM     11  C   UNL     1       7.693  -7.495   8.830  1.00  0.00     0.004 C 
ENDBRANCH   9  10
ENDBRANCH   8   9
ENDBRANCH   7   8
ENDBRANCH   1   7
TORSDOF 7
ENDMDL
MODEL 3
REMARK VINA RESULT:    -3.040      2.101      4.375
REMARK INTER + INTRA:          -5.014
REMARK INTER:                  -4.266
REMARK INTRA:                  -0.748
REMARK UNBOUND:                -0.731
REMARK SMILES CCCCCCCCC(=O)[O-]
REMARK SMILES IDX 6 1 7 2 8 3 9 4 10 5 11 6 5 7 4 8 3 9 2 10 1 11
REMARK H PARENT
REMARK Flexibility Score: inf
ROOT
ATOM      1  C   UNL     1       6.657  -9.503   5.707  1.00  0.00     0.000 C 
ENDROOT
BRANCH   1   2
ATOM      2  C   UNL     1       7.986  -9.234   6.422  1.00  0.00     0.006 C 
BRANCH   2   3
ATOM      3  C   UNL     1       7.812  -9.286   7.943  1.00  0.00     0.053 C 
BRANCH   3   4
ATOM      4  C   UNL     1       8.131  -7.957   8.552  1.00  0.00     0.041 C 
ATOM      5  O   UNL     1       7.383  -6.966   8.342  1.00  0.00    -0.550 OA
ATOM      6  O   UNL     1       9.284  -7.799   9.312  1.00  0.00    -0.550 OA
ENDBRANCH   3   4
ENDBRANCH   2   3
ENDBRANCH   1   2
BRANCH   1   7
ATOM      7  C   UNL     1       5.846  -8.209   5.546  1.00  0.00     0.000 C 
BRANCH   7   8
ATOM      8  C   UNL     1       4.431  -8.307   6.145  1.00  0.00    -0.000 C 
BRANCH   8   9
ATOM      9  C   UNL     1       4.006  -9.723   6.576  1.00  0.00    -0.000 C 
BRANCH   9  10
ATOM     10  C   UNL     1       3.383  -9.760   7.979  1.00  0.00    -0.003 C 
ATOM     11  C   UNL     1       4.253  -9.014   8.986  1.00  0.00     0.004 C 
ENDBRANCH   9  10
ENDBRANCH   8   9
ENDBRANCH   7   8
ENDBRANCH   1   7
TORSDOF 7
ENDMDL
MODEL 4
REMARK VINA RESULT:    -2.928     25.661     27.064
REMARK INTER + INTRA:          -4.857
REMARK INTER:                  -4.410
REMARK INTRA:                  -0.447
REMARK UNBOUND:                -0.731
REMARK SMILES CCCCCCCCC(=O)[O-]
REMARK SMILES IDX 6 1 7 2 8 3 9 4 10 5 11 6 5 7 4 8 3 9 2 10 1 11
REMARK H PARENT
REMARK Flexibility Score: inf
ROOT
ATOM      1  C   UNL     1      -8.673   9.527  -8.271  1.00  0.00     0.000 C 
ENDROOT
BRANCH   1   2
ATOM      2  C   UNL     1      -8.958   8.538  -9.407  1.00  0.00     0.006 C 
BRANCH   2   3
ATOM      3  C   UNL     1      -7.666   8.136 -10.124  1.00  0.00     0.053 C 
BRANCH   3   4
ATOM      4  C   UNL     1      -7.180   6.812  -9.624  1.00  0.00     0.041 C 
ATOM      5  O   UNL     1      -6.083   6.345 -10.030  1.00  0.00    -0.550 OA
ATOM      6  O   UNL     1      -7.961   6.070  -8.748  1.00  0.00    -0.550 OA
ENDBRANCH   3   4
ENDBRANCH   2   3
ENDBRANCH   1   2
BRANCH   1   7
ATOM      7  C   UNL     1      -9.941   9.804  -7.450  1.00  0.00     0.000 C 
BRANCH   7   8
ATOM      8  C   UNL     1      -9.652  10.029  -5.955  1.00  0.00    -0.000 C 
BRANCH   8   9
ATOM      9  C   UNL     1      -9.978   8.832  -5.043  1.00  0.00    -0.000 C 
BRANCH   9  10
ATOM     10  C   UNL     1      -9.138   7.587  -5.365  1.00  0.00    -0.003 C 
ATOM     11  C   UNL     1     -10.026   6.420  -5.787  1.00  0.00     0.004 C 
ENDBRANCH   9  10
ENDBRANCH   8   9
ENDBRANCH   7   8
ENDBRANCH   1   7
TORSDOF 7
ENDMDL
MODEL 5
REMARK VINA RESULT:    -2.910      2.374      3.417
REMARK INTER + INTRA:          -4.832
REMARK INTER:                  -4.095
REMARK INTRA:                  -0.737
REMARK UNBOUND:                -0.731
REMARK SMILES CCCCCCCCC(=O)[O-]
REMARK SMILES IDX 6 1 7 2 8 3 9 4 10 5 11 6 5 7 4 8 3 9 2 10 1 11
REMARK H PARENT
REMARK Flexibility Score: inf
ROOT
ATOM      1  C   UNL     1       4.914  -8.089   6.220  1.00  0.00     0.000 C 
ENDROOT
BRANCH   1   2
ATOM      2  C   UNL     1       3.800  -9.128   6.395  1.00  0.00     0.006 C 
BRANCH   2   3
ATOM      3  C   UNL     1       4.084 -10.042   7.590  1.00  0.00     0.053 C 
BRANCH   3   4
ATOM      4  C   UNL     1       3.366  -9.551   8.807  1.00  0.00     0.041 C 
ATOM      5  O   UNL     1       2.157  -9.852   8.996  1.00  0.00    -0.550 OA
ATOM      6  O   UNL     1       4.015  -8.718   9.709  1.00  0.00    -0.550 OA
ENDBRANCH   3   4
ENDBRANCH   2   3
ENDBRANCH   1   2
BRANCH   1   7
ATOM      7  C   UNL     1       6.235  -8.761   5.813  1.00  0.00     0.000 C 
BRANCH   7   8
ATOM      8  C   UNL     1       7.332  -8.626   6.884  1.00  0.00    -0.000 C 
BRANCH   8   9
ATOM      9  C   UNL     1       7.103  -7.501   7.911  1.00  0.00    -0.000 C 
BRANCH   9  10
ATOM     10  C   UNL     1       7.437  -7.925   9.348  1.00  0.00    -0.003 C 
ATOM     11  C   UNL     1       7.472  -9.445   9.479  1.00  0.00     0.004 C 
ENDBRANCH   9  10
ENDBRANCH   8   9
ENDBRANCH   7   8
ENDBRANCH   1   7
TORSDOF 7
ENDMDL
MODEL 6
REMARK VINA RESULT:    -2.891      1.417      3.010
REMARK INTER + INTRA:          -4.804
REMARK INTER:                  -4.134
REMARK INTRA:                  -0.670
REMARK UNBOUND:                -0.731
REMARK SMILES CCCCCCCCC(=O)[O-]
REMARK SMILES IDX 6 1 7 2 8 3 9 4 10 5 11 6 5 7 4 8 3 9 2 10 1 11
REMARK H PARENT
REMARK Flexibility Score: inf
ROOT
ATOM      1  C   UNL     1       8.409  -9.355   5.942  1.00  0.00     0.000 C 
ENDROOT
BRANCH   1   2
ATOM      2  C   UNL     1       7.125  -9.722   5.189  1.00  0.00     0.006 C 
BRANCH   2   3
ATOM      3  C   UNL     1       5.937  -9.832   6.149  1.00  0.00     0.053 C 
BRANCH   3   4
ATOM      4  C   UNL     1       5.048  -8.635   6.021  1.00  0.00     0.041 C 
ATOM      5  O   UNL     1       3.873  -8.667   6.473  1.00  0.00    -0.550 OA
ATOM      6  O   UNL     1       5.499  -7.501   5.358  1.00  0.00    -0.550 OA
ENDBRANCH   3   4
ENDBRANCH   2   3
ENDBRANCH   1   2
BRANCH   1   7
ATOM      7  C   UNL     1       8.324  -9.781   7.416  1.00  0.00     0.000 C 
BRANCH   7   8
ATOM      8  C   UNL     1       8.744  -8.665   8.389  1.00  0.00    -0.000 C 
BRANCH   8   9
ATOM      9  C   UNL     1       7.668  -7.596   8.655  1.00  0.00    -0.000 C 
BRANCH   9  10
ATOM     10  C   UNL     1       6.937  -7.801   9.989  1.00  0.00    -0.003 C 
ATOM     11  C   UNL     1       5.753  -8.749   9.827  1.00  0.00     0.004 C 
ENDBRANCH   9  10
ENDBRANCH   8   9
ENDBRANCH   7   8
ENDBRANCH   1   7
TORSDOF 7
ENDMDL
MODEL 7
REMARK VINA RESULT:    -2.890      1.640      2.451
REMARK INTER + INTRA:          -4.803
REMARK INTER:                  -4.125
REMARK INTRA:                  -0.678
REMARK UNBOUND:                -0.731
REMARK SMILES CCCCCCCCC(=O)[O-]
REMARK SMILES IDX 6 1 7 2 8 3 9 4 10 5 11 6 5 7 4 8 3 9 2 10 1 11
REMARK H PARENT
REMARK Flexibility Score: inf
ROOT
ATOM      1  C   UNL     1       6.254  -8.253   8.572  1.00  0.00     0.000 C 
ENDROOT
BRANCH   1   2
ATOM      2  C   UNL     1       6.359  -9.476   7.653  1.00  0.00     0.006 C 
BRANCH   2   3
ATOM      3  C   UNL     1       6.451  -9.054   6.184  1.00  0.00     0.053 C 
BRANCH   3   4
ATOM      4  C   UNL     1       5.287  -8.190   5.813  1.00  0.00     0.041 C 
ATOM      5  O   UNL     1       5.476  -7.081   5.246  1.00  0.00    -0.550 OA
ATOM      6  O   UNL     1       3.996  -8.584   6.139  1.00  0.00    -0.550 OA
ENDBRANCH   3   4
ENDBRANCH   2   3
ENDBRANCH   1   2
BRANCH   1   7
ATOM      7  C   UNL     1       7.596  -7.509   8.653  1.00  0.00     0.000 C 
BRANCH   7   8
ATOM      8  C   UNL     1       8.656  -8.271   9.468  1.00  0.00    -0.000 C 
BRANCH   8   9
ATOM      9  C   UNL     1      10.020  -8.430   8.771  1.00  0.00    -0.000 C 
BRANCH   9  10
ATOM     10  C   UNL     1      10.125  -9.721   7.946  1.00  0.00    -0.003 C 
ATOM     11  C   UNL     1      10.056  -9.425   6.451  1.00  0.00     0.004 C 
ENDBRANCH   9  10
ENDBRANCH   8   9
ENDBRANCH   7   8
ENDBRANCH   1   7
TORSDOF 7
ENDMDL
MODEL 8
REMARK VINA RESULT:    -2.885      2.385      4.466
REMARK INTER + INTRA:          -4.797
REMARK INTER:                  -4.150
REMARK INTRA:                  -0.646
REMARK UNBOUND:                -0.731
REMARK SMILES CCCCCCCCC(=O)[O-]
REMARK SMILES IDX 6 1 7 2 8 3 9 4 10 5 11 6 5 7 4 8 3 9 2 10 1 11
REMARK H PARENT
REMARK Flexibility Score: inf
ROOT
ATOM      1  C   UNL     1       5.934  -7.218   6.326  1.00  0.00     0.000 C 
ENDROOT
BRANCH   1   2
ATOM      2  C   UNL     1       6.691  -7.438   7.641  1.00  0.00     0.006 C 
BRANCH   2   3
ATOM      3  C   UNL     1       7.440  -8.774   7.627  1.00  0.00     0.053 C 
BRANCH   3   4
ATOM      4  C   UNL     1       8.817  -8.608   8.189  1.00  0.00     0.041 C 
ATOM      5  O   UNL     1       9.812  -9.080   7.579  1.00  0.00    -0.550 OA
ATOM      6  O   UNL     1       8.997  -7.975   9.412  1.00  0.00    -0.550 OA
ENDBRANCH   3   4
ENDBRANCH   2   3
ENDBRANCH   1   2
BRANCH   1   7
ATOM      7  C   UNL     1       5.382  -8.543   5.779  1.00  0.00     0.000 C 
BRANCH   7   8
ATOM      8  C   UNL     1       3.950  -8.842   6.259  1.00  0.00    -0.000 C 
BRANCH   8   9
ATOM      9  C   UNL     1       3.818 -10.061   7.191  1.00  0.00    -0.000 C 
BRANCH   9  10
ATOM     10  C   UNL     1       3.006  -9.760   8.458  1.00  0.00    -0.003 C 
ATOM     11  C   UNL     1       3.870  -9.081   9.517  1.00  0.00     0.004 C 
ENDBRANCH   9  10
ENDBRANCH   8   9
ENDBRANCH   7   8
ENDBRANCH   1   7
TORSDOF 7
ENDMDL
MODEL 9
REMARK VINA RESULT:    -2.885      1.974      3.693
REMARK INTER + INTRA:          -4.797
REMARK INTER:                  -3.968
REMARK INTRA:                  -0.828
REMARK UNBOUND:                -0.731
REMARK SMILES CCCCCCCCC(=O)[O-]
REMARK SMILES IDX 6 1 7 2 8 3 9 4 10 5 11 6 5 7 4 8 3 9 2 10 1 11
REMARK H PARENT
REMARK Flexibility Score: inf
ROOT
ATOM      1  C   UNL     1       3.916  -9.003   9.043  1.00  0.00     0.000 C 
ENDROOT
BRANCH   1   2
ATOM      2  C   UNL     1       5.213  -9.626   9.572  1.00  0.00     0.006 C 
BRANCH   2   3
ATOM      3  C   UNL     1       6.240  -8.545   9.921  1.00  0.00     0.053 C 
BRANCH   3   4
ATOM      4  C   UNL     1       7.426  -8.637   9.014  1.00  0.00     0.041 C 
ATOM      5  O   UNL     1       7.840  -9.761   8.623  1.00  0.00    -0.550 OA
ATOM      6  O   UNL     1       8.108  -7.486   8.641  1.00  0.00    -0.550 OA
ENDBRANCH   3   4
ENDBRANCH   2   3
ENDBRANCH   1   2
BRANCH   1   7
ATOM      7  C   UNL     1       3.385  -9.784   7.831  1.00  0.00     0.000 C 
BRANCH   7   8
ATOM      8  C   UNL     1       3.840  -9.189   6.487  1.00  0.00    -0.000 C 
BRANCH   8   9
ATOM      9  C   UNL     1       5.165  -9.753   5.942  1.00  0.00    -0.000 C 
BRANCH   9  10
ATOM     10  C   UNL     1       6.187  -8.658   5.603  1.00  0.00    -0.003 C 
ATOM     11  C   UNL     1       5.673  -7.281   6.012  1.00  0.00     0.004 C 
ENDBRANCH   9  10
ENDBRANCH   8   9
ENDBRANCH   7   8
ENDBRANCH   1   7
TORSDOF 7
ENDMDL
