MODEL 1
REMARK VINA RESULT:    -5.549      0.000      0.000
REMARK INTER + INTRA:         -12.783
REMARK INTER:                  -9.605
REMARK INTRA:                  -3.178
REMARK UNBOUND:                -3.178
REMARK SMILES OC[C@@H]1O[C@H](O[C@H]2[C@H](O)[C@H](O)[C@@H](O[C@@H]3[C@@H](O)[C@@H](O)[C@H](O)O[C@H]3CO)O[C@@H]2CO)[C@@H](O)[C@H](O)[C@H]1O
REMARK SMILES IDX 7 1 26 2 25 3 12 4 10 5 8 6 6 7 5 8 3 9 33 10 4 11 31 12
REMARK SMILES IDX 29 13 2 14 1 15 34 17 32 19 30 21 27 23 28 24 9 26 11 28
REMARK SMILES IDX 13 30 14 31 22 32 15 33 21 34 17 35 19 36 23 37 24 38 16 40
REMARK SMILES IDX 18 42 20 44
REMARK H PARENT 1 16 34 18 32 20 30 22 28 25 9 27 11 29 24 39 16 41 18 43
REMARK H PARENT 20 45
REMARK Flexibility Score: inf
ROOT
ATOM      1  C   UNL     1      34.573   8.681  30.944  1.00  0.00     0.184 C 
ATOM      2  C   UNL     1      35.064   8.458  32.407  1.00  0.00     0.178 C 
ATOM      3  O   UNL     1      36.233   9.225  32.724  1.00  0.00    -0.341 OA
ATOM      4  C   UNL     1      36.404  10.596  32.257  1.00  0.00     0.282 C 
ATOM      5  C   UNL     1      35.767  10.945  30.883  1.00  0.00     0.202 C 
ATOM      6  C   UNL     1      35.534   9.606  30.123  1.00  0.00     0.180 C 
ENDROOT
BRANCH   1   7
ATOM      7  O   UNL     1      33.170   8.919  30.970  1.00  0.00    -0.341 OA
BRANCH   7   8
ATOM      8  C   UNL     1      32.289   8.370  29.983  1.00  0.00     0.282 C 
ATOM      9  C   UNL     1      30.378   9.889  30.157  1.00  0.00     0.178 C 
ATOM     10  C   UNL     1      30.407  10.214  28.576  1.00  0.00     0.177 C 
ATOM     11  O   UNL     1      30.913   8.553  30.346  1.00  0.00    -0.341 OA
ATOM     12  C   UNL     1      31.257   9.179  27.752  1.00  0.00     0.179 C 
ATOM     13  C   UNL     1      32.586   8.956  28.547  1.00  0.00     0.202 C 
BRANCH   9  14
ATOM     14  C   UNL     1      30.992  11.046  31.154  1.00  0.00     0.191 C 
BRANCH  14  15
ATOM     15  O   UNL     1      32.167  11.630  30.628  1.00  0.00    -0.394 OA
ATOM     16  H   UNL     1      32.182  12.627  30.906  1.00  0.00     0.210 HD
ENDBRANCH  14  15
ENDBRANCH   9  14
BRANCH  10  17
ATOM     17  O   UNL     1      29.071  10.376  28.094  1.00  0.00    -0.387 OA
ATOM     18  H   UNL     1      28.827   9.587  27.542  1.00  0.00     0.211 HD
ENDBRANCH  10  17
BRANCH  12  19
ATOM     19  O   UNL     1      31.580   9.609  26.473  1.00  0.00    -0.387 OA
ATOM     20  H   UNL     1      31.781  10.563  26.480  1.00  0.00     0.211 HD
ENDBRANCH  12  19
BRANCH  13  21
ATOM     21  O   UNL     1      33.412   8.065  27.805  1.00  0.00    -0.385 OA
ATOM     22  H   UNL     1      33.249   7.099  28.108  1.00  0.00     0.211 HD
ENDBRANCH  13  21
ENDBRANCH   7   8
ENDBRANCH   1   7
BRANCH   2  23
ATOM     23  C   UNL     1      35.393   6.982  32.708  1.00  0.00     0.191 C 
BRANCH  23  24
ATOM     24  O   UNL     1      36.557   6.598  32.061  1.00  0.00    -0.394 OA
ATOM     25  H   UNL     1      36.365   5.653  31.741  1.00  0.00     0.210 HD
ENDBRANCH  23  24
ENDBRANCH   2  23
BRANCH   6  26
ATOM     26  O   UNL     1      36.806   9.001  30.062  1.00  0.00    -0.387 OA
ATOM     27  H   UNL     1      37.454   9.662  29.710  1.00  0.00     0.211 HD
ENDBRANCH   6  26
BRANCH   5  28
ATOM     28  O   UNL     1      36.664  11.820  30.179  1.00  0.00    -0.385 OA
ATOM     29  H   UNL     1      36.389  12.784  30.200  1.00  0.00     0.211 HD
ENDBRANCH   5  28
BRANCH   4  30
ATOM     30  O   UNL     1      36.182  11.569  33.288  1.00  0.00    -0.341 OA
BRANCH  30  31
ATOM     31  C   UNL     1      34.960  12.242  33.085  1.00  0.00     0.184 C 
ATOM     32  C   UNL     1      33.958  11.962  34.271  1.00  0.00     0.178 C 
ATOM     33  C   UNL     1      35.018  13.784  32.994  1.00  0.00     0.180 C 
ATOM     34  O   UNL     1      32.674  12.192  33.711  1.00  0.00    -0.342 OA
ATOM     35  C   UNL     1      33.567  14.356  32.835  1.00  0.00     0.201 C 
ATOM     36  C   UNL     1      32.416  13.622  33.651  1.00  0.00     0.279 C 
BRANCH  32  37
ATOM     37  C   UNL     1      33.958  10.620  35.107  1.00  0.00     0.191 C 
BRANCH  37  38
ATOM     38  O   UNL     1      35.251  10.294  35.521  1.00  0.00    -0.394 OA
ATOM     39  H   UNL     1      35.877  10.333  34.737  1.00  0.00     0.210 HD
ENDBRANCH  37  38
ENDBRANCH  32  37
BRANCH  33  40
ATOM     40  O   UNL     1      35.852  14.215  31.899  1.00  0.00    -0.387 OA
ATOM     41  H   UNL     1      36.253  13.387  31.553  1.00  0.00     0.211 HD
ENDBRANCH  33  40
BRANCH  35  42
ATOM     42  O   UNL     1      33.215  14.339  31.463  1.00  0.00    -0.385 OA
ATOM     43  H   UNL     1      33.952  14.799  30.982  1.00  0.00     0.211 HD
ENDBRANCH  35  42
BRANCH  36  44
ATOM     44  O   UNL     1      32.290  14.177  34.953  1.00  0.00    -0.366 OA
ATOM     45  H   UNL     1      31.609  13.633  35.463  1.00  0.00     0.213 HD
ENDBRANCH  36  44
ENDBRANCH  30  31
ENDBRANCH   4  30
TORSDOF 18
ENDMDL
MODEL 2
REMARK VINA RESULT:    -5.358      1.526      2.451
REMARK INTER + INTRA:         -12.452
REMARK INTER:                  -9.173
REMARK INTRA:                  -3.279
REMARK UNBOUND:                -3.178
REMARK SMILES OC[C@@H]1O[C@H](O[C@H]2[C@H](O)[C@H](O)[C@@H](O[C@@H]3[C@@H](O)[C@@H](O)[C@H](O)O[C@H]3CO)O[C@@H]2CO)[C@@H](O)[C@H](O)[C@H]1O
REMARK SMILES IDX 7 1 26 2 25 3 12 4 10 5 8 6 6 7 5 8 3 9 33 10 4 11 31 12
REMARK SMILES IDX 29 13 2 14 1 15 34 17 32 19 30 21 27 23 28 24 9 26 11 28
REMARK SMILES IDX 13 30 14 31 22 32 15 33 21 34 17 35 19 36 23 37 24 38 16 40
REMARK SMILES IDX 18 42 20 44
REMARK H PARENT 1 16 34 18 32 20 30 22 28 25 9 27 11 29 24 39 16 41 18 43
REMARK H PARENT 20 45
REMARK Flexibility Score: inf
ROOT
ATOM      1  C   UNL     1      33.089   8.137  32.019  1.00  0.00     0.184 C 
ATOM      2  C   UNL     1      32.264   8.477  33.298  1.00  0.00     0.178 C 
ATOM      3  O   UNL     1      33.091   8.733  34.441  1.00  0.00    -0.341 OA
ATOM      4  C   UNL     1      34.337   9.484  34.336  1.00  0.00     0.282 C 
ATOM      5  C   UNL     1      35.121   9.345  33.001  1.00  0.00     0.202 C 
ATOM      6  C   UNL     1      34.626   8.044  32.303  1.00  0.00     0.180 C 
ENDROOT
BRANCH   1   7
ATOM      7  O   UNL     1      32.587   8.915  30.939  1.00  0.00    -0.341 OA
BRANCH   7   8
ATOM      8  C   UNL     1      31.918   8.319  29.821  1.00  0.00     0.282 C 
ATOM      9  C   UNL     1      29.897   9.693  29.692  1.00  0.00     0.178 C 
ATOM     10  C   UNL     1      30.154  10.044  28.136  1.00  0.00     0.177 C 
ATOM     11  O   UNL     1      30.491   8.397  29.959  1.00  0.00    -0.341 OA
ATOM     12  C   UNL     1      31.200   9.087  27.457  1.00  0.00     0.179 C 
ATOM     13  C   UNL     1      32.397   8.948  28.454  1.00  0.00     0.202 C 
BRANCH   9  14
ATOM     14  C   UNL     1      30.256  10.876  30.778  1.00  0.00     0.191 C 
BRANCH  14  15
ATOM     15  O   UNL     1      31.322  11.694  30.339  1.00  0.00    -0.394 OA
ATOM     16  H   UNL     1      32.118  11.559  30.987  1.00  0.00     0.210 HD
ENDBRANCH  14  15
ENDBRANCH   9  14
BRANCH  10  17
ATOM     17  O   UNL     1      28.904  10.116  27.447  1.00  0.00    -0.387 OA
ATOM     18  H   UNL     1      28.380  10.881  27.803  1.00  0.00     0.211 HD
ENDBRANCH  10  17
BRANCH  12  19
ATOM     19  O   UNL     1      31.690   9.558  26.247  1.00  0.00    -0.387 OA
ATOM     20  H   UNL     1      31.447  10.495  26.129  1.00  0.00     0.211 HD
ENDBRANCH  12  19
BRANCH  13  21
ATOM     21  O   UNL     1      33.395   8.131  27.850  1.00  0.00    -0.385 OA
ATOM     22  H   UNL     1      33.035   7.181  27.711  1.00  0.00     0.211 HD
ENDBRANCH  13  21
ENDBRANCH   7   8
ENDBRANCH   1   7
BRANCH   2  23
ATOM     23  C   UNL     1      31.281   7.356  33.691  1.00  0.00     0.191 C 
BRANCH  23  24
ATOM     24  O   UNL     1      30.879   6.643  32.572  1.00  0.00    -0.394 OA
ATOM     25  H   UNL     1      30.244   7.272  32.090  1.00  0.00     0.210 HD
ENDBRANCH  23  24
ENDBRANCH   2  23
BRANCH   6  26
ATOM     26  O   UNL     1      34.853   7.021  33.246  1.00  0.00    -0.387 OA
ATOM     27  H   UNL     1      34.057   6.947  33.831  1.00  0.00     0.211 HD
ENDBRANCH   6  26
BRANCH   5  28
ATOM     28  O   UNL     1      36.525   9.298  33.305  1.00  0.00    -0.385 OA
ATOM     29  H   UNL     1      36.725   9.212  34.283  1.00  0.00     0.211 HD
ENDBRANCH   5  28
BRANCH   4  30
ATOM     30  O   UNL     1      34.223  10.827  34.830  1.00  0.00    -0.341 OA
BRANCH  30  31
ATOM     31  C   UNL     1      34.221  11.751  33.765  1.00  0.00     0.184 C 
ATOM     32  C   UNL     1      32.837  12.504  33.675  1.00  0.00     0.178 C 
ATOM     33  C   UNL     1      35.267  12.888  33.824  1.00  0.00     0.180 C 
ATOM     34  O   UNL     1      32.758  12.938  32.326  1.00  0.00    -0.342 OA
ATOM     35  C   UNL     1      35.070  13.848  32.600  1.00  0.00     0.201 C 
ATOM     36  C   UNL     1      33.571  14.131  32.148  1.00  0.00     0.279 C 
BRANCH  32  37
ATOM     37  C   UNL     1      31.467  11.855  34.122  1.00  0.00     0.191 C 
BRANCH  37  38
ATOM     38  O   UNL     1      31.568  11.318  35.407  1.00  0.00    -0.394 OA
ATOM     39  H   UNL     1      31.203  10.383  35.413  1.00  0.00     0.210 HD
ENDBRANCH  37  38
ENDBRANCH  32  37
BRANCH  33  40
ATOM     40  O   UNL     1      36.611  12.365  33.843  1.00  0.00    -0.387 OA
ATOM     41  H   UNL     1      36.637  11.725  33.097  1.00  0.00     0.211 HD
ENDBRANCH  33  40
BRANCH  35  42
ATOM     42  O   UNL     1      35.775  13.325  31.489  1.00  0.00    -0.385 OA
ATOM     43  H   UNL     1      36.738  13.357  31.732  1.00  0.00     0.211 HD
ENDBRANCH  35  42
BRANCH  36  44
ATOM     44  O   UNL     1      33.032  15.234  32.861  1.00  0.00    -0.366 OA
ATOM     45  H   UNL     1      32.316  15.660  32.288  1.00  0.00     0.213 HD
ENDBRANCH  36  44
ENDBRANCH  30  31
ENDBRANCH   4  30
TORSDOF 18
ENDMDL
MODEL 3
REMARK VINA RESULT:    -5.299      2.019      4.609
REMARK INTER + INTRA:         -12.349
REMARK INTER:                  -9.227
REMARK INTRA:                  -3.122
REMARK UNBOUND:                -3.178
REMARK SMILES OC[C@@H]1O[C@H](O[C@H]2[C@H](O)[C@H](O)[C@@H](O[C@@H]3[C@@H](O)[C@@H](O)[C@H](O)O[C@H]3CO)O[C@@H]2CO)[C@@H](O)[C@H](O)[C@H]1O
REMARK SMILES IDX 7 1 26 2 25 3 12 4 10 5 8 6 6 7 5 8 3 9 33 10 4 11 31 12
REMARK SMILES IDX 29 13 2 14 1 15 34 17 32 19 30 21 27 23 28 24 9 26 11 28
REMARK SMILES IDX 13 30 14 31 22 32 15 33 21 34 17 35 19 36 23 37 24 38 16 40
REMARK SMILES IDX 18 42 20 44
REMARK H PARENT 1 16 34 18 32 20 30 22 28 25 9 27 11 29 24 39 16 41 18 43
REMARK H PARENT 20 45
REMARK Flexibility Score: inf
ROOT
ATOM      1  C   UNL     1      31.231   9.616  32.769  1.00  0.00     0.184 C 
ATOM      2  C   UNL     1      32.015  10.632  33.654  1.00  0.00     0.178 C 
ATOM      3  O   UNL     1      32.837   9.992  34.640  1.00  0.00    -0.341 OA
ATOM      4  C   UNL     1      33.588   8.777  34.345  1.00  0.00     0.282 C 
ATOM      5  C   UNL     1      32.954   7.802  33.315  1.00  0.00     0.202 C 
ATOM      6  C   UNL     1      31.435   8.134  33.233  1.00  0.00     0.180 C 
ENDROOT
BRANCH   1   7
ATOM      7  O   UNL     1      31.393   9.987  31.405  1.00  0.00    -0.341 OA
BRANCH   7   8
ATOM      8  C   UNL     1      30.941   9.151  30.332  1.00  0.00     0.282 C 
ATOM      9  C   UNL     1      29.143  10.519  29.393  1.00  0.00     0.178 C 
ATOM     10  C   UNL     1      29.777  10.455  27.909  1.00  0.00     0.177 C 
ATOM     11  O   UNL     1      29.534   9.313  30.097  1.00  0.00    -0.341 OA
ATOM     12  C   UNL     1      30.853   9.319  27.752  1.00  0.00     0.179 C 
ATOM     13  C   UNL     1      31.775   9.394  29.014  1.00  0.00     0.202 C 
BRANCH   9  14
ATOM     14  C   UNL     1      29.358  11.925  30.221  1.00  0.00     0.191 C 
BRANCH  14  15
ATOM     15  O   UNL     1      28.944  11.816  31.568  1.00  0.00    -0.394 OA
ATOM     16  H   UNL     1      28.615  12.746  31.880  1.00  0.00     0.210 HD
ENDBRANCH  14  15
ENDBRANCH   9  14
BRANCH  10  17
ATOM     17  O   UNL     1      28.729  10.395  26.940  1.00  0.00    -0.387 OA
ATOM     18  H   UNL     1      28.249  11.264  26.925  1.00  0.00     0.211 HD
ENDBRANCH  10  17
BRANCH  12  19
ATOM     19  O   UNL     1      31.647   9.450  26.622  1.00  0.00    -0.387 OA
ATOM     20  H   UNL     1      31.205   9.045  25.852  1.00  0.00     0.211 HD
ENDBRANCH  12  19
BRANCH  13  21
ATOM     21  O   UNL     1      32.800   8.415  28.883  1.00  0.00    -0.385 OA
ATOM     22  H   UNL     1      32.952   7.943  29.781  1.00  0.00     0.211 HD
ENDBRANCH  13  21
ENDBRANCH   7   8
ENDBRANCH   1   7
BRANCH   2  23
ATOM     23  C   UNL     1      31.090  11.613  34.401  1.00  0.00     0.191 C 
BRANCH  23  24
ATOM     24  O   UNL     1      29.808  11.096  34.501  1.00  0.00    -0.394 OA
ATOM     25  H   UNL     1      29.892  10.147  34.149  1.00  0.00     0.210 HD
ENDBRANCH  23  24
ENDBRANCH   2  23
BRANCH   6  26
ATOM     26  O   UNL     1      30.966   8.003  34.556  1.00  0.00    -0.387 OA
ATOM     27  H   UNL     1      30.171   8.582  34.669  1.00  0.00     0.211 HD
ENDBRANCH   6  26
BRANCH   5  28
ATOM     28  O   UNL     1      33.193   6.457  33.761  1.00  0.00    -0.385 OA
ATOM     29  H   UNL     1      32.825   6.261  34.673  1.00  0.00     0.211 HD
ENDBRANCH   5  28
BRANCH   4  30
ATOM     30  O   UNL     1      34.991   9.020  34.160  1.00  0.00    -0.341 OA
BRANCH  30  31
ATOM     31  C   UNL     1      35.301   9.133  32.789  1.00  0.00     0.184 C 
ATOM     32  C   UNL     1      35.880  10.563  32.458  1.00  0.00     0.178 C 
ATOM     33  C   UNL     1      36.360   8.156  32.230  1.00  0.00     0.180 C 
ATOM     34  O   UNL     1      35.622  10.737  31.073  1.00  0.00    -0.342 OA
ATOM     35  C   UNL     1      36.620   8.473  30.716  1.00  0.00     0.201 C 
ATOM     36  C   UNL     1      36.611  10.007  30.296  1.00  0.00     0.279 C 
BRANCH  32  37
ATOM     37  C   UNL     1      35.480  11.866  33.257  1.00  0.00     0.191 C 
BRANCH  37  38
ATOM     38  O   UNL     1      35.519  11.635  34.634  1.00  0.00    -0.394 OA
ATOM     39  H   UNL     1      36.259  10.992  34.848  1.00  0.00     0.210 HD
ENDBRANCH  37  38
ENDBRANCH  32  37
BRANCH  33  40
ATOM     40  O   UNL     1      35.948   6.783  32.393  1.00  0.00    -0.387 OA
ATOM     41  H   UNL     1      35.685   6.715  33.337  1.00  0.00     0.211 HD
ENDBRANCH  33  40
BRANCH  35  42
ATOM     42  O   UNL     1      35.654   7.795  29.933  1.00  0.00    -0.385 OA
ATOM     43  H   UNL     1      35.543   8.332  29.105  1.00  0.00     0.211 HD
ENDBRANCH  35  42
BRANCH  36  44
ATOM     44  O   UNL     1      37.904  10.576  30.444  1.00  0.00    -0.366 OA
ATOM     45  H   UNL     1      37.951  11.407  29.870  1.00  0.00     0.213 HD
ENDBRANCH  36  44
ENDBRANCH  30  31
ENDBRANCH   4  30
TORSDOF 18
ENDMDL
MODEL 4
REMARK VINA RESULT:    -5.229      1.988      6.182
REMARK INTER + INTRA:         -12.228
REMARK INTER:                  -9.760
REMARK INTRA:                  -2.468
REMARK UNBOUND:                -3.178
REMARK SMILES OC[C@@H]1O[C@H](O[C@H]2[C@H](O)[C@H](O)[C@@H](O[C@@H]3[C@@H](O)[C@@H](O)[C@H](O)O[C@H]3CO)O[C@@H]2CO)[C@@H](O)[C@H](O)[C@H]1O
REMARK SMILES IDX 7 1 26 2 25 3 12 4 10 5 8 6 6 7 5 8 3 9 33 10 4 11 31 12
REMARK SMILES IDX 29 13 2 14 1 15 34 17 32 19 30 21 27 23 28 24 9 26 11 28
REMARK SMILES IDX 13 30 14 31 22 32 15 33 21 34 17 35 19 36 23 37 24 38 16 40
REMARK SMILES IDX 18 42 20 44
REMARK H PARENT 1 16 34 18 32 20 30 22 28 25 9 27 11 29 24 39 16 41 18 43
REMARK H PARENT 20 45
REMARK Flexibility Score: inf
ROOT
ATOM      1  C   UNL     1      32.875   8.820  33.322  1.00  0.00     0.184 C 
ATOM      2  C   UNL     1      31.961   8.452  32.114  1.00  0.00     0.178 C 
ATOM      3  O   UNL     1      30.763   9.239  32.063  1.00  0.00    -0.341 OA
ATOM      4  C   UNL     1      30.763  10.662  32.379  1.00  0.00     0.282 C 
ATOM      5  C   UNL     1      31.792  11.137  33.443  1.00  0.00     0.202 C 
ATOM      6  C   UNL     1      32.222   9.886  34.265  1.00  0.00     0.180 C 
ENDROOT
BRANCH   1   7
ATOM      7  O   UNL     1      34.207   8.976  32.848  1.00  0.00    -0.341 OA
BRANCH   7   8
ATOM      8  C   UNL     1      34.502   9.156  31.457  1.00  0.00     0.282 C 
ATOM      9  C   UNL     1      35.369  11.444  31.449  1.00  0.00     0.178 C 
ATOM     10  C   UNL     1      36.729  10.998  30.703  1.00  0.00     0.177 C 
ATOM     11  O   UNL     1      34.322  10.521  31.053  1.00  0.00    -0.341 OA
ATOM     12  C   UNL     1      36.628   9.574  30.043  1.00  0.00     0.179 C 
ATOM     13  C   UNL     1      35.949   8.637  31.097  1.00  0.00     0.202 C 
BRANCH   9  14
ATOM     14  C   UNL     1      35.482  11.739  33.064  1.00  0.00     0.191 C 
BRANCH  14  15
ATOM     15  O   UNL     1      36.452  10.920  33.685  1.00  0.00    -0.394 OA
ATOM     16  H   UNL     1      36.418  11.097  34.705  1.00  0.00     0.210 HD
ENDBRANCH  14  15
ENDBRANCH   9  14
BRANCH  10  17
ATOM     17  O   UNL     1      37.141  12.024  29.798  1.00  0.00    -0.387 OA
ATOM     18  H   UNL     1      37.619  12.732  30.304  1.00  0.00     0.211 HD
ENDBRANCH  10  17
BRANCH  12  19
ATOM     19  O   UNL     1      37.855   9.026  29.698  1.00  0.00    -0.387 OA
ATOM     20  H   UNL     1      37.877   8.827  28.743  1.00  0.00     0.211 HD
ENDBRANCH  12  19
BRANCH  13  21
ATOM     21  O   UNL     1      35.889   7.320  30.559  1.00  0.00    -0.385 OA
ATOM     22  H   UNL     1      36.769   7.095  30.084  1.00  0.00     0.211 HD
ENDBRANCH  13  21
ENDBRANCH   7   8
ENDBRANCH   1   7
BRANCH   2  23
ATOM     23  C   UNL     1      31.532   6.971  32.117  1.00  0.00     0.191 C 
BRANCH  23  24
ATOM     24  O   UNL     1      31.044   6.605  33.361  1.00  0.00    -0.394 OA
ATOM     25  H   UNL     1      31.303   5.628  33.454  1.00  0.00     0.210 HD
ENDBRANCH  23  24
ENDBRANCH   2  23
BRANCH   6  26
ATOM     26  O   UNL     1      31.019   9.362  34.780  1.00  0.00    -0.387 OA
ATOM     27  H   UNL     1      31.220   8.518  35.258  1.00  0.00     0.211 HD
ENDBRANCH   6  26
BRANCH   5  28
ATOM     28  O   UNL     1      31.164  12.136  34.264  1.00  0.00    -0.385 OA
ATOM     29  H   UNL     1      30.264  12.427  33.931  1.00  0.00     0.211 HD
ENDBRANCH   5  28
BRANCH   4  30
ATOM     30  O   UNL     1      30.679  11.493  31.212  1.00  0.00    -0.341 OA
BRANCH  30  31
ATOM     31  C   UNL     1      30.115  10.782  30.133  1.00  0.00     0.184 C 
ATOM     32  C   UNL     1      28.837  11.520  29.576  1.00  0.00     0.178 C 
ATOM     33  C   UNL     1      31.008  10.579  28.887  1.00  0.00     0.180 C 
ATOM     34  O   UNL     1      28.087  10.498  28.939  1.00  0.00    -0.342 OA
ATOM     35  C   UNL     1      30.196   9.831  27.774  1.00  0.00     0.201 C 
ATOM     36  C   UNL     1      28.658  10.214  27.632  1.00  0.00     0.279 C 
BRANCH  32  37
ATOM     37  C   UNL     1      27.892  12.413  30.475  1.00  0.00     0.191 C 
BRANCH  37  38
ATOM     38  O   UNL     1      26.593  11.901  30.489  1.00  0.00    -0.394 OA
ATOM     39  H   UNL     1      26.586  11.008  30.946  1.00  0.00     0.210 HD
ENDBRANCH  37  38
ENDBRANCH  32  37
BRANCH  33  40
ATOM     40  O   UNL     1      32.208   9.847  29.213  1.00  0.00    -0.387 OA
ATOM     41  H   UNL     1      32.939  10.410  28.875  1.00  0.00     0.211 HD
ENDBRANCH  33  40
BRANCH  35  42
ATOM     42  O   UNL     1      30.283   8.435  28.002  1.00  0.00    -0.385 OA
ATOM     43  H   UNL     1      29.476   8.189  28.524  1.00  0.00     0.211 HD
ENDBRANCH  35  42
BRANCH  36  44
ATOM     44  O   UNL     1      28.495  11.314  26.749  1.00  0.00    -0.366 OA
ATOM     45  H   UNL     1      28.185  10.957  25.855  1.00  0.00     0.213 HD
ENDBRANCH  36  44
ENDBRANCH  30  31
ENDBRANCH   4  30
TORSDOF 18
ENDMDL
MODEL 5
REMARK VINA RESULT:    -5.203      2.083      3.971
REMARK INTER + INTRA:         -12.184
REMARK INTER:                  -9.332
REMARK INTRA:                  -2.852
REMARK UNBOUND:                -3.178
REMARK SMILES OC[C@@H]1O[C@H](O[C@H]2[C@H](O)[C@H](O)[C@@H](O[C@@H]3[C@@H](O)[C@@H](O)[C@H](O)O[C@H]3CO)O[C@@H]2CO)[C@@H](O)[C@H](O)[C@H]1O
REMARK SMILES IDX 7 1 26 2 25 3 12 4 10 5 8 6 6 7 5 8 3 9 33 10 4 11 31 12
REMARK SMILES IDX 29 13 2 14 1 15 34 17 32 19 30 21 27 23 28 24 9 26 11 28
REMARK SMILES IDX 13 30 14 31 22 32 15 33 21 34 17 35 19 36 23 37 24 38 16 40
REMARK SMILES IDX 18 42 20 44
REMARK H PARENT 1 16 34 18 32 20 30 22 28 25 9 27 11 29 24 39 16 41 18 43
REMARK H PARENT 20 45
REMARK Flexibility Score: inf
ROOT
ATOM      1  C   UNL     1      34.088   9.203  32.250  1.00  0.00     0.184 C 
ATOM      2  C   UNL     1      33.144   9.293  33.488  1.00  0.00     0.178 C 
ATOM      3  O   UNL     1      33.130  10.597  34.083  1.00  0.00    -0.341 OA
ATOM      4  C   UNL     1      33.146  11.811  33.276  1.00  0.00     0.282 C 
ATOM      5  C   UNL     1      33.911  11.736  31.925  1.00  0.00     0.202 C 
ATOM      6  C   UNL     1      34.889  10.527  32.009  1.00  0.00     0.180 C 
ENDROOT
BRANCH   1   7
ATOM      7  O   UNL     1      33.383   8.568  31.190  1.00  0.00    -0.341 OA
BRANCH   7   8
ATOM      8  C   UNL     1      31.964   8.701  31.036  1.00  0.00     0.282 C 
ATOM      9  C   UNL     1      31.743   8.615  28.601  1.00  0.00     0.178 C 
ATOM     10  C   UNL     1      30.665   7.415  28.673  1.00  0.00     0.177 C 
ATOM     11  O   UNL     1      31.629   9.390  29.822  1.00  0.00    -0.341 OA
ATOM     12  C   UNL     1      30.047   7.233  30.108  1.00  0.00     0.179 C 
ATOM     13  C   UNL     1      31.235   7.303  31.122  1.00  0.00     0.202 C 
BRANCH   9  14
ATOM     14  C   UNL     1      33.274   8.199  28.164  1.00  0.00     0.191 C 
BRANCH  14  15
ATOM     15  O   UNL     1      33.336   7.731  26.832  1.00  0.00    -0.394 OA
ATOM     16  H   UNL     1      33.986   8.343  26.306  1.00  0.00     0.210 HD
ENDBRANCH  14  15
ENDBRANCH   9  14
BRANCH  10  17
ATOM     17  O   UNL     1      29.690   7.581  27.642  1.00  0.00    -0.387 OA
ATOM     18  H   UNL     1      29.249   6.709  27.468  1.00  0.00     0.211 HD
ENDBRANCH  10  17
BRANCH  12  19
ATOM     19  O   UNL     1      29.389   6.024  30.287  1.00  0.00    -0.387 OA
ATOM     20  H   UNL     1      29.283   5.838  31.239  1.00  0.00     0.211 HD
ENDBRANCH  12  19
BRANCH  13  21
ATOM     21  O   UNL     1      30.724   7.086  32.433  1.00  0.00    -0.385 OA
ATOM     22  H   UNL     1      31.383   6.519  32.978  1.00  0.00     0.211 HD
ENDBRANCH  13  21
ENDBRANCH   7   8
ENDBRANCH   1   7
BRANCH   2  23
ATOM     23  C   UNL     1      33.517   8.290  34.598  1.00  0.00     0.191 C 
BRANCH  23  24
ATOM     24  O   UNL     1      33.062   7.019  34.283  1.00  0.00    -0.394 OA
ATOM     25  H   UNL     1      32.150   6.962  34.727  1.00  0.00     0.210 HD
ENDBRANCH  23  24
ENDBRANCH   2  23
BRANCH   6  26
ATOM     26  O   UNL     1      35.687  10.788  33.142  1.00  0.00    -0.387 OA
ATOM     27  H   UNL     1      36.177   9.961  33.381  1.00  0.00     0.211 HD
ENDBRANCH   6  26
BRANCH   5  28
ATOM     28  O   UNL     1      34.603  12.981  31.728  1.00  0.00    -0.385 OA
ATOM     29  H   UNL     1      34.765  13.492  32.575  1.00  0.00     0.211 HD
ENDBRANCH   5  28
BRANCH   4  30
ATOM     30  O   UNL     1      31.864  12.453  33.207  1.00  0.00    -0.341 OA
BRANCH  30  31
ATOM     31  C   UNL     1      31.149  12.018  32.072  1.00  0.00     0.184 C 
ATOM     32  C   UNL     1      29.797  11.320  32.491  1.00  0.00     0.178 C 
ATOM     33  C   UNL     1      30.718  13.104  31.060  1.00  0.00     0.180 C 
ATOM     34  O   UNL     1      29.480  10.477  31.395  1.00  0.00    -0.342 OA
ATOM     35  C   UNL     1      29.882  12.445  29.908  1.00  0.00     0.201 C 
ATOM     36  C   UNL     1      28.897  11.267  30.323  1.00  0.00     0.279 C 
BRANCH  32  37
ATOM     37  C   UNL     1      29.610  10.541  33.854  1.00  0.00     0.191 C 
BRANCH  37  38
ATOM     38  O   UNL     1      30.148  11.267  34.918  1.00  0.00    -0.394 OA
ATOM     39  H   UNL     1      29.670  11.027  35.768  1.00  0.00     0.210 HD
ENDBRANCH  37  38
ENDBRANCH  32  37
BRANCH  33  40
ATOM     40  O   UNL     1      31.858  13.802  30.519  1.00  0.00    -0.387 OA
ATOM     41  H   UNL     1      31.472  14.569  30.041  1.00  0.00     0.211 HD
ENDBRANCH  33  40
BRANCH  35  42
ATOM     42  O   UNL     1      30.771  11.951  28.922  1.00  0.00    -0.385 OA
ATOM     43  H   UNL     1      30.455  12.319  28.055  1.00  0.00     0.211 HD
ENDBRANCH  35  42
BRANCH  36  44
ATOM     44  O   UNL     1      27.627  11.783  30.694  1.00  0.00    -0.366 OA
ATOM     45  H   UNL     1      27.709  12.190  31.616  1.00  0.00     0.213 HD
ENDBRANCH  36  44
ENDBRANCH  30  31
ENDBRANCH   4  30
TORSDOF 18
ENDMDL
MODEL 6
REMARK VINA RESULT:    -5.163      2.068      5.038
REMARK INTER + INTRA:         -12.114
REMARK INTER:                  -9.413
REMARK INTRA:                  -2.701
REMARK UNBOUND:                -3.178
REMARK SMILES OC[C@@H]1O[C@H](O[C@H]2[C@H](O)[C@H](O)[C@@H](O[C@@H]3[C@@H](O)[C@@H](O)[C@H](O)O[C@H]3CO)O[C@@H]2CO)[C@@H](O)[C@H](O)[C@H]1O
REMARK SMILES IDX 7 1 26 2 25 3 12 4 10 5 8 6 6 7 5 8 3 9 33 10 4 11 31 12
REMARK SMILES IDX 29 13 2 14 1 15 34 17 32 19 30 21 27 23 28 24 9 26 11 28
REMARK SMILES IDX 13 30 14 31 22 32 15 33 21 34 17 35 19 36 23 37 24 38 16 40
REMARK SMILES IDX 18 42 20 44
REMARK H PARENT 1 16 34 18 32 20 30 22 28 25 9 27 11 29 24 39 16 41 18 43
REMARK H PARENT 20 45
REMARK Flexibility Score: inf
ROOT
ATOM      1  C   UNL     1      31.190   9.494  32.507  1.00  0.00     0.184 C 
ATOM      2  C   UNL     1      31.846  10.580  33.414  1.00  0.00     0.178 C 
ATOM      3  O   UNL     1      32.678  10.020  34.439  1.00  0.00    -0.341 OA
ATOM      4  C   UNL     1      33.544   8.874  34.186  1.00  0.00     0.282 C 
ATOM      5  C   UNL     1      33.040   7.841  33.140  1.00  0.00     0.202 C 
ATOM      6  C   UNL     1      31.502   8.039  32.993  1.00  0.00     0.180 C 
ENDROOT
BRANCH   1   7
ATOM      7  O   UNL     1      31.376   9.870  31.147  1.00  0.00    -0.341 OA
BRANCH   7   8
ATOM      8  C   UNL     1      30.689  10.987  30.568  1.00  0.00     0.282 C 
ATOM      9  C   UNL     1      30.739  10.393  28.195  1.00  0.00     0.178 C 
ATOM     10  C   UNL     1      29.138  10.551  28.052  1.00  0.00     0.177 C 
ATOM     11  O   UNL     1      31.181  11.282  29.253  1.00  0.00    -0.341 OA
ATOM     12  C   UNL     1      28.491  11.339  29.249  1.00  0.00     0.179 C 
ATOM     13  C   UNL     1      29.125  10.767  30.560  1.00  0.00     0.202 C 
BRANCH   9  14
ATOM     14  C   UNL     1      31.320   8.855  28.272  1.00  0.00     0.191 C 
BRANCH  14  15
ATOM     15  O   UNL     1      32.059   8.510  27.117  1.00  0.00    -0.394 OA
ATOM     16  H   UNL     1      31.424   8.563  26.301  1.00  0.00     0.210 HD
ENDBRANCH  14  15
ENDBRANCH   9  14
BRANCH  10  17
ATOM     17  O   UNL     1      28.820  11.089  26.768  1.00  0.00    -0.387 OA
ATOM     18  H   UNL     1      29.420  10.684  26.087  1.00  0.00     0.211 HD
ENDBRANCH  10  17
BRANCH  12  19
ATOM     19  O   UNL     1      27.113  11.200  29.334  1.00  0.00    -0.387 OA
ATOM     20  H   UNL     1      26.879  10.266  29.487  1.00  0.00     0.211 HD
ENDBRANCH  12  19
BRANCH  13  21
ATOM     21  O   UNL     1      28.523  11.417  31.674  1.00  0.00    -0.385 OA
ATOM     22  H   UNL     1      29.229  11.949  32.195  1.00  0.00     0.211 HD
ENDBRANCH  13  21
ENDBRANCH   7   8
ENDBRANCH   1   7
BRANCH   2  23
ATOM     23  C   UNL     1      30.809  11.482  34.113  1.00  0.00     0.191 C 
BRANCH  23  24
ATOM     24  O   UNL     1      29.616  10.801  34.299  1.00  0.00    -0.394 OA
ATOM     25  H   UNL     1      29.745  10.305  35.176  1.00  0.00     0.210 HD
ENDBRANCH  23  24
ENDBRANCH   2  23
BRANCH   6  26
ATOM     26  O   UNL     1      30.992   7.875  34.297  1.00  0.00    -0.387 OA
ATOM     27  H   UNL     1      30.212   8.476  34.409  1.00  0.00     0.211 HD
ENDBRANCH   6  26
BRANCH   5  28
ATOM     28  O   UNL     1      33.375   6.524  33.608  1.00  0.00    -0.385 OA
ATOM     29  H   UNL     1      32.708   5.821  33.351  1.00  0.00     0.211 HD
ENDBRANCH   5  28
BRANCH   4  30
ATOM     30  O   UNL     1      34.926   9.236  34.056  1.00  0.00    -0.341 OA
BRANCH  30  31
ATOM     31  C   UNL     1      35.316   9.242  32.701  1.00  0.00     0.184 C 
ATOM     32  C   UNL     1      35.745  10.690  32.243  1.00  0.00     0.178 C 
ATOM     33  C   UNL     1      36.518   8.350  32.315  1.00  0.00     0.180 C 
ATOM     34  O   UNL     1      35.565  10.684  30.836  1.00  0.00    -0.342 OA
ATOM     35  C   UNL     1      36.844   8.537  30.793  1.00  0.00     0.201 C 
ATOM     36  C   UNL     1      36.684  10.005  30.202  1.00  0.00     0.279 C 
BRANCH  32  37
ATOM     37  C   UNL     1      35.140  12.010  32.867  1.00  0.00     0.191 C 
BRANCH  37  38
ATOM     38  O   UNL     1      35.132  11.941  34.261  1.00  0.00    -0.394 OA
ATOM     39  H   UNL     1      34.253  11.574  34.577  1.00  0.00     0.210 HD
ENDBRANCH  37  38
ENDBRANCH  32  37
BRANCH  33  40
ATOM     40  O   UNL     1      36.260   6.962  32.609  1.00  0.00    -0.387 OA
ATOM     41  H   UNL     1      35.370   6.791  32.226  1.00  0.00     0.211 HD
ENDBRANCH  33  40
BRANCH  35  42
ATOM     42  O   UNL     1      36.021   7.665  30.038  1.00  0.00    -0.385 OA
ATOM     43  H   UNL     1      35.266   8.218  29.704  1.00  0.00     0.211 HD
ENDBRANCH  35  42
BRANCH  36  44
ATOM     44  O   UNL     1      37.888  10.742  30.357  1.00  0.00    -0.366 OA
ATOM     45  H   UNL     1      38.575  10.360  29.722  1.00  0.00     0.213 HD
ENDBRANCH  36  44
ENDBRANCH  30  31
ENDBRANCH   4  30
TORSDOF 18
ENDMDL
MODEL 7
REMARK VINA RESULT:    -5.132      1.701      6.309
REMARK INTER + INTRA:         -12.060
REMARK INTER:                  -9.645
REMARK INTRA:                  -2.415
REMARK UNBOUND:                -3.178
REMARK SMILES OC[C@@H]1O[C@H](O[C@H]2[C@H](O)[C@H](O)[C@@H](O[C@@H]3[C@@H](O)[C@@H](O)[C@H](O)O[C@H]3CO)O[C@@H]2CO)[C@@H](O)[C@H](O)[C@H]1O
REMARK SMILES IDX 7 1 26 2 25 3 12 4 10 5 8 6 6 7 5 8 3 9 33 10 4 11 31 12
REMARK SMILES IDX 29 13 2 14 1 15 34 17 32 19 30 21 27 23 28 24 9 26 11 28
REMARK SMILES IDX 13 30 14 31 22 32 15 33 21 34 17 35 19 36 23 37 24 38 16 40
REMARK SMILES IDX 18 42 20 44
REMARK H PARENT 1 16 34 18 32 20 30 22 28 25 9 27 11 29 24 39 16 41 18 43
REMARK H PARENT 20 45
REMARK Flexibility Score: inf
ROOT
ATOM      1  C   UNL     1      33.226  11.390  33.108  1.00  0.00     0.184 C 
ATOM      2  C   UNL     1      32.156  10.601  33.924  1.00  0.00     0.178 C 
ATOM      3  O   UNL     1      30.823  11.077  33.699  1.00  0.00    -0.341 OA
ATOM      4  C   UNL     1      30.363  11.479  32.374  1.00  0.00     0.282 C 
ATOM      5  C   UNL     1      31.429  12.099  31.428  1.00  0.00     0.202 C 
ATOM      6  C   UNL     1      32.610  12.592  32.316  1.00  0.00     0.180 C 
ENDROOT
BRANCH   1   7
ATOM      7  O   UNL     1      34.087  10.453  32.470  1.00  0.00    -0.341 OA
BRANCH   7   8
ATOM      8  C   UNL     1      35.502  10.661  32.383  1.00  0.00     0.282 C 
ATOM      9  C   UNL     1      36.187   8.704  31.084  1.00  0.00     0.178 C 
ATOM     10  C   UNL     1      36.947   9.614  29.987  1.00  0.00     0.177 C 
ATOM     11  O   UNL     1      36.215   9.415  32.348  1.00  0.00    -0.341 OA
ATOM     12  C   UNL     1      37.209  11.083  30.485  1.00  0.00     0.179 C 
ATOM     13  C   UNL     1      35.882  11.575  31.153  1.00  0.00     0.202 C 
BRANCH   9  14
ATOM     14  C   UNL     1      34.724   8.096  30.643  1.00  0.00     0.191 C 
BRANCH  14  15
ATOM     15  O   UNL     1      34.375   8.458  29.321  1.00  0.00    -0.394 OA
ATOM     16  H   UNL     1      33.383   8.205  29.170  1.00  0.00     0.210 HD
ENDBRANCH  14  15
ENDBRANCH   9  14
BRANCH  10  17
ATOM     17  O   UNL     1      38.123   8.941  29.534  1.00  0.00    -0.387 OA
ATOM     18  H   UNL     1      38.564   9.492  28.835  1.00  0.00     0.211 HD
ENDBRANCH  10  17
BRANCH  12  19
ATOM     19  O   UNL     1      37.542  11.969  29.471  1.00  0.00    -0.387 OA
ATOM     20  H   UNL     1      38.511  12.009  29.366  1.00  0.00     0.211 HD
ENDBRANCH  12  19
BRANCH  13  21
ATOM     21  O   UNL     1      36.059  12.925  31.569  1.00  0.00    -0.385 OA
ATOM     22  H   UNL     1      36.389  13.494  30.783  1.00  0.00     0.211 HD
ENDBRANCH  13  21
ENDBRANCH   7   8
ENDBRANCH   1   7
BRANCH   2  23
ATOM     23  C   UNL     1      32.407  10.653  35.445  1.00  0.00     0.191 C 
BRANCH  23  24
ATOM     24  O   UNL     1      33.737  10.938  35.712  1.00  0.00    -0.394 OA
ATOM     25  H   UNL     1      34.227  10.078  35.484  1.00  0.00     0.210 HD
ENDBRANCH  23  24
ENDBRANCH   2  23
BRANCH   6  26
ATOM     26  O   UNL     1      32.022  13.487  33.233  1.00  0.00    -0.387 OA
ATOM     27  H   UNL     1      31.438  12.974  33.847  1.00  0.00     0.211 HD
ENDBRANCH   6  26
BRANCH   5  28
ATOM     28  O   UNL     1      30.814  13.174  30.698  1.00  0.00    -0.385 OA
ATOM     29  H   UNL     1      30.834  14.053  31.179  1.00  0.00     0.211 HD
ENDBRANCH   5  28
BRANCH   4  30
ATOM     30  O   UNL     1      29.508  10.503  31.760  1.00  0.00    -0.341 OA
BRANCH  30  31
ATOM     31  C   UNL     1      29.999  10.139  30.489  1.00  0.00     0.184 C 
ATOM     32  C   UNL     1      30.467   8.632  30.475  1.00  0.00     0.178 C 
ATOM     33  C   UNL     1      29.012  10.241  29.304  1.00  0.00     0.180 C 
ATOM     34  O   UNL     1      31.402   8.562  29.411  1.00  0.00    -0.342 OA
ATOM     35  C   UNL     1      29.710   9.735  27.994  1.00  0.00     0.201 C 
ATOM     36  C   UNL     1      30.695   8.495  28.142  1.00  0.00     0.279 C 
BRANCH  32  37
ATOM     37  C   UNL     1      31.032   7.889  31.750  1.00  0.00     0.191 C 
BRANCH  37  38
ATOM     38  O   UNL     1      30.688   6.536  31.729  1.00  0.00    -0.394 OA
ATOM     39  H   UNL     1      29.701   6.435  31.885  1.00  0.00     0.210 HD
ENDBRANCH  37  38
ENDBRANCH  32  37
BRANCH  33  40
ATOM     40  O   UNL     1      28.533  11.590  29.131  1.00  0.00    -0.387 OA
ATOM     41  H   UNL     1      28.599  11.991  30.026  1.00  0.00     0.211 HD
ENDBRANCH  33  40
BRANCH  35  42
ATOM     42  O   UNL     1      30.433  10.808  27.417  1.00  0.00    -0.385 OA
ATOM     43  H   UNL     1      31.132  10.394  26.845  1.00  0.00     0.211 HD
ENDBRANCH  35  42
BRANCH  36  44
ATOM     44  O   UNL     1      29.985   7.272  28.011  1.00  0.00    -0.366 OA
ATOM     45  H   UNL     1      30.593   6.522  28.310  1.00  0.00     0.213 HD
ENDBRANCH  36  44
ENDBRANCH  30  31
ENDBRANCH   4  30
TORSDOF 18
ENDMDL
MODEL 8
REMARK VINA RESULT:    -5.113      2.281      3.449
REMARK INTER + INTRA:         -12.028
REMARK INTER:                  -8.492
REMARK INTRA:                  -3.537
REMARK UNBOUND:                -3.178
REMARK SMILES OC[C@@H]1O[C@H](O[C@H]2[C@H](O)[C@H](O)[C@@H](O[C@@H]3[C@@H](O)[C@@H](O)[C@H](O)O[C@H]3CO)O[C@@H]2CO)[C@@H](O)[C@H](O)[C@H]1O
REMARK SMILES IDX 7 1 26 2 25 3 12 4 10 5 8 6 6 7 5 8 3 9 33 10 4 11 31 12
REMARK SMILES IDX 29 13 2 14 1 15 34 17 32 19 30 21 27 23 28 24 9 26 11 28
REMARK SMILES IDX 13 30 14 31 22 32 15 33 21 34 17 35 19 36 23 37 24 38 16 40
REMARK SMILES IDX 18 42 20 44
REMARK H PARENT 1 16 34 18 32 20 30 22 28 25 9 27 11 29 24 39 16 41 18 43
REMARK H PARENT 20 45
REMARK Flexibility Score: inf
ROOT
ATOM      1  C   UNL     1      34.756   9.581  31.881  1.00  0.00     0.184 C 
ATOM      2  C   UNL     1      34.425   8.134  32.358  1.00  0.00     0.178 C 
ATOM      3  O   UNL     1      34.698   7.932  33.751  1.00  0.00    -0.341 OA
ATOM      4  C   UNL     1      34.405   8.954  34.749  1.00  0.00     0.282 C 
ATOM      5  C   UNL     1      34.526  10.432  34.285  1.00  0.00     0.202 C 
ATOM      6  C   UNL     1      35.415  10.448  33.006  1.00  0.00     0.180 C 
ENDROOT
BRANCH   1   7
ATOM      7  O   UNL     1      33.652  10.071  31.128  1.00  0.00    -0.341 OA
BRANCH   7   8
ATOM      8  C   UNL     1      32.771   9.194  30.415  1.00  0.00     0.282 C 
ATOM      9  C   UNL     1      30.753  10.571  30.266  1.00  0.00     0.178 C 
ATOM     10  C   UNL     1      30.676  10.403  28.662  1.00  0.00     0.177 C 
ATOM     11  O   UNL     1      31.404   9.391  30.805  1.00  0.00    -0.341 OA
ATOM     12  C   UNL     1      31.567   9.224  28.125  1.00  0.00     0.179 C 
ATOM     13  C   UNL     1      32.948   9.337  28.852  1.00  0.00     0.202 C 
BRANCH   9  14
ATOM     14  C   UNL     1      31.318  12.011  30.826  1.00  0.00     0.191 C 
BRANCH  14  15
ATOM     15  O   UNL     1      31.543  11.985  32.222  1.00  0.00    -0.394 OA
ATOM     16  H   UNL     1      31.283  11.047  32.572  1.00  0.00     0.210 HD
ENDBRANCH  14  15
ENDBRANCH   9  14
BRANCH  10  17
ATOM     17  O   UNL     1      29.310  10.327  28.251  1.00  0.00    -0.387 OA
ATOM     18  H   UNL     1      28.906  11.233  28.294  1.00  0.00     0.211 HD
ENDBRANCH  10  17
BRANCH  12  19
ATOM     19  O   UNL     1      31.790   9.266  26.756  1.00  0.00    -0.387 OA
ATOM     20  H   UNL     1      32.702   9.561  26.573  1.00  0.00     0.211 HD
ENDBRANCH  12  19
BRANCH  13  21
ATOM     21  O   UNL     1      33.806   8.317  28.351  1.00  0.00    -0.385 OA
ATOM     22  H   UNL     1      34.417   8.700  27.622  1.00  0.00     0.211 HD
ENDBRANCH  13  21
ENDBRANCH   7   8
ENDBRANCH   1   7
BRANCH   2  23
ATOM     23  C   UNL     1      35.204   7.055  31.580  1.00  0.00     0.191 C 
BRANCH  23  24
ATOM     24  O   UNL     1      35.791   7.596  30.447  1.00  0.00    -0.394 OA
ATOM     25  H   UNL     1      35.419   8.541  30.400  1.00  0.00     0.210 HD
ENDBRANCH  23  24
ENDBRANCH   2  23
BRANCH   6  26
ATOM     26  O   UNL     1      36.623   9.838  33.401  1.00  0.00    -0.387 OA
ATOM     27  H   UNL     1      36.608   8.890  33.113  1.00  0.00     0.211 HD
ENDBRANCH   6  26
BRANCH   5  28
ATOM     28  O   UNL     1      35.103  11.196  35.357  1.00  0.00    -0.385 OA
ATOM     29  H   UNL     1      35.623  10.645  36.013  1.00  0.00     0.211 HD
ENDBRANCH   5  28
BRANCH   4  30
ATOM     30  O   UNL     1      33.231   8.660  35.521  1.00  0.00    -0.341 OA
BRANCH  30  31
ATOM     31  C   UNL     1      32.191   9.561  35.212  1.00  0.00     0.184 C 
ATOM     32  C   UNL     1      30.956   8.805  34.586  1.00  0.00     0.178 C 
ATOM     33  C   UNL     1      31.589  10.363  36.388  1.00  0.00     0.180 C 
ATOM     34  O   UNL     1      30.273   9.800  33.840  1.00  0.00    -0.342 OA
ATOM     35  C   UNL     1      30.411  11.257  35.866  1.00  0.00     0.201 C 
ATOM     36  C   UNL     1      29.483  10.628  34.737  1.00  0.00     0.279 C 
BRANCH  32  37
ATOM     37  C   UNL     1      31.092   7.479  33.736  1.00  0.00     0.191 C 
BRANCH  37  38
ATOM     38  O   UNL     1      31.924   6.561  34.378  1.00  0.00    -0.394 OA
ATOM     39  H   UNL     1      32.321   6.980  35.199  1.00  0.00     0.210 HD
ENDBRANCH  37  38
ENDBRANCH  32  37
BRANCH  33  40
ATOM     40  O   UNL     1      32.588  11.176  37.037  1.00  0.00    -0.387 OA
ATOM     41  H   UNL     1      32.145  12.041  37.184  1.00  0.00     0.211 HD
ENDBRANCH  33  40
BRANCH  35  42
ATOM     42  O   UNL     1      30.942  12.474  35.374  1.00  0.00    -0.385 OA
ATOM     43  H   UNL     1      30.162  13.055  35.173  1.00  0.00     0.211 HD
ENDBRANCH  35  42
BRANCH  36  44
ATOM     44  O   UNL     1      28.417   9.889  35.316  1.00  0.00    -0.366 OA
ATOM     45  H   UNL     1      27.708   9.752  34.609  1.00  0.00     0.213 HD
ENDBRANCH  36  44
ENDBRANCH  30  31
ENDBRANCH   4  30
TORSDOF 18
ENDMDL
MODEL 9
REMARK VINA RESULT:    -5.013      1.860      5.868
REMARK INTER + INTRA:         -11.855
REMARK INTER:                  -8.581
REMARK INTRA:                  -3.274
REMARK UNBOUND:                -3.178
REMARK SMILES OC[C@@H]1O[C@H](O[C@H]2[C@H](O)[C@H](O)[C@@H](O[C@@H]3[C@@H](O)[C@@H](O)[C@H](O)O[C@H]3CO)O[C@@H]2CO)[C@@H](O)[C@H](O)[C@H]1O
REMARK SMILES IDX 7 1 26 2 25 3 12 4 10 5 8 6 6 7 5 8 3 9 33 10 4 11 31 12
REMARK SMILES IDX 29 13 2 14 1 15 34 17 32 19 30 21 27 23 28 24 9 26 11 28
REMARK SMILES IDX 13 30 14 31 22 32 15 33 21 34 17 35 19 36 23 37 24 38 16 40
REMARK SMILES IDX 18 42 20 44
REMARK H PARENT 1 16 34 18 32 20 30 22 28 25 9 27 11 29 24 39 16 41 18 43
REMARK H PARENT 20 45
REMARK Flexibility Score: inf
ROOT
ATOM      1  C   UNL     1      33.602  10.416  34.252  1.00  0.00     0.184 C 
ATOM      2  C   UNL     1      34.749   9.485  33.753  1.00  0.00     0.178 C 
ATOM      3  O   UNL     1      34.344   8.114  33.641  1.00  0.00    -0.341 OA
ATOM      4  C   UNL     1      33.029   7.740  33.133  1.00  0.00     0.282 C 
ATOM      5  C   UNL     1      31.865   8.726  33.427  1.00  0.00     0.202 C 
ATOM      6  C   UNL     1      32.304   9.623  34.622  1.00  0.00     0.180 C 
ENDROOT
BRANCH   1   7
ATOM      7  O   UNL     1      33.548  11.558  33.405  1.00  0.00    -0.341 OA
BRANCH   7   8
ATOM      8  C   UNL     1      32.337  12.297  33.204  1.00  0.00     0.282 C 
ATOM      9  C   UNL     1      33.202  14.577  32.997  1.00  0.00     0.178 C 
ATOM     10  C   UNL     1      32.454  14.804  31.584  1.00  0.00     0.177 C 
ATOM     11  O   UNL     1      32.427  13.617  33.761  1.00  0.00    -0.341 OA
ATOM     12  C   UNL     1      31.330  13.740  31.308  1.00  0.00     0.179 C 
ATOM     13  C   UNL     1      31.930  12.344  31.680  1.00  0.00     0.202 C 
BRANCH   9  14
ATOM     14  C   UNL     1      34.821  14.289  32.931  1.00  0.00     0.191 C 
BRANCH  14  15
ATOM     15  O   UNL     1      35.206  13.708  31.701  1.00  0.00    -0.394 OA
ATOM     16  H   UNL     1      34.518  12.971  31.464  1.00  0.00     0.210 HD
ENDBRANCH  14  15
ENDBRANCH   9  14
BRANCH  10  17
ATOM     17  O   UNL     1      32.004  16.157  31.491  1.00  0.00    -0.387 OA
ATOM     18  H   UNL     1      31.741  16.476  32.394  1.00  0.00     0.211 HD
ENDBRANCH  10  17
BRANCH  12  19
ATOM     19  O   UNL     1      30.909  13.698  29.986  1.00  0.00    -0.387 OA
ATOM     20  H   UNL     1      31.506  14.230  29.427  1.00  0.00     0.211 HD
ENDBRANCH  12  19
BRANCH  13  21
ATOM     21  O   UNL     1      30.960  11.344  31.390  1.00  0.00    -0.385 OA
ATOM     22  H   UNL     1      31.193  10.475  31.882  1.00  0.00     0.211 HD
ENDBRANCH  13  21
ENDBRANCH   7   8
ENDBRANCH   1   7
BRANCH   2  23
ATOM     23  C   UNL     1      35.988   9.520  34.670  1.00  0.00     0.191 C 
BRANCH  23  24
ATOM     24  O   UNL     1      35.701   8.954  35.903  1.00  0.00    -0.394 OA
ATOM     25  H   UNL     1      36.541   8.435  36.142  1.00  0.00     0.210 HD
ENDBRANCH  23  24
ENDBRANCH   2  23
BRANCH   6  26
ATOM     26  O   UNL     1      32.605   8.717  35.660  1.00  0.00    -0.387 OA
ATOM     27  H   UNL     1      32.341   7.806  35.372  1.00  0.00     0.211 HD
ENDBRANCH   6  26
BRANCH   5  28
ATOM     28  O   UNL     1      30.688   7.958  33.728  1.00  0.00    -0.385 OA
ATOM     29  H   UNL     1      30.503   7.225  33.070  1.00  0.00     0.211 HD
ENDBRANCH   5  28
BRANCH   4  30
ATOM     30  O   UNL     1      33.072   7.243  31.787  1.00  0.00    -0.341 OA
BRANCH  30  31
ATOM     31  C   UNL     1      32.302   8.056  30.930  1.00  0.00     0.184 C 
ATOM     32  C   UNL     1      33.201   8.699  29.804  1.00  0.00     0.178 C 
ATOM     33  C   UNL     1      31.157   7.367  30.154  1.00  0.00     0.180 C 
ATOM     34  O   UNL     1      32.488   9.857  29.400  1.00  0.00    -0.342 OA
ATOM     35  C   UNL     1      30.461   8.407  29.210  1.00  0.00     0.201 C 
ATOM     36  C   UNL     1      31.404   9.478  28.507  1.00  0.00     0.279 C 
BRANCH  32  37
ATOM     37  C   UNL     1      34.731   9.041  30.006  1.00  0.00     0.191 C 
BRANCH  37  38
ATOM     38  O   UNL     1      35.488   7.874  30.127  1.00  0.00    -0.394 OA
ATOM     39  H   UNL     1      34.899   7.073  29.993  1.00  0.00     0.210 HD
ENDBRANCH  37  38
ENDBRANCH  32  37
BRANCH  33  40
ATOM     40  O   UNL     1      30.194   6.777  31.051  1.00  0.00    -0.387 OA
ATOM     41  H   UNL     1      30.036   5.878  30.687  1.00  0.00     0.211 HD
ENDBRANCH  33  40
BRANCH  35  42
ATOM     42  O   UNL     1      29.472   9.105  29.946  1.00  0.00    -0.385 OA
ATOM     43  H   UNL     1      29.831   9.203  30.867  1.00  0.00     0.211 HD
ENDBRANCH  35  42
BRANCH  36  44
ATOM     44  O   UNL     1      31.903   8.976  27.275  1.00  0.00    -0.366 OA
ATOM     45  H   UNL     1      32.800   8.544  27.451  1.00  0.00     0.213 HD
ENDBRANCH  36  44
ENDBRANCH  30  31
ENDBRANCH   4  30
TORSDOF 18
ENDMDL
