MODEL 1
REMARK VINA RESULT:    -4.929      0.000      0.000
REMARK INTER + INTRA:         -11.499
REMARK INTER:                  -9.539
REMARK INTRA:                  -1.960
REMARK UNBOUND:                -1.960
REMARK SMILES CCCCCCCCCCCCCCCCCC(=O)[O-]
REMARK SMILES IDX 10 1 11 2 12 3 13 4 14 5 15 6 16 7 17 8 18 9 19 10 20 11
REMARK SMILES IDX 9 12 8 13 7 14 6 15 5 16 4 17 3 18 2 19 1 20
REMARK H PARENT
REMARK Flexibility Score: inf
ROOT
ATOM      1  C   UNL     1      19.714  28.329  31.654  1.00  0.00     0.000 C 
ENDROOT
BRANCH   1   2
ATOM      2  C   UNL     1      19.740  26.973  32.381  1.00  0.00     0.000 C 
BRANCH   2   3
ATOM      3  C   UNL     1      19.766  27.126  33.912  1.00  0.00     0.000 C 
BRANCH   3   4
ATOM      4  C   UNL     1      20.078  28.562  34.360  1.00  0.00     0.000 C 
BRANCH   4   5
ATOM      5  C   UNL     1      19.022  29.069  35.350  1.00  0.00     0.000 C 
BRANCH   5   6
ATOM      6  C   UNL     1      17.603  28.838  34.807  1.00  0.00     0.000 C 
BRANCH   6   7
ATOM      7  C   UNL     1      16.698  30.075  34.957  1.00  0.00     0.006 C 
BRANCH   7   8
ATOM      8  C   UNL     1      17.057  31.239  34.020  1.00  0.00     0.053 C 
BRANCH   8   9
ATOM      9  C   UNL     1      16.570  32.554  34.549  1.00  0.00     0.041 C 
ATOM     10  O   UNL     1      15.810  33.275  33.851  1.00  0.00    -0.550 OA
ATOM     11  O   UNL     1      16.981  32.994  35.800  1.00  0.00    -0.550 OA
ENDBRANCH   8   9
ENDBRANCH   7   8
ENDBRANCH   6   7
ENDBRANCH   5   6
ENDBRANCH   4   5
ENDBRANCH   3   4
ENDBRANCH   2   3
ENDBRANCH   1   2
BRANCH   1  12
ATOM     12  C   UNL     1      18.323  28.673  31.097  1.00  0.00     0.000 C 
BRANCH  12  13
ATOM     13  C   UNL     1      18.170  30.162  30.756  1.00  0.00    -0.000 C 
BRANCH  13  14
ATOM     14  C   UNL     1      18.994  30.527  29.512  1.00  0.00    -0.000 C 
BRANCH  14  15
ATOM     15  C   UNL     1      18.269  30.202  28.192  1.00  0.00    -0.000 C 
BRANCH  15  16
ATOM     16  C   UNL     1      18.824  28.984  27.433  1.00  0.00    -0.000 C 
BRANCH  16  17
ATOM     17  C   UNL     1      17.854  27.788  27.433  1.00  0.00    -0.000 C 
BRANCH  17  18
ATOM     18  C   UNL     1      18.581  26.440  27.313  1.00  0.00    -0.000 C 
BRANCH  18  19
ATOM     19  C   UNL     1      18.719  25.722  28.663  1.00  0.00    -0.003 C 
ATOM     20  C   UNL     1      18.777  24.208  28.478  1.00  0.00     0.004 C 
ENDBRANCH  18  19
ENDBRANCH  17  18
ENDBRANCH  16  17
ENDBRANCH  15  16
ENDBRANCH  14  15
ENDBRANCH  13  14
ENDBRANCH  12  13
ENDBRANCH   1  12
TORSDOF 16
ENDMDL
MODEL 2
REMARK VINA RESULT:    -4.898      3.475      7.396
REMARK INTER + INTRA:         -11.440
REMARK INTER:                  -9.147
REMARK INTRA:                  -2.293
REMARK UNBOUND:                -1.960
REMARK SMILES CCCCCCCCCCCCCCCCCC(=O)[O-]
REMARK SMILES IDX 10 1 11 2 12 3 13 4 14 5 15 6 16 7 17 8 18 9 19 10 20 11
REMARK SMILES IDX 9 12 8 13 7 14 6 15 5 16 4 17 3 18 2 19 1 20
REMARK H PARENT
REMARK Flexibility Score: inf
ROOT
ATOM      1  C   UNL     1      19.032  30.509  30.624  1.00  0.00     0.000 C 
ENDROOT
BRANCH   1   2
ATOM      2  C   UNL     1      18.438  31.448  29.559  1.00  0.00     0.000 C 
BRANCH   2   3
ATOM      3  C   UNL     1      18.262  30.756  28.196  1.00  0.00     0.000 C 
BRANCH   3   4
ATOM      4  C   UNL     1      19.572  30.158  27.659  1.00  0.00     0.000 C 
BRANCH   4   5
ATOM      5  C   UNL     1      19.326  28.791  27.011  1.00  0.00     0.000 C 
BRANCH   5   6
ATOM      6  C   UNL     1      17.922  28.266  27.352  1.00  0.00     0.000 C 
BRANCH   6   7
ATOM      7  C   UNL     1      17.950  26.880  28.021  1.00  0.00     0.006 C 
BRANCH   7   8
ATOM      8  C   UNL     1      19.329  26.201  28.015  1.00  0.00     0.053 C 
BRANCH   8   9
ATOM      9  C   UNL     1      19.329  24.925  28.800  1.00  0.00     0.041 C 
ATOM     10  O   UNL     1      18.639  23.944  28.414  1.00  0.00    -0.550 OA
ATOM     11  O   UNL     1      20.066  24.830  29.973  1.00  0.00    -0.550 OA
ENDBRANCH   8   9
ENDBRANCH   7   8
ENDBRANCH   6   7
ENDBRANCH   5   6
ENDBRANCH   4   5
ENDBRANCH   3   4
ENDBRANCH   2   3
ENDBRANCH   1   2
BRANCH   1  12
ATOM     12  C   UNL     1      18.043  29.418  31.065  1.00  0.00     0.000 C 
BRANCH  12  13
ATOM     13  C   UNL     1      18.693  28.029  31.160  1.00  0.00    -0.000 C 
BRANCH  13  14
ATOM     14  C   UNL     1      19.895  28.051  32.116  1.00  0.00    -0.000 C 
BRANCH  14  15
ATOM     15  C   UNL     1      19.951  26.821  33.041  1.00  0.00    -0.000 C 
BRANCH  15  16
ATOM     16  C   UNL     1      19.643  27.111  34.521  1.00  0.00    -0.000 C 
BRANCH  16  17
ATOM     17  C   UNL     1      19.354  28.599  34.791  1.00  0.00    -0.000 C 
BRANCH  17  18
ATOM     18  C   UNL     1      17.852  28.894  34.920  1.00  0.00    -0.000 C 
BRANCH  18  19
ATOM     19  C   UNL     1      17.555  30.394  35.052  1.00  0.00    -0.003 C 
ATOM     20  C   UNL     1      16.566  30.855  33.984  1.00  0.00     0.004 C 
ENDBRANCH  18  19
ENDBRANCH  17  18
ENDBRANCH  16  17
ENDBRANCH  15  16
ENDBRANCH  14  15
ENDBRANCH  13  14
ENDBRANCH  12  13
ENDBRANCH   1  12
TORSDOF 16
ENDMDL
MODEL 3
REMARK VINA RESULT:    -4.843      1.382      3.405
REMARK INTER + INTRA:         -11.333
REMARK INTER:                  -9.060
REMARK INTRA:                  -2.273
REMARK UNBOUND:                -1.960
REMARK SMILES CCCCCCCCCCCCCCCCCC(=O)[O-]
REMARK SMILES IDX 10 1 11 2 12 3 13 4 14 5 15 6 16 7 17 8 18 9 19 10 20 11
REMARK SMILES IDX 9 12 8 13 7 14 6 15 5 16 4 17 3 18 2 19 1 20
REMARK H PARENT
REMARK Flexibility Score: inf
ROOT
ATOM      1  C   UNL     1      19.005  27.063  29.508  1.00  0.00     0.000 C 
ENDROOT
BRANCH   1   2
ATOM      2  C   UNL     1      19.071  27.823  30.845  1.00  0.00     0.000 C 
BRANCH   2   3
ATOM      3  C   UNL     1      17.923  28.834  31.005  1.00  0.00     0.000 C 
BRANCH   3   4
ATOM      4  C   UNL     1      17.980  29.591  32.341  1.00  0.00     0.000 C 
BRANCH   4   5
ATOM      5  C   UNL     1      18.536  28.696  33.455  1.00  0.00     0.000 C 
BRANCH   5   6
ATOM      6  C   UNL     1      18.006  29.134  34.829  1.00  0.00     0.000 C 
BRANCH   6   7
ATOM      7  C   UNL     1      16.670  29.894  34.738  1.00  0.00     0.006 C 
BRANCH   7   8
ATOM      8  C   UNL     1      16.620  31.187  35.567  1.00  0.00     0.053 C 
BRANCH   8   9
ATOM      9  C   UNL     1      16.657  32.410  34.701  1.00  0.00     0.041 C 
ATOM     10  O   UNL     1      16.192  32.372  33.531  1.00  0.00    -0.550 OA
ATOM     11  O   UNL     1      17.233  33.580  35.176  1.00  0.00    -0.550 OA
ENDBRANCH   8   9
ENDBRANCH   7   8
ENDBRANCH   6   7
ENDBRANCH   5   6
ENDBRANCH   4   5
ENDBRANCH   3   4
ENDBRANCH   2   3
ENDBRANCH   1   2
BRANCH   1  12
ATOM     12  C   UNL     1      17.598  27.080  28.889  1.00  0.00     0.000 C 
BRANCH  12  13
ATOM     13  C   UNL     1      17.550  27.817  27.542  1.00  0.00    -0.000 C 
BRANCH  13  14
ATOM     14  C   UNL     1      18.370  27.069  26.479  1.00  0.00    -0.000 C 
BRANCH  14  15
ATOM     15  C   UNL     1      19.620  27.847  26.026  1.00  0.00    -0.000 C 
BRANCH  15  16
ATOM     16  C   UNL     1      19.631  29.336  26.413  1.00  0.00    -0.000 C 
BRANCH  16  17
ATOM     17  C   UNL     1      20.758  29.689  27.400  1.00  0.00    -0.000 C 
BRANCH  17  18
ATOM     18  C   UNL     1      20.295  30.654  28.503  1.00  0.00    -0.000 C 
BRANCH  18  19
ATOM     19  C   UNL     1      18.881  31.198  28.255  1.00  0.00    -0.003 C 
ATOM     20  C   UNL     1      18.478  32.198  29.336  1.00  0.00     0.004 C 
ENDBRANCH  18  19
ENDBRANCH  17  18
ENDBRANCH  16  17
ENDBRANCH  15  16
ENDBRANCH  14  15
ENDBRANCH  13  14
ENDBRANCH  12  13
ENDBRANCH   1  12
TORSDOF 16
ENDMDL
MODEL 4
REMARK VINA RESULT:    -4.839      3.334      7.712
REMARK INTER + INTRA:         -11.325
REMARK INTER:                  -9.419
REMARK INTRA:                  -1.906
REMARK UNBOUND:                -1.960
REMARK SMILES CCCCCCCCCCCCCCCCCC(=O)[O-]
REMARK SMILES IDX 10 1 11 2 12 3 13 4 14 5 15 6 16 7 17 8 18 9 19 10 20 11
REMARK SMILES IDX 9 12 8 13 7 14 6 15 5 16 4 17 3 18 2 19 1 20
REMARK H PARENT
REMARK Flexibility Score: inf
ROOT
ATOM      1  C   UNL     1      19.360  27.863  31.127  1.00  0.00     0.000 C 
ENDROOT
BRANCH   1   2
ATOM      2  C   UNL     1      18.024  28.510  30.722  1.00  0.00     0.000 C 
BRANCH   2   3
ATOM      3  C   UNL     1      18.055  30.045  30.829  1.00  0.00     0.000 C 
BRANCH   3   4
ATOM      4  C   UNL     1      18.592  30.718  29.556  1.00  0.00     0.000 C 
BRANCH   4   5
ATOM      5  C   UNL     1      18.243  29.894  28.311  1.00  0.00     0.000 C 
BRANCH   5   6
ATOM      6  C   UNL     1      19.468  29.734  27.397  1.00  0.00     0.000 C 
BRANCH   6   7
ATOM      7  C   UNL     1      19.401  28.466  26.527  1.00  0.00     0.006 C 
BRANCH   7   8
ATOM      8  C   UNL     1      18.395  27.413  27.018  1.00  0.00     0.053 C 
BRANCH   8   9
ATOM      9  C   UNL     1      19.052  26.359  27.856  1.00  0.00     0.041 C 
ATOM     10  O   UNL     1      18.353  25.585  28.563  1.00  0.00    -0.550 OA
ATOM     11  O   UNL     1      20.436  26.253  27.880  1.00  0.00    -0.550 OA
ENDBRANCH   8   9
ENDBRANCH   7   8
ENDBRANCH   6   7
ENDBRANCH   5   6
ENDBRANCH   4   5
ENDBRANCH   3   4
ENDBRANCH   2   3
ENDBRANCH   1   2
BRANCH   1  12
ATOM     12  C   UNL     1      19.845  28.328  32.510  1.00  0.00     0.000 C 
BRANCH  12  13
ATOM     13  C   UNL     1      19.479  27.344  33.631  1.00  0.00    -0.000 C 
BRANCH  13  14
ATOM     14  C   UNL     1      18.826  28.078  34.812  1.00  0.00    -0.000 C 
BRANCH  14  15
ATOM     15  C   UNL     1      18.481  29.545  34.494  1.00  0.00    -0.000 C 
BRANCH  15  16
ATOM     16  C   UNL     1      17.003  29.920  34.698  1.00  0.00    -0.000 C 
BRANCH  16  17
ATOM     17  C   UNL     1      16.626  31.251  34.023  1.00  0.00    -0.000 C 
BRANCH  17  18
ATOM     18  C   UNL     1      16.397  32.383  35.036  1.00  0.00    -0.000 C 
BRANCH  18  19
ATOM     19  C   UNL     1      16.545  31.911  36.489  1.00  0.00    -0.003 C 
ATOM     20  C   UNL     1      15.336  32.321  37.327  1.00  0.00     0.004 C 
ENDBRANCH  18  19
ENDBRANCH  17  18
ENDBRANCH  16  17
ENDBRANCH  15  16
ENDBRANCH  14  15
ENDBRANCH  13  14
ENDBRANCH  12  13
ENDBRANCH   1  12
TORSDOF 16
ENDMDL
MODEL 5
REMARK VINA RESULT:    -4.819      1.215      2.357
REMARK INTER + INTRA:         -11.286
REMARK INTER:                  -9.530
REMARK INTRA:                  -1.756
REMARK UNBOUND:                -1.960
REMARK SMILES CCCCCCCCCCCCCCCCCC(=O)[O-]
REMARK SMILES IDX 10 1 11 2 12 3 13 4 14 5 15 6 16 7 17 8 18 9 19 10 20 11
REMARK SMILES IDX 9 12 8 13 7 14 6 15 5 16 4 17 3 18 2 19 1 20
REMARK H PARENT
REMARK Flexibility Score: inf
ROOT
ATOM      1  C   UNL     1      19.515  27.426  33.306  1.00  0.00     0.000 C 
ENDROOT
BRANCH   1   2
ATOM      2  C   UNL     1      19.305  28.659  34.202  1.00  0.00     0.000 C 
BRANCH   2   3
ATOM      3  C   UNL     1      17.929  28.659  34.891  1.00  0.00     0.000 C 
BRANCH   3   4
ATOM      4  C   UNL     1      17.360  30.074  35.082  1.00  0.00     0.000 C 
BRANCH   4   5
ATOM      5  C   UNL     1      16.545  30.506  33.857  1.00  0.00     0.000 C 
BRANCH   5   6
ATOM      6  C   UNL     1      17.103  31.805  33.256  1.00  0.00     0.000 C 
BRANCH   6   7
ATOM      7  C   UNL     1      16.191  33.020  33.507  1.00  0.00     0.006 C 
BRANCH   7   8
ATOM      8  C   UNL     1      16.136  33.478  34.973  1.00  0.00     0.053 C 
BRANCH   8   9
ATOM      9  C   UNL     1      15.414  34.781  35.126  1.00  0.00     0.041 C 
ATOM     10  O   UNL     1      14.862  35.321  34.131  1.00  0.00    -0.550 OA
ATOM     11  O   UNL     1      15.378  35.415  36.361  1.00  0.00    -0.550 OA
ENDBRANCH   8   9
ENDBRANCH   7   8
ENDBRANCH   6   7
ENDBRANCH   5   6
ENDBRANCH   4   5
ENDBRANCH   3   4
ENDBRANCH   2   3
ENDBRANCH   1   2
BRANCH   1  12
ATOM     12  C   UNL     1      19.411  27.761  31.809  1.00  0.00     0.000 C 
BRANCH  12  13
ATOM     13  C   UNL     1      19.259  29.267  31.545  1.00  0.00    -0.000 C 
BRANCH  13  14
ATOM     14  C   UNL     1      18.127  29.536  30.543  1.00  0.00    -0.000 C 
BRANCH  14  15
ATOM     15  C   UNL     1      18.439  30.697  29.579  1.00  0.00    -0.000 C 
BRANCH  15  16
ATOM     16  C   UNL     1      18.428  30.319  28.087  1.00  0.00    -0.000 C 
BRANCH  16  17
ATOM     17  C   UNL     1      18.919  28.883  27.830  1.00  0.00    -0.000 C 
BRANCH  17  18
ATOM     18  C   UNL     1      17.818  27.978  27.255  1.00  0.00    -0.000 C 
BRANCH  18  19
ATOM     19  C   UNL     1      18.230  26.500  27.220  1.00  0.00    -0.003 C 
ATOM     20  C   UNL     1      18.566  25.989  28.619  1.00  0.00     0.004 C 
ENDBRANCH  18  19
ENDBRANCH  17  18
ENDBRANCH  16  17
ENDBRANCH  15  16
ENDBRANCH  14  15
ENDBRANCH  13  14
ENDBRANCH  12  13
ENDBRANCH   1  12
TORSDOF 16
ENDMDL
MODEL 6
REMARK VINA RESULT:    -4.787      2.560      6.838
REMARK INTER + INTRA:         -11.224
REMARK INTER:                  -9.250
REMARK INTRA:                  -1.973
REMARK UNBOUND:                -1.960
REMARK SMILES CCCCCCCCCCCCCCCCCC(=O)[O-]
REMARK SMILES IDX 10 1 11 2 12 3 13 4 14 5 15 6 16 7 17 8 18 9 19 10 20 11
REMARK SMILES IDX 9 12 8 13 7 14 6 15 5 16 4 17 3 18 2 19 1 20
REMARK H PARENT
REMARK Flexibility Score: inf
ROOT
ATOM      1  C   UNL     1      18.807  29.476  35.594  1.00  0.00     0.000 C 
ENDROOT
BRANCH   1   2
ATOM      2  C   UNL     1      19.889  28.383  35.571  1.00  0.00     0.000 C 
BRANCH   2   3
ATOM      3  C   UNL     1      19.533  27.222  34.627  1.00  0.00     0.000 C 
BRANCH   3   4
ATOM      4  C   UNL     1      20.461  27.144  33.405  1.00  0.00     0.000 C 
BRANCH   4   5
ATOM      5  C   UNL     1      19.654  27.148  32.102  1.00  0.00     0.000 C 
BRANCH   5   6
ATOM      6  C   UNL     1      19.181  28.568  31.752  1.00  0.00     0.000 C 
BRANCH   6   7
ATOM      7  C   UNL     1      17.997  28.577  30.769  1.00  0.00     0.006 C 
BRANCH   7   8
ATOM      8  C   UNL     1      18.349  29.076  29.359  1.00  0.00     0.053 C 
BRANCH   8   9
ATOM      9  C   UNL     1      18.944  30.451  29.383  1.00  0.00     0.041 C 
ATOM     10  O   UNL     1      18.250  31.435  29.753  1.00  0.00    -0.550 OA
ATOM     11  O   UNL     1      20.254  30.648  28.967  1.00  0.00    -0.550 OA
ENDBRANCH   8   9
ENDBRANCH   7   8
ENDBRANCH   6   7
ENDBRANCH   5   6
ENDBRANCH   4   5
ENDBRANCH   3   4
ENDBRANCH   2   3
ENDBRANCH   1   2
BRANCH   1  12
ATOM     12  C   UNL     1      17.520  29.048  34.870  1.00  0.00     0.000 C 
BRANCH  12  13
ATOM     13  C   UNL     1      16.545  30.214  34.650  1.00  0.00    -0.000 C 
BRANCH  13  14
ATOM     14  C   UNL     1      16.936  31.029  33.408  1.00  0.00    -0.000 C 
BRANCH  14  15
ATOM     15  C   UNL     1      17.074  32.536  33.696  1.00  0.00    -0.000 C 
BRANCH  15  16
ATOM     16  C   UNL     1      15.750  33.320  33.689  1.00  0.00    -0.000 C 
BRANCH  16  17
ATOM     17  C   UNL     1      15.653  34.340  34.838  1.00  0.00    -0.000 C 
BRANCH  17  18
ATOM     18  C   UNL     1      16.512  33.947  36.049  1.00  0.00    -0.000 C 
BRANCH  18  19
ATOM     19  C   UNL     1      15.672  33.681  37.306  1.00  0.00    -0.003 C 
ATOM     20  C   UNL     1      15.277  32.210  37.403  1.00  0.00     0.004 C 
ENDBRANCH  18  19
ENDBRANCH  17  18
ENDBRANCH  16  17
ENDBRANCH  15  16
ENDBRANCH  14  15
ENDBRANCH  13  14
ENDBRANCH  12  13
ENDBRANCH   1  12
TORSDOF 16
ENDMDL
MODEL 7
REMARK VINA RESULT:    -4.767      1.026      1.899
REMARK INTER + INTRA:         -11.185
REMARK INTER:                  -9.067
REMARK INTRA:                  -2.118
REMARK UNBOUND:                -1.960
REMARK SMILES CCCCCCCCCCCCCCCCCC(=O)[O-]
REMARK SMILES IDX 10 1 11 2 12 3 13 4 14 5 15 6 16 7 17 8 18 9 19 10 20 11
REMARK SMILES IDX 9 12 8 13 7 14 6 15 5 16 4 17 3 18 2 19 1 20
REMARK H PARENT
REMARK Flexibility Score: inf
ROOT
ATOM      1  C   UNL     1      18.609  30.496  30.975  1.00  0.00     0.000 C 
ENDROOT
BRANCH   1   2
ATOM      2  C   UNL     1      18.021  29.081  30.838  1.00  0.00     0.000 C 
BRANCH   2   3
ATOM      3  C   UNL     1      18.786  28.041  31.674  1.00  0.00     0.000 C 
BRANCH   3   4
ATOM      4  C   UNL     1      19.520  28.664  32.871  1.00  0.00     0.000 C 
BRANCH   4   5
ATOM      5  C   UNL     1      19.030  28.056  34.191  1.00  0.00     0.000 C 
BRANCH   5   6
ATOM      6  C   UNL     1      18.369  29.123  35.077  1.00  0.00     0.000 C 
BRANCH   6   7
ATOM      7  C   UNL     1      16.936  29.465  34.630  1.00  0.00     0.006 C 
BRANCH   7   8
ATOM      8  C   UNL     1      16.733  30.932  34.219  1.00  0.00     0.053 C 
BRANCH   8   9
ATOM      9  C   UNL     1      16.757  31.853  35.400  1.00  0.00     0.041 C 
ATOM     10  O   UNL     1      17.652  32.733  35.500  1.00  0.00    -0.550 OA
ATOM     11  O   UNL     1      15.808  31.719  36.405  1.00  0.00    -0.550 OA
ENDBRANCH   8   9
ENDBRANCH   7   8
ENDBRANCH   6   7
ENDBRANCH   5   6
ENDBRANCH   4   5
ENDBRANCH   3   4
ENDBRANCH   2   3
ENDBRANCH   1   2
BRANCH   1  12
ATOM     12  C   UNL     1      18.529  31.297  29.665  1.00  0.00     0.000 C 
BRANCH  12  13
ATOM     13  C   UNL     1      18.211  30.416  28.447  1.00  0.00    -0.000 C 
BRANCH  13  14
ATOM     14  C   UNL     1      19.472  30.172  27.604  1.00  0.00    -0.000 C 
BRANCH  14  15
ATOM     15  C   UNL     1      19.569  28.730  27.071  1.00  0.00    -0.000 C 
BRANCH  15  16
ATOM     16  C   UNL     1      18.236  27.962  27.035  1.00  0.00    -0.000 C 
BRANCH  16  17
ATOM     17  C   UNL     1      18.338  26.559  27.659  1.00  0.00    -0.000 C 
BRANCH  17  18
ATOM     18  C   UNL     1      19.605  26.382  28.510  1.00  0.00    -0.000 C 
BRANCH  18  19
ATOM     19  C   UNL     1      19.942  24.906  28.766  1.00  0.00    -0.003 C 
ATOM     20  C   UNL     1      18.953  23.984  28.058  1.00  0.00     0.004 C 
ENDBRANCH  18  19
ENDBRANCH  17  18
ENDBRANCH  16  17
ENDBRANCH  15  16
ENDBRANCH  14  15
ENDBRANCH  13  14
ENDBRANCH  12  13
ENDBRANCH   1  12
TORSDOF 16
ENDMDL
MODEL 8
REMARK VINA RESULT:    -4.755      4.092      7.871
REMARK INTER + INTRA:         -11.163
REMARK INTER:                  -9.321
REMARK INTRA:                  -1.841
REMARK UNBOUND:                -1.960
REMARK SMILES CCCCCCCCCCCCCCCCCC(=O)[O-]
REMARK SMILES IDX 10 1 11 2 12 3 13 4 14 5 15 6 16 7 17 8 18 9 19 10 20 11
REMARK SMILES IDX 9 12 8 13 7 14 6 15 5 16 4 17 3 18 2 19 1 20
REMARK H PARENT
REMARK Flexibility Score: inf
ROOT
ATOM      1  C   UNL     1      18.345  30.478  28.497  1.00  0.00     0.000 C 
ENDROOT
BRANCH   1   2
ATOM      2  C   UNL     1      19.507  29.929  27.651  1.00  0.00     0.000 C 
BRANCH   2   3
ATOM      3  C   UNL     1      19.151  28.608  26.947  1.00  0.00     0.000 C 
BRANCH   3   4
ATOM      4  C   UNL     1      17.746  28.102  27.308  1.00  0.00     0.000 C 
BRANCH   4   5
ATOM      5  C   UNL     1      17.823  26.895  28.251  1.00  0.00     0.000 C 
BRANCH   5   6
ATOM      6  C   UNL     1      18.620  25.748  27.612  1.00  0.00     0.000 C 
BRANCH   6   7
ATOM      7  C   UNL     1      19.148  24.739  28.648  1.00  0.00     0.006 C 
BRANCH   7   8
ATOM      8  C   UNL     1      18.971  23.266  28.245  1.00  0.00     0.053 C 
BRANCH   8   9
ATOM      9  C   UNL     1      19.304  22.334  29.370  1.00  0.00     0.041 C 
ATOM     10  O   UNL     1      20.337  22.524  30.066  1.00  0.00    -0.550 OA
ATOM     11  O   UNL     1      18.491  21.238  29.628  1.00  0.00    -0.550 OA
ENDBRANCH   8   9
ENDBRANCH   7   8
ENDBRANCH   6   7
ENDBRANCH   5   6
ENDBRANCH   4   5
ENDBRANCH   3   4
ENDBRANCH   2   3
ENDBRANCH   1   2
BRANCH   1  12
ATOM     12  C   UNL     1      18.714  30.623  29.982  1.00  0.00     0.000 C 
BRANCH  12  13
ATOM     13  C   UNL     1      19.558  29.451  30.503  1.00  0.00    -0.000 C 
BRANCH  13  14
ATOM     14  C   UNL     1      18.706  28.495  31.351  1.00  0.00    -0.000 C 
BRANCH  14  15
ATOM     15  C   UNL     1      19.530  27.368  32.001  1.00  0.00    -0.000 C 
BRANCH  15  16
ATOM     16  C   UNL     1      19.477  27.333  33.539  1.00  0.00    -0.000 C 
BRANCH  16  17
ATOM     17  C   UNL     1      20.029  28.616  34.186  1.00  0.00    -0.000 C 
BRANCH  17  18
ATOM     18  C   UNL     1      19.067  29.215  35.223  1.00  0.00    -0.000 C 
BRANCH  18  19
ATOM     19  C   UNL     1      17.594  28.959  34.876  1.00  0.00    -0.003 C 
ATOM     20  C   UNL     1      16.966  30.178  34.204  1.00  0.00     0.004 C 
ENDBRANCH  18  19
ENDBRANCH  17  18
ENDBRANCH  16  17
ENDBRANCH  15  16
ENDBRANCH  14  15
ENDBRANCH  13  14
ENDBRANCH  12  13
ENDBRANCH   1  12
TORSDOF 16
ENDMDL
MODEL 9
REMARK VINA RESULT:    -4.733      3.372      7.481
REMARK INTER + INTRA:         -11.120
REMARK INTER:                  -8.731
REMARK INTRA:                  -2.389
REMARK UNBOUND:                -1.960
REMARK SMILES CCCCCCCCCCCCCCCCCC(=O)[O-]
REMARK SMILES IDX 10 1 11 2 12 3 13 4 14 5 15 6 16 7 17 8 18 9 19 10 20 11
REMARK SMILES IDX 9 12 8 13 7 14 6 15 5 16 4 17 3 18 2 19 1 20
REMARK H PARENT
REMARK Flexibility Score: inf
ROOT
ATOM      1  C   UNL     1      17.976  29.709  30.992  1.00  0.00     0.000 C 
ENDROOT
BRANCH   1   2
ATOM      2  C   UNL     1      19.092  30.628  30.465  1.00  0.00     0.000 C 
BRANCH   2   3
ATOM      3  C   UNL     1      18.691  31.361  29.174  1.00  0.00     0.000 C 
BRANCH   3   4
ATOM      4  C   UNL     1      18.353  30.399  28.025  1.00  0.00     0.000 C 
BRANCH   4   5
ATOM      5  C   UNL     1      19.620  29.737  27.473  1.00  0.00     0.000 C 
BRANCH   5   6
ATOM      6  C   UNL     1      19.339  28.292  27.032  1.00  0.00     0.000 C 
BRANCH   6   7
ATOM      7  C   UNL     1      17.881  27.865  27.286  1.00  0.00     0.006 C 
BRANCH   7   8
ATOM      8  C   UNL     1      17.692  26.958  28.512  1.00  0.00     0.053 C 
BRANCH   8   9
ATOM      9  C   UNL     1      18.698  25.848  28.548  1.00  0.00     0.041 C 
ATOM     10  O   UNL     1      19.580  25.820  29.447  1.00  0.00    -0.550 OA
ATOM     11  O   UNL     1      18.680  24.862  27.570  1.00  0.00    -0.550 OA
ENDBRANCH   8   9
ENDBRANCH   7   8
ENDBRANCH   6   7
ENDBRANCH   5   6
ENDBRANCH   4   5
ENDBRANCH   3   4
ENDBRANCH   2   3
ENDBRANCH   1   2
BRANCH   1  12
ATOM     12  C   UNL     1      18.525  28.435  31.655  1.00  0.00     0.000 C 
BRANCH  12  13
ATOM     13  C   UNL     1      19.523  28.735  32.784  1.00  0.00    -0.000 C 
BRANCH  13  14
ATOM     14  C   UNL     1      19.083  28.069  34.096  1.00  0.00    -0.000 C 
BRANCH  14  15
ATOM     15  C   UNL     1      18.437  29.056  35.086  1.00  0.00    -0.000 C 
BRANCH  15  16
ATOM     16  C   UNL     1      16.940  29.322  34.851  1.00  0.00    -0.000 C 
BRANCH  16  17
ATOM     17  C   UNL     1      16.563  30.805  35.013  1.00  0.00    -0.000 C 
BRANCH  17  18
ATOM     18  C   UNL     1      16.875  31.634  33.758  1.00  0.00    -0.000 C 
BRANCH  18  19
ATOM     19  C   UNL     1      17.852  32.783  34.038  1.00  0.00    -0.003 C 
ATOM     20  C   UNL     1      19.276  32.408  33.633  1.00  0.00     0.004 C 
ENDBRANCH  18  19
ENDBRANCH  17  18
ENDBRANCH  16  17
ENDBRANCH  15  16
ENDBRANCH  14  15
ENDBRANCH  13  14
ENDBRANCH  12  13
ENDBRANCH   1  12
TORSDOF 16
ENDMDL
