MODEL 1
REMARK VINA RESULT:    -3.473      0.000      0.000
REMARK INTER + INTRA:          -9.181
REMARK INTER:                  -6.519
REMARK INTRA:                  -2.662
REMARK UNBOUND:                -2.662
REMARK SMILES O=C([O-])CCCCCCCCCCCCCCC(=O)[O-]
REMARK SMILES IDX 10 1 9 2 8 3 7 4 6 5 5 6 4 7 2 8 1 9 3 10 11 11 12 12 13 13
REMARK SMILES IDX 14 14 15 15 16 16 17 17 18 18 19 19 20 20
REMARK H PARENT
REMARK Flexibility Score: inf
ROOT
ATOM      1  C   UNL     1       0.928  10.125  36.221  1.00  0.00     0.000 C 
ENDROOT
BRANCH   1   2
ATOM      2  C   UNL     1      -0.316   9.236  36.401  1.00  0.00     0.000 C 
BRANCH   2   3
ATOM      3  C   UNL     1      -1.463   9.959  37.127  1.00  0.00     0.000 C 
BRANCH   3   4
ATOM      4  C   UNL     1      -1.550   9.578  38.615  1.00  0.00     0.000 C 
BRANCH   4   5
ATOM      5  C   UNL     1      -1.823   8.078  38.837  1.00  0.00     0.000 C 
BRANCH   5   6
ATOM      6  C   UNL     1      -2.300   7.702  40.252  1.00  0.00     0.006 C 
BRANCH   6   7
ATOM      7  C   UNL     1      -1.199   7.835  41.311  1.00  0.00     0.053 C 
BRANCH   7   8
ATOM      8  C   UNL     1      -0.535   6.514  41.544  1.00  0.00     0.041 C 
ATOM      9  O   UNL     1      -1.161   5.442  41.335  1.00  0.00    -0.550 OA
ATOM     10  O   UNL     1       0.770   6.466  42.017  1.00  0.00    -0.550 OA
ENDBRANCH   7   8
ENDBRANCH   6   7
ENDBRANCH   5   6
ENDBRANCH   4   5
ENDBRANCH   3   4
ENDBRANCH   2   3
ENDBRANCH   1   2
BRANCH   1  11
ATOM     11  C   UNL     1       2.174   9.537  36.916  1.00  0.00     0.000 C 
BRANCH  11  12
ATOM     12  C   UNL     1       2.183   9.731  38.445  1.00  0.00     0.000 C 
BRANCH  12  13
ATOM     13  C   UNL     1       1.916   8.453  39.263  1.00  0.00     0.000 C 
BRANCH  13  14
ATOM     14  C   UNL     1       2.358   7.143  38.585  1.00  0.00     0.000 C 
BRANCH  14  15
ATOM     15  C   UNL     1       1.202   6.150  38.388  1.00  0.00     0.000 C 
BRANCH  15  16
ATOM     16  C   UNL     1       0.922   5.922  36.897  1.00  0.00     0.006 C 
BRANCH  16  17
ATOM     17  C   UNL     1       2.217   5.965  36.082  1.00  0.00     0.053 C 
BRANCH  17  18
ATOM     18  C   UNL     1       1.914   6.110  34.624  1.00  0.00     0.041 C 
ATOM     19  O   UNL     1       1.917   5.100  33.871  1.00  0.00    -0.550 OA
ATOM     20  O   UNL     1       1.584   7.355  34.103  1.00  0.00    -0.550 OA
ENDBRANCH  17  18
ENDBRANCH  16  17
ENDBRANCH  15  16
ENDBRANCH  14  15
ENDBRANCH  13  14
ENDBRANCH  12  13
ENDBRANCH  11  12
ENDBRANCH   1  11
TORSDOF 15
ENDMDL
MODEL 2
REMARK VINA RESULT:    -3.364      1.689      3.673
REMARK INTER + INTRA:          -8.976
REMARK INTER:                  -6.627
REMARK INTRA:                  -2.349
REMARK UNBOUND:                -2.662
REMARK SMILES O=C([O-])CCCCCCCCCCCCCCC(=O)[O-]
REMARK SMILES IDX 10 1 9 2 8 3 7 4 6 5 5 6 4 7 2 8 1 9 3 10 11 11 12 12 13 13
REMARK SMILES IDX 14 14 15 15 16 16 17 17 18 18 19 19 20 20
REMARK H PARENT
REMARK Flexibility Score: inf
ROOT
ATOM      1  C   UNL     1       0.916   9.137  39.374  1.00  0.00     0.000 C 
ENDROOT
BRANCH   1   2
ATOM      2  C   UNL     1       1.791   7.874  39.290  1.00  0.00     0.000 C 
BRANCH   2   3
ATOM      3  C   UNL     1       1.887   7.310  37.863  1.00  0.00     0.000 C 
BRANCH   3   4
ATOM      4  C   UNL     1       1.140   5.974  37.705  1.00  0.00     0.000 C 
BRANCH   4   5
ATOM      5  C   UNL     1      -0.151   6.103  36.874  1.00  0.00     0.000 C 
BRANCH   5   6
ATOM      6  C   UNL     1      -1.448   5.743  37.621  1.00  0.00     0.006 C 
BRANCH   6   7
ATOM      7  C   UNL     1      -1.217   4.795  38.804  1.00  0.00     0.053 C 
BRANCH   7   8
ATOM      8  C   UNL     1      -1.993   5.251  39.999  1.00  0.00     0.041 C 
ATOM      9  O   UNL     1      -2.976   6.027  39.861  1.00  0.00    -0.550 OA
ATOM     10  O   UNL     1      -1.616   4.841  41.271  1.00  0.00    -0.550 OA
ENDBRANCH   7   8
ENDBRANCH   6   7
ENDBRANCH   5   6
ENDBRANCH   4   5
ENDBRANCH   3   4
ENDBRANCH   2   3
ENDBRANCH   1   2
BRANCH   1  11
ATOM     11  C   UNL     1      -0.530   8.821  39.811  1.00  0.00     0.000 C 
BRANCH  11  12
ATOM     12  C   UNL     1      -1.593   9.195  38.760  1.00  0.00     0.000 C 
BRANCH  12  13
ATOM     13  C   UNL     1      -1.078  10.059  37.593  1.00  0.00     0.000 C 
BRANCH  13  14
ATOM     14  C   UNL     1      -1.259   9.438  36.195  1.00  0.00     0.000 C 
BRANCH  14  15
ATOM     15  C   UNL     1      -0.379  10.101  35.126  1.00  0.00     0.000 C 
BRANCH  15  16
ATOM     16  C   UNL     1       1.030   9.496  35.120  1.00  0.00     0.006 C 
BRANCH  16  17
ATOM     17  C   UNL     1       1.575   9.385  33.694  1.00  0.00     0.053 C 
BRANCH  17  18
ATOM     18  C   UNL     1       1.637   7.953  33.266  1.00  0.00     0.041 C 
ATOM     19  O   UNL     1       1.351   7.034  34.079  1.00  0.00    -0.550 OA
ATOM     20  O   UNL     1       1.969   7.632  31.956  1.00  0.00    -0.550 OA
ENDBRANCH  17  18
ENDBRANCH  16  17
ENDBRANCH  15  16
ENDBRANCH  14  15
ENDBRANCH  13  14
ENDBRANCH  12  13
ENDBRANCH  11  12
ENDBRANCH   1  11
TORSDOF 15
ENDMDL
MODEL 3
REMARK VINA RESULT:    -3.270      2.584      4.026
REMARK INTER + INTRA:          -8.799
REMARK INTER:                  -6.463
REMARK INTRA:                  -2.336
REMARK UNBOUND:                -2.662
REMARK SMILES O=C([O-])CCCCCCCCCCCCCCC(=O)[O-]
REMARK SMILES IDX 10 1 9 2 8 3 7 4 6 5 5 6 4 7 2 8 1 9 3 10 11 11 12 12 13 13
REMARK SMILES IDX 14 14 15 15 16 16 17 17 18 18 19 19 20 20
REMARK H PARENT
REMARK Flexibility Score: inf
ROOT
ATOM      1  C   UNL     1      -0.595   9.341  39.435  1.00  0.00     0.000 C 
ENDROOT
BRANCH   1   2
ATOM      2  C   UNL     1      -1.875   8.707  38.862  1.00  0.00     0.000 C 
BRANCH   2   3
ATOM      3  C   UNL     1      -2.506   7.678  39.815  1.00  0.00     0.000 C 
BRANCH   3   4
ATOM      4  C   UNL     1      -2.584   6.271  39.195  1.00  0.00     0.000 C 
BRANCH   4   5
ATOM      5  C   UNL     1      -1.242   5.800  38.603  1.00  0.00     0.000 C 
BRANCH   5   6
ATOM      6  C   UNL     1      -1.302   5.333  37.137  1.00  0.00     0.006 C 
BRANCH   6   7
ATOM      7  C   UNL     1      -0.625   3.975  36.912  1.00  0.00     0.053 C 
BRANCH   7   8
ATOM      8  C   UNL     1       0.246   4.020  35.695  1.00  0.00     0.041 C 
ATOM      9  O   UNL     1      -0.268   4.101  34.549  1.00  0.00    -0.550 OA
ATOM     10  O   UNL     1       1.626   3.947  35.826  1.00  0.00    -0.550 OA
ENDBRANCH   7   8
ENDBRANCH   6   7
ENDBRANCH   5   6
ENDBRANCH   4   5
ENDBRANCH   3   4
ENDBRANCH   2   3
ENDBRANCH   1   2
BRANCH   1  11
ATOM     11  C   UNL     1      -0.173   8.704  40.776  1.00  0.00     0.000 C 
BRANCH  11  12
ATOM     12  C   UNL     1       1.111   7.858  40.686  1.00  0.00     0.000 C 
BRANCH  12  13
ATOM     13  C   UNL     1       1.948   8.080  39.412  1.00  0.00     0.000 C 
BRANCH  13  14
ATOM     14  C   UNL     1       2.211   6.811  38.578  1.00  0.00     0.000 C 
BRANCH  14  15
ATOM     15  C   UNL     1       2.299   7.092  37.071  1.00  0.00     0.000 C 
BRANCH  15  16
ATOM     16  C   UNL     1       1.431   8.296  36.684  1.00  0.00     0.006 C 
BRANCH  16  17
ATOM     17  C   UNL     1       0.818   8.108  35.294  1.00  0.00     0.053 C 
BRANCH  17  18
ATOM     18  C   UNL     1       1.522   8.966  34.290  1.00  0.00     0.041 C 
ATOM     19  O   UNL     1       1.906  10.124  34.603  1.00  0.00    -0.550 OA
ATOM     20  O   UNL     1       1.792   8.471  33.020  1.00  0.00    -0.550 OA
ENDBRANCH  17  18
ENDBRANCH  16  17
ENDBRANCH  15  16
ENDBRANCH  14  15
ENDBRANCH  13  14
ENDBRANCH  12  13
ENDBRANCH  11  12
ENDBRANCH   1  11
TORSDOF 15
ENDMDL
MODEL 4
REMARK VINA RESULT:    -3.246      2.285      5.501
REMARK INTER + INTRA:          -8.756
REMARK INTER:                  -6.485
REMARK INTRA:                  -2.271
REMARK UNBOUND:                -2.662
REMARK SMILES O=C([O-])CCCCCCCCCCCCCCC(=O)[O-]
REMARK SMILES IDX 10 1 9 2 8 3 7 4 6 5 5 6 4 7 2 8 1 9 3 10 11 11 12 12 13 13
REMARK SMILES IDX 14 14 15 15 16 16 17 17 18 18 19 19 20 20
REMARK H PARENT
REMARK Flexibility Score: inf
ROOT
ATOM      1  C   UNL     1      -2.541   6.373  39.653  1.00  0.00     0.000 C 
ENDROOT
BRANCH   1   2
ATOM      2  C   UNL     1      -1.847   5.864  38.378  1.00  0.00     0.000 C 
BRANCH   2   3
ATOM      3  C   UNL     1      -0.515   5.152  38.669  1.00  0.00     0.000 C 
BRANCH   3   4
ATOM      4  C   UNL     1      -0.226   4.013  37.676  1.00  0.00     0.000 C 
BRANCH   4   5
ATOM      5  C   UNL     1      -1.134   4.055  36.432  1.00  0.00     0.000 C 
BRANCH   5   6
ATOM      6  C   UNL     1      -0.409   3.872  35.086  1.00  0.00     0.006 C 
BRANCH   6   7
ATOM      7  C   UNL     1       1.118   3.855  35.225  1.00  0.00     0.053 C 
BRANCH   7   8
ATOM      8  C   UNL     1       1.750   4.702  34.165  1.00  0.00     0.041 C 
ATOM      9  O   UNL     1       1.039   5.248  33.281  1.00  0.00    -0.550 OA
ATOM     10  O   UNL     1       3.128   4.867  34.137  1.00  0.00    -0.550 OA
ENDBRANCH   7   8
ENDBRANCH   6   7
ENDBRANCH   5   6
ENDBRANCH   4   5
ENDBRANCH   3   4
ENDBRANCH   2   3
ENDBRANCH   1   2
BRANCH   1  11
ATOM     11  C   UNL     1      -2.486   7.911  39.777  1.00  0.00     0.000 C 
BRANCH  11  12
ATOM     12  C   UNL     1      -1.056   8.475  39.889  1.00  0.00     0.000 C 
BRANCH  12  13
ATOM     13  C   UNL     1      -0.765   9.694  38.993  1.00  0.00     0.000 C 
BRANCH  13  14
ATOM     14  C   UNL     1      -1.672   9.820  37.754  1.00  0.00     0.000 C 
BRANCH  14  15
ATOM     15  C   UNL     1      -1.146   9.035  36.543  1.00  0.00     0.000 C 
BRANCH  15  16
ATOM     16  C   UNL     1       0.386   9.067  36.490  1.00  0.00     0.006 C 
BRANCH  16  17
ATOM     17  C   UNL     1       0.960   7.659  36.321  1.00  0.00     0.053 C 
BRANCH  17  18
ATOM     18  C   UNL     1       2.123   7.452  37.240  1.00  0.00     0.041 C 
ATOM     19  O   UNL     1       2.424   8.331  38.090  1.00  0.00    -0.550 OA
ATOM     20  O   UNL     1       2.848   6.268  37.188  1.00  0.00    -0.550 OA
ENDBRANCH  17  18
ENDBRANCH  16  17
ENDBRANCH  15  16
ENDBRANCH  14  15
ENDBRANCH  13  14
ENDBRANCH  12  13
ENDBRANCH  11  12
ENDBRANCH   1  11
TORSDOF 15
ENDMDL
MODEL 5
REMARK VINA RESULT:    -3.164      2.371      4.799
REMARK INTER + INTRA:          -8.602
REMARK INTER:                  -6.172
REMARK INTRA:                  -2.430
REMARK UNBOUND:                -2.662
REMARK SMILES O=C([O-])CCCCCCCCCCCCCCC(=O)[O-]
REMARK SMILES IDX 10 1 9 2 8 3 7 4 6 5 5 6 4 7 2 8 1 9 3 10 11 11 12 12 13 13
REMARK SMILES IDX 14 14 15 15 16 16 17 17 18 18 19 19 20 20
REMARK H PARENT
REMARK Flexibility Score: inf
ROOT
ATOM      1  C   UNL     1       0.698   6.568  41.191  1.00  0.00     0.000 C 
ENDROOT
BRANCH   1   2
ATOM      2  C   UNL     1      -0.589   6.405  42.018  1.00  0.00     0.000 C 
BRANCH   2   3
ATOM      3  C   UNL     1      -1.309   5.074  41.742  1.00  0.00     0.000 C 
BRANCH   3   4
ATOM      4  C   UNL     1      -2.208   5.138  40.495  1.00  0.00     0.000 C 
BRANCH   4   5
ATOM      5  C   UNL     1      -1.539   4.544  39.241  1.00  0.00     0.000 C 
BRANCH   5   6
ATOM      6  C   UNL     1      -1.866   5.266  37.920  1.00  0.00     0.006 C 
BRANCH   6   7
ATOM      7  C   UNL     1      -0.620   5.798  37.202  1.00  0.00     0.053 C 
BRANCH   7   8
ATOM      8  C   UNL     1      -0.119   4.794  36.211  1.00  0.00     0.041 C 
ATOM      9  O   UNL     1       1.053   4.878  35.760  1.00  0.00    -0.550 OA
ATOM     10  O   UNL     1      -0.955   3.779  35.766  1.00  0.00    -0.550 OA
ENDBRANCH   7   8
ENDBRANCH   6   7
ENDBRANCH   5   6
ENDBRANCH   4   5
ENDBRANCH   3   4
ENDBRANCH   2   3
ENDBRANCH   1   2
BRANCH   1  11
ATOM     11  C   UNL     1       0.597   7.719  40.168  1.00  0.00     0.000 C 
BRANCH  11  12
ATOM     12  C   UNL     1      -0.633   8.625  40.371  1.00  0.00     0.000 C 
BRANCH  12  13
ATOM     13  C   UNL     1      -1.639   8.628  39.205  1.00  0.00     0.000 C 
BRANCH  13  14
ATOM     14  C   UNL     1      -1.528   9.836  38.255  1.00  0.00     0.000 C 
BRANCH  14  15
ATOM     15  C   UNL     1      -1.499   9.433  36.773  1.00  0.00     0.000 C 
BRANCH  15  16
ATOM     16  C   UNL     1      -0.344  10.123  36.038  1.00  0.00     0.006 C 
BRANCH  16  17
ATOM     17  C   UNL     1       0.984   9.895  36.764  1.00  0.00     0.053 C 
BRANCH  17  18
ATOM     18  C   UNL     1       1.614   8.614  36.316  1.00  0.00     0.041 C 
ATOM     19  O   UNL     1       2.302   7.930  37.120  1.00  0.00    -0.550 OA
ATOM     20  O   UNL     1       1.405   8.151  35.023  1.00  0.00    -0.550 OA
ENDBRANCH  17  18
ENDBRANCH  16  17
ENDBRANCH  15  16
ENDBRANCH  14  15
ENDBRANCH  13  14
ENDBRANCH  12  13
ENDBRANCH  11  12
ENDBRANCH   1  11
TORSDOF 15
ENDMDL
MODEL 6
REMARK VINA RESULT:    -3.163      2.922      4.592
REMARK INTER + INTRA:          -8.598
REMARK INTER:                  -5.950
REMARK INTRA:                  -2.648
REMARK UNBOUND:                -2.662
REMARK SMILES O=C([O-])CCCCCCCCCCCCCCC(=O)[O-]
REMARK SMILES IDX 10 1 9 2 8 3 7 4 6 5 5 6 4 7 2 8 1 9 3 10 11 11 12 12 13 13
REMARK SMILES IDX 14 14 15 15 16 16 17 17 18 18 19 19 20 20
REMARK H PARENT
REMARK Flexibility Score: inf
ROOT
ATOM      1  C   UNL     1      -0.940  10.032  38.314  1.00  0.00     0.000 C 
ENDROOT
BRANCH   1   2
ATOM      2  C   UNL     1      -1.885   8.818  38.280  1.00  0.00     0.000 C 
BRANCH   2   3
ATOM      3  C   UNL     1      -2.258   8.316  39.685  1.00  0.00     0.000 C 
BRANCH   3   4
ATOM      4  C   UNL     1      -2.645   6.827  39.696  1.00  0.00     0.000 C 
BRANCH   4   5
ATOM      5  C   UNL     1      -1.928   6.013  38.602  1.00  0.00     0.000 C 
BRANCH   5   6
ATOM      6  C   UNL     1      -1.033   4.871  39.118  1.00  0.00     0.006 C 
BRANCH   6   7
ATOM      7  C   UNL     1      -1.541   4.254  40.428  1.00  0.00     0.053 C 
BRANCH   7   8
ATOM      8  C   UNL     1      -0.572   3.233  40.936  1.00  0.00     0.041 C 
ATOM      9  O   UNL     1      -0.967   2.076  41.234  1.00  0.00    -0.550 OA
ATOM     10  O   UNL     1       0.765   3.569  41.108  1.00  0.00    -0.550 OA
ENDBRANCH   7   8
ENDBRANCH   6   7
ENDBRANCH   5   6
ENDBRANCH   4   5
ENDBRANCH   3   4
ENDBRANCH   2   3
ENDBRANCH   1   2
BRANCH   1  11
ATOM     11  C   UNL     1       0.187   9.929  37.263  1.00  0.00     0.000 C 
BRANCH  11  12
ATOM     12  C   UNL     1       0.129   8.644  36.415  1.00  0.00     0.000 C 
BRANCH  12  13
ATOM     13  C   UNL     1       1.224   7.607  36.730  1.00  0.00     0.000 C 
BRANCH  13  14
ATOM     14  C   UNL     1       2.124   7.957  37.930  1.00  0.00     0.000 C 
BRANCH  14  15
ATOM     15  C   UNL     1       1.802   7.128  39.183  1.00  0.00     0.000 C 
BRANCH  15  16
ATOM     16  C   UNL     1       1.319   8.027  40.328  1.00  0.00     0.006 C 
BRANCH  16  17
ATOM     17  C   UNL     1       0.696   7.198  41.453  1.00  0.00     0.053 C 
BRANCH  17  18
ATOM     18  C   UNL     1       0.203   8.088  42.550  1.00  0.00     0.041 C 
ATOM     19  O   UNL     1      -0.974   7.968  42.983  1.00  0.00    -0.550 OA
ATOM     20  O   UNL     1       1.056   9.021  43.125  1.00  0.00    -0.550 OA
ENDBRANCH  17  18
ENDBRANCH  16  17
ENDBRANCH  15  16
ENDBRANCH  14  15
ENDBRANCH  13  14
ENDBRANCH  12  13
ENDBRANCH  11  12
ENDBRANCH   1  11
TORSDOF 15
ENDMDL
MODEL 7
REMARK VINA RESULT:    -3.162      1.910      5.157
REMARK INTER + INTRA:          -8.597
REMARK INTER:                  -6.060
REMARK INTRA:                  -2.536
REMARK UNBOUND:                -2.662
REMARK SMILES O=C([O-])CCCCCCCCCCCCCCC(=O)[O-]
REMARK SMILES IDX 10 1 9 2 8 3 7 4 6 5 5 6 4 7 2 8 1 9 3 10 11 11 12 12 13 13
REMARK SMILES IDX 14 14 15 15 16 16 17 17 18 18 19 19 20 20
REMARK H PARENT
REMARK Flexibility Score: inf
ROOT
ATOM      1  C   UNL     1       0.408   9.423  36.053  1.00  0.00     0.000 C 
ENDROOT
BRANCH   1   2
ATOM      2  C   UNL     1       1.320  10.125  37.075  1.00  0.00     0.000 C 
BRANCH   2   3
ATOM      3  C   UNL     1       2.307   9.160  37.752  1.00  0.00     0.000 C 
BRANCH   3   4
ATOM      4  C   UNL     1       2.312   7.767  37.098  1.00  0.00     0.000 C 
BRANCH   4   5
ATOM      5  C   UNL     1       2.017   6.633  38.099  1.00  0.00     0.000 C 
BRANCH   5   6
ATOM      6  C   UNL     1       0.757   5.803  37.793  1.00  0.00     0.006 C 
BRANCH   6   7
ATOM      7  C   UNL     1       0.565   5.531  36.295  1.00  0.00     0.053 C 
BRANCH   7   8
ATOM      8  C   UNL     1      -0.543   4.549  36.079  1.00  0.00     0.041 C 
ATOM      9  O   UNL     1      -0.338   3.494  35.423  1.00  0.00    -0.550 OA
ATOM     10  O   UNL     1      -1.812   4.810  36.581  1.00  0.00    -0.550 OA
ENDBRANCH   7   8
ENDBRANCH   6   7
ENDBRANCH   5   6
ENDBRANCH   4   5
ENDBRANCH   3   4
ENDBRANCH   2   3
ENDBRANCH   1   2
BRANCH   1  11
ATOM     11  C   UNL     1      -1.080   9.475  36.462  1.00  0.00     0.000 C 
BRANCH  11  12
ATOM     12  C   UNL     1      -1.463   8.449  37.545  1.00  0.00     0.000 C 
BRANCH  12  13
ATOM     13  C   UNL     1      -1.756   9.047  38.934  1.00  0.00     0.000 C 
BRANCH  13  14
ATOM     14  C   UNL     1      -0.618   8.891  39.961  1.00  0.00     0.000 C 
BRANCH  14  15
ATOM     15  C   UNL     1      -0.627   7.526  40.663  1.00  0.00     0.000 C 
BRANCH  15  16
ATOM     16  C   UNL     1      -1.914   7.333  41.476  1.00  0.00     0.006 C 
BRANCH  16  17
ATOM     17  C   UNL     1      -2.280   5.851  41.583  1.00  0.00     0.053 C 
BRANCH  17  18
ATOM     18  C   UNL     1      -2.472   5.258  40.223  1.00  0.00     0.041 C 
ATOM     19  O   UNL     1      -3.339   5.732  39.440  1.00  0.00    -0.550 OA
ATOM     20  O   UNL     1      -1.664   4.210  39.800  1.00  0.00    -0.550 OA
ENDBRANCH  17  18
ENDBRANCH  16  17
ENDBRANCH  15  16
ENDBRANCH  14  15
ENDBRANCH  13  14
ENDBRANCH  12  13
ENDBRANCH  11  12
ENDBRANCH   1  11
TORSDOF 15
ENDMDL
MODEL 8
REMARK VINA RESULT:    -3.109      2.634      5.687
REMARK INTER + INTRA:          -8.497
REMARK INTER:                  -6.362
REMARK INTRA:                  -2.135
REMARK UNBOUND:                -2.662
REMARK SMILES O=C([O-])CCCCCCCCCCCCCCC(=O)[O-]
REMARK SMILES IDX 10 1 9 2 8 3 7 4 6 5 5 6 4 7 2 8 1 9 3 10 11 11 12 12 13 13
REMARK SMILES IDX 14 14 15 15 16 16 17 17 18 18 19 19 20 20
REMARK H PARENT
REMARK Flexibility Score: inf
ROOT
ATOM      1  C   UNL     1      -2.489   4.849  41.040  1.00  0.00     0.000 C 
ENDROOT
BRANCH   1   2
ATOM      2  C   UNL     1      -1.594   3.737  40.465  1.00  0.00     0.000 C 
BRANCH   2   3
ATOM      3  C   UNL     1      -0.688   4.232  39.326  1.00  0.00     0.000 C 
BRANCH   3   4
ATOM      4  C   UNL     1      -1.488   4.701  38.098  1.00  0.00     0.000 C 
BRANCH   4   5
ATOM      5  C   UNL     1      -0.819   5.874  37.358  1.00  0.00     0.000 C 
BRANCH   5   6
ATOM      6  C   UNL     1       0.719   5.816  37.293  1.00  0.00     0.006 C 
BRANCH   6   7
ATOM      7  C   UNL     1       1.278   6.225  35.925  1.00  0.00     0.053 C 
BRANCH   7   8
ATOM      8  C   UNL     1       2.234   5.190  35.419  1.00  0.00     0.041 C 
ATOM      9  O   UNL     1       3.455   5.254  35.716  1.00  0.00    -0.550 OA
ATOM     10  O   UNL     1       1.779   4.168  34.597  1.00  0.00    -0.550 OA
ENDBRANCH   7   8
ENDBRANCH   6   7
ENDBRANCH   5   6
ENDBRANCH   4   5
ENDBRANCH   3   4
ENDBRANCH   2   3
ENDBRANCH   1   2
BRANCH   1  11
ATOM     11  C   UNL     1      -1.704   5.832  41.933  1.00  0.00     0.000 C 
BRANCH  11  12
ATOM     12  C   UNL     1      -1.596   7.253  41.347  1.00  0.00     0.000 C 
BRANCH  12  13
ATOM     13  C   UNL     1      -2.653   7.599  40.280  1.00  0.00     0.000 C 
BRANCH  13  14
ATOM     14  C   UNL     1      -2.187   8.601  39.206  1.00  0.00     0.000 C 
BRANCH  14  15
ATOM     15  C   UNL     1      -0.713   9.002  39.359  1.00  0.00     0.000 C 
BRANCH  15  16
ATOM     16  C   UNL     1      -0.344  10.125  38.381  1.00  0.00     0.006 C 
BRANCH  16  17
ATOM     17  C   UNL     1       0.472   9.583  37.205  1.00  0.00     0.053 C 
BRANCH  17  18
ATOM     18  C   UNL     1      -0.318   9.661  35.937  1.00  0.00     0.041 C 
ATOM     19  O   UNL     1      -1.575   9.739  35.977  1.00  0.00    -0.550 OA
ATOM     20  O   UNL     1       0.335   9.693  34.711  1.00  0.00    -0.550 OA
ENDBRANCH  17  18
ENDBRANCH  16  17
ENDBRANCH  15  16
ENDBRANCH  14  15
ENDBRANCH  13  14
ENDBRANCH  12  13
ENDBRANCH  11  12
ENDBRANCH   1  11
TORSDOF 15
ENDMDL
MODEL 9
REMARK VINA RESULT:    -2.371      1.718      2.529
REMARK INTER + INTRA:          -7.112
REMARK INTER:                  -4.979
REMARK INTRA:                  -2.133
REMARK UNBOUND:                -2.662
REMARK SMILES O=C([O-])CCCCCCCCCCCCCCC(=O)[O-]
REMARK SMILES IDX 10 1 9 2 8 3 7 4 6 5 5 6 4 7 2 8 1 9 3 10 11 11 12 12 13 13
REMARK SMILES IDX 14 14 15 15 16 16 17 17 18 18 19 19 20 20
REMARK H PARENT
REMARK Flexibility Score: inf
ROOT
ATOM      1  C   UNL     1      -1.106   9.564  36.437  1.00  0.00     0.000 C 
ENDROOT
BRANCH   1   2
ATOM      2  C   UNL     1      -1.866  10.109  37.659  1.00  0.00     0.000 C 
BRANCH   2   3
ATOM      3  C   UNL     1      -1.675   9.241  38.914  1.00  0.00     0.000 C 
BRANCH   3   4
ATOM      4  C   UNL     1      -1.534   7.746  38.581  1.00  0.00     0.000 C 
BRANCH   4   5
ATOM      5  C   UNL     1      -2.223   6.833  39.612  1.00  0.00     0.000 C 
BRANCH   5   6
ATOM      6  C   UNL     1      -2.626   7.521  40.929  1.00  0.00     0.006 C 
BRANCH   6   7
ATOM      7  C   UNL     1      -2.054   6.825  42.171  1.00  0.00     0.053 C 
BRANCH   7   8
ATOM      8  C   UNL     1      -0.681   7.340  42.473  1.00  0.00     0.041 C 
ATOM      9  O   UNL     1      -0.390   8.544  42.247  1.00  0.00    -0.550 OA
ATOM     10  O   UNL     1       0.287   6.483  42.980  1.00  0.00    -0.550 OA
ENDBRANCH   7   8
ENDBRANCH   6   7
ENDBRANCH   5   6
ENDBRANCH   4   5
ENDBRANCH   3   4
ENDBRANCH   2   3
ENDBRANCH   1   2
BRANCH   1  11
ATOM     11  C   UNL     1       0.329  10.125  36.340  1.00  0.00     0.000 C 
BRANCH  11  12
ATOM     12  C   UNL     1       1.421   9.038  36.315  1.00  0.00     0.000 C 
BRANCH  12  13
ATOM     13  C   UNL     1       2.464   9.137  37.443  1.00  0.00     0.000 C 
BRANCH  13  14
ATOM     14  C   UNL     1       1.877   9.303  38.858  1.00  0.00     0.000 C 
BRANCH  14  15
ATOM     15  C   UNL     1       1.847   7.989  39.652  1.00  0.00     0.000 C 
BRANCH  15  16
ATOM     16  C   UNL     1       2.315   6.812  38.787  1.00  0.00     0.006 C 
BRANCH  16  17
ATOM     17  C   UNL     1       1.522   5.543  39.109  1.00  0.00     0.053 C 
BRANCH  17  18
ATOM     18  C   UNL     1       0.943   4.955  37.861  1.00  0.00     0.041 C 
ATOM     19  O   UNL     1       0.481   5.705  36.961  1.00  0.00    -0.550 OA
ATOM     20  O   UNL     1       0.954   3.578  37.672  1.00  0.00    -0.550 OA
ENDBRANCH  17  18
ENDBRANCH  16  17
ENDBRANCH  15  16
ENDBRANCH  14  15
ENDBRANCH  13  14
ENDBRANCH  12  13
ENDBRANCH  11  12
ENDBRANCH   1  11
TORSDOF 15
ENDMDL
