MODEL 1
REMARK VINA RESULT:    -5.981      0.000      0.000
REMARK INTER + INTRA:          -7.393
REMARK INTER:                  -7.205
REMARK INTRA:                  -0.189
REMARK UNBOUND:                -0.189
REMARK SMILES O=c1c(O)c(-c2ccc(O)c(O)c2)oc2cc(O)cc(O)c12
REMARK SMILES IDX 5 1 3 2 2 3 1 4 22 5 20 6 19 7 17 8 16 9 15 10 14 11 6 12
REMARK SMILES IDX 7 13 8 14 9 15 13 16 11 17 10 18 12 20 4 22 21 24 18 26
REMARK H PARENT 10 19 12 21 4 23 21 25 18 27
REMARK Flexibility Score: inf
ROOT
ATOM      1  C   UNL     1       3.984   0.398  -8.180  1.00  0.00     0.180 A 
ATOM      2  C   UNL     1       4.509   0.666  -9.455  1.00  0.00     0.208 A 
ATOM      3  C   UNL     1       4.922  -0.407 -10.262  1.00  0.00     0.238 A 
ATOM      4  O   UNL     1       5.321  -0.165 -11.430  1.00  0.00    -0.285 OA
ATOM      5  C   UNL     1       4.860  -1.730  -9.761  1.00  0.00     0.111 A 
ATOM      6  C   UNL     1       5.293  -2.890 -10.472  1.00  0.00     0.134 A 
ATOM      7  C   UNL     1       5.083  -4.158  -9.918  1.00  0.00     0.093 A 
ATOM      8  C   UNL     1       4.516  -4.308  -8.653  1.00  0.00     0.123 A 
ATOM      9  C   UNL     1       4.139  -3.179  -7.925  1.00  0.00     0.094 A 
ATOM     10  C   UNL     1       4.299  -1.901  -8.467  1.00  0.00     0.146 A 
ATOM     11  O   UNL     1       3.907  -0.856  -7.750  1.00  0.00    -0.452 OA
ENDROOT
BRANCH   1  12
ATOM     12  C   UNL     1       3.514   1.474  -7.278  1.00  0.00     0.025 A 
ATOM     13  C   UNL     1       2.145   1.600  -7.008  1.00  0.00     0.016 A 
ATOM     14  C   UNL     1       1.679   2.621  -6.177  1.00  0.00     0.051 A 
ATOM     15  C   UNL     1       2.567   3.542  -5.612  1.00  0.00     0.157 A 
ATOM     16  C   UNL     1       4.407   2.411  -6.730  1.00  0.00     0.062 A 
ATOM     17  C   UNL     1       3.949   3.440  -5.897  1.00  0.00     0.158 A 
BRANCH  15  18
ATOM     18  O   UNL     1       2.038   4.534  -4.783  1.00  0.00    -0.504 OA
ATOM     19  H   UNL     1       2.597   5.212  -4.287  1.00  0.00     0.293 HD
ENDBRANCH  15  18
BRANCH  17  20
ATOM     20  O   UNL     1       4.892   4.335  -5.387  1.00  0.00    -0.504 OA
ATOM     21  H   UNL     1       5.759   4.566  -5.848  1.00  0.00     0.293 HD
ENDBRANCH  17  20
ENDBRANCH   1  12
BRANCH   2  22
ATOM     22  O   UNL     1       4.634   1.984  -9.903  1.00  0.00    -0.502 OA
ATOM     23  H   UNL     1       3.921   2.685  -9.740  1.00  0.00     0.293 HD
ENDBRANCH   2  22
BRANCH   6  24
ATOM     24  O   UNL     1       5.952  -2.851 -11.705  1.00  0.00    -0.507 OA
ATOM     25  H   UNL     1       6.159  -2.011 -12.223  1.00  0.00     0.293 HD
ENDBRANCH   6  24
BRANCH   8  26
ATOM     26  O   UNL     1       4.339  -5.585  -8.126  1.00  0.00    -0.508 OA
ATOM     27  H   UNL     1       3.489  -5.845  -7.642  1.00  0.00     0.293 HD
ENDBRANCH   8  26
TORSDOF 6
ENDMDL
MODEL 2
REMARK VINA RESULT:    -5.972      3.274      8.086
REMARK INTER + INTRA:          -7.382
REMARK INTER:                  -7.061
REMARK INTRA:                  -0.321
REMARK UNBOUND:                -0.189
REMARK SMILES O=c1c(O)c(-c2ccc(O)c(O)c2)oc2cc(O)cc(O)c12
REMARK SMILES IDX 5 1 3 2 2 3 1 4 22 5 20 6 19 7 17 8 16 9 15 10 14 11 6 12
REMARK SMILES IDX 7 13 8 14 9 15 13 16 11 17 10 18 12 20 4 22 21 24 18 26
REMARK H PARENT 10 19 12 21 4 23 21 25 18 27
REMARK Flexibility Score: inf
ROOT
ATOM      1  C   UNL     1       4.928  -4.957  -8.867  1.00  0.00     0.180 A 
ATOM      2  C   UNL     1       5.193  -3.715  -9.469  1.00  0.00     0.208 A 
ATOM      3  C   UNL     1       4.531  -2.572  -8.993  1.00  0.00     0.238 A 
ATOM      4  O   UNL     1       4.829  -1.454  -9.487  1.00  0.00    -0.285 OA
ATOM      5  C   UNL     1       3.571  -2.693  -7.960  1.00  0.00     0.111 A 
ATOM      6  C   UNL     1       2.807  -1.609  -7.429  1.00  0.00     0.134 A 
ATOM      7  C   UNL     1       1.963  -1.829  -6.334  1.00  0.00     0.093 A 
ATOM      8  C   UNL     1       1.805  -3.103  -5.791  1.00  0.00     0.123 A 
ATOM      9  C   UNL     1       2.505  -4.180  -6.335  1.00  0.00     0.094 A 
ATOM     10  C   UNL     1       3.384  -3.986  -7.403  1.00  0.00     0.146 A 
ATOM     11  O   UNL     1       4.046  -5.034  -7.877  1.00  0.00    -0.452 OA
ENDROOT
BRANCH   1  12
ATOM     12  C   UNL     1       5.596  -6.204  -9.304  1.00  0.00     0.025 A 
ATOM     13  C   UNL     1       4.919  -7.088 -10.155  1.00  0.00     0.016 A 
ATOM     14  C   UNL     1       5.523  -8.279 -10.563  1.00  0.00     0.051 A 
ATOM     15  C   UNL     1       6.805  -8.618 -10.117  1.00  0.00     0.157 A 
ATOM     16  C   UNL     1       6.875  -6.552  -8.836  1.00  0.00     0.062 A 
ATOM     17  C   UNL     1       7.487  -7.746  -9.237  1.00  0.00     0.158 A 
BRANCH  15  18
ATOM     18  O   UNL     1       7.355  -9.820 -10.568  1.00  0.00    -0.504 OA
ATOM     19  H   UNL     1       8.258 -10.169 -10.282  1.00  0.00     0.293 HD
ENDBRANCH  15  18
BRANCH  17  20
ATOM     20  O   UNL     1       8.760  -8.027  -8.735  1.00  0.00    -0.504 OA
ATOM     21  H   UNL     1       9.611  -7.929  -9.268  1.00  0.00     0.293 HD
ENDBRANCH  17  20
ENDBRANCH   1  12
BRANCH   2  22
ATOM     22  O   UNL     1       6.087  -3.628 -10.540  1.00  0.00    -0.502 OA
ATOM     23  H   UNL     1       7.091  -3.674 -10.416  1.00  0.00     0.293 HD
ENDBRANCH   2  22
BRANCH   6  24
ATOM     24  O   UNL     1       2.821  -0.312  -7.953  1.00  0.00    -0.507 OA
ATOM     25  H   UNL     1       2.268   0.457  -7.607  1.00  0.00     0.293 HD
ENDBRANCH   6  24
BRANCH   8  26
ATOM     26  O   UNL     1       0.943  -3.289  -4.712  1.00  0.00    -0.508 OA
ATOM     27  H   UNL     1       0.931  -4.154  -4.185  1.00  0.00     0.293 HD
ENDBRANCH   8  26
TORSDOF 6
ENDMDL
MODEL 3
REMARK VINA RESULT:    -5.922      3.208      7.067
REMARK INTER + INTRA:          -7.322
REMARK INTER:                  -7.016
REMARK INTRA:                  -0.306
REMARK UNBOUND:                -0.189
REMARK SMILES O=c1c(O)c(-c2ccc(O)c(O)c2)oc2cc(O)cc(O)c12
REMARK SMILES IDX 5 1 3 2 2 3 1 4 22 5 20 6 19 7 17 8 16 9 15 10 14 11 6 12
REMARK SMILES IDX 7 13 8 14 9 15 13 16 11 17 10 18 12 20 4 22 21 24 18 26
REMARK H PARENT 10 19 12 21 4 23 21 25 18 27
REMARK Flexibility Score: inf
ROOT
ATOM      1  C   UNL     1       2.432  -1.882  -7.657  1.00  0.00     0.180 A 
ATOM      2  C   UNL     1       2.663  -0.508  -7.478  1.00  0.00     0.208 A 
ATOM      3  C   UNL     1       1.626   0.300  -6.984  1.00  0.00     0.238 A 
ATOM      4  O   UNL     1       1.863   1.514  -6.756  1.00  0.00    -0.285 OA
ATOM      5  C   UNL     1       0.353  -0.266  -6.728  1.00  0.00     0.111 A 
ATOM      6  C   UNL     1      -0.784   0.465  -6.268  1.00  0.00     0.134 A 
ATOM      7  C   UNL     1      -1.962  -0.220  -5.947  1.00  0.00     0.093 A 
ATOM      8  C   UNL     1      -2.068  -1.598  -6.130  1.00  0.00     0.123 A 
ATOM      9  C   UNL     1      -0.981  -2.315  -6.631  1.00  0.00     0.094 A 
ATOM     10  C   UNL     1       0.221  -1.666  -6.924  1.00  0.00     0.146 A 
ATOM     11  O   UNL     1       1.237  -2.390  -7.378  1.00  0.00    -0.452 OA
ENDROOT
BRANCH   1  12
ATOM     12  C   UNL     1       3.479  -2.800  -8.161  1.00  0.00     0.025 A 
ATOM     13  C   UNL     1       4.249  -3.534  -7.250  1.00  0.00     0.016 A 
ATOM     14  C   UNL     1       5.255  -4.390  -7.703  1.00  0.00     0.051 A 
ATOM     15  C   UNL     1       5.522  -4.517  -9.071  1.00  0.00     0.157 A 
ATOM     16  C   UNL     1       3.758  -2.907  -9.534  1.00  0.00     0.062 A 
ATOM     17  C   UNL     1       4.767  -3.760  -9.998  1.00  0.00     0.158 A 
BRANCH  15  18
ATOM     18  O   UNL     1       6.536  -5.394  -9.459  1.00  0.00    -0.504 OA
ATOM     19  H   UNL     1       6.590  -6.359  -9.166  1.00  0.00     0.293 HD
ENDBRANCH  15  18
BRANCH  17  20
ATOM     20  O   UNL     1       4.990  -3.819 -11.376  1.00  0.00    -0.504 OA
ATOM     21  H   UNL     1       5.884  -3.648 -11.811  1.00  0.00     0.293 HD
ENDBRANCH  17  20
ENDBRANCH   1  12
BRANCH   2  22
ATOM     22  O   UNL     1       3.903   0.046  -7.809  1.00  0.00    -0.502 OA
ATOM     23  H   UNL     1       3.996   0.963  -8.229  1.00  0.00     0.293 HD
ENDBRANCH   2  22
BRANCH   6  24
ATOM     24  O   UNL     1      -0.817   1.857  -6.133  1.00  0.00    -0.507 OA
ATOM     25  H   UNL     1      -0.049   2.476  -6.340  1.00  0.00     0.293 HD
ENDBRANCH   6  24
BRANCH   8  26
ATOM     26  O   UNL     1      -3.262  -2.243  -5.818  1.00  0.00    -0.508 OA
ATOM     27  H   UNL     1      -3.292  -3.012  -5.159  1.00  0.00     0.293 HD
ENDBRANCH   8  26
TORSDOF 6
ENDMDL
MODEL 4
REMARK VINA RESULT:    -5.916      7.161      9.463
REMARK INTER + INTRA:          -7.315
REMARK INTER:                  -6.994
REMARK INTRA:                  -0.321
REMARK UNBOUND:                -0.189
REMARK SMILES O=c1c(O)c(-c2ccc(O)c(O)c2)oc2cc(O)cc(O)c12
REMARK SMILES IDX 5 1 3 2 2 3 1 4 22 5 20 6 19 7 17 8 16 9 15 10 14 11 6 12
REMARK SMILES IDX 7 13 8 14 9 15 13 16 11 17 10 18 12 20 4 22 21 24 18 26
REMARK H PARENT 10 19 12 21 4 23 21 25 18 27
REMARK Flexibility Score: inf
ROOT
ATOM      1  C   UNL     1       2.587  -7.570  -9.876  1.00  0.00     0.180 A 
ATOM      2  C   UNL     1       1.795  -6.942 -10.851  1.00  0.00     0.208 A 
ATOM      3  C   UNL     1       0.399  -7.088 -10.793  1.00  0.00     0.238 A 
ATOM      4  O   UNL     1      -0.308  -6.461 -11.624  1.00  0.00    -0.285 OA
ATOM      5  C   UNL     1      -0.183  -7.908  -9.796  1.00  0.00     0.111 A 
ATOM      6  C   UNL     1      -1.582  -8.164  -9.670  1.00  0.00     0.134 A 
ATOM      7  C   UNL     1      -2.052  -8.905  -8.579  1.00  0.00     0.093 A 
ATOM      8  C   UNL     1      -1.173  -9.454  -7.647  1.00  0.00     0.123 A 
ATOM      9  C   UNL     1       0.201  -9.256  -7.790  1.00  0.00     0.094 A 
ATOM     10  C   UNL     1       0.699  -8.488  -8.846  1.00  0.00     0.146 A 
ATOM     11  O   UNL     1       2.010  -8.306  -8.933  1.00  0.00    -0.452 OA
ENDROOT
BRANCH   1  12
ATOM     12  C   UNL     1       4.063  -7.452  -9.862  1.00  0.00     0.025 A 
ATOM     13  C   UNL     1       4.844  -8.490 -10.386  1.00  0.00     0.016 A 
ATOM     14  C   UNL     1       6.237  -8.407 -10.364  1.00  0.00     0.051 A 
ATOM     15  C   UNL     1       6.878  -7.296  -9.806  1.00  0.00     0.157 A 
ATOM     16  C   UNL     1       4.702  -6.344  -9.280  1.00  0.00     0.062 A 
ATOM     17  C   UNL     1       6.100  -6.253  -9.250  1.00  0.00     0.158 A 
BRANCH  15  18
ATOM     18  O   UNL     1       8.274  -7.271  -9.822  1.00  0.00    -0.504 OA
ATOM     19  H   UNL     1       8.825  -6.430  -9.727  1.00  0.00     0.293 HD
ENDBRANCH  15  18
BRANCH  17  20
ATOM     20  O   UNL     1       6.668  -5.123  -8.658  1.00  0.00    -0.504 OA
ATOM     21  H   UNL     1       7.486  -4.651  -9.013  1.00  0.00     0.293 HD
ENDBRANCH  17  20
ENDBRANCH   1  12
BRANCH   2  22
ATOM     22  O   UNL     1       2.393  -6.199 -11.873  1.00  0.00    -0.502 OA
ATOM     23  H   UNL     1       2.673  -5.233 -11.752  1.00  0.00     0.293 HD
ENDBRANCH   2  22
BRANCH   6  24
ATOM     24  O   UNL     1      -2.542  -7.739 -10.593  1.00  0.00    -0.507 OA
ATOM     25  H   UNL     1      -2.744  -8.196 -11.469  1.00  0.00     0.293 HD
ENDBRANCH   6  24
BRANCH   8  26
ATOM     26  O   UNL     1      -1.675 -10.201  -6.584  1.00  0.00    -0.508 OA
ATOM     27  H   UNL     1      -1.339 -11.136  -6.387  1.00  0.00     0.293 HD
ENDBRANCH   8  26
TORSDOF 6
ENDMDL
MODEL 5
REMARK VINA RESULT:    -5.883      5.334      8.682
REMARK INTER + INTRA:          -7.276
REMARK INTER:                  -6.954
REMARK INTRA:                  -0.322
REMARK UNBOUND:                -0.189
REMARK SMILES O=c1c(O)c(-c2ccc(O)c(O)c2)oc2cc(O)cc(O)c12
REMARK SMILES IDX 5 1 3 2 2 3 1 4 22 5 20 6 19 7 17 8 16 9 15 10 14 11 6 12
REMARK SMILES IDX 7 13 8 14 9 15 13 16 11 17 10 18 12 20 4 22 21 24 18 26
REMARK H PARENT 10 19 12 21 4 23 21 25 18 27
REMARK Flexibility Score: inf
ROOT
ATOM      1  C   UNL     1       1.583  -5.339 -12.294  1.00  0.00     0.180 A 
ATOM      2  C   UNL     1       2.481  -6.411 -12.430  1.00  0.00     0.208 A 
ATOM      3  C   UNL     1       3.574  -6.500 -11.553  1.00  0.00     0.238 A 
ATOM      4  O   UNL     1       4.331  -7.501 -11.631  1.00  0.00    -0.285 OA
ATOM      5  C   UNL     1       3.789  -5.484 -10.590  1.00  0.00     0.111 A 
ATOM      6  C   UNL     1       4.888  -5.446  -9.679  1.00  0.00     0.134 A 
ATOM      7  C   UNL     1       4.939  -4.449  -8.698  1.00  0.00     0.093 A 
ATOM      8  C   UNL     1       3.968  -3.451  -8.634  1.00  0.00     0.123 A 
ATOM      9  C   UNL     1       2.918  -3.446  -9.553  1.00  0.00     0.094 A 
ATOM     10  C   UNL     1       2.818  -4.450 -10.519  1.00  0.00     0.146 A 
ATOM     11  O   UNL     1       1.792  -4.420 -11.360  1.00  0.00    -0.452 OA
ENDROOT
BRANCH   1  12
ATOM     12  C   UNL     1       0.400  -5.186 -13.171  1.00  0.00     0.025 A 
ATOM     13  C   UNL     1      -0.821  -5.760 -12.791  1.00  0.00     0.016 A 
ATOM     14  C   UNL     1      -1.943  -5.643 -13.613  1.00  0.00     0.051 A 
ATOM     15  C   UNL     1      -1.866  -4.968 -14.836  1.00  0.00     0.157 A 
ATOM     16  C   UNL     1       0.487  -4.526 -14.409  1.00  0.00     0.062 A 
ATOM     17  C   UNL     1      -0.633  -4.407 -15.242  1.00  0.00     0.158 A 
BRANCH  15  18
ATOM     18  O   UNL     1      -3.027  -4.882 -15.607  1.00  0.00    -0.504 OA
ATOM     19  H   UNL     1      -3.349  -4.033 -16.049  1.00  0.00     0.293 HD
ENDBRANCH  15  18
BRANCH  17  20
ATOM     20  O   UNL     1      -0.474  -3.737 -16.457  1.00  0.00    -0.504 OA
ATOM     21  H   UNL     1       0.223  -3.026 -16.623  1.00  0.00     0.293 HD
ENDBRANCH  17  20
ENDBRANCH   1  12
BRANCH   2  22
ATOM     22  O   UNL     1       2.295  -7.363 -13.437  1.00  0.00    -0.502 OA
ATOM     23  H   UNL     1       1.782  -8.223 -13.285  1.00  0.00     0.293 HD
ENDBRANCH   2  22
BRANCH   6  24
ATOM     24  O   UNL     1       5.961  -6.343  -9.711  1.00  0.00    -0.507 OA
ATOM     25  H   UNL     1       6.628  -6.472  -8.966  1.00  0.00     0.293 HD
ENDBRANCH   6  24
BRANCH   8  26
ATOM     26  O   UNL     1       4.060  -2.463  -7.656  1.00  0.00    -0.508 OA
ATOM     27  H   UNL     1       4.349  -2.680  -6.709  1.00  0.00     0.293 HD
ENDBRANCH   8  26
TORSDOF 6
ENDMDL
MODEL 6
REMARK VINA RESULT:    -5.871      2.750      4.743
REMARK INTER + INTRA:          -7.261
REMARK INTER:                  -6.931
REMARK INTRA:                  -0.330
REMARK UNBOUND:                -0.189
REMARK SMILES O=c1c(O)c(-c2ccc(O)c(O)c2)oc2cc(O)cc(O)c12
REMARK SMILES IDX 5 1 3 2 2 3 1 4 22 5 20 6 19 7 17 8 16 9 15 10 14 11 6 12
REMARK SMILES IDX 7 13 8 14 9 15 13 16 11 17 10 18 12 20 4 22 21 24 18 26
REMARK H PARENT 10 19 12 21 4 23 21 25 18 27
REMARK Flexibility Score: inf
ROOT
ATOM      1  C   UNL     1       3.586  -3.672  -8.770  1.00  0.00     0.180 A 
ATOM      2  C   UNL     1       4.619  -4.455  -8.227  1.00  0.00     0.208 A 
ATOM      3  C   UNL     1       4.955  -5.669  -8.848  1.00  0.00     0.238 A 
ATOM      4  O   UNL     1       5.929  -6.326  -8.401  1.00  0.00    -0.285 OA
ATOM      5  C   UNL     1       4.214  -6.113  -9.970  1.00  0.00     0.111 A 
ATOM      6  C   UNL     1       4.436  -7.348 -10.653  1.00  0.00     0.134 A 
ATOM      7  C   UNL     1       3.712  -7.634 -11.817  1.00  0.00     0.093 A 
ATOM      8  C   UNL     1       2.731  -6.762 -12.287  1.00  0.00     0.123 A 
ATOM      9  C   UNL     1       2.467  -5.578 -11.598  1.00  0.00     0.094 A 
ATOM     10  C   UNL     1       3.200  -5.246 -10.456  1.00  0.00     0.146 A 
ATOM     11  O   UNL     1       2.932  -4.101  -9.843  1.00  0.00    -0.452 OA
ENDROOT
BRANCH   1  12
ATOM     12  C   UNL     1       3.185  -2.375  -8.180  1.00  0.00     0.025 A 
ATOM     13  C   UNL     1       2.095  -2.324  -7.301  1.00  0.00     0.016 A 
ATOM     14  C   UNL     1       1.688  -1.108  -6.749  1.00  0.00     0.051 A 
ATOM     15  C   UNL     1       2.349   0.081  -7.075  1.00  0.00     0.157 A 
ATOM     16  C   UNL     1       3.838  -1.180  -8.528  1.00  0.00     0.062 A 
ATOM     17  C   UNL     1       3.435   0.045  -7.982  1.00  0.00     0.158 A 
BRANCH  15  18
ATOM     18  O   UNL     1       1.897   1.262  -6.484  1.00  0.00    -0.504 OA
ATOM     19  H   UNL     1       1.890   1.428  -5.488  1.00  0.00     0.293 HD
ENDBRANCH  15  18
BRANCH  17  20
ATOM     20  O   UNL     1       4.129   1.193  -8.370  1.00  0.00    -0.504 OA
ATOM     21  H   UNL     1       4.323   1.438  -9.330  1.00  0.00     0.293 HD
ENDBRANCH  17  20
ENDBRANCH   1  12
BRANCH   2  22
ATOM     22  O   UNL     1       5.288  -4.035  -7.073  1.00  0.00    -0.502 OA
ATOM     23  H   UNL     1       4.805  -3.837  -6.205  1.00  0.00     0.293 HD
ENDBRANCH   2  22
BRANCH   6  24
ATOM     24  O   UNL     1       5.329  -8.332 -10.219  1.00  0.00    -0.507 OA
ATOM     25  H   UNL     1       5.472  -8.600  -9.258  1.00  0.00     0.293 HD
ENDBRANCH   6  24
BRANCH   8  26
ATOM     26  O   UNL     1       2.018  -7.088 -13.439  1.00  0.00    -0.508 OA
ATOM     27  H   UNL     1       2.304  -7.849 -14.043  1.00  0.00     0.293 HD
ENDBRANCH   8  26
TORSDOF 6
ENDMDL
MODEL 7
REMARK VINA RESULT:    -5.804      5.847      8.297
REMARK INTER + INTRA:          -7.180
REMARK INTER:                  -6.849
REMARK INTRA:                  -0.331
REMARK UNBOUND:                -0.189
REMARK SMILES O=c1c(O)c(-c2ccc(O)c(O)c2)oc2cc(O)cc(O)c12
REMARK SMILES IDX 5 1 3 2 2 3 1 4 22 5 20 6 19 7 17 8 16 9 15 10 14 11 6 12
REMARK SMILES IDX 7 13 8 14 9 15 13 16 11 17 10 18 12 20 4 22 21 24 18 26
REMARK H PARENT 10 19 12 21 4 23 21 25 18 27
REMARK Flexibility Score: inf
ROOT
ATOM      1  C   UNL     1       2.214  -5.575 -11.470  1.00  0.00     0.180 A 
ATOM      2  C   UNL     1       2.727  -4.458 -10.790  1.00  0.00     0.208 A 
ATOM      3  C   UNL     1       3.966  -4.565 -10.138  1.00  0.00     0.238 A 
ATOM      4  O   UNL     1       4.453  -3.540  -9.596  1.00  0.00    -0.285 OA
ATOM      5  C   UNL     1       4.650  -5.805 -10.125  1.00  0.00     0.111 A 
ATOM      6  C   UNL     1       5.891  -6.041  -9.459  1.00  0.00     0.134 A 
ATOM      7  C   UNL     1       6.528  -7.279  -9.605  1.00  0.00     0.093 A 
ATOM      8  C   UNL     1       5.942  -8.310 -10.338  1.00  0.00     0.123 A 
ATOM      9  C   UNL     1       4.703  -8.108 -10.948  1.00  0.00     0.094 A 
ATOM     10  C   UNL     1       4.061  -6.871 -10.854  1.00  0.00     0.146 A 
ATOM     11  O   UNL     1       2.895  -6.716 -11.467  1.00  0.00    -0.452 OA
ENDROOT
BRANCH   1  12
ATOM     12  C   UNL     1       0.922  -5.536 -12.191  1.00  0.00     0.025 A 
ATOM     13  C   UNL     1      -0.248  -5.940 -11.534  1.00  0.00     0.016 A 
ATOM     14  C   UNL     1      -1.473  -5.930 -12.203  1.00  0.00     0.051 A 
ATOM     15  C   UNL     1      -1.553  -5.532 -13.542  1.00  0.00     0.157 A 
ATOM     16  C   UNL     1       0.850  -5.158 -13.543  1.00  0.00     0.062 A 
ATOM     17  C   UNL     1      -0.375  -5.147 -14.223  1.00  0.00     0.158 A 
BRANCH  15  18
ATOM     18  O   UNL     1      -2.810  -5.538 -14.150  1.00  0.00    -0.504 OA
ATOM     19  H   UNL     1      -3.652  -5.195 -13.710  1.00  0.00     0.293 HD
ENDBRANCH  15  18
BRANCH  17  20
ATOM     20  O   UNL     1      -0.373  -4.759 -15.564  1.00  0.00    -0.504 OA
ATOM     21  H   UNL     1      -0.489  -5.397 -16.337  1.00  0.00     0.293 HD
ENDBRANCH  17  20
ENDBRANCH   1  12
BRANCH   2  22
ATOM     22  O   UNL     1       2.000  -3.264 -10.749  1.00  0.00    -0.502 OA
ATOM     23  H   UNL     1       2.290  -2.433 -11.248  1.00  0.00     0.293 HD
ENDBRANCH   2  22
BRANCH   6  24
ATOM     24  O   UNL     1       6.522  -5.111  -8.628  1.00  0.00    -0.507 OA
ATOM     25  H   UNL     1       6.054  -4.374  -8.124  1.00  0.00     0.293 HD
ENDBRANCH   6  24
BRANCH   8  26
ATOM     26  O   UNL     1       6.596  -9.535 -10.446  1.00  0.00    -0.508 OA
ATOM     27  H   UNL     1       6.084 -10.405 -10.525  1.00  0.00     0.293 HD
ENDBRANCH   8  26
TORSDOF 6
ENDMDL
MODEL 8
REMARK VINA RESULT:    -5.678      3.134      4.953
REMARK INTER + INTRA:          -7.029
REMARK INTER:                  -6.789
REMARK INTRA:                  -0.240
REMARK UNBOUND:                -0.189
REMARK SMILES O=c1c(O)c(-c2ccc(O)c(O)c2)oc2cc(O)cc(O)c12
REMARK SMILES IDX 5 1 3 2 2 3 1 4 22 5 20 6 19 7 17 8 16 9 15 10 14 11 6 12
REMARK SMILES IDX 7 13 8 14 9 15 13 16 11 17 10 18 12 20 4 22 21 24 18 26
REMARK H PARENT 10 19 12 21 4 23 21 25 18 27
REMARK Flexibility Score: inf
ROOT
ATOM      1  C   UNL     1       3.289  -3.650  -8.546  1.00  0.00     0.180 A 
ATOM      2  C   UNL     1       4.422  -4.235  -7.957  1.00  0.00     0.208 A 
ATOM      3  C   UNL     1       4.974  -5.390  -8.537  1.00  0.00     0.238 A 
ATOM      4  O   UNL     1       6.031  -5.864  -8.048  1.00  0.00    -0.285 OA
ATOM      5  C   UNL     1       4.350  -5.978  -9.664  1.00  0.00     0.111 A 
ATOM      6  C   UNL     1       4.795  -7.173 -10.307  1.00  0.00     0.134 A 
ATOM      7  C   UNL     1       4.162  -7.603 -11.480  1.00  0.00     0.093 A 
ATOM      8  C   UNL     1       3.063  -6.920 -11.998  1.00  0.00     0.123 A 
ATOM      9  C   UNL     1       2.585  -5.781 -11.348  1.00  0.00     0.094 A 
ATOM     10  C   UNL     1       3.219  -5.305 -10.197  1.00  0.00     0.146 A 
ATOM     11  O   UNL     1       2.746  -4.207  -9.623  1.00  0.00    -0.452 OA
ENDROOT
BRANCH   1  12
ATOM     12  C   UNL     1       2.660  -2.426  -8.002  1.00  0.00     0.025 A 
ATOM     13  C   UNL     1       3.308  -1.192  -8.148  1.00  0.00     0.016 A 
ATOM     14  C   UNL     1       2.742  -0.029  -7.625  1.00  0.00     0.051 A 
ATOM     15  C   UNL     1       1.527  -0.075  -6.932  1.00  0.00     0.157 A 
ATOM     16  C   UNL     1       1.451  -2.480  -7.287  1.00  0.00     0.062 A 
ATOM     17  C   UNL     1       0.876  -1.319  -6.755  1.00  0.00     0.158 A 
BRANCH  15  18
ATOM     18  O   UNL     1       1.011   1.125  -6.439  1.00  0.00    -0.504 OA
ATOM     19  H   UNL     1       0.127   1.204  -5.958  1.00  0.00     0.293 HD
ENDBRANCH  15  18
BRANCH  17  20
ATOM     20  O   UNL     1      -0.327  -1.446  -6.058  1.00  0.00    -0.504 OA
ATOM     21  H   UNL     1      -0.813  -0.675  -5.625  1.00  0.00     0.293 HD
ENDBRANCH  17  20
ENDBRANCH   1  12
BRANCH   2  22
ATOM     22  O   UNL     1       4.978  -3.683  -6.799  1.00  0.00    -0.502 OA
ATOM     23  H   UNL     1       5.935  -3.355  -6.758  1.00  0.00     0.293 HD
ENDBRANCH   2  22
BRANCH   6  24
ATOM     24  O   UNL     1       5.828  -7.983  -9.825  1.00  0.00    -0.507 OA
ATOM     25  H   UNL     1       5.973  -8.220  -8.856  1.00  0.00     0.293 HD
ENDBRANCH   6  24
BRANCH   8  26
ATOM     26  O   UNL     1       2.447  -7.387 -13.157  1.00  0.00    -0.508 OA
ATOM     27  H   UNL     1       2.505  -6.877 -14.030  1.00  0.00     0.293 HD
ENDBRANCH   8  26
TORSDOF 6
ENDMDL
MODEL 9
REMARK VINA RESULT:    -5.623      2.473      7.412
REMARK INTER + INTRA:          -6.962
REMARK INTER:                  -6.632
REMARK INTRA:                  -0.330
REMARK UNBOUND:                -0.189
REMARK SMILES O=c1c(O)c(-c2ccc(O)c(O)c2)oc2cc(O)cc(O)c12
REMARK SMILES IDX 5 1 3 2 2 3 1 4 22 5 20 6 19 7 17 8 16 9 15 10 14 11 6 12
REMARK SMILES IDX 7 13 8 14 9 15 13 16 11 17 10 18 12 20 4 22 21 24 18 26
REMARK H PARENT 10 19 12 21 4 23 21 25 18 27
REMARK Flexibility Score: inf
ROOT
ATOM      1  C   UNL     1       2.408  -1.828  -7.646  1.00  0.00     0.180 A 
ATOM      2  C   UNL     1       1.074  -2.234  -7.478  1.00  0.00     0.208 A 
ATOM      3  C   UNL     1       0.117  -1.286  -7.080  1.00  0.00     0.238 A 
ATOM      4  O   UNL     1      -1.087  -1.640  -7.004  1.00  0.00    -0.285 OA
ATOM      5  C   UNL     1       0.518   0.043  -6.798  1.00  0.00     0.111 A 
ATOM      6  C   UNL     1      -0.358   1.076  -6.344  1.00  0.00     0.134 A 
ATOM      7  C   UNL     1       0.130   2.381  -6.201  1.00  0.00     0.093 A 
ATOM      8  C   UNL     1       1.472   2.678  -6.432  1.00  0.00     0.123 A 
ATOM      9  C   UNL     1       2.349   1.665  -6.824  1.00  0.00     0.094 A 
ATOM     10  C   UNL     1       1.884   0.361  -7.013  1.00  0.00     0.146 A 
ATOM     11  O   UNL     1       2.747  -0.567  -7.406  1.00  0.00    -0.452 OA
ENDROOT
BRANCH   1  12
ATOM     12  C   UNL     1       3.470  -2.766  -8.077  1.00  0.00     0.025 A 
ATOM     13  C   UNL     1       4.210  -3.461  -7.111  1.00  0.00     0.016 A 
ATOM     14  C   UNL     1       5.229  -4.335  -7.496  1.00  0.00     0.051 A 
ATOM     15  C   UNL     1       5.540  -4.519  -8.847  1.00  0.00     0.157 A 
ATOM     16  C   UNL     1       3.794  -2.931  -9.434  1.00  0.00     0.062 A 
ATOM     17  C   UNL     1       4.817  -3.802  -9.829  1.00  0.00     0.158 A 
BRANCH  15  18
ATOM     18  O   UNL     1       6.566  -5.412  -9.165  1.00  0.00    -0.504 OA
ATOM     19  H   UNL     1       7.050  -5.423 -10.050  1.00  0.00     0.293 HD
ENDBRANCH  15  18
BRANCH  17  20
ATOM     20  O   UNL     1       5.084  -3.919 -11.195  1.00  0.00    -0.504 OA
ATOM     21  H   UNL     1       5.802  -4.513 -11.581  1.00  0.00     0.293 HD
ENDBRANCH  17  20
ENDBRANCH   1  12
BRANCH   2  22
ATOM     22  O   UNL     1       0.712  -3.569  -7.686  1.00  0.00    -0.502 OA
ATOM     23  H   UNL     1      -0.076  -3.999  -7.218  1.00  0.00     0.293 HD
ENDBRANCH   2  22
BRANCH   6  24
ATOM     24  O   UNL     1      -1.697   0.871  -5.999  1.00  0.00    -0.507 OA
ATOM     25  H   UNL     1      -2.425   1.564  -6.072  1.00  0.00     0.293 HD
ENDBRANCH   6  24
BRANCH   8  26
ATOM     26  O   UNL     1       1.926   3.984  -6.263  1.00  0.00    -0.508 OA
ATOM     27  H   UNL     1       2.367   4.494  -7.018  1.00  0.00     0.293 HD
ENDBRANCH   8  26
TORSDOF 6
ENDMDL
