MODEL 1
REMARK VINA RESULT:    -2.034      0.000      0.000
REMARK INTER + INTRA:          -3.655
REMARK INTER:                  -3.223
REMARK INTRA:                  -0.431
REMARK UNBOUND:                -0.431
REMARK SMILES CCCCCCCCCCCC(=O)[O-]
REMARK SMILES IDX 7 1 8 2 9 3 10 4 11 5 12 6 13 7 14 8 6 9 5 10 4 11 3 12 2 13
REMARK SMILES IDX 1 14
REMARK H PARENT
REMARK Flexibility Score: inf
ROOT
ATOM      1  C   UNL     1      -4.618  35.547  20.032  1.00  0.00     0.000 C 
ENDROOT
BRANCH   1   2
ATOM      2  C   UNL     1      -5.495  34.663  19.129  1.00  0.00     0.000 C 
BRANCH   2   3
ATOM      3  C   UNL     1      -4.798  34.291  17.810  1.00  0.00     0.000 C 
BRANCH   3   4
ATOM      4  C   UNL     1      -4.184  35.507  17.099  1.00  0.00     0.006 C 
BRANCH   4   5
ATOM      5  C   UNL     1      -3.175  35.065  16.035  1.00  0.00     0.053 C 
BRANCH   5   6
ATOM      6  C   UNL     1      -3.112  36.067  14.926  1.00  0.00     0.041 C 
ATOM      7  O   UNL     1      -4.103  36.804  14.680  1.00  0.00    -0.550 OA
ATOM      8  O   UNL     1      -1.977  36.151  14.129  1.00  0.00    -0.550 OA
ENDBRANCH   5   6
ENDBRANCH   4   5
ENDBRANCH   3   4
ENDBRANCH   2   3
ENDBRANCH   1   2
BRANCH   1   9
ATOM      9  C   UNL     1      -5.400  36.699  20.687  1.00  0.00     0.000 C 
BRANCH   9  10
ATOM     10  C   UNL     1      -6.018  36.372  22.060  1.00  0.00    -0.000 C 
BRANCH  10  11
ATOM     11  C   UNL     1      -5.715  34.942  22.529  1.00  0.00    -0.000 C 
BRANCH  11  12
ATOM     12  C   UNL     1      -5.699  34.857  24.060  1.00  0.00    -0.000 C 
BRANCH  12  13
ATOM     13  C   UNL     1      -6.043  36.211  24.691  1.00  0.00    -0.003 C 
ATOM     14  C   UNL     1      -4.953  36.660  25.659  1.00  0.00     0.004 C 
ENDBRANCH  12  13
ENDBRANCH  11  12
ENDBRANCH  10  11
ENDBRANCH   9  10
ENDBRANCH   1   9
TORSDOF 10
ENDMDL
MODEL 2
REMARK VINA RESULT:    -1.852      4.482      8.049
REMARK INTER + INTRA:          -3.365
REMARK INTER:                  -2.898
REMARK INTRA:                  -0.467
REMARK UNBOUND:                -0.431
REMARK SMILES CCCCCCCCCCCC(=O)[O-]
REMARK SMILES IDX 7 1 8 2 9 3 10 4 11 5 12 6 13 7 14 8 6 9 5 10 4 11 3 12 2 13
REMARK SMILES IDX 1 14
REMARK H PARENT
REMARK Flexibility Score: inf
ROOT
ATOM      1  C   UNL     1      -5.045  36.348  19.193  1.00  0.00     0.000 C 
ENDROOT
BRANCH   1   2
ATOM      2  C   UNL     1      -5.500  36.605  20.640  1.00  0.00     0.000 C 
BRANCH   2   3
ATOM      3  C   UNL     1      -4.946  35.563  21.626  1.00  0.00     0.000 C 
BRANCH   3   4
ATOM      4  C   UNL     1      -5.931  35.236  22.760  1.00  0.00     0.006 C 
BRANCH   4   5
ATOM      5  C   UNL     1      -6.119  36.443  23.684  1.00  0.00     0.053 C 
BRANCH   5   6
ATOM      6  C   UNL     1      -5.735  36.092  25.087  1.00  0.00     0.041 C 
ATOM      7  O   UNL     1      -6.125  35.011  25.600  1.00  0.00    -0.550 OA
ATOM      8  O   UNL     1      -4.986  36.984  25.845  1.00  0.00    -0.550 OA
ENDBRANCH   5   6
ENDBRANCH   4   5
ENDBRANCH   3   4
ENDBRANCH   2   3
ENDBRANCH   1   2
BRANCH   1   9
ATOM      9  C   UNL     1      -4.894  34.851  18.867  1.00  0.00     0.000 C 
BRANCH   9  10
ATOM     10  C   UNL     1      -4.487  34.537  17.416  1.00  0.00    -0.000 C 
BRANCH  10  11
ATOM     11  C   UNL     1      -3.938  35.760  16.667  1.00  0.00    -0.000 C 
BRANCH  11  12
ATOM     12  C   UNL     1      -2.663  35.406  15.892  1.00  0.00    -0.000 C 
BRANCH  12  13
ATOM     13  C   UNL     1      -2.717  35.956  14.463  1.00  0.00    -0.003 C 
ATOM     14  C   UNL     1      -3.938  36.848  14.261  1.00  0.00     0.004 C 
ENDBRANCH  12  13
ENDBRANCH  11  12
ENDBRANCH  10  11
ENDBRANCH   9  10
ENDBRANCH   1   9
TORSDOF 10
ENDMDL
MODEL 3
REMARK VINA RESULT:    -1.815      3.901      7.622
REMARK INTER + INTRA:          -3.307
REMARK INTER:                  -3.218
REMARK INTRA:                  -0.089
REMARK UNBOUND:                -0.431
REMARK SMILES CCCCCCCCCCCC(=O)[O-]
REMARK SMILES IDX 7 1 8 2 9 3 10 4 11 5 12 6 13 7 14 8 6 9 5 10 4 11 3 12 2 13
REMARK SMILES IDX 1 14
REMARK H PARENT
REMARK Flexibility Score: inf
ROOT
ATOM      1  C   UNL     1      -4.628  35.007  19.303  1.00  0.00     0.000 C 
ENDROOT
BRANCH   1   2
ATOM      2  C   UNL     1      -5.604  36.193  19.386  1.00  0.00     0.000 C 
BRANCH   2   3
ATOM      3  C   UNL     1      -5.094  37.313  20.308  1.00  0.00     0.000 C 
BRANCH   3   4
ATOM      4  C   UNL     1      -5.371  37.031  21.793  1.00  0.00     0.006 C 
BRANCH   4   5
ATOM      5  C   UNL     1      -6.125  35.709  21.967  1.00  0.00     0.053 C 
BRANCH   5   6
ATOM      6  C   UNL     1      -5.958  35.191  23.361  1.00  0.00     0.041 C 
ATOM      7  O   UNL     1      -6.124  35.956  24.346  1.00  0.00    -0.550 OA
ATOM      8  O   UNL     1      -5.569  33.874  23.570  1.00  0.00    -0.550 OA
ENDBRANCH   5   6
ENDBRANCH   4   5
ENDBRANCH   3   4
ENDBRANCH   2   3
ENDBRANCH   1   2
BRANCH   1   9
ATOM      9  C   UNL     1      -4.469  34.459  17.873  1.00  0.00     0.000 C 
BRANCH   9  10
ATOM     10  C   UNL     1      -4.140  35.515  16.802  1.00  0.00    -0.000 C 
BRANCH  10  11
ATOM     11  C   UNL     1      -2.942  35.126  15.923  1.00  0.00    -0.000 C 
BRANCH  11  12
ATOM     12  C   UNL     1      -2.713  36.160  14.814  1.00  0.00    -0.000 C 
BRANCH  12  13
ATOM     13  C   UNL     1      -4.044  36.627  14.214  1.00  0.00    -0.003 C 
ATOM     14  C   UNL     1      -4.181  38.145  14.291  1.00  0.00     0.004 C 
ENDBRANCH  12  13
ENDBRANCH  11  12
ENDBRANCH  10  11
ENDBRANCH   9  10
ENDBRANCH   1   9
TORSDOF 10
ENDMDL
MODEL 4
REMARK VINA RESULT:    -1.293      2.182      3.879
REMARK INTER + INTRA:          -2.480
REMARK INTER:                  -2.104
REMARK INTRA:                  -0.376
REMARK UNBOUND:                -0.431
REMARK SMILES CCCCCCCCCCCC(=O)[O-]
REMARK SMILES IDX 7 1 8 2 9 3 10 4 11 5 12 6 13 7 14 8 6 9 5 10 4 11 3 12 2 13
REMARK SMILES IDX 1 14
REMARK H PARENT
REMARK Flexibility Score: inf
ROOT
ATOM      1  C   UNL     1      -5.415  34.649  23.825  1.00  0.00     0.000 C 
ENDROOT
BRANCH   1   2
ATOM      2  C   UNL     1      -6.118  34.674  22.457  1.00  0.00     0.000 C 
BRANCH   2   3
ATOM      3  C   UNL     1      -5.151  34.983  21.302  1.00  0.00     0.000 C 
BRANCH   3   4
ATOM      4  C   UNL     1      -5.876  35.437  20.026  1.00  0.00     0.006 C 
BRANCH   4   5
ATOM      5  C   UNL     1      -4.876  35.928  18.975  1.00  0.00     0.053 C 
BRANCH   5   6
ATOM      6  C   UNL     1      -4.651  34.876  17.935  1.00  0.00     0.041 C 
ATOM      7  O   UNL     1      -5.212  33.753  18.037  1.00  0.00    -0.550 OA
ATOM      8  O   UNL     1      -3.783  35.119  16.877  1.00  0.00    -0.550 OA
ENDBRANCH   5   6
ENDBRANCH   4   5
ENDBRANCH   3   4
ENDBRANCH   2   3
ENDBRANCH   1   2
BRANCH   1   9
ATOM      9  C   UNL     1      -6.120  35.522  24.879  1.00  0.00     0.000 C 
BRANCH   9  10
ATOM     10  C   UNL     1      -5.704  37.004  24.884  1.00  0.00    -0.000 C 
BRANCH  10  11
ATOM     11  C   UNL     1      -5.742  37.644  23.489  1.00  0.00    -0.000 C 
BRANCH  11  12
ATOM     12  C   UNL     1      -5.247  39.094  23.534  1.00  0.00    -0.000 C 
BRANCH  12  13
ATOM     13  C   UNL     1      -5.496  39.803  22.197  1.00  0.00    -0.003 C 
ATOM     14  C   UNL     1      -5.498  38.810  21.039  1.00  0.00     0.004 C 
ENDBRANCH  12  13
ENDBRANCH  11  12
ENDBRANCH  10  11
ENDBRANCH   9  10
ENDBRANCH   1   9
TORSDOF 10
ENDMDL
MODEL 5
REMARK VINA RESULT:    -1.283      2.974      7.231
REMARK INTER + INTRA:          -2.464
REMARK INTER:                  -2.056
REMARK INTRA:                  -0.408
REMARK UNBOUND:                -0.431
REMARK SMILES CCCCCCCCCCCC(=O)[O-]
REMARK SMILES IDX 7 1 8 2 9 3 10 4 11 5 12 6 13 7 14 8 6 9 5 10 4 11 3 12 2 13
REMARK SMILES IDX 1 14
REMARK H PARENT
REMARK Flexibility Score: inf
ROOT
ATOM      1  C   UNL     1      -4.966  35.182  18.865  1.00  0.00     0.000 C 
ENDROOT
BRANCH   1   2
ATOM      2  C   UNL     1      -4.526  34.436  20.136  1.00  0.00     0.000 C 
BRANCH   2   3
ATOM      3  C   UNL     1      -4.545  35.335  21.383  1.00  0.00     0.000 C 
BRANCH   3   4
ATOM      4  C   UNL     1      -5.888  36.056  21.576  1.00  0.00     0.006 C 
BRANCH   4   5
ATOM      5  C   UNL     1      -5.701  37.356  22.363  1.00  0.00     0.053 C 
BRANCH   5   6
ATOM      6  C   UNL     1      -5.585  38.521  21.430  1.00  0.00     0.041 C 
ATOM      7  O   UNL     1      -5.626  38.342  20.184  1.00  0.00    -0.550 OA
ATOM      8  O   UNL     1      -5.382  39.799  21.936  1.00  0.00    -0.550 OA
ENDBRANCH   5   6
ENDBRANCH   4   5
ENDBRANCH   3   4
ENDBRANCH   2   3
ENDBRANCH   1   2
BRANCH   1   9
ATOM      9  C   UNL     1      -4.266  34.667  17.593  1.00  0.00     0.000 C 
BRANCH   9  10
ATOM     10  C   UNL     1      -3.951  35.745  16.540  1.00  0.00    -0.000 C 
BRANCH  10  11
ATOM     11  C   UNL     1      -2.763  35.375  15.640  1.00  0.00    -0.000 C 
BRANCH  11  12
ATOM     12  C   UNL     1      -2.766  36.209  14.353  1.00  0.00    -0.000 C 
BRANCH  12  13
ATOM     13  C   UNL     1      -4.168  36.753  14.053  1.00  0.00    -0.003 C 
ATOM     14  C   UNL     1      -4.195  38.277  14.125  1.00  0.00     0.004 C 
ENDBRANCH  12  13
ENDBRANCH  11  12
ENDBRANCH  10  11
ENDBRANCH   9  10
ENDBRANCH   1   9
TORSDOF 10
ENDMDL
MODEL 6
REMARK VINA RESULT:    -0.996      4.852      6.971
REMARK INTER + INTRA:          -2.009
REMARK INTER:                  -1.319
REMARK INTRA:                  -0.690
REMARK UNBOUND:                -0.431
REMARK SMILES CCCCCCCCCCCC(=O)[O-]
REMARK SMILES IDX 7 1 8 2 9 3 10 4 11 5 12 6 13 7 14 8 6 9 5 10 4 11 3 12 2 13
REMARK SMILES IDX 1 14
REMARK H PARENT
REMARK Flexibility Score: inf
ROOT
ATOM      1  C   UNL     1      -4.310  34.273  22.212  1.00  0.00     0.000 C 
ENDROOT
BRANCH   1   2
ATOM      2  C   UNL     1      -5.782  34.485  22.603  1.00  0.00     0.000 C 
BRANCH   2   3
ATOM      3  C   UNL     1      -6.124  33.872  23.970  1.00  0.00     0.000 C 
BRANCH   3   4
ATOM      4  C   UNL     1      -6.124  34.908  25.104  1.00  0.00     0.006 C 
BRANCH   4   5
ATOM      5  C   UNL     1      -5.889  36.319  24.554  1.00  0.00     0.053 C 
BRANCH   5   6
ATOM      6  C   UNL     1      -4.928  37.066  25.424  1.00  0.00     0.041 C 
ATOM      7  O   UNL     1      -4.116  36.440  26.155  1.00  0.00    -0.550 OA
ATOM      8  O   UNL     1      -4.962  38.454  25.464  1.00  0.00    -0.550 OA
ENDBRANCH   5   6
ENDBRANCH   4   5
ENDBRANCH   3   4
ENDBRANCH   2   3
ENDBRANCH   1   2
BRANCH   1   9
ATOM      9  C   UNL     1      -3.902  35.063  20.955  1.00  0.00     0.000 C 
BRANCH   9  10
ATOM     10  C   UNL     1      -5.020  35.258  19.915  1.00  0.00    -0.000 C 
BRANCH  10  11
ATOM     11  C   UNL     1      -5.377  36.734  19.686  1.00  0.00    -0.000 C 
BRANCH  11  12
ATOM     12  C   UNL     1      -5.598  37.460  21.018  1.00  0.00    -0.000 C 
BRANCH  12  13
ATOM     13  C   UNL     1      -5.325  38.962  20.878  1.00  0.00    -0.003 C 
ATOM     14  C   UNL     1      -5.444  39.672  22.224  1.00  0.00     0.004 C 
ENDBRANCH  12  13
ENDBRANCH  11  12
ENDBRANCH  10  11
ENDBRANCH   9  10
ENDBRANCH   1   9
TORSDOF 10
ENDMDL
MODEL 7
REMARK VINA RESULT:    -0.598      4.280      7.452
REMARK INTER + INTRA:          -1.379
REMARK INTER:                  -1.386
REMARK INTRA:                   0.008
REMARK UNBOUND:                -0.431
REMARK SMILES CCCCCCCCCCCC(=O)[O-]
REMARK SMILES IDX 7 1 8 2 9 3 10 4 11 5 12 6 13 7 14 8 6 9 5 10 4 11 3 12 2 13
REMARK SMILES IDX 1 14
REMARK H PARENT
REMARK Flexibility Score: inf
ROOT
ATOM      1  C   UNL     1      -4.867  35.119  22.449  1.00  0.00     0.000 C 
ENDROOT
BRANCH   1   2
ATOM      2  C   UNL     1      -5.480  33.889  23.141  1.00  0.00     0.000 C 
BRANCH   2   3
ATOM      3  C   UNL     1      -6.125  34.233  24.494  1.00  0.00     0.000 C 
BRANCH   3   4
ATOM      4  C   UNL     1      -6.087  35.737  24.805  1.00  0.00     0.006 C 
BRANCH   4   5
ATOM      5  C   UNL     1      -5.045  36.045  25.885  1.00  0.00     0.053 C 
BRANCH   5   6
ATOM      6  C   UNL     1      -4.556  37.453  25.754  1.00  0.00     0.041 C 
ATOM      7  O   UNL     1      -3.623  37.871  26.490  1.00  0.00    -0.550 OA
ATOM      8  O   UNL     1      -5.164  38.319  24.854  1.00  0.00    -0.550 OA
ENDBRANCH   5   6
ENDBRANCH   4   5
ENDBRANCH   3   4
ENDBRANCH   2   3
ENDBRANCH   1   2
BRANCH   1   9
ATOM      9  C   UNL     1      -5.928  36.080  21.881  1.00  0.00     0.000 C 
BRANCH   9  10
ATOM     10  C   UNL     1      -5.370  37.270  21.080  1.00  0.00    -0.000 C 
BRANCH  10  11
ATOM     11  C   UNL     1      -5.209  36.965  19.584  1.00  0.00    -0.000 C 
BRANCH  11  12
ATOM     12  C   UNL     1      -5.767  35.578  19.241  1.00  0.00    -0.000 C 
BRANCH  12  13
ATOM     13  C   UNL     1      -4.643  34.615  18.844  1.00  0.00    -0.003 C 
ATOM     14  C   UNL     1      -4.208  34.842  17.399  1.00  0.00     0.004 C 
ENDBRANCH  12  13
ENDBRANCH  11  12
ENDBRANCH  10  11
ENDBRANCH   9  10
ENDBRANCH   1   9
TORSDOF 10
ENDMDL
