MODEL 1
REMARK VINA RESULT:    -4.571      0.000      0.000
REMARK INTER + INTRA:         -13.783
REMARK INTER:                  -9.915
REMARK INTRA:                  -3.868
REMARK UNBOUND:                -3.868
REMARK SMILES CCCCCCCCCCCCCCCCCCCCCC(=O)[O-]
REMARK SMILES IDX 12 1 11 2 10 3 9 4 8 5 7 6 6 7 5 8 4 9 3 10 2 11 1 12 13 13
REMARK SMILES IDX 14 14 15 15 16 16 17 17 18 18 19 19 20 20 21 21 22 22 23 23
REMARK SMILES IDX 24 24
REMARK H PARENT
REMARK Flexibility Score: inf
ROOT
ATOM      1  C   UNL     1     208.646 206.726 158.609  1.00  0.00     0.000 C 
ENDROOT
BRANCH   1   2
ATOM      2  C   UNL     1     209.014 207.316 157.235  1.00  0.00     0.000 C 
BRANCH   2   3
ATOM      3  C   UNL     1     208.722 206.351 156.074  1.00  0.00     0.000 C 
BRANCH   3   4
ATOM      4  C   UNL     1     208.214 207.076 154.816  1.00  0.00    -0.000 C 
BRANCH   4   5
ATOM      5  C   UNL     1     206.777 206.675 154.433  1.00  0.00    -0.000 C 
BRANCH   5   6
ATOM      6  C   UNL     1     205.971 205.979 155.545  1.00  0.00    -0.000 C 
BRANCH   6   7
ATOM      7  C   UNL     1     204.611 206.651 155.808  1.00  0.00    -0.000 C 
BRANCH   7   8
ATOM      8  C   UNL     1     204.287 206.784 157.308  1.00  0.00    -0.000 C 
BRANCH   8   9
ATOM      9  C   UNL     1     205.257 207.669 158.118  1.00  0.00    -0.000 C 
BRANCH   9  10
ATOM     10  C   UNL     1     205.166 209.177 157.825  1.00  0.00    -0.000 C 
BRANCH  10  11
ATOM     11  C   UNL     1     206.420 209.725 157.130  1.00  0.00    -0.003 C 
ATOM     12  C   UNL     1     207.267 210.550 158.094  1.00  0.00     0.004 C 
ENDBRANCH  10  11
ENDBRANCH   9  10
ENDBRANCH   8   9
ENDBRANCH   7   8
ENDBRANCH   6   7
ENDBRANCH   5   6
ENDBRANCH   4   5
ENDBRANCH   3   4
ENDBRANCH   2   3
ENDBRANCH   1   2
BRANCH   1  13
ATOM     13  C   UNL     1     207.955 205.359 158.498  1.00  0.00     0.000 C 
BRANCH  13  14
ATOM     14  C   UNL     1     207.362 204.882 159.836  1.00  0.00     0.000 C 
BRANCH  14  15
ATOM     15  C   UNL     1     206.280 203.799 159.638  1.00  0.00     0.000 C 
BRANCH  15  16
ATOM     16  C   UNL     1     205.817 203.643 158.178  1.00  0.00     0.000 C 
BRANCH  16  17
ATOM     17  C   UNL     1     206.306 202.336 157.533  1.00  0.00     0.000 C 
BRANCH  17  18
ATOM     18  C   UNL     1     206.261 202.369 155.994  1.00  0.00     0.000 C 
BRANCH  18  19
ATOM     19  C   UNL     1     207.600 202.691 155.304  1.00  0.00     0.000 C 
BRANCH  19  20
ATOM     20  C   UNL     1     208.814 202.098 156.032  1.00  0.00     0.006 C 
BRANCH  20  21
ATOM     21  C   UNL     1     210.087 202.889 155.715  1.00  0.00     0.053 C 
BRANCH  21  22
ATOM     22  C   UNL     1     210.865 202.218 154.628  1.00  0.00     0.041 C 
ATOM     23  O   UNL     1     210.390 201.215 154.032  1.00  0.00    -0.550 OA
ATOM     24  O   UNL     1     212.140 202.669 154.306  1.00  0.00    -0.550 OA
ENDBRANCH  21  22
ENDBRANCH  20  21
ENDBRANCH  19  20
ENDBRANCH  18  19
ENDBRANCH  17  18
ENDBRANCH  16  17
ENDBRANCH  15  16
ENDBRANCH  14  15
ENDBRANCH  13  14
ENDBRANCH   1  13
TORSDOF 20
ENDMDL
MODEL 2
REMARK VINA RESULT:    -4.562      3.875      6.932
REMARK INTER + INTRA:         -13.765
REMARK INTER:                 -10.023
REMARK INTRA:                  -3.742
REMARK UNBOUND:                -3.868
REMARK SMILES CCCCCCCCCCCCCCCCCCCCCC(=O)[O-]
REMARK SMILES IDX 12 1 11 2 10 3 9 4 8 5 7 6 6 7 5 8 4 9 3 10 2 11 1 12 13 13
REMARK SMILES IDX 14 14 15 15 16 16 17 17 18 18 19 19 20 20 21 21 22 22 23 23
REMARK SMILES IDX 24 24
REMARK H PARENT
REMARK Flexibility Score: inf
ROOT
ATOM      1  C   UNL     1     208.925 208.114 157.212  1.00  0.00     0.000 C 
ENDROOT
BRANCH   1   2
ATOM      2  C   UNL     1     208.894 207.353 158.551  1.00  0.00     0.000 C 
BRANCH   2   3
ATOM      3  C   UNL     1     208.266 205.955 158.427  1.00  0.00     0.000 C 
BRANCH   3   4
ATOM      4  C   UNL     1     206.926 205.840 159.173  1.00  0.00    -0.000 C 
BRANCH   4   5
ATOM      5  C   UNL     1     206.740 204.476 159.863  1.00  0.00    -0.000 C 
BRANCH   5   6
ATOM      6  C   UNL     1     205.923 203.442 159.065  1.00  0.00    -0.000 C 
BRANCH   6   7
ATOM      7  C   UNL     1     205.145 204.069 157.894  1.00  0.00    -0.000 C 
BRANCH   7   8
ATOM      8  C   UNL     1     205.690 203.647 156.517  1.00  0.00    -0.000 C 
BRANCH   8   9
ATOM      9  C   UNL     1     206.765 202.540 156.542  1.00  0.00    -0.000 C 
BRANCH   9  10
ATOM     10  C   UNL     1     207.587 202.398 155.247  1.00  0.00    -0.000 C 
BRANCH  10  11
ATOM     11  C   UNL     1     209.094 202.273 155.510  1.00  0.00    -0.003 C 
ATOM     12  C   UNL     1     209.648 203.546 156.143  1.00  0.00     0.004 C 
ENDBRANCH  10  11
ENDBRANCH   9  10
ENDBRANCH   8   9
ENDBRANCH   7   8
ENDBRANCH   6   7
ENDBRANCH   5   6
ENDBRANCH   4   5
ENDBRANCH   3   4
ENDBRANCH   2   3
ENDBRANCH   1   2
BRANCH   1  13
ATOM     13  C   UNL     1     209.582 207.301 156.086  1.00  0.00     0.000 C 
BRANCH  13  14
ATOM     14  C   UNL     1     208.683 207.173 154.843  1.00  0.00     0.000 C 
BRANCH  14  15
ATOM     15  C   UNL     1     207.403 206.360 155.134  1.00  0.00     0.000 C 
BRANCH  15  16
ATOM     16  C   UNL     1     206.207 206.747 154.246  1.00  0.00     0.000 C 
BRANCH  16  17
ATOM     17  C   UNL     1     204.967 207.154 155.058  1.00  0.00     0.000 C 
BRANCH  17  18
ATOM     18  C   UNL     1     205.296 207.519 156.518  1.00  0.00     0.000 C 
BRANCH  18  19
ATOM     19  C   UNL     1     205.345 209.027 156.824  1.00  0.00     0.000 C 
BRANCH  19  20
ATOM     20  C   UNL     1     205.659 209.336 158.295  1.00  0.00     0.006 C 
BRANCH  20  21
ATOM     21  C   UNL     1     204.561 208.797 159.217  1.00  0.00     0.053 C 
BRANCH  21  22
ATOM     22  C   UNL     1     203.553 209.863 159.511  1.00  0.00     0.041 C 
ATOM     23  O   UNL     1     203.772 211.056 159.172  1.00  0.00    -0.550 OA
ATOM     24  O   UNL     1     202.392 209.548 160.208  1.00  0.00    -0.550 OA
ENDBRANCH  21  22
ENDBRANCH  20  21
ENDBRANCH  19  20
ENDBRANCH  18  19
ENDBRANCH  17  18
ENDBRANCH  16  17
ENDBRANCH  15  16
ENDBRANCH  14  15
ENDBRANCH  13  14
ENDBRANCH   1  13
TORSDOF 20
ENDMDL
MODEL 3
REMARK VINA RESULT:    -4.468      3.204      6.608
REMARK INTER + INTRA:         -13.560
REMARK INTER:                  -9.968
REMARK INTRA:                  -3.592
REMARK UNBOUND:                -3.868
REMARK SMILES CCCCCCCCCCCCCCCCCCCCCC(=O)[O-]
REMARK SMILES IDX 12 1 11 2 10 3 9 4 8 5 7 6 6 7 5 8 4 9 3 10 2 11 1 12 13 13
REMARK SMILES IDX 14 14 15 15 16 16 17 17 18 18 19 19 20 20 21 21 22 22 23 23
REMARK SMILES IDX 24 24
REMARK H PARENT
REMARK Flexibility Score: inf
ROOT
ATOM      1  C   UNL     1     208.367 205.761 158.099  1.00  0.00     0.000 C 
ENDROOT
BRANCH   1   2
ATOM      2  C   UNL     1     208.396 205.303 159.570  1.00  0.00     0.000 C 
BRANCH   2   3
ATOM      3  C   UNL     1     207.052 204.722 160.040  1.00  0.00     0.000 C 
BRANCH   3   4
ATOM      4  C   UNL     1     206.040 204.572 158.893  1.00  0.00    -0.000 C 
BRANCH   4   5
ATOM      5  C   UNL     1     205.655 203.104 158.622  1.00  0.00    -0.000 C 
BRANCH   5   6
ATOM      6  C   UNL     1     206.414 202.430 157.464  1.00  0.00    -0.000 C 
BRANCH   6   7
ATOM      7  C   UNL     1     206.216 203.149 156.118  1.00  0.00    -0.000 C 
BRANCH   7   8
ATOM      8  C   UNL     1     207.423 203.001 155.173  1.00  0.00    -0.000 C 
BRANCH   8   9
ATOM      9  C   UNL     1     208.619 202.213 155.748  1.00  0.00    -0.000 C 
BRANCH   9  10
ATOM     10  C   UNL     1     209.969 202.952 155.706  1.00  0.00    -0.000 C 
BRANCH  10  11
ATOM     11  C   UNL     1     211.054 202.167 154.956  1.00  0.00    -0.003 C 
ATOM     12  C   UNL     1     211.987 203.106 154.197  1.00  0.00     0.004 C 
ENDBRANCH  10  11
ENDBRANCH   9  10
ENDBRANCH   8   9
ENDBRANCH   7   8
ENDBRANCH   6   7
ENDBRANCH   5   6
ENDBRANCH   4   5
ENDBRANCH   3   4
ENDBRANCH   2   3
ENDBRANCH   1   2
BRANCH   1  13
ATOM     13  C   UNL     1     208.829 207.215 157.924  1.00  0.00     0.000 C 
BRANCH  13  14
ATOM     14  C   UNL     1     208.605 207.743 156.496  1.00  0.00     0.000 C 
BRANCH  14  15
ATOM     15  C   UNL     1     208.391 206.599 155.482  1.00  0.00     0.000 C 
BRANCH  15  16
ATOM     16  C   UNL     1     207.562 207.008 154.250  1.00  0.00     0.000 C 
BRANCH  16  17
ATOM     17  C   UNL     1     206.156 206.388 154.245  1.00  0.00     0.000 C 
BRANCH  17  18
ATOM     18  C   UNL     1     205.113 207.250 154.980  1.00  0.00     0.000 C 
BRANCH  18  19
ATOM     19  C   UNL     1     204.698 206.735 156.372  1.00  0.00     0.000 C 
BRANCH  19  20
ATOM     20  C   UNL     1     205.151 207.652 157.516  1.00  0.00     0.006 C 
BRANCH  20  21
ATOM     21  C   UNL     1     205.422 209.072 157.009  1.00  0.00     0.053 C 
BRANCH  21  22
ATOM     22  C   UNL     1     205.837 209.962 158.138  1.00  0.00     0.041 C 
ATOM     23  O   UNL     1     204.999 210.313 159.011  1.00  0.00    -0.550 OA
ATOM     24  O   UNL     1     207.138 210.446 158.199  1.00  0.00    -0.550 OA
ENDBRANCH  21  22
ENDBRANCH  20  21
ENDBRANCH  19  20
ENDBRANCH  18  19
ENDBRANCH  17  18
ENDBRANCH  16  17
ENDBRANCH  15  16
ENDBRANCH  14  15
ENDBRANCH  13  14
ENDBRANCH   1  13
TORSDOF 20
ENDMDL
MODEL 4
REMARK VINA RESULT:    -4.413      1.062      1.594
REMARK INTER + INTRA:         -13.440
REMARK INTER:                  -9.810
REMARK INTRA:                  -3.630
REMARK UNBOUND:                -3.868
REMARK SMILES CCCCCCCCCCCCCCCCCCCCCC(=O)[O-]
REMARK SMILES IDX 12 1 11 2 10 3 9 4 8 5 7 6 6 7 5 8 4 9 3 10 2 11 1 12 13 13
REMARK SMILES IDX 14 14 15 15 16 16 17 17 18 18 19 19 20 20 21 21 22 22 23 23
REMARK SMILES IDX 24 24
REMARK H PARENT
REMARK Flexibility Score: inf
ROOT
ATOM      1  C   UNL     1     208.223 205.669 158.567  1.00  0.00     0.000 C 
ENDROOT
BRANCH   1   2
ATOM      2  C   UNL     1     208.579 207.158 158.401  1.00  0.00     0.000 C 
BRANCH   2   3
ATOM      3  C   UNL     1     208.831 207.551 156.936  1.00  0.00     0.000 C 
BRANCH   3   4
ATOM      4  C   UNL     1     208.606 206.382 155.963  1.00  0.00    -0.000 C 
BRANCH   4   5
ATOM      5  C   UNL     1     207.775 206.781 154.729  1.00  0.00    -0.000 C 
BRANCH   5   6
ATOM      6  C   UNL     1     206.421 206.059 154.588  1.00  0.00    -0.000 C 
BRANCH   6   7
ATOM      7  C   UNL     1     205.367 206.562 155.590  1.00  0.00    -0.000 C 
BRANCH   7   8
ATOM      8  C   UNL     1     205.217 208.095 155.585  1.00  0.00    -0.000 C 
BRANCH   8   9
ATOM      9  C   UNL     1     205.239 208.766 156.975  1.00  0.00    -0.000 C 
BRANCH   9  10
ATOM     10  C   UNL     1     205.034 207.811 158.165  1.00  0.00    -0.000 C 
BRANCH  10  11
ATOM     11  C   UNL     1     204.716 208.550 159.472  1.00  0.00    -0.003 C 
ATOM     12  C   UNL     1     204.616 210.055 159.242  1.00  0.00     0.004 C 
ENDBRANCH  10  11
ENDBRANCH   9  10
ENDBRANCH   8   9
ENDBRANCH   7   8
ENDBRANCH   6   7
ENDBRANCH   5   6
ENDBRANCH   4   5
ENDBRANCH   3   4
ENDBRANCH   2   3
ENDBRANCH   1   2
BRANCH   1  13
ATOM     13  C   UNL     1     207.299 205.412 159.766  1.00  0.00     0.000 C 
BRANCH  13  14
ATOM     14  C   UNL     1     206.420 204.161 159.584  1.00  0.00     0.000 C 
BRANCH  14  15
ATOM     15  C   UNL     1     205.841 204.062 158.157  1.00  0.00     0.000 C 
BRANCH  15  16
ATOM     16  C   UNL     1     206.050 202.687 157.496  1.00  0.00     0.000 C 
BRANCH  16  17
ATOM     17  C   UNL     1     205.921 202.735 155.965  1.00  0.00     0.000 C 
BRANCH  17  18
ATOM     18  C   UNL     1     207.260 202.505 155.239  1.00  0.00     0.000 C 
BRANCH  18  19
ATOM     19  C   UNL     1     208.510 202.996 155.994  1.00  0.00     0.000 C 
BRANCH  19  20
ATOM     20  C   UNL     1     209.785 202.230 155.615  1.00  0.00     0.006 C 
BRANCH  20  21
ATOM     21  C   UNL     1     210.971 203.184 155.444  1.00  0.00     0.053 C 
BRANCH  21  22
ATOM     22  C   UNL     1     211.970 202.614 154.487  1.00  0.00     0.041 C 
ATOM     23  O   UNL     1     212.446 201.463 154.677  1.00  0.00    -0.550 OA
ATOM     24  O   UNL     1     212.416 203.374 153.412  1.00  0.00    -0.550 OA
ENDBRANCH  21  22
ENDBRANCH  20  21
ENDBRANCH  19  20
ENDBRANCH  18  19
ENDBRANCH  17  18
ENDBRANCH  16  17
ENDBRANCH  15  16
ENDBRANCH  14  15
ENDBRANCH  13  14
ENDBRANCH   1  13
TORSDOF 20
ENDMDL
MODEL 5
REMARK VINA RESULT:    -4.387      1.738      5.395
REMARK INTER + INTRA:         -13.385
REMARK INTER:                  -9.974
REMARK INTRA:                  -3.411
REMARK UNBOUND:                -3.868
REMARK SMILES CCCCCCCCCCCCCCCCCCCCCC(=O)[O-]
REMARK SMILES IDX 12 1 11 2 10 3 9 4 8 5 7 6 6 7 5 8 4 9 3 10 2 11 1 12 13 13
REMARK SMILES IDX 14 14 15 15 16 16 17 17 18 18 19 19 20 20 21 21 22 22 23 23
REMARK SMILES IDX 24 24
REMARK H PARENT
REMARK Flexibility Score: inf
ROOT
ATOM      1  C   UNL     1     208.036 206.569 158.630  1.00  0.00     0.000 C 
ENDROOT
BRANCH   1   2
ATOM      2  C   UNL     1     208.081 205.324 159.536  1.00  0.00     0.000 C 
BRANCH   2   3
ATOM      3  C   UNL     1     206.682 204.831 159.941  1.00  0.00     0.000 C 
BRANCH   3   4
ATOM      4  C   UNL     1     206.374 203.422 159.409  1.00  0.00    -0.000 C 
BRANCH   4   5
ATOM      5  C   UNL     1     205.330 203.423 158.276  1.00  0.00    -0.000 C 
BRANCH   5   6
ATOM      6  C   UNL     1     205.845 203.913 156.910  1.00  0.00    -0.000 C 
BRANCH   6   7
ATOM      7  C   UNL     1     206.137 202.761 155.932  1.00  0.00    -0.000 C 
BRANCH   7   8
ATOM      8  C   UNL     1     207.643 202.503 155.740  1.00  0.00    -0.000 C 
BRANCH   8   9
ATOM      9  C   UNL     1     208.580 203.538 156.398  1.00  0.00    -0.000 C 
BRANCH   9  10
ATOM     10  C   UNL     1     210.027 203.538 155.872  1.00  0.00    -0.000 C 
BRANCH  10  11
ATOM     11  C   UNL     1     210.422 202.206 155.218  1.00  0.00    -0.003 C 
ATOM     12  C   UNL     1     211.793 202.304 154.556  1.00  0.00     0.004 C 
ENDBRANCH  10  11
ENDBRANCH   9  10
ENDBRANCH   8   9
ENDBRANCH   7   8
ENDBRANCH   6   7
ENDBRANCH   5   6
ENDBRANCH   4   5
ENDBRANCH   3   4
ENDBRANCH   2   3
ENDBRANCH   1   2
BRANCH   1  13
ATOM     13  C   UNL     1     206.608 207.096 158.421  1.00  0.00     0.000 C 
BRANCH  13  14
ATOM     14  C   UNL     1     206.579 208.519 157.834  1.00  0.00     0.000 C 
BRANCH  14  15
ATOM     15  C   UNL     1     205.602 208.636 156.645  1.00  0.00     0.000 C 
BRANCH  15  16
ATOM     16  C   UNL     1     204.988 207.292 156.210  1.00  0.00     0.000 C 
BRANCH  16  17
ATOM     17  C   UNL     1     204.809 207.182 154.688  1.00  0.00     0.000 C 
BRANCH  17  18
ATOM     18  C   UNL     1     206.089 206.731 153.961  1.00  0.00     0.000 C 
BRANCH  18  19
ATOM     19  C   UNL     1     207.292 206.427 154.874  1.00  0.00     0.000 C 
BRANCH  19  20
ATOM     20  C   UNL     1     208.542 207.244 154.518  1.00  0.00     0.006 C 
BRANCH  20  21
ATOM     21  C   UNL     1     209.504 207.323 155.707  1.00  0.00     0.053 C 
BRANCH  21  22
ATOM     22  C   UNL     1     210.923 207.239 155.240  1.00  0.00     0.041 C 
ATOM     23  O   UNL     1     211.239 206.460 154.301  1.00  0.00    -0.550 OA
ATOM     24  O   UNL     1     211.910 207.984 155.876  1.00  0.00    -0.550 OA
ENDBRANCH  21  22
ENDBRANCH  20  21
ENDBRANCH  19  20
ENDBRANCH  18  19
ENDBRANCH  17  18
ENDBRANCH  16  17
ENDBRANCH  15  16
ENDBRANCH  14  15
ENDBRANCH  13  14
ENDBRANCH   1  13
TORSDOF 20
ENDMDL
MODEL 6
REMARK VINA RESULT:    -4.382      1.270      1.799
REMARK INTER + INTRA:         -13.374
REMARK INTER:                 -10.315
REMARK INTRA:                  -3.059
REMARK UNBOUND:                -3.868
REMARK SMILES CCCCCCCCCCCCCCCCCCCCCC(=O)[O-]
REMARK SMILES IDX 12 1 11 2 10 3 9 4 8 5 7 6 6 7 5 8 4 9 3 10 2 11 1 12 13 13
REMARK SMILES IDX 14 14 15 15 16 16 17 17 18 18 19 19 20 20 21 21 22 22 23 23
REMARK SMILES IDX 24 24
REMARK H PARENT
REMARK Flexibility Score: inf
ROOT
ATOM      1  C   UNL     1     208.537 206.929 158.510  1.00  0.00     0.000 C 
ENDROOT
BRANCH   1   2
ATOM      2  C   UNL     1     208.788 207.513 157.107  1.00  0.00     0.000 C 
BRANCH   2   3
ATOM      3  C   UNL     1     208.705 206.453 155.997  1.00  0.00     0.000 C 
BRANCH   3   4
ATOM      4  C   UNL     1     207.589 206.748 154.980  1.00  0.00    -0.000 C 
BRANCH   4   5
ATOM      5  C   UNL     1     206.181 206.460 155.536  1.00  0.00    -0.000 C 
BRANCH   5   6
ATOM      6  C   UNL     1     205.221 207.664 155.547  1.00  0.00    -0.000 C 
BRANCH   6   7
ATOM      7  C   UNL     1     205.290 208.473 156.855  1.00  0.00    -0.000 C 
BRANCH   7   8
ATOM      8  C   UNL     1     204.980 207.625 158.103  1.00  0.00    -0.000 C 
BRANCH   8   9
ATOM      9  C   UNL     1     204.505 208.417 159.339  1.00  0.00    -0.000 C 
BRANCH   9  10
ATOM     10  C   UNL     1     204.785 209.930 159.294  1.00  0.00    -0.000 C 
BRANCH  10  11
ATOM     11  C   UNL     1     203.503 210.774 159.305  1.00  0.00    -0.003 C 
ATOM     12  C   UNL     1     202.389 210.071 160.076  1.00  0.00     0.004 C 
ENDBRANCH  10  11
ENDBRANCH   9  10
ENDBRANCH   8   9
ENDBRANCH   7   8
ENDBRANCH   6   7
ENDBRANCH   5   6
ENDBRANCH   4   5
ENDBRANCH   3   4
ENDBRANCH   2   3
ENDBRANCH   1   2
BRANCH   1  13
ATOM     13  C   UNL     1     208.229 205.425 158.477  1.00  0.00     0.000 C 
BRANCH  13  14
ATOM     14  C   UNL     1     207.258 204.991 159.590  1.00  0.00     0.000 C 
BRANCH  14  15
ATOM     15  C   UNL     1     206.097 204.132 159.046  1.00  0.00     0.000 C 
BRANCH  15  16
ATOM     16  C   UNL     1     206.234 203.776 157.554  1.00  0.00     0.000 C 
BRANCH  16  17
ATOM     17  C   UNL     1     206.343 202.262 157.310  1.00  0.00     0.000 C 
BRANCH  17  18
ATOM     18  C   UNL     1     207.208 201.910 156.085  1.00  0.00     0.000 C 
BRANCH  18  19
ATOM     19  C   UNL     1     208.350 202.898 155.780  1.00  0.00     0.000 C 
BRANCH  19  20
ATOM     20  C   UNL     1     209.744 202.263 155.888  1.00  0.00     0.006 C 
BRANCH  20  21
ATOM     21  C   UNL     1     210.297 201.912 154.504  1.00  0.00     0.053 C 
BRANCH  21  22
ATOM     22  C   UNL     1     211.761 202.214 154.432  1.00  0.00     0.041 C 
ATOM     23  O   UNL     1     212.163 203.293 153.922  1.00  0.00    -0.550 OA
ATOM     24  O   UNL     1     212.686 201.280 154.883  1.00  0.00    -0.550 OA
ENDBRANCH  21  22
ENDBRANCH  20  21
ENDBRANCH  19  20
ENDBRANCH  18  19
ENDBRANCH  17  18
ENDBRANCH  16  17
ENDBRANCH  15  16
ENDBRANCH  14  15
ENDBRANCH  13  14
ENDBRANCH   1  13
TORSDOF 20
ENDMDL
MODEL 7
REMARK VINA RESULT:    -4.341      4.318      7.605
REMARK INTER + INTRA:         -13.285
REMARK INTER:                 -10.010
REMARK INTRA:                  -3.275
REMARK UNBOUND:                -3.868
REMARK SMILES CCCCCCCCCCCCCCCCCCCCCC(=O)[O-]
REMARK SMILES IDX 12 1 11 2 10 3 9 4 8 5 7 6 6 7 5 8 4 9 3 10 2 11 1 12 13 13
REMARK SMILES IDX 14 14 15 15 16 16 17 17 18 18 19 19 20 20 21 21 22 22 23 23
REMARK SMILES IDX 24 24
REMARK H PARENT
REMARK Flexibility Score: inf
ROOT
ATOM      1  C   UNL     1     208.890 206.604 156.258  1.00  0.00     0.000 C 
ENDROOT
BRANCH   1   2
ATOM      2  C   UNL     1     208.578 207.488 157.479  1.00  0.00     0.000 C 
BRANCH   2   3
ATOM      3  C   UNL     1     208.520 206.691 158.793  1.00  0.00     0.000 C 
BRANCH   3   4
ATOM      4  C   UNL     1     208.132 205.219 158.575  1.00  0.00    -0.000 C 
BRANCH   4   5
ATOM      5  C   UNL     1     206.995 204.755 159.506  1.00  0.00    -0.000 C 
BRANCH   5   6
ATOM      6  C   UNL     1     205.994 203.768 158.878  1.00  0.00    -0.000 C 
BRANCH   6   7
ATOM      7  C   UNL     1     206.142 203.656 157.350  1.00  0.00    -0.000 C 
BRANCH   7   8
ATOM      8  C   UNL     1     206.587 202.254 156.891  1.00  0.00    -0.000 C 
BRANCH   8   9
ATOM      9  C   UNL     1     207.577 202.230 155.708  1.00  0.00    -0.000 C 
BRANCH   9  10
ATOM     10  C   UNL     1     208.877 203.025 155.926  1.00  0.00    -0.000 C 
BRANCH  10  11
ATOM     11  C   UNL     1     210.134 202.216 155.578  1.00  0.00    -0.003 C 
ATOM     12  C   UNL     1     209.975 201.501 154.240  1.00  0.00     0.004 C 
ENDBRANCH  10  11
ENDBRANCH   9  10
ENDBRANCH   8   9
ENDBRANCH   7   8
ENDBRANCH   6   7
ENDBRANCH   5   6
ENDBRANCH   4   5
ENDBRANCH   3   4
ENDBRANCH   2   3
ENDBRANCH   1   2
BRANCH   1  13
ATOM     13  C   UNL     1     208.033 206.964 155.034  1.00  0.00     0.000 C 
BRANCH  13  14
ATOM     14  C   UNL     1     206.727 206.153 154.963  1.00  0.00     0.000 C 
BRANCH  14  15
ATOM     15  C   UNL     1     205.508 207.043 154.642  1.00  0.00     0.000 C 
BRANCH  15  16
ATOM     16  C   UNL     1     204.994 207.852 155.847  1.00  0.00     0.000 C 
BRANCH  16  17
ATOM     17  C   UNL     1     204.872 207.007 157.125  1.00  0.00     0.000 C 
BRANCH  17  18
ATOM     18  C   UNL     1     205.156 207.810 158.408  1.00  0.00     0.000 C 
BRANCH  18  19
ATOM     19  C   UNL     1     205.215 209.339 158.229  1.00  0.00     0.000 C 
BRANCH  19  20
ATOM     20  C   UNL     1     204.418 210.104 159.295  1.00  0.00     0.006 C 
BRANCH  20  21
ATOM     21  C   UNL     1     203.218 209.284 159.779  1.00  0.00     0.053 C 
BRANCH  21  22
ATOM     22  C   UNL     1     202.047 210.177 160.045  1.00  0.00     0.041 C 
ATOM     23  O   UNL     1     200.898 209.686 160.210  1.00  0.00    -0.550 OA
ATOM     24  O   UNL     1     202.214 211.557 160.059  1.00  0.00    -0.550 OA
ENDBRANCH  21  22
ENDBRANCH  20  21
ENDBRANCH  19  20
ENDBRANCH  18  19
ENDBRANCH  17  18
ENDBRANCH  16  17
ENDBRANCH  15  16
ENDBRANCH  14  15
ENDBRANCH  13  14
ENDBRANCH   1  13
TORSDOF 20
ENDMDL
MODEL 8
REMARK VINA RESULT:    -4.337      4.404      7.819
REMARK INTER + INTRA:         -13.275
REMARK INTER:                  -9.665
REMARK INTRA:                  -3.610
REMARK UNBOUND:                -3.868
REMARK SMILES CCCCCCCCCCCCCCCCCCCCCC(=O)[O-]
REMARK SMILES IDX 12 1 11 2 10 3 9 4 8 5 7 6 6 7 5 8 4 9 3 10 2 11 1 12 13 13
REMARK SMILES IDX 14 14 15 15 16 16 17 17 18 18 19 19 20 20 21 21 22 22 23 23
REMARK SMILES IDX 24 24
REMARK H PARENT
REMARK Flexibility Score: inf
ROOT
ATOM      1  C   UNL     1     204.927 204.821 157.154  1.00  0.00     0.000 C 
ENDROOT
BRANCH   1   2
ATOM      2  C   UNL     1     204.893 204.116 158.522  1.00  0.00     0.000 C 
BRANCH   2   3
ATOM      3  C   UNL     1     206.287 203.978 159.157  1.00  0.00     0.000 C 
BRANCH   3   4
ATOM      4  C   UNL     1     206.804 205.302 159.742  1.00  0.00    -0.000 C 
BRANCH   4   5
ATOM      5  C   UNL     1     208.222 205.659 159.255  1.00  0.00    -0.000 C 
BRANCH   5   6
ATOM      6  C   UNL     1     208.286 206.729 158.149  1.00  0.00    -0.000 C 
BRANCH   6   7
ATOM      7  C   UNL     1     208.976 206.226 156.869  1.00  0.00    -0.000 C 
BRANCH   7   8
ATOM      8  C   UNL     1     208.378 204.908 156.342  1.00  0.00    -0.000 C 
BRANCH   8   9
ATOM      9  C   UNL     1     209.342 203.704 156.326  1.00  0.00    -0.000 C 
BRANCH   9  10
ATOM     10  C   UNL     1     208.796 202.438 155.640  1.00  0.00    -0.000 C 
BRANCH  10  11
ATOM     11  C   UNL     1     207.267 202.447 155.507  1.00  0.00    -0.003 C 
ATOM     12  C   UNL     1     206.623 201.485 156.501  1.00  0.00     0.004 C 
ENDBRANCH  10  11
ENDBRANCH   9  10
ENDBRANCH   8   9
ENDBRANCH   7   8
ENDBRANCH   6   7
ENDBRANCH   5   6
ENDBRANCH   4   5
ENDBRANCH   3   4
ENDBRANCH   2   3
ENDBRANCH   1   2
BRANCH   1  13
ATOM     13  C   UNL     1     203.725 205.753 156.939  1.00  0.00     0.000 C 
BRANCH  13  14
ATOM     14  C   UNL     1     203.968 206.794 155.832  1.00  0.00     0.000 C 
BRANCH  14  15
ATOM     15  C   UNL     1     205.451 206.850 155.404  1.00  0.00     0.000 C 
BRANCH  15  16
ATOM     16  C   UNL     1     206.143 208.184 155.738  1.00  0.00     0.000 C 
BRANCH  16  17
ATOM     17  C   UNL     1     205.186 209.216 156.355  1.00  0.00     0.000 C 
BRANCH  17  18
ATOM     18  C   UNL     1     205.530 209.559 157.817  1.00  0.00     0.000 C 
BRANCH  18  19
ATOM     19  C   UNL     1     205.181 208.469 158.848  1.00  0.00     0.000 C 
BRANCH  19  20
ATOM     20  C   UNL     1     203.976 208.831 159.727  1.00  0.00     0.006 C 
BRANCH  20  21
ATOM     21  C   UNL     1     203.510 210.265 159.458  1.00  0.00     0.053 C 
BRANCH  21  22
ATOM     22  C   UNL     1     202.140 210.485 160.018  1.00  0.00     0.041 C 
ATOM     23  O   UNL     1     201.315 209.534 160.069  1.00  0.00    -0.550 OA
ATOM     24  O   UNL     1     201.755 211.753 160.436  1.00  0.00    -0.550 OA
ENDBRANCH  21  22
ENDBRANCH  20  21
ENDBRANCH  19  20
ENDBRANCH  18  19
ENDBRANCH  17  18
ENDBRANCH  16  17
ENDBRANCH  15  16
ENDBRANCH  14  15
ENDBRANCH  13  14
ENDBRANCH   1  13
TORSDOF 20
ENDMDL
MODEL 9
REMARK VINA RESULT:    -4.298      1.149      2.794
REMARK INTER + INTRA:         -13.191
REMARK INTER:                 -10.203
REMARK INTRA:                  -2.988
REMARK UNBOUND:                -3.868
REMARK SMILES CCCCCCCCCCCCCCCCCCCCCC(=O)[O-]
REMARK SMILES IDX 12 1 11 2 10 3 9 4 8 5 7 6 6 7 5 8 4 9 3 10 2 11 1 12 13 13
REMARK SMILES IDX 14 14 15 15 16 16 17 17 18 18 19 19 20 20 21 21 22 22 23 23
REMARK SMILES IDX 24 24
REMARK H PARENT
REMARK Flexibility Score: inf
ROOT
ATOM      1  C   UNL     1     204.447 206.688 156.617  1.00  0.00     0.000 C 
ENDROOT
BRANCH   1   2
ATOM      2  C   UNL     1     204.436 207.098 155.132  1.00  0.00     0.000 C 
BRANCH   2   3
ATOM      3  C   UNL     1     205.792 206.875 154.442  1.00  0.00     0.000 C 
BRANCH   3   4
ATOM      4  C   UNL     1     206.613 205.754 155.100  1.00  0.00    -0.000 C 
BRANCH   4   5
ATOM      5  C   UNL     1     207.994 206.231 155.589  1.00  0.00    -0.000 C 
BRANCH   5   6
ATOM      6  C   UNL     1     208.266 206.021 157.091  1.00  0.00    -0.000 C 
BRANCH   6   7
ATOM      7  C   UNL     1     208.021 207.290 157.926  1.00  0.00    -0.000 C 
BRANCH   7   8
ATOM      8  C   UNL     1     208.022 208.577 157.079  1.00  0.00    -0.000 C 
BRANCH   8   9
ATOM      9  C   UNL     1     206.976 209.636 157.485  1.00  0.00    -0.000 C 
BRANCH   9  10
ATOM     10  C   UNL     1     205.697 209.078 158.135  1.00  0.00    -0.000 C 
BRANCH  10  11
ATOM     11  C   UNL     1     204.947 210.126 158.969  1.00  0.00    -0.003 C 
ATOM     12  C   UNL     1     203.801 209.490 159.749  1.00  0.00     0.004 C 
ENDBRANCH  10  11
ENDBRANCH   9  10
ENDBRANCH   8   9
ENDBRANCH   7   8
ENDBRANCH   6   7
ENDBRANCH   5   6
ENDBRANCH   4   5
ENDBRANCH   3   4
ENDBRANCH   2   3
ENDBRANCH   1   2
BRANCH   1  13
ATOM     13  C   UNL     1     203.358 205.658 156.953  1.00  0.00     0.000 C 
BRANCH  13  14
ATOM     14  C   UNL     1     203.873 204.517 157.848  1.00  0.00     0.000 C 
BRANCH  14  15
ATOM     15  C   UNL     1     205.308 204.779 158.354  1.00  0.00     0.000 C 
BRANCH  15  16
ATOM     16  C   UNL     1     205.899 203.618 159.173  1.00  0.00     0.000 C 
BRANCH  16  17
ATOM     17  C   UNL     1     205.971 202.303 158.381  1.00  0.00     0.000 C 
BRANCH  17  18
ATOM     18  C   UNL     1     206.249 202.517 156.881  1.00  0.00     0.000 C 
BRANCH  18  19
ATOM     19  C   UNL     1     207.419 201.697 156.305  1.00  0.00     0.000 C 
BRANCH  19  20
ATOM     20  C   UNL     1     208.244 202.467 155.265  1.00  0.00     0.006 C 
BRANCH  20  21
ATOM     21  C   UNL     1     209.701 202.610 155.715  1.00  0.00     0.053 C 
BRANCH  21  22
ATOM     22  C   UNL     1     210.610 201.859 154.793  1.00  0.00     0.041 C 
ATOM     23  O   UNL     1     210.133 201.153 153.866  1.00  0.00    -0.550 OA
ATOM     24  O   UNL     1     211.986 201.899 154.990  1.00  0.00    -0.550 OA
ENDBRANCH  21  22
ENDBRANCH  20  21
ENDBRANCH  19  20
ENDBRANCH  18  19
ENDBRANCH  17  18
ENDBRANCH  16  17
ENDBRANCH  15  16
ENDBRANCH  14  15
ENDBRANCH  13  14
ENDBRANCH   1  13
TORSDOF 20
ENDMDL
