MODEL 1
REMARK VINA RESULT:     0.822      0.000      0.000
REMARK INTER + INTRA:           1.072
REMARK INTER:                   0.990
REMARK INTRA:                   0.082
REMARK UNBOUND:                 0.082
REMARK SMILES Oc1cc(O)c2c(c1)O[C@@H](c1ccc(O)c(O)c1)[C@@H](O)C2
REMARK SMILES IDX 21 1 19 2 10 3 9 4 7 5 8 6 2 7 3 8 4 9 6 10 20 11 11 13
REMARK SMILES IDX 18 14 12 15 16 16 13 17 14 18 17 19 15 21 5 23 1 25
REMARK H PARENT 20 12 17 20 15 22 5 24 1 26
REMARK Flexibility Score: inf
ROOT
ATOM      1  C   UNL     1       8.368  15.516  40.212  1.00  0.00     0.079 C 
ATOM      2  C   UNL     1       8.842  15.601  38.746  1.00  0.00     0.164 C 
ATOM      3  C   UNL     1       7.977  16.608  37.962  1.00  0.00     0.232 C 
ATOM      4  O   UNL     1       7.987  17.878  38.611  1.00  0.00    -0.482 OA
ATOM      5  C   UNL     1       7.939  18.003  40.003  1.00  0.00     0.131 A 
ATOM      6  C   UNL     1       7.735  19.267  40.563  1.00  0.00     0.093 A 
ATOM      7  C   UNL     1       7.668  19.422  41.948  1.00  0.00     0.122 A 
ATOM      8  C   UNL     1       7.800  18.305  42.780  1.00  0.00     0.092 A 
ATOM      9  C   UNL     1       8.006  17.031  42.238  1.00  0.00     0.126 A 
ATOM     10  C   UNL     1       8.116  16.875  40.836  1.00  0.00     0.039 A 
ENDROOT
BRANCH   2  11
ATOM     11  O   UNL     1      10.211  15.925  38.679  1.00  0.00    -0.389 OA
ATOM     12  H   UNL     1      10.309  16.889  38.893  1.00  0.00     0.211 HD
ENDBRANCH   2  11
BRANCH   3  13
ATOM     13  C   UNL     1       8.439  16.737  36.528  1.00  0.00    -0.001 A 
ATOM     14  C   UNL     1       7.643  16.268  35.466  1.00  0.00     0.057 A 
ATOM     15  C   UNL     1       9.648  17.388  36.239  1.00  0.00     0.012 A 
ATOM     16  C   UNL     1       8.061  16.423  34.140  1.00  0.00     0.157 A 
ATOM     17  C   UNL     1      10.069  17.544  34.916  1.00  0.00     0.050 A 
ATOM     18  C   UNL     1       9.281  17.062  33.862  1.00  0.00     0.157 A 
BRANCH  16  19
ATOM     19  O   UNL     1       7.250  15.940  33.113  1.00  0.00    -0.504 OA
ATOM     20  H   UNL     1       7.174  14.950  32.909  1.00  0.00     0.293 HD
ENDBRANCH  16  19
BRANCH  18  21
ATOM     21  O   UNL     1       9.704  17.218  32.543  1.00  0.00    -0.504 OA
ATOM     22  H   UNL     1       9.301  16.676  31.788  1.00  0.00     0.293 HD
ENDBRANCH  18  21
ENDBRANCH   3  13
BRANCH   9  23
ATOM     23  O   UNL     1       8.088  15.949  43.117  1.00  0.00    -0.507 OA
ATOM     24  H   UNL     1       7.293  15.376  43.369  1.00  0.00     0.293 HD
ENDBRANCH   9  23
BRANCH   7  25
ATOM     25  O   UNL     1       7.464  20.690  42.489  1.00  0.00    -0.508 OA
ATOM     26  H   UNL     1       7.248  21.488  41.902  1.00  0.00     0.293 HD
ENDBRANCH   7  25
TORSDOF 6
ENDMDL
MODEL 2
REMARK VINA RESULT:     2.409      1.124      2.918
REMARK INTER + INTRA:           2.984
REMARK INTER:                   3.063
REMARK INTRA:                  -0.079
REMARK UNBOUND:                 0.082
REMARK SMILES Oc1cc(O)c2c(c1)O[C@@H](c1ccc(O)c(O)c1)[C@@H](O)C2
REMARK SMILES IDX 21 1 19 2 10 3 9 4 7 5 8 6 2 7 3 8 4 9 6 10 20 11 11 13
REMARK SMILES IDX 18 14 12 15 16 16 13 17 14 18 17 19 15 21 5 23 1 25
REMARK H PARENT 20 12 17 20 15 22 5 24 1 26
REMARK Flexibility Score: inf
ROOT
ATOM      1  C   UNL     1       8.141  18.960  39.764  1.00  0.00     0.079 C 
ATOM      2  C   UNL     1       7.920  18.653  38.268  1.00  0.00     0.164 C 
ATOM      3  C   UNL     1       8.706  17.392  37.859  1.00  0.00     0.232 C 
ATOM      4  O   UNL     1       8.349  16.294  38.697  1.00  0.00    -0.482 OA
ATOM      5  C   UNL     1       8.131  16.446  40.070  1.00  0.00     0.131 A 
ATOM      6  C   UNL     1       7.999  15.305  40.865  1.00  0.00     0.093 A 
ATOM      7  C   UNL     1       7.795  15.423  42.241  1.00  0.00     0.122 A 
ATOM      8  C   UNL     1       7.730  16.692  42.827  1.00  0.00     0.092 A 
ATOM      9  C   UNL     1       7.860  17.846  42.047  1.00  0.00     0.126 A 
ATOM     10  C   UNL     1       8.025  17.732  40.646  1.00  0.00     0.039 A 
ENDROOT
BRANCH   2  11
ATOM     11  O   UNL     1       6.547  18.530  37.977  1.00  0.00    -0.389 OA
ATOM     12  H   UNL     1       6.171  19.443  37.878  1.00  0.00     0.211 HD
ENDBRANCH   2  11
BRANCH   3  13
ATOM     13  C   UNL     1       8.484  17.047  36.404  1.00  0.00    -0.001 A 
ATOM     14  C   UNL     1       9.441  17.379  35.427  1.00  0.00     0.057 A 
ATOM     15  C   UNL     1       7.338  16.332  36.022  1.00  0.00     0.012 A 
ATOM     16  C   UNL     1       9.244  17.025  34.087  1.00  0.00     0.157 A 
ATOM     17  C   UNL     1       7.138  15.977  34.685  1.00  0.00     0.050 A 
ATOM     18  C   UNL     1       8.086  16.323  33.713  1.00  0.00     0.157 A 
BRANCH  16  19
ATOM     19  O   UNL     1      10.211  17.376  33.145  1.00  0.00    -0.504 OA
ATOM     20  H   UNL     1      10.028  17.341  32.149  1.00  0.00     0.293 HD
ENDBRANCH  16  19
BRANCH  18  21
ATOM     21  O   UNL     1       7.883  15.969  32.380  1.00  0.00    -0.504 OA
ATOM     22  H   UNL     1       8.445  15.256  31.929  1.00  0.00     0.293 HD
ENDBRANCH  18  21
ENDBRANCH   3  13
BRANCH   9  23
ATOM     23  O   UNL     1       7.829  19.083  42.695  1.00  0.00    -0.507 OA
ATOM     24  H   UNL     1       8.496  19.822  42.515  1.00  0.00     0.293 HD
ENDBRANCH   9  23
BRANCH   7  25
ATOM     25  O   UNL     1       7.664  14.274  43.017  1.00  0.00    -0.508 OA
ATOM     26  H   UNL     1       6.989  14.217  43.771  1.00  0.00     0.293 HD
ENDBRANCH   7  25
TORSDOF 6
ENDMDL
