MODEL 1
REMARK VINA RESULT:    -5.058      0.000      0.000
REMARK INTER + INTRA:          -7.354
REMARK INTER:                  -6.833
REMARK INTRA:                  -0.521
REMARK UNBOUND:                -0.521
REMARK SMILES CCCCCCC=CC(=O)[O-]
REMARK SMILES IDX 5 1 6 2 7 3 8 4 9 5 10 6 11 7 4 8 3 9 2 10 1 11
REMARK H PARENT
REMARK Flexibility Score: inf
ROOT
ATOM      1  C   UNL     1     -16.658  -8.809   0.471  1.00  0.00     0.004 C 
ENDROOT
BRANCH   1   2
ATOM      2  C   UNL     1     -16.000  -7.643  -0.282  1.00  0.00     0.027 C 
BRANCH   2   3
ATOM      3  C   UNL     1     -15.612  -8.049  -1.676  1.00  0.00    -0.025 C 
ATOM      4  C   UNL     1     -16.514  -8.117  -2.661  1.00  0.00     0.020 C 
BRANCH   4   5
ATOM      5  C   UNL     1     -16.145  -8.499  -4.032  1.00  0.00     0.064 C 
ATOM      6  O   UNL     1     -15.281  -9.395  -4.215  1.00  0.00    -0.545 OA
ATOM      7  O   UNL     1     -16.734  -7.884  -5.130  1.00  0.00    -0.545 OA
ENDBRANCH   4   5
ENDBRANCH   2   3
ENDBRANCH   1   2
BRANCH   1   8
ATOM      8  C   UNL     1     -18.174  -8.621   0.649  1.00  0.00     0.000 C 
BRANCH   8   9
ATOM      9  C   UNL     1     -19.047  -9.389  -0.363  1.00  0.00    -0.000 C 
BRANCH   9  10
ATOM     10  C   UNL     1     -18.421 -10.714  -0.845  1.00  0.00    -0.003 C 
ATOM     11  C   UNL     1     -19.226 -11.937  -0.403  1.00  0.00     0.004 C 
ENDBRANCH   9  10
ENDBRANCH   8   9
ENDBRANCH   1   8
TORSDOF 6
ENDMDL
MODEL 2
REMARK VINA RESULT:    -5.034      1.173      2.896
REMARK INTER + INTRA:          -7.322
REMARK INTER:                  -6.676
REMARK INTRA:                  -0.646
REMARK UNBOUND:                -0.521
REMARK SMILES CCCCCCC=CC(=O)[O-]
REMARK SMILES IDX 5 1 6 2 7 3 8 4 9 5 10 6 11 7 4 8 3 9 2 10 1 11
REMARK H PARENT
REMARK Flexibility Score: inf
ROOT
ATOM      1  C   UNL     1     -18.929  -9.606  -0.711  1.00  0.00     0.004 C 
ENDROOT
BRANCH   1   2
ATOM      2  C   UNL     1     -18.399 -10.754  -1.584  1.00  0.00     0.027 C 
BRANCH   2   3
ATOM      3  C   UNL     1     -17.321 -10.274  -2.513  1.00  0.00    -0.025 C 
ATOM      4  C   UNL     1     -17.141  -8.972  -2.762  1.00  0.00     0.020 C 
BRANCH   4   5
ATOM      5  C   UNL     1     -16.081  -8.488  -3.658  1.00  0.00     0.064 C 
ATOM      6  O   UNL     1     -16.391  -7.897  -4.725  1.00  0.00    -0.545 OA
ATOM      7  O   UNL     1     -14.739  -8.675  -3.347  1.00  0.00    -0.545 OA
ENDBRANCH   4   5
ENDBRANCH   2   3
ENDBRANCH   1   2
BRANCH   1   8
ATOM      8  C   UNL     1     -18.227  -9.525   0.654  1.00  0.00     0.000 C 
BRANCH   8   9
ATOM      9  C   UNL     1     -17.941  -8.095   1.154  1.00  0.00    -0.000 C 
BRANCH   9  10
ATOM     10  C   UNL     1     -16.491  -7.629   0.906  1.00  0.00    -0.003 C 
ATOM     11  C   UNL     1     -15.562  -8.782   0.528  1.00  0.00     0.004 C 
ENDBRANCH   9  10
ENDBRANCH   8   9
ENDBRANCH   1   8
TORSDOF 6
ENDMDL
MODEL 3
REMARK VINA RESULT:    -5.012      3.180      5.155
REMARK INTER + INTRA:          -7.291
REMARK INTER:                  -6.975
REMARK INTRA:                  -0.316
REMARK UNBOUND:                -0.521
REMARK SMILES CCCCCCC=CC(=O)[O-]
REMARK SMILES IDX 5 1 6 2 7 3 8 4 9 5 10 6 11 7 4 8 3 9 2 10 1 11
REMARK H PARENT
REMARK Flexibility Score: inf
ROOT
ATOM      1  C   UNL     1     -18.981 -10.018  -1.093  1.00  0.00     0.004 C 
ENDROOT
BRANCH   1   2
ATOM      2  C   UNL     1     -18.689 -11.173  -0.123  1.00  0.00     0.027 C 
BRANCH   2   3
ATOM      3  C   UNL     1     -18.828 -12.503  -0.808  1.00  0.00    -0.025 C 
ATOM      4  C   UNL     1     -18.582 -12.645  -2.115  1.00  0.00     0.020 C 
BRANCH   4   5
ATOM      5  C   UNL     1     -18.700 -13.943  -2.794  1.00  0.00     0.064 C 
ATOM      6  O   UNL     1     -19.807 -14.291  -3.280  1.00  0.00    -0.545 OA
ATOM      7  O   UNL     1     -17.607 -14.794  -2.908  1.00  0.00    -0.545 OA
ENDBRANCH   4   5
ENDBRANCH   2   3
ENDBRANCH   1   2
BRANCH   1   8
ATOM      8  C   UNL     1     -17.762  -9.108  -1.316  1.00  0.00     0.000 C 
BRANCH   8   9
ATOM      9  C   UNL     1     -16.941  -9.420  -2.582  1.00  0.00    -0.000 C 
BRANCH   9  10
ATOM     10  C   UNL     1     -16.301  -8.174  -3.230  1.00  0.00    -0.003 C 
ATOM     11  C   UNL     1     -16.576  -8.089  -4.732  1.00  0.00     0.004 C 
ENDBRANCH   9  10
ENDBRANCH   8   9
ENDBRANCH   1   8
TORSDOF 6
ENDMDL
MODEL 4
REMARK VINA RESULT:    -4.970      1.509      2.467
REMARK INTER + INTRA:          -7.234
REMARK INTER:                  -6.714
REMARK INTRA:                  -0.520
REMARK UNBOUND:                -0.521
REMARK SMILES CCCCCCC=CC(=O)[O-]
REMARK SMILES IDX 5 1 6 2 7 3 8 4 9 5 10 6 11 7 4 8 3 9 2 10 1 11
REMARK H PARENT
REMARK Flexibility Score: inf
ROOT
ATOM      1  C   UNL     1     -19.094 -10.397  -1.220  1.00  0.00     0.004 C 
ENDROOT
BRANCH   1   2
ATOM      2  C   UNL     1     -18.045  -9.383  -0.737  1.00  0.00     0.027 C 
BRANCH   2   3
ATOM      3  C   UNL     1     -17.275  -8.811  -1.893  1.00  0.00    -0.025 C 
ATOM      4  C   UNL     1     -16.813  -9.587  -2.879  1.00  0.00     0.020 C 
BRANCH   4   5
ATOM      5  C   UNL     1     -16.070  -9.038  -4.022  1.00  0.00     0.064 C 
ATOM      6  O   UNL     1     -14.950  -9.523  -4.326  1.00  0.00    -0.545 OA
ATOM      7  O   UNL     1     -16.585  -7.988  -4.773  1.00  0.00    -0.545 OA
ENDBRANCH   4   5
ENDBRANCH   2   3
ENDBRANCH   1   2
BRANCH   1   8
ATOM      8  C   UNL     1     -19.123 -11.675  -0.365  1.00  0.00     0.000 C 
BRANCH   8   9
ATOM      9  C   UNL     1     -18.223 -12.818  -0.875  1.00  0.00    -0.000 C 
BRANCH   9  10
ATOM     10  C   UNL     1     -18.205 -12.956  -2.412  1.00  0.00    -0.003 C 
ATOM     11  C   UNL     1     -19.236 -13.965  -2.921  1.00  0.00     0.004 C 
ENDBRANCH   9  10
ENDBRANCH   8   9
ENDBRANCH   1   8
TORSDOF 6
ENDMDL
MODEL 5
REMARK VINA RESULT:    -4.968      3.616      5.473
REMARK INTER + INTRA:          -7.232
REMARK INTER:                  -6.687
REMARK INTRA:                  -0.544
REMARK UNBOUND:                -0.521
REMARK SMILES CCCCCCC=CC(=O)[O-]
REMARK SMILES IDX 5 1 6 2 7 3 8 4 9 5 10 6 11 7 4 8 3 9 2 10 1 11
REMARK H PARENT
REMARK Flexibility Score: inf
ROOT
ATOM      1  C   UNL     1     -19.039 -11.725  -0.253  1.00  0.00     0.004 C 
ENDROOT
BRANCH   1   2
ATOM      2  C   UNL     1     -18.432 -12.700  -1.274  1.00  0.00     0.027 C 
BRANCH   2   3
ATOM      3  C   UNL     1     -17.207 -13.369  -0.720  1.00  0.00    -0.025 C 
ATOM      4  C   UNL     1     -16.657 -12.976   0.434  1.00  0.00     0.020 C 
BRANCH   4   5
ATOM      5  C   UNL     1     -15.466 -13.631   0.994  1.00  0.00     0.064 C 
ATOM      6  O   UNL     1     -14.381 -13.595   0.359  1.00  0.00    -0.545 OA
ATOM      7  O   UNL     1     -15.520 -14.293   2.215  1.00  0.00    -0.545 OA
ENDBRANCH   4   5
ENDBRANCH   2   3
ENDBRANCH   1   2
BRANCH   1   8
ATOM      8  C   UNL     1     -19.331 -10.340  -0.854  1.00  0.00     0.000 C 
BRANCH   8   9
ATOM      9  C   UNL     1     -18.088  -9.464  -1.101  1.00  0.00    -0.000 C 
BRANCH   9  10
ATOM     10  C   UNL     1     -17.342  -9.065   0.190  1.00  0.00    -0.003 C 
ATOM     11  C   UNL     1     -18.247  -8.342   1.189  1.00  0.00     0.004 C 
ENDBRANCH   9  10
ENDBRANCH   8   9
ENDBRANCH   1   8
TORSDOF 6
ENDMDL
MODEL 6
REMARK VINA RESULT:    -4.952      3.867      5.709
REMARK INTER + INTRA:          -7.210
REMARK INTER:                  -6.495
REMARK INTRA:                  -0.715
REMARK UNBOUND:                -0.521
REMARK SMILES CCCCCCC=CC(=O)[O-]
REMARK SMILES IDX 5 1 6 2 7 3 8 4 9 5 10 6 11 7 4 8 3 9 2 10 1 11
REMARK H PARENT
REMARK Flexibility Score: inf
ROOT
ATOM      1  C   UNL     1     -17.142 -14.514  -2.860  1.00  0.00     0.004 C 
ENDROOT
BRANCH   1   2
ATOM      2  C   UNL     1     -18.504 -13.870  -2.555  1.00  0.00     0.027 C 
BRANCH   2   3
ATOM      3  C   UNL     1     -18.338 -12.455  -2.077  1.00  0.00    -0.025 C 
ATOM      4  C   UNL     1     -18.746 -12.076  -0.861  1.00  0.00     0.020 C 
BRANCH   4   5
ATOM      5  C   UNL     1     -18.577 -10.698  -0.376  1.00  0.00     0.064 C 
ATOM      6  O   UNL     1     -19.412  -9.817  -0.705  1.00  0.00    -0.545 OA
ATOM      7  O   UNL     1     -17.505 -10.352   0.439  1.00  0.00    -0.545 OA
ENDBRANCH   4   5
ENDBRANCH   2   3
ENDBRANCH   1   2
BRANCH   1   8
ATOM      8  C   UNL     1     -16.350 -14.859  -1.588  1.00  0.00     0.000 C 
BRANCH   8   9
ATOM      9  C   UNL     1     -15.017 -14.102  -1.428  1.00  0.00    -0.000 C 
BRANCH   9  10
ATOM     10  C   UNL     1     -14.906 -13.313  -0.106  1.00  0.00    -0.003 C 
ATOM     11  C   UNL     1     -15.960 -13.734   0.918  1.00  0.00     0.004 C 
ENDBRANCH   9  10
ENDBRANCH   8   9
ENDBRANCH   1   8
TORSDOF 6
ENDMDL
MODEL 7
REMARK VINA RESULT:    -4.918      2.335      4.108
REMARK INTER + INTRA:          -7.165
REMARK INTER:                  -6.503
REMARK INTRA:                  -0.662
REMARK UNBOUND:                -0.521
REMARK SMILES CCCCCCC=CC(=O)[O-]
REMARK SMILES IDX 5 1 6 2 7 3 8 4 9 5 10 6 11 7 4 8 3 9 2 10 1 11
REMARK H PARENT
REMARK Flexibility Score: inf
ROOT
ATOM      1  C   UNL     1     -16.822  -7.648   0.923  1.00  0.00     0.004 C 
ENDROOT
BRANCH   1   2
ATOM      2  C   UNL     1     -18.106  -8.491   0.932  1.00  0.00     0.027 C 
BRANCH   2   3
ATOM      3  C   UNL     1     -17.902  -9.795   0.214  1.00  0.00    -0.025 C 
ATOM      4  C   UNL     1     -18.821 -10.281  -0.628  1.00  0.00     0.020 C 
BRANCH   4   5
ATOM      5  C   UNL     1     -18.628 -11.548  -1.347  1.00  0.00     0.064 C 
ATOM      6  O   UNL     1     -17.889 -11.578  -2.364  1.00  0.00    -0.545 OA
ATOM      7  O   UNL     1     -19.252 -12.715  -0.922  1.00  0.00    -0.545 OA
ENDBRANCH   4   5
ENDBRANCH   2   3
ENDBRANCH   1   2
BRANCH   1   8
ATOM      8  C   UNL     1     -15.726  -8.245   0.025  1.00  0.00     0.000 C 
BRANCH   8   9
ATOM      9  C   UNL     1     -15.567  -7.563  -1.348  1.00  0.00    -0.000 C 
BRANCH   9  10
ATOM     10  C   UNL     1     -15.565  -8.549  -2.535  1.00  0.00    -0.003 C 
ATOM     11  C   UNL     1     -16.793  -8.386  -3.433  1.00  0.00     0.004 C 
ENDBRANCH   9  10
ENDBRANCH   8   9
ENDBRANCH   1   8
TORSDOF 6
ENDMDL
MODEL 8
REMARK VINA RESULT:    -4.908      1.447      2.585
REMARK INTER + INTRA:          -7.151
REMARK INTER:                  -6.608
REMARK INTRA:                  -0.544
REMARK UNBOUND:                -0.521
REMARK SMILES CCCCCCC=CC(=O)[O-]
REMARK SMILES IDX 5 1 6 2 7 3 8 4 9 5 10 6 11 7 4 8 3 9 2 10 1 11
REMARK H PARENT
REMARK Flexibility Score: inf
ROOT
ATOM      1  C   UNL     1     -19.018 -10.297  -1.039  1.00  0.00     0.004 C 
ENDROOT
BRANCH   1   2
ATOM      2  C   UNL     1     -18.054  -9.228  -0.501  1.00  0.00     0.027 C 
BRANCH   2   3
ATOM      3  C   UNL     1     -17.147  -8.722  -1.587  1.00  0.00    -0.025 C 
ATOM      4  C   UNL     1     -17.109  -9.301  -2.792  1.00  0.00     0.020 C 
BRANCH   4   5
ATOM      5  C   UNL     1     -16.236  -8.807  -3.867  1.00  0.00     0.064 C 
ATOM      6  O   UNL     1     -16.716  -8.071  -4.768  1.00  0.00    -0.545 OA
ATOM      7  O   UNL     1     -14.888  -9.142  -3.907  1.00  0.00    -0.545 OA
ENDBRANCH   4   5
ENDBRANCH   2   3
ENDBRANCH   1   2
BRANCH   1   8
ATOM      8  C   UNL     1     -18.967 -11.603  -0.230  1.00  0.00     0.000 C 
BRANCH   8   9
ATOM      9  C   UNL     1     -18.534 -12.847  -1.031  1.00  0.00    -0.000 C 
BRANCH   9  10
ATOM     10  C   UNL     1     -17.250 -13.514  -0.496  1.00  0.00    -0.003 C 
ATOM     11  C   UNL     1     -16.353 -12.535   0.262  1.00  0.00     0.004 C 
ENDBRANCH   9  10
ENDBRANCH   8   9
ENDBRANCH   1   8
TORSDOF 6
ENDMDL
MODEL 9
REMARK VINA RESULT:    -4.887      2.765      4.036
REMARK INTER + INTRA:          -7.123
REMARK INTER:                  -6.826
REMARK INTRA:                  -0.297
REMARK UNBOUND:                -0.521
REMARK SMILES CCCCCCC=CC(=O)[O-]
REMARK SMILES IDX 5 1 6 2 7 3 8 4 9 5 10 6 11 7 4 8 3 9 2 10 1 11
REMARK H PARENT
REMARK Flexibility Score: inf
ROOT
ATOM      1  C   UNL     1     -19.017 -11.740  -0.243  1.00  0.00     0.004 C 
ENDROOT
BRANCH   1   2
ATOM      2  C   UNL     1     -19.047 -10.406  -1.004  1.00  0.00     0.027 C 
BRANCH   2   3
ATOM      3  C   UNL     1     -18.049  -9.438  -0.438  1.00  0.00    -0.025 C 
ATOM      4  C   UNL     1     -17.065  -8.929  -1.188  1.00  0.00     0.020 C 
BRANCH   4   5
ATOM      5  C   UNL     1     -16.089  -7.970  -0.650  1.00  0.00     0.064 C 
ATOM      6  O   UNL     1     -16.291  -7.445   0.476  1.00  0.00    -0.545 OA
ATOM      7  O   UNL     1     -14.948  -7.631  -1.366  1.00  0.00    -0.545 OA
ENDBRANCH   4   5
ENDBRANCH   2   3
ENDBRANCH   1   2
BRANCH   1   8
ATOM      8  C   UNL     1     -18.499 -12.904  -1.104  1.00  0.00     0.000 C 
BRANCH   8   9
ATOM      9  C   UNL     1     -17.208 -13.570  -0.587  1.00  0.00    -0.000 C 
BRANCH   9  10
ATOM     10  C   UNL     1     -16.636 -14.639  -1.541  1.00  0.00    -0.003 C 
ATOM     11  C   UNL     1     -17.449 -14.770  -2.829  1.00  0.00     0.004 C 
ENDBRANCH   9  10
ENDBRANCH   8   9
ENDBRANCH   1   8
TORSDOF 6
ENDMDL
