MODEL 1
REMARK VINA RESULT:    -5.571      0.000      0.000
REMARK INTER + INTRA:          -7.869
REMARK INTER:                  -7.525
REMARK INTRA:                  -0.344
REMARK UNBOUND:                -0.344
REMARK SMILES CC(=O)CCC=C(C)CCC=C(C)C
REMARK SMILES IDX 7 1 6 2 8 3 9 4 10 5 11 6 13 7 12 8 14 9 5 10 4 11 2 12 3 13
REMARK SMILES IDX 1 14
REMARK H PARENT
REMARK Flexibility Score: inf
ROOT
ATOM      1  C   UNL     1      19.015   4.273  18.411  1.00  0.00    -0.077 C 
ATOM      2  C   UNL     1      18.774   5.563  18.087  1.00  0.00    -0.028 C 
ATOM      3  C   UNL     1      18.866   3.227  17.336  1.00  0.00     0.039 C 
ENDROOT
BRANCH   1   4
ATOM      4  C   UNL     1      19.391   3.829  19.815  1.00  0.00     0.034 C 
BRANCH   4   5
ATOM      5  C   UNL     1      19.261   2.308  19.987  1.00  0.00     0.032 C 
BRANCH   5   6
ATOM      6  C   UNL     1      19.460   1.886  21.425  1.00  0.00    -0.028 C 
ATOM      7  C   UNL     1      19.455  -0.560  20.886  1.00  0.00     0.039 C 
ATOM      8  C   UNL     1      19.518   0.604  21.847  1.00  0.00    -0.080 C 
ATOM      9  C   UNL     1      19.670   0.342  23.322  1.00  0.00     0.039 C 
ENDBRANCH   5   6
ENDBRANCH   4   5
ENDBRANCH   1   4
BRANCH   2  10
ATOM     10  C   UNL     1      18.936   6.736  19.025  1.00  0.00     0.035 C 
BRANCH  10  11
ATOM     11  C   UNL     1      17.891   7.830  18.763  1.00  0.00     0.079 C 
BRANCH  11  12
ATOM     12  C   UNL     1      18.055   8.999  19.700  1.00  0.00     0.130 C 
ATOM     13  O   UNL     1      18.317   8.802  20.876  1.00  0.00    -0.300 OA
ATOM     14  C   UNL     1      17.862  10.400  19.205  1.00  0.00     0.087 C 
ENDBRANCH  11  12
ENDBRANCH  10  11
ENDBRANCH   2  10
TORSDOF 6
ENDMDL
MODEL 2
REMARK VINA RESULT:    -5.500      2.550      6.239
REMARK INTER + INTRA:          -7.773
REMARK INTER:                  -7.167
REMARK INTRA:                  -0.606
REMARK UNBOUND:                -0.344
REMARK SMILES CC(=O)CCC=C(C)CCC=C(C)C
REMARK SMILES IDX 7 1 6 2 8 3 9 4 10 5 11 6 13 7 12 8 14 9 5 10 4 11 2 12 3 13
REMARK SMILES IDX 1 14
REMARK H PARENT
REMARK Flexibility Score: inf
ROOT
ATOM      1  C   UNL     1      19.444   0.572  21.848  1.00  0.00    -0.077 C 
ATOM      2  C   UNL     1      19.690   0.410  23.168  1.00  0.00    -0.028 C 
ATOM      3  C   UNL     1      19.637  -0.613  20.937  1.00  0.00     0.039 C 
ENDROOT
BRANCH   1   4
ATOM      4  C   UNL     1      19.021   1.899  21.242  1.00  0.00     0.034 C 
BRANCH   4   5
ATOM      5  C   UNL     1      19.431   2.009  19.765  1.00  0.00     0.032 C 
BRANCH   5   6
ATOM      6  C   UNL     1      19.656   3.444  19.350  1.00  0.00    -0.028 C 
ATOM      7  C   UNL     1      17.765   3.445  17.708  1.00  0.00     0.039 C 
ATOM      8  C   UNL     1      18.937   4.092  18.407  1.00  0.00    -0.080 C 
ATOM      9  C   UNL     1      19.316   5.509  18.065  1.00  0.00     0.039 C 
ENDBRANCH   5   6
ENDBRANCH   4   5
ENDBRANCH   1   4
BRANCH   2  10
ATOM     10  C   UNL     1      19.488   1.474  24.222  1.00  0.00     0.035 C 
BRANCH  10  11
ATOM     11  C   UNL     1      20.823   2.022  24.748  1.00  0.00     0.079 C 
BRANCH  11  12
ATOM     12  C   UNL     1      21.112   3.402  24.216  1.00  0.00     0.130 C 
ATOM     13  O   UNL     1      20.224   4.042  23.674  1.00  0.00    -0.300 OA
ATOM     14  C   UNL     1      22.491   3.979  24.316  1.00  0.00     0.087 C 
ENDBRANCH  11  12
ENDBRANCH  10  11
ENDBRANCH   2  10
TORSDOF 6
ENDMDL
MODEL 3
REMARK VINA RESULT:    -5.484      2.636      4.484
REMARK INTER + INTRA:          -7.751
REMARK INTER:                  -7.156
REMARK INTRA:                  -0.595
REMARK UNBOUND:                -0.344
REMARK SMILES CC(=O)CCC=C(C)CCC=C(C)C
REMARK SMILES IDX 7 1 6 2 8 3 9 4 10 5 11 6 13 7 12 8 14 9 5 10 4 11 2 12 3 13
REMARK SMILES IDX 1 14
REMARK H PARENT
REMARK Flexibility Score: inf
ROOT
ATOM      1  C   UNL     1      19.777   2.705  22.453  1.00  0.00    -0.077 C 
ATOM      2  C   UNL     1      19.812   3.099  21.159  1.00  0.00    -0.028 C 
ATOM      3  C   UNL     1      20.648   3.434  23.444  1.00  0.00     0.039 C 
ENDROOT
BRANCH   1   4
ATOM      4  C   UNL     1      18.933   1.540  22.941  1.00  0.00     0.034 C 
BRANCH   4   5
ATOM      5  C   UNL     1      19.749   0.241  23.030  1.00  0.00     0.032 C 
BRANCH   5   6
ATOM      6  C   UNL     1      19.673  -0.560  21.751  1.00  0.00    -0.028 C 
ATOM      7  C   UNL     1      20.246  -2.725  22.872  1.00  0.00     0.039 C 
ATOM      8  C   UNL     1      19.924  -1.885  21.659  1.00  0.00    -0.080 C 
ATOM      9  C   UNL     1      19.858  -2.534  20.302  1.00  0.00     0.039 C 
ENDBRANCH   5   6
ENDBRANCH   4   5
ENDBRANCH   1   4
BRANCH   2  10
ATOM     10  C   UNL     1      18.960   2.517  20.055  1.00  0.00     0.035 C 
BRANCH  10  11
ATOM     11  C   UNL     1      19.359   3.061  18.675  1.00  0.00     0.079 C 
BRANCH  11  12
ATOM     12  C   UNL     1      18.313   3.990  18.115  1.00  0.00     0.130 C 
ATOM     13  O   UNL     1      17.322   3.530  17.569  1.00  0.00    -0.300 OA
ATOM     14  C   UNL     1      18.500   5.475  18.190  1.00  0.00     0.087 C 
ENDBRANCH  11  12
ENDBRANCH  10  11
ENDBRANCH   2  10
TORSDOF 6
ENDMDL
MODEL 4
REMARK VINA RESULT:    -5.464      4.092      7.860
REMARK INTER + INTRA:          -7.724
REMARK INTER:                  -7.114
REMARK INTRA:                  -0.610
REMARK UNBOUND:                -0.344
REMARK SMILES CC(=O)CCC=C(C)CCC=C(C)C
REMARK SMILES IDX 7 1 6 2 8 3 9 4 10 5 11 6 13 7 12 8 14 9 5 10 4 11 2 12 3 13
REMARK SMILES IDX 1 14
REMARK H PARENT
REMARK Flexibility Score: inf
ROOT
ATOM      1  C   UNL     1      19.736   2.121  22.667  1.00  0.00    -0.077 C 
ATOM      2  C   UNL     1      19.327   1.267  23.632  1.00  0.00    -0.028 C 
ATOM      3  C   UNL     1      20.177   3.503  23.078  1.00  0.00     0.039 C 
ENDROOT
BRANCH   1   4
ATOM      4  C   UNL     1      19.734   1.763  21.190  1.00  0.00     0.034 C 
BRANCH   4   5
ATOM      5  C   UNL     1      19.592   3.008  20.301  1.00  0.00     0.032 C 
BRANCH   5   6
ATOM      6  C   UNL     1      18.511   2.835  19.259  1.00  0.00    -0.028 C 
ATOM      7  C   UNL     1      19.139   4.916  18.015  1.00  0.00     0.039 C 
ATOM      8  C   UNL     1      18.276   3.697  18.247  1.00  0.00    -0.080 C 
ATOM      9  C   UNL     1      17.127   3.414  17.316  1.00  0.00     0.039 C 
ENDBRANCH   5   6
ENDBRANCH   4   5
ENDBRANCH   1   4
BRANCH   2  10
ATOM     10  C   UNL     1      18.913  -0.168  23.399  1.00  0.00     0.035 C 
BRANCH  10  11
ATOM     11  C   UNL     1      20.102  -1.133  23.508  1.00  0.00     0.079 C 
BRANCH  11  12
ATOM     12  C   UNL     1      20.006  -2.257  22.509  1.00  0.00     0.130 C 
ATOM     13  O   UNL     1      20.099  -3.416  22.886  1.00  0.00    -0.300 OA
ATOM     14  C   UNL     1      19.834  -1.962  21.050  1.00  0.00     0.087 C 
ENDBRANCH  11  12
ENDBRANCH  10  11
ENDBRANCH   2  10
TORSDOF 6
ENDMDL
MODEL 5
REMARK VINA RESULT:    -5.401      2.715      4.739
REMARK INTER + INTRA:          -7.640
REMARK INTER:                  -7.136
REMARK INTRA:                  -0.504
REMARK UNBOUND:                -0.344
REMARK SMILES CC(=O)CCC=C(C)CCC=C(C)C
REMARK SMILES IDX 7 1 6 2 8 3 9 4 10 5 11 6 13 7 12 8 14 9 5 10 4 11 2 12 3 13
REMARK SMILES IDX 1 14
REMARK H PARENT
REMARK Flexibility Score: inf
ROOT
ATOM      1  C   UNL     1      19.474   0.544  21.240  1.00  0.00    -0.077 C 
ATOM      2  C   UNL     1      19.398   1.398  20.194  1.00  0.00    -0.028 C 
ATOM      3  C   UNL     1      19.522  -0.935  20.951  1.00  0.00     0.039 C 
ENDROOT
BRANCH   1   4
ATOM      4  C   UNL     1      19.475   1.006  22.687  1.00  0.00     0.034 C 
BRANCH   4   5
ATOM      5  C   UNL     1      18.505   0.184  23.550  1.00  0.00     0.032 C 
BRANCH   5   6
ATOM      6  C   UNL     1      17.259   0.966  23.895  1.00  0.00    -0.028 C 
ATOM      7  C   UNL     1      16.168  -0.960  25.065  1.00  0.00     0.039 C 
ATOM      8  C   UNL     1      16.189   0.458  24.546  1.00  0.00    -0.080 C 
ATOM      9  C   UNL     1      14.998   1.350  24.773  1.00  0.00     0.039 C 
ENDBRANCH   5   6
ENDBRANCH   4   5
ENDBRANCH   1   4
BRANCH   2  10
ATOM     10  C   UNL     1      19.403   2.904  20.305  1.00  0.00     0.035 C 
BRANCH  10  11
ATOM     11  C   UNL     1      19.854   3.575  18.999  1.00  0.00     0.079 C 
BRANCH  11  12
ATOM     12  C   UNL     1      18.720   4.303  18.322  1.00  0.00     0.130 C 
ATOM     13  O   UNL     1      17.792   3.670  17.843  1.00  0.00    -0.300 OA
ATOM     14  C   UNL     1      18.743   5.796  18.202  1.00  0.00     0.087 C 
ENDBRANCH  11  12
ENDBRANCH  10  11
ENDBRANCH   2  10
TORSDOF 6
ENDMDL
MODEL 6
REMARK VINA RESULT:    -5.341      2.925      4.934
REMARK INTER + INTRA:          -7.558
REMARK INTER:                  -6.571
REMARK INTRA:                  -0.986
REMARK UNBOUND:                -0.344
REMARK SMILES CC(=O)CCC=C(C)CCC=C(C)C
REMARK SMILES IDX 7 1 6 2 8 3 9 4 10 5 11 6 13 7 12 8 14 9 5 10 4 11 2 12 3 13
REMARK SMILES IDX 1 14
REMARK H PARENT
REMARK Flexibility Score: inf
ROOT
ATOM      1  C   UNL     1      19.216  -0.004  21.488  1.00  0.00    -0.077 C 
ATOM      2  C   UNL     1      19.432   0.934  20.538  1.00  0.00    -0.028 C 
ATOM      3  C   UNL     1      19.790  -1.381  21.274  1.00  0.00     0.039 C 
ENDROOT
BRANCH   1   4
ATOM      4  C   UNL     1      18.393   0.258  22.738  1.00  0.00     0.034 C 
BRANCH   4   5
ATOM      5  C   UNL     1      19.268   0.296  24.001  1.00  0.00     0.032 C 
BRANCH   5   6
ATOM      6  C   UNL     1      20.344   1.352  23.908  1.00  0.00    -0.028 C 
ATOM      7  C   UNL     1      18.833   3.201  24.661  1.00  0.00     0.039 C 
ATOM      8  C   UNL     1      20.157   2.664  24.171  1.00  0.00    -0.080 C 
ATOM      9  C   UNL     1      21.317   3.605  23.984  1.00  0.00     0.039 C 
ENDBRANCH   5   6
ENDBRANCH   4   5
ENDBRANCH   1   4
BRANCH   2  10
ATOM     10  C   UNL     1      18.980   2.373  20.625  1.00  0.00     0.035 C 
BRANCH  10  11
ATOM     11  C   UNL     1      19.747   3.276  19.647  1.00  0.00     0.079 C 
BRANCH  11  12
ATOM     12  C   UNL     1      18.820   3.986  18.694  1.00  0.00     0.130 C 
ATOM     13  O   UNL     1      18.904   5.196  18.553  1.00  0.00    -0.300 OA
ATOM     14  C   UNL     1      17.771   3.221  17.946  1.00  0.00     0.087 C 
ENDBRANCH  11  12
ENDBRANCH  10  11
ENDBRANCH   2  10
TORSDOF 6
ENDMDL
MODEL 7
REMARK VINA RESULT:    -5.338      3.025      7.098
REMARK INTER + INTRA:          -7.555
REMARK INTER:                  -6.932
REMARK INTRA:                  -0.622
REMARK UNBOUND:                -0.344
REMARK SMILES CC(=O)CCC=C(C)CCC=C(C)C
REMARK SMILES IDX 7 1 6 2 8 3 9 4 10 5 11 6 13 7 12 8 14 9 5 10 4 11 2 12 3 13
REMARK SMILES IDX 1 14
REMARK H PARENT
REMARK Flexibility Score: inf
ROOT
ATOM      1  C   UNL     1      19.482   0.190  21.597  1.00  0.00    -0.077 C 
ATOM      2  C   UNL     1      19.720  -0.157  22.883  1.00  0.00    -0.028 C 
ATOM      3  C   UNL     1      19.430  -0.905  20.562  1.00  0.00     0.039 C 
ENDROOT
BRANCH   1   4
ATOM      4  C   UNL     1      19.304   1.630  21.148  1.00  0.00     0.034 C 
BRANCH   4   5
ATOM      5  C   UNL     1      19.410   1.769  19.621  1.00  0.00     0.032 C 
BRANCH   5   6
ATOM      6  C   UNL     1      19.605   3.208  19.201  1.00  0.00    -0.028 C 
ATOM      7  C   UNL     1      17.508   3.271  17.834  1.00  0.00     0.039 C 
ATOM      8  C   UNL     1      18.777   3.885  18.375  1.00  0.00    -0.080 C 
ATOM      9  C   UNL     1      19.133   5.301  18.007  1.00  0.00     0.039 C 
ENDBRANCH   5   6
ENDBRANCH   4   5
ENDBRANCH   1   4
BRANCH   2  10
ATOM     10  C   UNL     1      19.744   0.805  24.047  1.00  0.00     0.035 C 
BRANCH  10  11
ATOM     11  C   UNL     1      18.717   0.427  25.125  1.00  0.00     0.079 C 
BRANCH  11  12
ATOM     12  C   UNL     1      17.306   0.480  24.598  1.00  0.00     0.130 C 
ATOM     13  O   UNL     1      16.916   1.474  24.005  1.00  0.00    -0.300 OA
ATOM     14  C   UNL     1      16.367  -0.665  24.830  1.00  0.00     0.087 C 
ENDBRANCH  11  12
ENDBRANCH  10  11
ENDBRANCH   2  10
TORSDOF 6
ENDMDL
MODEL 8
REMARK VINA RESULT:    -5.317      2.508      6.685
REMARK INTER + INTRA:          -7.526
REMARK INTER:                  -6.864
REMARK INTRA:                  -0.662
REMARK UNBOUND:                -0.344
REMARK SMILES CC(=O)CCC=C(C)CCC=C(C)C
REMARK SMILES IDX 7 1 6 2 8 3 9 4 10 5 11 6 13 7 12 8 14 9 5 10 4 11 2 12 3 13
REMARK SMILES IDX 1 14
REMARK H PARENT
REMARK Flexibility Score: inf
ROOT
ATOM      1  C   UNL     1      18.631   3.401  18.747  1.00  0.00    -0.077 C 
ATOM      2  C   UNL     1      18.702   2.623  19.851  1.00  0.00    -0.028 C 
ATOM      3  C   UNL     1      17.396   3.309  17.889  1.00  0.00     0.039 C 
ENDROOT
BRANCH   1   4
ATOM      4  C   UNL     1      19.752   4.331  18.317  1.00  0.00     0.034 C 
BRANCH   4   5
ATOM      5  C   UNL     1      19.222   5.714  17.907  1.00  0.00     0.032 C 
BRANCH   5   6
ATOM      6  C   UNL     1      19.112   6.647  19.091  1.00  0.00    -0.028 C 
ATOM      7  C   UNL     1      17.287   8.017  18.059  1.00  0.00     0.039 C 
ATOM      8  C   UNL     1      18.271   7.702  19.161  1.00  0.00    -0.080 C 
ATOM      9  C   UNL     1      18.313   8.572  20.389  1.00  0.00     0.039 C 
ENDBRANCH   5   6
ENDBRANCH   4   5
ENDBRANCH   1   4
BRANCH   2  10
ATOM     10  C   UNL     1      19.838   2.638  20.848  1.00  0.00     0.035 C 
BRANCH  10  11
ATOM     11  C   UNL     1      19.383   2.187  22.244  1.00  0.00     0.079 C 
BRANCH  11  12
ATOM     12  C   UNL     1      18.897   0.760  22.242  1.00  0.00     0.130 C 
ATOM     13  O   UNL     1      17.803   0.491  22.712  1.00  0.00    -0.300 OA
ATOM     14  C   UNL     1      19.764  -0.335  21.699  1.00  0.00     0.087 C 
ENDBRANCH  11  12
ENDBRANCH  10  11
ENDBRANCH   2  10
TORSDOF 6
ENDMDL
MODEL 9
REMARK VINA RESULT:    -5.229      2.384      4.407
REMARK INTER + INTRA:          -7.406
REMARK INTER:                  -6.947
REMARK INTRA:                  -0.459
REMARK UNBOUND:                -0.344
REMARK SMILES CC(=O)CCC=C(C)CCC=C(C)C
REMARK SMILES IDX 7 1 6 2 8 3 9 4 10 5 11 6 13 7 12 8 14 9 5 10 4 11 2 12 3 13
REMARK SMILES IDX 1 14
REMARK H PARENT
REMARK Flexibility Score: inf
ROOT
ATOM      1  C   UNL     1      19.667   2.214  21.608  1.00  0.00    -0.077 C 
ATOM      2  C   UNL     1      19.555   2.892  20.443  1.00  0.00    -0.028 C 
ATOM      3  C   UNL     1      20.077   2.978  22.841  1.00  0.00     0.039 C 
ENDROOT
BRANCH   1   4
ATOM      4  C   UNL     1      19.437   0.717  21.719  1.00  0.00     0.034 C 
BRANCH   4   5
ATOM      5  C   UNL     1      19.497   0.236  23.177  1.00  0.00     0.032 C 
BRANCH   5   6
ATOM      6  C   UNL     1      18.195  -0.390  23.617  1.00  0.00    -0.028 C 
ATOM      7  C   UNL     1      17.373   1.694  24.736  1.00  0.00     0.039 C 
ATOM      8  C   UNL     1      17.246   0.241  24.343  1.00  0.00    -0.080 C 
ATOM      9  C   UNL     1      16.020  -0.533  24.750  1.00  0.00     0.039 C 
ENDBRANCH   5   6
ENDBRANCH   4   5
ENDBRANCH   1   4
BRANCH   2  10
ATOM     10  C   UNL     1      19.098   2.292  19.134  1.00  0.00     0.035 C 
BRANCH  10  11
ATOM     11  C   UNL     1      18.735   3.372  18.103  1.00  0.00     0.079 C 
BRANCH  11  12
ATOM     12  C   UNL     1      19.647   4.568  18.198  1.00  0.00     0.130 C 
ATOM     13  O   UNL     1      20.856   4.419  18.102  1.00  0.00    -0.300 OA
ATOM     14  C   UNL     1      19.083   5.934  18.445  1.00  0.00     0.087 C 
ENDBRANCH  11  12
ENDBRANCH  10  11
ENDBRANCH   2  10
TORSDOF 6
ENDMDL
