MODEL 1
REMARK VINA RESULT:    -4.772      0.000      0.000
REMARK INTER + INTRA:         -14.281
REMARK INTER:                 -10.910
REMARK INTRA:                  -3.371
REMARK UNBOUND:                -3.371
REMARK SMILES CCCCCCCCCCCCCCCCCCCCCCCC(=O)[O-]
REMARK SMILES IDX 13 1 14 2 15 3 16 4 17 5 18 6 19 7 20 8 21 9 22 10 23 11
REMARK SMILES IDX 24 12 25 13 26 14 12 15 11 16 10 17 9 18 8 19 7 20 6 21 5 22
REMARK SMILES IDX 4 23 3 24 2 25 1 26
REMARK H PARENT
REMARK Flexibility Score: inf
ROOT
ATOM      1  C   UNL     1      64.230  30.085   9.260  1.00  0.00     0.000 C 
ENDROOT
BRANCH   1   2
ATOM      2  C   UNL     1      64.345  31.367  10.101  1.00  0.00     0.000 C 
BRANCH   2   3
ATOM      3  C   UNL     1      63.435  31.346  11.339  1.00  0.00     0.000 C 
BRANCH   3   4
ATOM      4  C   UNL     1      63.932  32.290  12.448  1.00  0.00     0.000 C 
BRANCH   4   5
ATOM      5  C   UNL     1      65.084  33.198  11.984  1.00  0.00     0.000 C 
BRANCH   5   6
ATOM      6  C   UNL     1      65.981  33.735  13.116  1.00  0.00     0.000 C 
BRANCH   6   7
ATOM      7  C   UNL     1      65.262  34.735  14.049  1.00  0.00     0.000 C 
BRANCH   7   8
ATOM      8  C   UNL     1      65.004  34.144  15.445  1.00  0.00     0.000 C 
BRANCH   8   9
ATOM      9  C   UNL     1      63.538  33.724  15.605  1.00  0.00     0.000 C 
BRANCH   9  10
ATOM     10  C   UNL     1      63.323  32.773  16.795  1.00  0.00     0.006 C 
BRANCH  10  11
ATOM     11  C   UNL     1      63.671  33.425  18.140  1.00  0.00     0.053 C 
BRANCH  11  12
ATOM     12  C   UNL     1      62.422  33.811  18.868  1.00  0.00     0.041 C 
ATOM     13  O   UNL     1      61.559  34.531  18.301  1.00  0.00    -0.550 OA
ATOM     14  O   UNL     1      62.247  33.438  20.197  1.00  0.00    -0.550 OA
ENDBRANCH  11  12
ENDBRANCH  10  11
ENDBRANCH   9  10
ENDBRANCH   8   9
ENDBRANCH   7   8
ENDBRANCH   6   7
ENDBRANCH   5   6
ENDBRANCH   4   5
ENDBRANCH   3   4
ENDBRANCH   2   3
ENDBRANCH   1   2
BRANCH   1  15
ATOM     15  C   UNL     1      63.290  29.046   9.895  1.00  0.00     0.000 C 
BRANCH  15  16
ATOM     16  C   UNL     1      62.306  28.442   8.879  1.00  0.00     0.000 C 
BRANCH  16  17
ATOM     17  C   UNL     1      60.929  28.129   9.490  1.00  0.00     0.000 C 
BRANCH  17  18
ATOM     18  C   UNL     1      60.065  29.385   9.756  1.00  0.00    -0.000 C 
BRANCH  18  19
ATOM     19  C   UNL     1      59.945  29.717  11.254  1.00  0.00    -0.000 C 
BRANCH  19  20
ATOM     20  C   UNL     1      59.266  28.583  12.053  1.00  0.00    -0.000 C 
BRANCH  20  21
ATOM     21  C   UNL     1      60.112  28.112  13.245  1.00  0.00    -0.000 C 
BRANCH  21  22
ATOM     22  C   UNL     1      61.624  28.386  13.099  1.00  0.00    -0.000 C 
BRANCH  22  23
ATOM     23  C   UNL     1      62.203  29.403  14.106  1.00  0.00    -0.000 C 
BRANCH  23  24
ATOM     24  C   UNL     1      61.121  30.109  14.936  1.00  0.00    -0.000 C 
BRANCH  24  25
ATOM     25  C   UNL     1      60.800  31.499  14.371  1.00  0.00    -0.003 C 
ATOM     26  C   UNL     1      59.303  31.793  14.454  1.00  0.00     0.004 C 
ENDBRANCH  24  25
ENDBRANCH  23  24
ENDBRANCH  22  23
ENDBRANCH  21  22
ENDBRANCH  20  21
ENDBRANCH  19  20
ENDBRANCH  18  19
ENDBRANCH  17  18
ENDBRANCH  16  17
ENDBRANCH  15  16
ENDBRANCH   1  15
TORSDOF 22
ENDMDL
MODEL 2
REMARK VINA RESULT:    -4.760      1.195      4.412
REMARK INTER + INTRA:         -14.253
REMARK INTER:                 -10.875
REMARK INTRA:                  -3.378
REMARK UNBOUND:                -3.371
REMARK SMILES CCCCCCCCCCCCCCCCCCCCCCCC(=O)[O-]
REMARK SMILES IDX 13 1 14 2 15 3 16 4 17 5 18 6 19 7 20 8 21 9 22 10 23 11
REMARK SMILES IDX 24 12 25 13 26 14 12 15 11 16 10 17 9 18 8 19 7 20 6 21 5 22
REMARK SMILES IDX 4 23 3 24 2 25 1 26
REMARK H PARENT
REMARK Flexibility Score: inf
ROOT
ATOM      1  C   UNL     1      59.209  28.885  12.405  1.00  0.00     0.000 C 
ENDROOT
BRANCH   1   2
ATOM      2  C   UNL     1      60.114  27.816  13.039  1.00  0.00     0.000 C 
BRANCH   2   3
ATOM      3  C   UNL     1      61.567  28.290  13.200  1.00  0.00     0.000 C 
BRANCH   3   4
ATOM      4  C   UNL     1      61.687  29.504  14.137  1.00  0.00     0.000 C 
BRANCH   4   5
ATOM      5  C   UNL     1      62.344  30.718  13.457  1.00  0.00     0.000 C 
BRANCH   5   6
ATOM      6  C   UNL     1      61.365  31.826  13.025  1.00  0.00     0.000 C 
BRANCH   6   7
ATOM      7  C   UNL     1      60.194  32.032  14.012  1.00  0.00     0.000 C 
BRANCH   7   8
ATOM      8  C   UNL     1      60.087  33.491  14.488  1.00  0.00     0.000 C 
BRANCH   8   9
ATOM      9  C   UNL     1      60.708  33.665  15.879  1.00  0.00     0.000 C 
BRANCH   9  10
ATOM     10  C   UNL     1      62.245  33.589  15.852  1.00  0.00     0.006 C 
BRANCH  10  11
ATOM     11  C   UNL     1      62.818  32.830  17.057  1.00  0.00     0.053 C 
BRANCH  11  12
ATOM     12  C   UNL     1      63.354  33.793  18.069  1.00  0.00     0.041 C 
ATOM     13  O   UNL     1      62.942  34.983  18.087  1.00  0.00    -0.550 OA
ATOM     14  O   UNL     1      64.361  33.396  18.943  1.00  0.00    -0.550 OA
ENDBRANCH  11  12
ENDBRANCH  10  11
ENDBRANCH   9  10
ENDBRANCH   8   9
ENDBRANCH   7   8
ENDBRANCH   6   7
ENDBRANCH   5   6
ENDBRANCH   4   5
ENDBRANCH   3   4
ENDBRANCH   2   3
ENDBRANCH   1   2
BRANCH   1  15
ATOM     15  C   UNL     1      59.669  29.285  10.993  1.00  0.00     0.000 C 
BRANCH  15  16
ATOM     16  C   UNL     1      59.578  28.121   9.991  1.00  0.00     0.000 C 
BRANCH  16  17
ATOM     17  C   UNL     1      60.829  27.993   9.104  1.00  0.00     0.000 C 
BRANCH  17  18
ATOM     18  C   UNL     1      61.775  29.215   9.181  1.00  0.00    -0.000 C 
BRANCH  18  19
ATOM     19  C   UNL     1      63.025  28.946  10.039  1.00  0.00    -0.000 C 
BRANCH  19  20
ATOM     20  C   UNL     1      64.225  29.821   9.615  1.00  0.00    -0.000 C 
BRANCH  20  21
ATOM     21  C   UNL     1      64.149  31.245  10.185  1.00  0.00    -0.000 C 
BRANCH  21  22
ATOM     22  C   UNL     1      65.423  32.087   9.962  1.00  0.00    -0.000 C 
BRANCH  22  23
ATOM     23  C   UNL     1      65.711  33.137  11.056  1.00  0.00    -0.000 C 
BRANCH  23  24
ATOM     24  C   UNL     1      64.714  33.080  12.222  1.00  0.00    -0.000 C 
BRANCH  24  25
ATOM     25  C   UNL     1      65.223  33.869  13.435  1.00  0.00    -0.003 C 
ATOM     26  C   UNL     1      65.675  32.931  14.552  1.00  0.00     0.004 C 
ENDBRANCH  24  25
ENDBRANCH  23  24
ENDBRANCH  22  23
ENDBRANCH  21  22
ENDBRANCH  20  21
ENDBRANCH  19  20
ENDBRANCH  18  19
ENDBRANCH  17  18
ENDBRANCH  16  17
ENDBRANCH  15  16
ENDBRANCH   1  15
TORSDOF 22
ENDMDL
MODEL 3
REMARK VINA RESULT:    -4.757      1.655      4.398
REMARK INTER + INTRA:         -14.247
REMARK INTER:                  -9.962
REMARK INTRA:                  -4.285
REMARK UNBOUND:                -3.371
REMARK SMILES CCCCCCCCCCCCCCCCCCCCCCCC(=O)[O-]
REMARK SMILES IDX 13 1 14 2 15 3 16 4 17 5 18 6 19 7 20 8 21 9 22 10 23 11
REMARK SMILES IDX 24 12 25 13 26 14 12 15 11 16 10 17 9 18 8 19 7 20 6 21 5 22
REMARK SMILES IDX 4 23 3 24 2 25 1 26
REMARK H PARENT
REMARK Flexibility Score: inf
ROOT
ATOM      1  C   UNL     1      59.600  31.924  13.983  1.00  0.00     0.000 C 
ENDROOT
BRANCH   1   2
ATOM      2  C   UNL     1      60.020  32.963  15.035  1.00  0.00     0.000 C 
BRANCH   2   3
ATOM      3  C   UNL     1      60.672  32.323  16.272  1.00  0.00     0.000 C 
BRANCH   3   4
ATOM      4  C   UNL     1      61.892  33.117  16.768  1.00  0.00     0.000 C 
BRANCH   4   5
ATOM      5  C   UNL     1      63.219  32.586  16.200  1.00  0.00     0.000 C 
BRANCH   5   6
ATOM      6  C   UNL     1      63.999  33.591  15.331  1.00  0.00     0.000 C 
BRANCH   6   7
ATOM      7  C   UNL     1      65.533  33.436  15.437  1.00  0.00     0.000 C 
BRANCH   7   8
ATOM      8  C   UNL     1      65.942  32.038  15.930  1.00  0.00     0.000 C 
BRANCH   8   9
ATOM      9  C   UNL     1      66.650  32.116  17.288  1.00  0.00     0.000 C 
BRANCH   9  10
ATOM     10  C   UNL     1      66.353  33.428  18.033  1.00  0.00     0.006 C 
BRANCH  10  11
ATOM     11  C   UNL     1      65.334  33.244  19.166  1.00  0.00     0.053 C 
BRANCH  11  12
ATOM     12  C   UNL     1      64.595  34.522  19.412  1.00  0.00     0.041 C 
ATOM     13  O   UNL     1      64.290  34.856  20.588  1.00  0.00    -0.550 OA
ATOM     14  O   UNL     1      64.180  35.305  18.340  1.00  0.00    -0.550 OA
ENDBRANCH  11  12
ENDBRANCH  10  11
ENDBRANCH   9  10
ENDBRANCH   8   9
ENDBRANCH   7   8
ENDBRANCH   6   7
ENDBRANCH   5   6
ENDBRANCH   4   5
ENDBRANCH   3   4
ENDBRANCH   2   3
ENDBRANCH   1   2
BRANCH   1  15
ATOM     15  C   UNL     1      60.329  32.114  12.643  1.00  0.00     0.000 C 
BRANCH  15  16
ATOM     16  C   UNL     1      61.833  32.383  12.822  1.00  0.00     0.000 C 
BRANCH  16  17
ATOM     17  C   UNL     1      62.718  31.284  12.206  1.00  0.00     0.000 C 
BRANCH  17  18
ATOM     18  C   UNL     1      63.399  30.372  13.254  1.00  0.00    -0.000 C 
BRANCH  18  19
ATOM     19  C   UNL     1      62.386  29.572  14.093  1.00  0.00    -0.000 C 
BRANCH  19  20
ATOM     20  C   UNL     1      61.891  28.305  13.361  1.00  0.00    -0.000 C 
BRANCH  20  21
ATOM     21  C   UNL     1      60.359  28.211  13.312  1.00  0.00    -0.000 C 
BRANCH  21  22
ATOM     22  C   UNL     1      59.746  28.534  11.933  1.00  0.00    -0.000 C 
BRANCH  22  23
ATOM     23  C   UNL     1      60.666  28.247  10.727  1.00  0.00    -0.000 C 
BRANCH  23  24
ATOM     24  C   UNL     1      60.584  29.327   9.639  1.00  0.00    -0.000 C 
BRANCH  24  25
ATOM     25  C   UNL     1      61.956  29.587   9.003  1.00  0.00    -0.003 C 
ATOM     26  C   UNL     1      63.015  28.648   9.578  1.00  0.00     0.004 C 
ENDBRANCH  24  25
ENDBRANCH  23  24
ENDBRANCH  22  23
ENDBRANCH  21  22
ENDBRANCH  20  21
ENDBRANCH  19  20
ENDBRANCH  18  19
ENDBRANCH  17  18
ENDBRANCH  16  17
ENDBRANCH  15  16
ENDBRANCH   1  15
TORSDOF 22
ENDMDL
MODEL 4
REMARK VINA RESULT:    -4.707      1.282      2.482
REMARK INTER + INTRA:         -14.133
REMARK INTER:                 -10.249
REMARK INTRA:                  -3.883
REMARK UNBOUND:                -3.371
REMARK SMILES CCCCCCCCCCCCCCCCCCCCCCCC(=O)[O-]
REMARK SMILES IDX 13 1 14 2 15 3 16 4 17 5 18 6 19 7 20 8 21 9 22 10 23 11
REMARK SMILES IDX 24 12 25 13 26 14 12 15 11 16 10 17 9 18 8 19 7 20 6 21 5 22
REMARK SMILES IDX 4 23 3 24 2 25 1 26
REMARK H PARENT
REMARK Flexibility Score: inf
ROOT
ATOM      1  C   UNL     1      62.341  28.491   9.374  1.00  0.00     0.000 C 
ENDROOT
BRANCH   1   2
ATOM      2  C   UNL     1      62.647  29.948   8.988  1.00  0.00     0.000 C 
BRANCH   2   3
ATOM      3  C   UNL     1      63.572  30.645   9.998  1.00  0.00     0.000 C 
BRANCH   3   4
ATOM      4  C   UNL     1      64.957  30.959   9.404  1.00  0.00     0.000 C 
BRANCH   4   5
ATOM      5  C   UNL     1      65.644  32.151  10.093  1.00  0.00     0.000 C 
BRANCH   5   6
ATOM      6  C   UNL     1      64.865  32.749  11.280  1.00  0.00     0.000 C 
BRANCH   6   7
ATOM      7  C   UNL     1      65.588  33.936  11.955  1.00  0.00     0.000 C 
BRANCH   7   8
ATOM      8  C   UNL     1      65.088  34.181  13.389  1.00  0.00     0.000 C 
BRANCH   8   9
ATOM      9  C   UNL     1      65.579  33.084  14.340  1.00  0.00     0.000 C 
BRANCH   9  10
ATOM     10  C   UNL     1      65.257  33.391  15.813  1.00  0.00     0.006 C 
BRANCH  10  11
ATOM     11  C   UNL     1      64.418  34.665  15.978  1.00  0.00     0.053 C 
BRANCH  11  12
ATOM     12  C   UNL     1      63.614  34.597  17.239  1.00  0.00     0.041 C 
ATOM     13  O   UNL     1      64.087  35.056  18.312  1.00  0.00    -0.550 OA
ATOM     14  O   UNL     1      62.377  33.962  17.244  1.00  0.00    -0.550 OA
ENDBRANCH  11  12
ENDBRANCH  10  11
ENDBRANCH   9  10
ENDBRANCH   8   9
ENDBRANCH   7   8
ENDBRANCH   6   7
ENDBRANCH   5   6
ENDBRANCH   4   5
ENDBRANCH   3   4
ENDBRANCH   2   3
ENDBRANCH   1   2
BRANCH   1  15
ATOM     15  C   UNL     1      60.833  28.214   9.480  1.00  0.00     0.000 C 
BRANCH  15  16
ATOM     16  C   UNL     1      60.017  29.486   9.767  1.00  0.00     0.000 C 
BRANCH  16  17
ATOM     17  C   UNL     1      59.612  29.621  11.245  1.00  0.00     0.000 C 
BRANCH  17  18
ATOM     18  C   UNL     1      59.673  28.290  12.031  1.00  0.00    -0.000 C 
BRANCH  18  19
ATOM     19  C   UNL     1      60.358  28.439  13.402  1.00  0.00    -0.000 C 
BRANCH  19  20
ATOM     20  C   UNL     1      61.891  28.273  13.312  1.00  0.00    -0.000 C 
BRANCH  20  21
ATOM     21  C   UNL     1      62.623  29.614  13.154  1.00  0.00    -0.000 C 
BRANCH  21  22
ATOM     22  C   UNL     1      62.898  30.348  14.484  1.00  0.00    -0.000 C 
BRANCH  22  23
ATOM     23  C   UNL     1      62.178  31.704  14.642  1.00  0.00    -0.000 C 
BRANCH  23  24
ATOM     24  C   UNL     1      61.776  32.331  13.300  1.00  0.00    -0.000 C 
BRANCH  24  25
ATOM     25  C   UNL     1      60.286  32.694  13.274  1.00  0.00    -0.003 C 
ATOM     26  C   UNL     1      59.507  31.893  14.315  1.00  0.00     0.004 C 
ENDBRANCH  24  25
ENDBRANCH  23  24
ENDBRANCH  22  23
ENDBRANCH  21  22
ENDBRANCH  20  21
ENDBRANCH  19  20
ENDBRANCH  18  19
ENDBRANCH  17  18
ENDBRANCH  16  17
ENDBRANCH  15  16
ENDBRANCH   1  15
TORSDOF 22
ENDMDL
MODEL 5
REMARK VINA RESULT:    -4.649      1.361      4.063
REMARK INTER + INTRA:         -13.999
REMARK INTER:                 -10.004
REMARK INTRA:                  -3.995
REMARK UNBOUND:                -3.371
REMARK SMILES CCCCCCCCCCCCCCCCCCCCCCCC(=O)[O-]
REMARK SMILES IDX 13 1 14 2 15 3 16 4 17 5 18 6 19 7 20 8 21 9 22 10 23 11
REMARK SMILES IDX 24 12 25 13 26 14 12 15 11 16 10 17 9 18 8 19 7 20 6 21 5 22
REMARK SMILES IDX 4 23 3 24 2 25 1 26
REMARK H PARENT
REMARK Flexibility Score: inf
ROOT
ATOM      1  C   UNL     1      60.202  31.816  15.575  1.00  0.00     0.000 C 
ENDROOT
BRANCH   1   2
ATOM      2  C   UNL     1      61.147  33.004  15.330  1.00  0.00     0.000 C 
BRANCH   2   3
ATOM      3  C   UNL     1      62.624  32.582  15.268  1.00  0.00     0.000 C 
BRANCH   3   4
ATOM      4  C   UNL     1      63.281  32.946  13.925  1.00  0.00     0.000 C 
BRANCH   4   5
ATOM      5  C   UNL     1      64.813  32.799  13.953  1.00  0.00     0.000 C 
BRANCH   5   6
ATOM      6  C   UNL     1      65.358  31.928  15.101  1.00  0.00     0.000 C 
BRANCH   6   7
ATOM      7  C   UNL     1      66.413  32.649  15.972  1.00  0.00     0.000 C 
BRANCH   7   8
ATOM      8  C   UNL     1      66.110  34.149  16.128  1.00  0.00     0.000 C 
BRANCH   8   9
ATOM      9  C   UNL     1      65.839  34.508  17.593  1.00  0.00     0.000 C 
BRANCH   9  10
ATOM     10  C   UNL     1      64.340  34.693  17.888  1.00  0.00     0.006 C 
BRANCH  10  11
ATOM     11  C   UNL     1      63.673  33.401  18.378  1.00  0.00     0.053 C 
BRANCH  11  12
ATOM     12  C   UNL     1      62.568  33.719  19.336  1.00  0.00     0.041 C 
ATOM     13  O   UNL     1      61.417  33.989  18.901  1.00  0.00    -0.550 OA
ATOM     14  O   UNL     1      62.827  33.789  20.700  1.00  0.00    -0.550 OA
ENDBRANCH  11  12
ENDBRANCH  10  11
ENDBRANCH   9  10
ENDBRANCH   8   9
ENDBRANCH   7   8
ENDBRANCH   6   7
ENDBRANCH   5   6
ENDBRANCH   4   5
ENDBRANCH   3   4
ENDBRANCH   2   3
ENDBRANCH   1   2
BRANCH   1  15
ATOM     15  C   UNL     1      59.191  31.622  14.433  1.00  0.00     0.000 C 
BRANCH  15  16
ATOM     16  C   UNL     1      59.785  31.957  13.055  1.00  0.00     0.000 C 
BRANCH  16  17
ATOM     17  C   UNL     1      60.046  30.708  12.194  1.00  0.00     0.000 C 
BRANCH  17  18
ATOM     18  C   UNL     1      59.653  29.381  12.885  1.00  0.00    -0.000 C 
BRANCH  18  19
ATOM     19  C   UNL     1      60.869  28.488  13.193  1.00  0.00    -0.000 C 
BRANCH  19  20
ATOM     20  C   UNL     1      62.132  29.312  13.523  1.00  0.00    -0.000 C 
BRANCH  20  21
ATOM     21  C   UNL     1      63.271  29.075  12.520  1.00  0.00    -0.000 C 
BRANCH  21  22
ATOM     22  C   UNL     1      63.579  30.283  11.610  1.00  0.00    -0.000 C 
BRANCH  22  23
ATOM     23  C   UNL     1      63.569  29.980  10.097  1.00  0.00    -0.000 C 
BRANCH  23  24
ATOM     24  C   UNL     1      62.804  28.695   9.746  1.00  0.00    -0.000 C 
BRANCH  24  25
ATOM     25  C   UNL     1      61.424  29.009   9.156  1.00  0.00    -0.003 C 
ATOM     26  C   UNL     1      60.441  27.870   9.420  1.00  0.00     0.004 C 
ENDBRANCH  24  25
ENDBRANCH  23  24
ENDBRANCH  22  23
ENDBRANCH  21  22
ENDBRANCH  20  21
ENDBRANCH  19  20
ENDBRANCH  18  19
ENDBRANCH  17  18
ENDBRANCH  16  17
ENDBRANCH  15  16
ENDBRANCH   1  15
TORSDOF 22
ENDMDL
MODEL 6
REMARK VINA RESULT:    -4.590      2.123      6.994
REMARK INTER + INTRA:         -13.866
REMARK INTER:                 -10.319
REMARK INTRA:                  -3.546
REMARK UNBOUND:                -3.371
REMARK SMILES CCCCCCCCCCCCCCCCCCCCCCCC(=O)[O-]
REMARK SMILES IDX 13 1 14 2 15 3 16 4 17 5 18 6 19 7 20 8 21 9 22 10 23 11
REMARK SMILES IDX 24 12 25 13 26 14 12 15 11 16 10 17 9 18 8 19 7 20 6 21 5 22
REMARK SMILES IDX 4 23 3 24 2 25 1 26
REMARK H PARENT
REMARK Flexibility Score: inf
ROOT
ATOM      1  C   UNL     1      59.470  31.493  13.730  1.00  0.00     0.000 C 
ENDROOT
BRANCH   1   2
ATOM      2  C   UNL     1      59.675  30.763  12.392  1.00  0.00     0.000 C 
BRANCH   2   3
ATOM      3  C   UNL     1      59.709  29.235  12.551  1.00  0.00     0.000 C 
BRANCH   3   4
ATOM      4  C   UNL     1      59.476  28.501  11.219  1.00  0.00     0.000 C 
BRANCH   4   5
ATOM      5  C   UNL     1      59.523  29.445  10.004  1.00  0.00     0.000 C 
BRANCH   5   6
ATOM      6  C   UNL     1      60.834  29.394   9.196  1.00  0.00     0.000 C 
BRANCH   6   7
ATOM      7  C   UNL     1      61.808  28.294   9.673  1.00  0.00     0.000 C 
BRANCH   7   8
ATOM      8  C   UNL     1      63.167  28.871  10.107  1.00  0.00     0.000 C 
BRANCH   8   9
ATOM      9  C   UNL     1      63.054  30.365  10.433  1.00  0.00     0.000 C 
BRANCH   9  10
ATOM     10  C   UNL     1      63.294  30.663  11.922  1.00  0.00     0.006 C 
BRANCH  10  11
ATOM     11  C   UNL     1      63.371  29.389  12.773  1.00  0.00     0.053 C 
BRANCH  11  12
ATOM     12  C   UNL     1      63.471  29.740  14.225  1.00  0.00     0.041 C 
ATOM     13  O   UNL     1      62.451  30.135  14.849  1.00  0.00    -0.550 OA
ATOM     14  O   UNL     1      64.704  29.700  14.868  1.00  0.00    -0.550 OA
ENDBRANCH  11  12
ENDBRANCH  10  11
ENDBRANCH   9  10
ENDBRANCH   8   9
ENDBRANCH   7   8
ENDBRANCH   6   7
ENDBRANCH   5   6
ENDBRANCH   4   5
ENDBRANCH   3   4
ENDBRANCH   2   3
ENDBRANCH   1   2
BRANCH   1  15
ATOM     15  C   UNL     1      60.403  32.705  13.889  1.00  0.00     0.000 C 
BRANCH  15  16
ATOM     16  C   UNL     1      60.067  33.550  15.130  1.00  0.00     0.000 C 
BRANCH  16  17
ATOM     17  C   UNL     1      60.767  33.048  16.405  1.00  0.00     0.000 C 
BRANCH  17  18
ATOM     18  C   UNL     1      61.093  34.169  17.420  1.00  0.00    -0.000 C 
BRANCH  18  19
ATOM     19  C   UNL     1      61.045  33.682  18.880  1.00  0.00    -0.000 C 
BRANCH  19  20
ATOM     20  C   UNL     1      62.453  33.410  19.452  1.00  0.00    -0.000 C 
BRANCH  20  21
ATOM     21  C   UNL     1      63.566  34.058  18.616  1.00  0.00    -0.000 C 
BRANCH  21  22
ATOM     22  C   UNL     1      64.552  33.053  17.983  1.00  0.00    -0.000 C 
BRANCH  22  23
ATOM     23  C   UNL     1      65.320  33.579  16.752  1.00  0.00    -0.000 C 
BRANCH  23  24
ATOM     24  C   UNL     1      64.425  34.347  15.768  1.00  0.00    -0.000 C 
BRANCH  24  25
ATOM     25  C   UNL     1      63.995  33.461  14.593  1.00  0.00    -0.003 C 
ATOM     26  C   UNL     1      65.161  33.209  13.638  1.00  0.00     0.004 C 
ENDBRANCH  24  25
ENDBRANCH  23  24
ENDBRANCH  22  23
ENDBRANCH  21  22
ENDBRANCH  20  21
ENDBRANCH  19  20
ENDBRANCH  18  19
ENDBRANCH  17  18
ENDBRANCH  16  17
ENDBRANCH  15  16
ENDBRANCH   1  15
TORSDOF 22
ENDMDL
MODEL 7
REMARK VINA RESULT:    -4.579      1.530      4.188
REMARK INTER + INTRA:         -13.840
REMARK INTER:                 -11.106
REMARK INTRA:                  -2.734
REMARK UNBOUND:                -3.371
REMARK SMILES CCCCCCCCCCCCCCCCCCCCCCCC(=O)[O-]
REMARK SMILES IDX 13 1 14 2 15 3 16 4 17 5 18 6 19 7 20 8 21 9 22 10 23 11
REMARK SMILES IDX 24 12 25 13 26 14 12 15 11 16 10 17 9 18 8 19 7 20 6 21 5 22
REMARK SMILES IDX 4 23 3 24 2 25 1 26
REMARK H PARENT
REMARK Flexibility Score: inf
ROOT
ATOM      1  C   UNL     1      60.629  28.305  12.975  1.00  0.00     0.000 C 
ENDROOT
BRANCH   1   2
ATOM      2  C   UNL     1      61.463  29.582  12.786  1.00  0.00     0.000 C 
BRANCH   2   3
ATOM      3  C   UNL     1      61.117  30.672  13.813  1.00  0.00     0.000 C 
BRANCH   3   4
ATOM      4  C   UNL     1      60.351  31.848  13.184  1.00  0.00     0.000 C 
BRANCH   4   5
ATOM      5  C   UNL     1      60.371  33.111  14.063  1.00  0.00     0.000 C 
BRANCH   5   6
ATOM      6  C   UNL     1      61.331  33.045  15.267  1.00  0.00     0.000 C 
BRANCH   6   7
ATOM      7  C   UNL     1      60.607  33.075  16.632  1.00  0.00     0.000 C 
BRANCH   7   8
ATOM      8  C   UNL     1      61.128  34.201  17.541  1.00  0.00     0.000 C 
BRANCH   8   9
ATOM      9  C   UNL     1      61.005  33.818  19.021  1.00  0.00     0.000 C 
BRANCH   9  10
ATOM     10  C   UNL     1      62.360  33.444  19.647  1.00  0.00     0.006 C 
BRANCH  10  11
ATOM     11  C   UNL     1      63.501  33.441  18.622  1.00  0.00     0.053 C 
BRANCH  11  12
ATOM     12  C   UNL     1      64.520  34.479  18.976  1.00  0.00     0.041 C 
ATOM     13  O   UNL     1      64.348  35.676  18.623  1.00  0.00    -0.550 OA
ATOM     14  O   UNL     1      65.691  34.112  19.630  1.00  0.00    -0.550 OA
ENDBRANCH  11  12
ENDBRANCH  10  11
ENDBRANCH   9  10
ENDBRANCH   8   9
ENDBRANCH   7   8
ENDBRANCH   6   7
ENDBRANCH   5   6
ENDBRANCH   4   5
ENDBRANCH   3   4
ENDBRANCH   2   3
ENDBRANCH   1   2
BRANCH   1  15
ATOM     15  C   UNL     1      59.408  28.253  12.042  1.00  0.00     0.000 C 
BRANCH  15  16
ATOM     16  C   UNL     1      59.550  29.192  10.832  1.00  0.00     0.000 C 
BRANCH  16  17
ATOM     17  C   UNL     1      59.500  28.449   9.485  1.00  0.00     0.000 C 
BRANCH  17  18
ATOM     18  C   UNL     1      60.888  27.999   8.970  1.00  0.00    -0.000 C 
BRANCH  18  19
ATOM     19  C   UNL     1      61.912  29.148   8.939  1.00  0.00    -0.000 C 
BRANCH  19  20
ATOM     20  C   UNL     1      63.256  28.753   9.589  1.00  0.00    -0.000 C 
BRANCH  20  21
ATOM     21  C   UNL     1      64.392  29.725   9.236  1.00  0.00    -0.000 C 
BRANCH  21  22
ATOM     22  C   UNL     1      64.082  31.204   9.549  1.00  0.00    -0.000 C 
BRANCH  22  23
ATOM     23  C   UNL     1      63.787  31.510  11.033  1.00  0.00    -0.000 C 
BRANCH  23  24
ATOM     24  C   UNL     1      64.682  32.618  11.607  1.00  0.00    -0.000 C 
BRANCH  24  25
ATOM     25  C   UNL     1      64.183  33.086  12.980  1.00  0.00    -0.003 C 
ATOM     26  C   UNL     1      64.606  32.114  14.080  1.00  0.00     0.004 C 
ENDBRANCH  24  25
ENDBRANCH  23  24
ENDBRANCH  22  23
ENDBRANCH  21  22
ENDBRANCH  20  21
ENDBRANCH  19  20
ENDBRANCH  18  19
ENDBRANCH  17  18
ENDBRANCH  16  17
ENDBRANCH  15  16
ENDBRANCH   1  15
TORSDOF 22
ENDMDL
MODEL 8
REMARK VINA RESULT:    -4.502      2.044      5.776
REMARK INTER + INTRA:         -13.663
REMARK INTER:                 -10.275
REMARK INTRA:                  -3.388
REMARK UNBOUND:                -3.371
REMARK SMILES CCCCCCCCCCCCCCCCCCCCCCCC(=O)[O-]
REMARK SMILES IDX 13 1 14 2 15 3 16 4 17 5 18 6 19 7 20 8 21 9 22 10 23 11
REMARK SMILES IDX 24 12 25 13 26 14 12 15 11 16 10 17 9 18 8 19 7 20 6 21 5 22
REMARK SMILES IDX 4 23 3 24 2 25 1 26
REMARK H PARENT
REMARK Flexibility Score: inf
ROOT
ATOM      1  C   UNL     1      62.806  28.410   9.877  1.00  0.00     0.000 C 
ENDROOT
BRANCH   1   2
ATOM      2  C   UNL     1      61.427  28.149   9.249  1.00  0.00     0.000 C 
BRANCH   2   3
ATOM      3  C   UNL     1      60.467  29.338   9.416  1.00  0.00     0.000 C 
BRANCH   3   4
ATOM      4  C   UNL     1      59.269  29.000  10.321  1.00  0.00     0.000 C 
BRANCH   4   5
ATOM      5  C   UNL     1      59.494  29.414  11.786  1.00  0.00     0.000 C 
BRANCH   5   6
ATOM      6  C   UNL     1      59.715  28.243  12.762  1.00  0.00     0.000 C 
BRANCH   6   7
ATOM      7  C   UNL     1      61.162  28.154  13.299  1.00  0.00     0.000 C 
BRANCH   7   8
ATOM      8  C   UNL     1      61.903  29.498  13.193  1.00  0.00     0.000 C 
BRANCH   8   9
ATOM      9  C   UNL     1      62.326  30.006  14.576  1.00  0.00     0.000 C 
BRANCH   9  10
ATOM     10  C   UNL     1      61.122  30.346  15.472  1.00  0.00     0.006 C 
BRANCH  10  11
ATOM     11  C   UNL     1      60.760  31.836  15.432  1.00  0.00     0.053 C 
BRANCH  11  12
ATOM     12  C   UNL     1      59.716  32.089  14.391  1.00  0.00     0.041 C 
ATOM     13  O   UNL     1      58.563  31.600  14.524  1.00  0.00    -0.550 OA
ATOM     14  O   UNL     1      60.037  32.801  13.240  1.00  0.00    -0.550 OA
ENDBRANCH  11  12
ENDBRANCH  10  11
ENDBRANCH   9  10
ENDBRANCH   8   9
ENDBRANCH   7   8
ENDBRANCH   6   7
ENDBRANCH   5   6
ENDBRANCH   4   5
ENDBRANCH   3   4
ENDBRANCH   2   3
ENDBRANCH   1   2
BRANCH   1  15
ATOM     15  C   UNL     1      63.801  29.026   8.880  1.00  0.00     0.000 C 
BRANCH  15  16
ATOM     16  C   UNL     1      64.362  30.375   9.362  1.00  0.00     0.000 C 
BRANCH  16  17
ATOM     17  C   UNL     1      63.633  30.919  10.603  1.00  0.00     0.000 C 
BRANCH  17  18
ATOM     18  C   UNL     1      64.337  32.132  11.257  1.00  0.00    -0.000 C 
BRANCH  18  19
ATOM     19  C   UNL     1      65.640  32.523  10.536  1.00  0.00    -0.000 C 
BRANCH  19  20
ATOM     20  C   UNL     1      66.492  33.511  11.362  1.00  0.00    -0.000 C 
BRANCH  20  21
ATOM     21  C   UNL     1      65.678  34.709  11.873  1.00  0.00    -0.000 C 
BRANCH  21  22
ATOM     22  C   UNL     1      65.914  35.050  13.360  1.00  0.00    -0.000 C 
BRANCH  22  23
ATOM     23  C   UNL     1      65.550  33.925  14.353  1.00  0.00    -0.000 C 
BRANCH  23  24
ATOM     24  C   UNL     1      64.038  33.797  14.587  1.00  0.00    -0.000 C 
BRANCH  24  25
ATOM     25  C   UNL     1      63.687  33.932  16.074  1.00  0.00    -0.003 C 
ATOM     26  C   UNL     1      64.290  32.788  16.887  1.00  0.00     0.004 C 
ENDBRANCH  24  25
ENDBRANCH  23  24
ENDBRANCH  22  23
ENDBRANCH  21  22
ENDBRANCH  20  21
ENDBRANCH  19  20
ENDBRANCH  18  19
ENDBRANCH  17  18
ENDBRANCH  16  17
ENDBRANCH  15  16
ENDBRANCH   1  15
TORSDOF 22
ENDMDL
MODEL 9
REMARK VINA RESULT:    -4.490      2.593      5.344
REMARK INTER + INTRA:         -13.637
REMARK INTER:                 -10.049
REMARK INTRA:                  -3.588
REMARK UNBOUND:                -3.371
REMARK SMILES CCCCCCCCCCCCCCCCCCCCCCCC(=O)[O-]
REMARK SMILES IDX 13 1 14 2 15 3 16 4 17 5 18 6 19 7 20 8 21 9 22 10 23 11
REMARK SMILES IDX 24 12 25 13 26 14 12 15 11 16 10 17 9 18 8 19 7 20 6 21 5 22
REMARK SMILES IDX 4 23 3 24 2 25 1 26
REMARK H PARENT
REMARK Flexibility Score: inf
ROOT
ATOM      1  C   UNL     1      59.554  32.038  15.043  1.00  0.00     0.000 C 
ENDROOT
BRANCH   1   2
ATOM      2  C   UNL     1      60.273  33.391  14.922  1.00  0.00     0.000 C 
BRANCH   2   3
ATOM      3  C   UNL     1      61.486  33.503  15.859  1.00  0.00     0.000 C 
BRANCH   3   4
ATOM      4  C   UNL     1      61.123  33.206  17.325  1.00  0.00     0.000 C 
BRANCH   4   5
ATOM      5  C   UNL     1      62.021  33.955  18.324  1.00  0.00     0.000 C 
BRANCH   5   6
ATOM      6  C   UNL     1      63.495  33.505  18.333  1.00  0.00     0.000 C 
BRANCH   6   7
ATOM      7  C   UNL     1      64.494  34.671  18.506  1.00  0.00     0.000 C 
BRANCH   7   8
ATOM      8  C   UNL     1      64.866  35.321  17.163  1.00  0.00     0.000 C 
BRANCH   8   9
ATOM      9  C   UNL     1      65.324  34.266  16.148  1.00  0.00     0.000 C 
BRANCH   9  10
ATOM     10  C   UNL     1      64.849  34.579  14.718  1.00  0.00     0.006 C 
BRANCH  10  11
ATOM     11  C   UNL     1      64.607  33.312  13.888  1.00  0.00     0.053 C 
BRANCH  11  12
ATOM     12  C   UNL     1      65.454  33.329  12.654  1.00  0.00     0.041 C 
ATOM     13  O   UNL     1      66.623  33.795  12.700  1.00  0.00    -0.550 OA
ATOM     14  O   UNL     1      64.927  32.900  11.441  1.00  0.00    -0.550 OA
ENDBRANCH  11  12
ENDBRANCH  10  11
ENDBRANCH   9  10
ENDBRANCH   8   9
ENDBRANCH   7   8
ENDBRANCH   6   7
ENDBRANCH   5   6
ENDBRANCH   4   5
ENDBRANCH   3   4
ENDBRANCH   2   3
ENDBRANCH   1   2
BRANCH   1  15
ATOM     15  C   UNL     1      59.689  31.182  13.772  1.00  0.00     0.000 C 
BRANCH  15  16
ATOM     16  C   UNL     1      60.439  31.913  12.645  1.00  0.00     0.000 C 
BRANCH  16  17
ATOM     17  C   UNL     1      61.906  31.466  12.512  1.00  0.00     0.000 C 
BRANCH  17  18
ATOM     18  C   UNL     1      62.266  30.241  13.385  1.00  0.00    -0.000 C 
BRANCH  18  19
ATOM     19  C   UNL     1      62.987  29.136  12.591  1.00  0.00    -0.000 C 
BRANCH  19  20
ATOM     20  C   UNL     1      63.465  29.627  11.207  1.00  0.00    -0.000 C 
BRANCH  20  21
ATOM     21  C   UNL     1      62.927  28.764  10.056  1.00  0.00    -0.000 C 
BRANCH  21  22
ATOM     22  C   UNL     1      61.539  29.194   9.535  1.00  0.00    -0.000 C 
BRANCH  22  23
ATOM     23  C   UNL     1      60.396  28.199   9.826  1.00  0.00    -0.000 C 
BRANCH  23  24
ATOM     24  C   UNL     1      59.465  28.667  10.954  1.00  0.00    -0.000 C 
BRANCH  24  25
ATOM     25  C   UNL     1      59.662  27.832  12.225  1.00  0.00    -0.003 C 
ATOM     26  C   UNL     1      58.374  27.761  13.042  1.00  0.00     0.004 C 
ENDBRANCH  24  25
ENDBRANCH  23  24
ENDBRANCH  22  23
ENDBRANCH  21  22
ENDBRANCH  20  21
ENDBRANCH  19  20
ENDBRANCH  18  19
ENDBRANCH  17  18
ENDBRANCH  16  17
ENDBRANCH  15  16
ENDBRANCH   1  15
TORSDOF 22
ENDMDL
