MODEL 1
REMARK VINA RESULT:    21.604      0.000      0.000
REMARK INTER + INTRA:          53.302
REMARK INTER:                  54.441
REMARK INTRA:                  -1.139
REMARK UNBOUND:                -1.139
REMARK SMILES CCCCCCCCCCCCCCCCCCCCCCCCCCCC(=O)[O-]
REMARK SMILES IDX 15 1 16 2 17 3 18 4 19 5 20 6 21 7 22 8 23 9 24 10 25 11
REMARK SMILES IDX 26 12 27 13 28 14 29 15 30 16 14 17 13 18 12 19 11 20 10 21
REMARK SMILES IDX 9 22 8 23 7 24 6 25 5 26 4 27 3 28 2 29 1 30
REMARK H PARENT
REMARK Flexibility Score: inf
ROOT
ATOM      1  C   UNL     1      16.719  17.635  18.971  1.00  0.00     0.000 C 
ENDROOT
BRANCH   1   2
ATOM      2  C   UNL     1      15.525  16.675  19.163  1.00  0.00     0.000 C 
BRANCH   2   3
ATOM      3  C   UNL     1      15.884  15.381  19.917  1.00  0.00     0.000 C 
BRANCH   3   4
ATOM      4  C   UNL     1      14.864  14.942  20.981  1.00  0.00     0.000 C 
BRANCH   4   5
ATOM      5  C   UNL     1      14.677  13.415  21.035  1.00  0.00     0.000 C 
BRANCH   5   6
ATOM      6  C   UNL     1      13.912  12.875  19.816  1.00  0.00     0.000 C 
BRANCH   6   7
ATOM      7  C   UNL     1      14.544  11.595  19.242  1.00  0.00     0.000 C 
BRANCH   7   8
ATOM      8  C   UNL     1      15.627  11.005  20.161  1.00  0.00     0.000 C 
BRANCH   8   9
ATOM      9  C   UNL     1      15.745   9.469  20.063  1.00  0.00     0.000 C 
BRANCH   9  10
ATOM     10  C   UNL     1      16.831   9.029  19.066  1.00  0.00     0.000 C 
BRANCH  10  11
ATOM     11  C   UNL     1      18.238   9.003  19.703  1.00  0.00     0.000 C 
BRANCH  11  12
ATOM     12  C   UNL     1      19.354   9.488  18.759  1.00  0.00     0.006 C 
BRANCH  12  13
ATOM     13  C   UNL     1      20.557  10.118  19.477  1.00  0.00     0.053 C 
BRANCH  13  14
ATOM     14  C   UNL     1      20.140  10.988  20.625  1.00  0.00     0.041 C 
ATOM     15  O   UNL     1      20.039  12.234  20.473  1.00  0.00    -0.550 OA
ATOM     16  O   UNL     1      19.866  10.424  21.864  1.00  0.00    -0.550 OA
ENDBRANCH  13  14
ENDBRANCH  12  13
ENDBRANCH  11  12
ENDBRANCH  10  11
ENDBRANCH   9  10
ENDBRANCH   8   9
ENDBRANCH   7   8
ENDBRANCH   6   7
ENDBRANCH   5   6
ENDBRANCH   4   5
ENDBRANCH   3   4
ENDBRANCH   2   3
ENDBRANCH   1   2
BRANCH   1  17
ATOM     17  C   UNL     1      17.676  17.627  20.176  1.00  0.00     0.000 C 
BRANCH  17  18
ATOM     18  C   UNL     1      19.119  17.251  19.778  1.00  0.00     0.000 C 
BRANCH  18  19
ATOM     19  C   UNL     1      20.184  18.207  20.343  1.00  0.00     0.000 C 
BRANCH  19  20
ATOM     20  C   UNL     1      19.650  19.086  21.485  1.00  0.00     0.000 C 
BRANCH  20  21
ATOM     21  C   UNL     1      19.783  18.410  22.859  1.00  0.00     0.000 C 
BRANCH  21  22
ATOM     22  C   UNL     1      21.015  18.903  23.640  1.00  0.00    -0.000 C 
BRANCH  22  23
ATOM     23  C   UNL     1      21.014  20.428  23.840  1.00  0.00    -0.000 C 
BRANCH  23  24
ATOM     24  C   UNL     1      22.047  20.883  24.884  1.00  0.00    -0.000 C 
BRANCH  24  25
ATOM     25  C   UNL     1      23.446  21.107  24.282  1.00  0.00    -0.000 C 
BRANCH  25  26
ATOM     26  C   UNL     1      24.194  19.823  23.870  1.00  0.00    -0.000 C 
BRANCH  26  27
ATOM     27  C   UNL     1      24.872  19.878  22.488  1.00  0.00    -0.000 C 
BRANCH  27  28
ATOM     28  C   UNL     1      24.775  18.580  21.661  1.00  0.00    -0.000 C 
BRANCH  28  29
ATOM     29  C   UNL     1      24.670  17.290  22.493  1.00  0.00    -0.003 C 
ATOM     30  C   UNL     1      25.805  17.140  23.504  1.00  0.00     0.004 C 
ENDBRANCH  28  29
ENDBRANCH  27  28
ENDBRANCH  26  27
ENDBRANCH  25  26
ENDBRANCH  24  25
ENDBRANCH  23  24
ENDBRANCH  22  23
ENDBRANCH  21  22
ENDBRANCH  20  21
ENDBRANCH  19  20
ENDBRANCH  18  19
ENDBRANCH  17  18
ENDBRANCH   1  17
TORSDOF 26
ENDMDL
MODEL 2
REMARK VINA RESULT:    22.138      0.804      1.866
REMARK INTER + INTRA:          54.646
REMARK INTER:                  55.902
REMARK INTRA:                  -1.255
REMARK UNBOUND:                -1.139
REMARK SMILES CCCCCCCCCCCCCCCCCCCCCCCCCCCC(=O)[O-]
REMARK SMILES IDX 15 1 16 2 17 3 18 4 19 5 20 6 21 7 22 8 23 9 24 10 25 11
REMARK SMILES IDX 26 12 27 13 28 14 29 15 30 16 14 17 13 18 12 19 11 20 10 21
REMARK SMILES IDX 9 22 8 23 7 24 6 25 5 26 4 27 3 28 2 29 1 30
REMARK H PARENT
REMARK Flexibility Score: inf
ROOT
ATOM      1  C   UNL     1      18.378  17.041  20.223  1.00  0.00     0.000 C 
ENDROOT
BRANCH   1   2
ATOM      2  C   UNL     1      17.270  17.596  19.300  1.00  0.00     0.000 C 
BRANCH   2   3
ATOM      3  C   UNL     1      15.855  17.111  19.668  1.00  0.00     0.000 C 
BRANCH   3   4
ATOM      4  C   UNL     1      15.624  15.598  19.516  1.00  0.00     0.000 C 
BRANCH   4   5
ATOM      5  C   UNL     1      14.799  15.001  20.669  1.00  0.00     0.000 C 
BRANCH   5   6
ATOM      6  C   UNL     1      14.967  13.477  20.782  1.00  0.00     0.000 C 
BRANCH   6   7
ATOM      7  C   UNL     1      14.018  12.707  19.848  1.00  0.00     0.000 C 
BRANCH   7   8
ATOM      8  C   UNL     1      14.632  11.396  19.328  1.00  0.00     0.000 C 
BRANCH   8   9
ATOM      9  C   UNL     1      15.823  10.899  20.174  1.00  0.00     0.000 C 
BRANCH   9  10
ATOM     10  C   UNL     1      15.937   9.364  20.176  1.00  0.00     0.000 C 
BRANCH  10  11
ATOM     11  C   UNL     1      16.814   8.838  19.019  1.00  0.00     0.000 C 
BRANCH  11  12
ATOM     12  C   UNL     1      18.326   8.971  19.278  1.00  0.00     0.006 C 
BRANCH  12  13
ATOM     13  C   UNL     1      18.680   9.735  20.562  1.00  0.00     0.053 C 
BRANCH  13  14
ATOM     14  C   UNL     1      19.893  10.600  20.393  1.00  0.00     0.041 C 
ATOM     15  O   UNL     1      20.632  10.465  19.382  1.00  0.00    -0.550 OA
ATOM     16  O   UNL     1      20.209  11.553  21.352  1.00  0.00    -0.550 OA
ENDBRANCH  13  14
ENDBRANCH  12  13
ENDBRANCH  11  12
ENDBRANCH  10  11
ENDBRANCH   9  10
ENDBRANCH   8   9
ENDBRANCH   7   8
ENDBRANCH   6   7
ENDBRANCH   5   6
ENDBRANCH   4   5
ENDBRANCH   3   4
ENDBRANCH   2   3
ENDBRANCH   1   2
BRANCH   1  17
ATOM     17  C   UNL     1      19.667  17.879  20.157  1.00  0.00     0.000 C 
BRANCH  17  18
ATOM     18  C   UNL     1      19.741  18.932  21.284  1.00  0.00     0.000 C 
BRANCH  18  19
ATOM     19  C   UNL     1      19.481  18.354  22.686  1.00  0.00     0.000 C 
BRANCH  19  20
ATOM     20  C   UNL     1      20.586  18.710  23.693  1.00  0.00     0.000 C 
BRANCH  20  21
ATOM     21  C   UNL     1      21.177  20.108  23.445  1.00  0.00     0.000 C 
BRANCH  21  22
ATOM     22  C   UNL     1      21.508  20.846  24.756  1.00  0.00    -0.000 C 
BRANCH  22  23
ATOM     23  C   UNL     1      23.020  20.916  25.026  1.00  0.00    -0.000 C 
BRANCH  23  24
ATOM     24  C   UNL     1      23.843  21.008  23.730  1.00  0.00    -0.000 C 
BRANCH  24  25
ATOM     25  C   UNL     1      24.748  19.782  23.510  1.00  0.00    -0.000 C 
BRANCH  25  26
ATOM     26  C   UNL     1      25.190  19.550  22.051  1.00  0.00    -0.000 C 
BRANCH  26  27
ATOM     27  C   UNL     1      24.322  18.554  21.256  1.00  0.00    -0.000 C 
BRANCH  27  28
ATOM     28  C   UNL     1      24.270  17.126  21.836  1.00  0.00    -0.000 C 
BRANCH  28  29
ATOM     29  C   UNL     1      25.391  16.794  22.835  1.00  0.00    -0.003 C 
ATOM     30  C   UNL     1      26.244  15.604  22.399  1.00  0.00     0.004 C 
ENDBRANCH  28  29
ENDBRANCH  27  28
ENDBRANCH  26  27
ENDBRANCH  25  26
ENDBRANCH  24  25
ENDBRANCH  23  24
ENDBRANCH  22  23
ENDBRANCH  21  22
ENDBRANCH  20  21
ENDBRANCH  19  20
ENDBRANCH  18  19
ENDBRANCH  17  18
ENDBRANCH   1  17
TORSDOF 26
ENDMDL
MODEL 3
REMARK VINA RESULT:    22.422      2.652     10.040
REMARK INTER + INTRA:          55.364
REMARK INTER:                  57.030
REMARK INTRA:                  -1.666
REMARK UNBOUND:                -1.139
REMARK SMILES CCCCCCCCCCCCCCCCCCCCCCCCCCCC(=O)[O-]
REMARK SMILES IDX 15 1 16 2 17 3 18 4 19 5 20 6 21 7 22 8 23 9 24 10 25 11
REMARK SMILES IDX 26 12 27 13 28 14 29 15 30 16 14 17 13 18 12 19 11 20 10 21
REMARK SMILES IDX 9 22 8 23 7 24 6 25 5 26 4 27 3 28 2 29 1 30
REMARK H PARENT
REMARK Flexibility Score: inf
ROOT
ATOM      1  C   UNL     1      17.665  17.463  19.075  1.00  0.00     0.000 C 
ENDROOT
BRANCH   1   2
ATOM      2  C   UNL     1      18.168  17.087  20.485  1.00  0.00     0.000 C 
BRANCH   2   3
ATOM      3  C   UNL     1      18.708  18.283  21.292  1.00  0.00     0.000 C 
BRANCH   3   4
ATOM      4  C   UNL     1      20.188  18.622  21.044  1.00  0.00     0.000 C 
BRANCH   4   5
ATOM      5  C   UNL     1      20.759  17.924  19.797  1.00  0.00     0.000 C 
BRANCH   5   6
ATOM      6  C   UNL     1      22.296  17.945  19.766  1.00  0.00     0.000 C 
BRANCH   6   7
ATOM      7  C   UNL     1      22.920  17.553  21.116  1.00  0.00     0.000 C 
BRANCH   7   8
ATOM      8  C   UNL     1      24.399  17.958  21.227  1.00  0.00     0.000 C 
BRANCH   8   9
ATOM      9  C   UNL     1      25.016  17.659  22.610  1.00  0.00     0.000 C 
BRANCH   9  10
ATOM     10  C   UNL     1      25.464  18.938  23.338  1.00  0.00     0.000 C 
BRANCH  10  11
ATOM     11  C   UNL     1      24.738  20.197  22.815  1.00  0.00     0.000 C 
BRANCH  11  12
ATOM     12  C   UNL     1      24.228  21.127  23.932  1.00  0.00     0.006 C 
BRANCH  12  13
ATOM     13  C   UNL     1      23.169  20.492  24.845  1.00  0.00     0.053 C 
BRANCH  13  14
ATOM     14  C   UNL     1      21.773  20.759  24.367  1.00  0.00     0.041 C 
ATOM     15  O   UNL     1      20.979  19.804  24.162  1.00  0.00    -0.550 OA
ATOM     16  O   UNL     1      21.349  22.063  24.148  1.00  0.00    -0.550 OA
ENDBRANCH  13  14
ENDBRANCH  12  13
ENDBRANCH  11  12
ENDBRANCH  10  11
ENDBRANCH   9  10
ENDBRANCH   8   9
ENDBRANCH   7   8
ENDBRANCH   6   7
ENDBRANCH   5   6
ENDBRANCH   4   5
ENDBRANCH   3   4
ENDBRANCH   2   3
ENDBRANCH   1   2
BRANCH   1  17
ATOM     17  C   UNL     1      16.139  17.315  18.940  1.00  0.00     0.000 C 
BRANCH  17  18
ATOM     18  C   UNL     1      15.525  16.492  20.093  1.00  0.00     0.000 C 
BRANCH  18  19
ATOM     19  C   UNL     1      15.307  15.009  19.745  1.00  0.00     0.000 C 
BRANCH  19  20
ATOM     20  C   UNL     1      15.042  14.139  20.984  1.00  0.00     0.000 C 
BRANCH  20  21
ATOM     21  C   UNL     1      14.029  13.017  20.707  1.00  0.00     0.000 C 
BRANCH  21  22
ATOM     22  C   UNL     1      14.116  12.489  19.263  1.00  0.00    -0.000 C 
BRANCH  22  23
ATOM     23  C   UNL     1      14.553  11.017  19.199  1.00  0.00    -0.000 C 
BRANCH  23  24
ATOM     24  C   UNL     1      15.541  10.650  20.319  1.00  0.00    -0.000 C 
BRANCH  24  25
ATOM     25  C   UNL     1      16.257   9.311  20.069  1.00  0.00    -0.000 C 
BRANCH  25  26
ATOM     26  C   UNL     1      17.532   9.402  19.206  1.00  0.00    -0.000 C 
BRANCH  26  27
ATOM     27  C   UNL     1      18.842   9.049  19.938  1.00  0.00    -0.000 C 
BRANCH  27  28
ATOM     28  C   UNL     1      19.310  10.088  20.977  1.00  0.00    -0.000 C 
BRANCH  28  29
ATOM     29  C   UNL     1      20.036  11.309  20.387  1.00  0.00    -0.003 C 
ATOM     30  C   UNL     1      20.973  10.947  19.236  1.00  0.00     0.004 C 
ENDBRANCH  28  29
ENDBRANCH  27  28
ENDBRANCH  26  27
ENDBRANCH  25  26
ENDBRANCH  24  25
ENDBRANCH  23  24
ENDBRANCH  22  23
ENDBRANCH  21  22
ENDBRANCH  20  21
ENDBRANCH  19  20
ENDBRANCH  18  19
ENDBRANCH  17  18
ENDBRANCH   1  17
TORSDOF 26
ENDMDL
MODEL 4
REMARK VINA RESULT:    22.447      0.978      2.849
REMARK INTER + INTRA:          55.426
REMARK INTER:                  56.681
REMARK INTRA:                  -1.255
REMARK UNBOUND:                -1.139
REMARK SMILES CCCCCCCCCCCCCCCCCCCCCCCCCCCC(=O)[O-]
REMARK SMILES IDX 15 1 16 2 17 3 18 4 19 5 20 6 21 7 22 8 23 9 24 10 25 11
REMARK SMILES IDX 26 12 27 13 28 14 29 15 30 16 14 17 13 18 12 19 11 20 10 21
REMARK SMILES IDX 9 22 8 23 7 24 6 25 5 26 4 27 3 28 2 29 1 30
REMARK H PARENT
REMARK Flexibility Score: inf
ROOT
ATOM      1  C   UNL     1      18.093  16.865  20.300  1.00  0.00     0.000 C 
ENDROOT
BRANCH   1   2
ATOM      2  C   UNL     1      16.905  17.294  19.411  1.00  0.00     0.000 C 
BRANCH   2   3
ATOM      3  C   UNL     1      15.741  16.284  19.400  1.00  0.00     0.000 C 
BRANCH   3   4
ATOM      4  C   UNL     1      15.909  15.086  20.350  1.00  0.00     0.000 C 
BRANCH   4   5
ATOM      5  C   UNL     1      14.565  14.482  20.793  1.00  0.00     0.000 C 
BRANCH   5   6
ATOM      6  C   UNL     1      14.219  13.194  20.028  1.00  0.00     0.000 C 
BRANCH   6   7
ATOM      7  C   UNL     1      15.119  12.012  20.426  1.00  0.00     0.000 C 
BRANCH   7   8
ATOM      8  C   UNL     1      15.086  10.868  19.399  1.00  0.00     0.000 C 
BRANCH   8   9
ATOM      9  C   UNL     1      15.511   9.505  19.984  1.00  0.00     0.000 C 
BRANCH   9  10
ATOM     10  C   UNL     1      16.771   8.944  19.300  1.00  0.00     0.000 C 
BRANCH  10  11
ATOM     11  C   UNL     1      18.063   9.290  20.072  1.00  0.00     0.000 C 
BRANCH  11  12
ATOM     12  C   UNL     1      19.352   9.031  19.269  1.00  0.00     0.006 C 
BRANCH  12  13
ATOM     13  C   UNL     1      20.330  10.214  19.251  1.00  0.00     0.053 C 
BRANCH  13  14
ATOM     14  C   UNL     1      20.185  11.091  20.458  1.00  0.00     0.041 C 
ATOM     15  O   UNL     1      19.988  10.581  21.593  1.00  0.00    -0.550 OA
ATOM     16  O   UNL     1      20.265  12.472  20.331  1.00  0.00    -0.550 OA
ENDBRANCH  13  14
ENDBRANCH  12  13
ENDBRANCH  11  12
ENDBRANCH  10  11
ENDBRANCH   9  10
ENDBRANCH   8   9
ENDBRANCH   7   8
ENDBRANCH   6   7
ENDBRANCH   5   6
ENDBRANCH   4   5
ENDBRANCH   3   4
ENDBRANCH   2   3
ENDBRANCH   1   2
BRANCH   1  17
ATOM     17  C   UNL     1      18.455  17.933  21.347  1.00  0.00     0.000 C 
BRANCH  17  18
ATOM     18  C   UNL     1      19.911  18.426  21.203  1.00  0.00     0.000 C 
BRANCH  18  19
ATOM     19  C   UNL     1      20.471  18.289  19.776  1.00  0.00     0.000 C 
BRANCH  19  20
ATOM     20  C   UNL     1      21.872  17.658  19.744  1.00  0.00     0.000 C 
BRANCH  20  21
ATOM     21  C   UNL     1      22.647  17.881  21.053  1.00  0.00     0.000 C 
BRANCH  21  22
ATOM     22  C   UNL     1      24.167  17.716  20.871  1.00  0.00    -0.000 C 
BRANCH  22  23
ATOM     23  C   UNL     1      24.816  16.931  22.022  1.00  0.00    -0.000 C 
BRANCH  23  24
ATOM     24  C   UNL     1      25.193  17.835  23.208  1.00  0.00    -0.000 C 
BRANCH  24  25
ATOM     25  C   UNL     1      25.601  19.253  22.773  1.00  0.00    -0.000 C 
BRANCH  25  26
ATOM     26  C   UNL     1      24.618  20.370  23.178  1.00  0.00    -0.000 C 
BRANCH  26  27
ATOM     27  C   UNL     1      23.767  20.070  24.427  1.00  0.00    -0.000 C 
BRANCH  27  28
ATOM     28  C   UNL     1      22.897  21.242  24.922  1.00  0.00    -0.000 C 
BRANCH  28  29
ATOM     29  C   UNL     1      21.433  21.204  24.450  1.00  0.00    -0.003 C 
ATOM     30  C   UNL     1      20.996  22.496  23.761  1.00  0.00     0.004 C 
ENDBRANCH  28  29
ENDBRANCH  27  28
ENDBRANCH  26  27
ENDBRANCH  25  26
ENDBRANCH  24  25
ENDBRANCH  23  24
ENDBRANCH  22  23
ENDBRANCH  21  22
ENDBRANCH  20  21
ENDBRANCH  19  20
ENDBRANCH  18  19
ENDBRANCH  17  18
ENDBRANCH   1  17
TORSDOF 26
ENDMDL
MODEL 5
REMARK VINA RESULT:    22.616      2.157      9.833
REMARK INTER + INTRA:          55.852
REMARK INTER:                  56.931
REMARK INTRA:                  -1.079
REMARK UNBOUND:                -1.139
REMARK SMILES CCCCCCCCCCCCCCCCCCCCCCCCCCCC(=O)[O-]
REMARK SMILES IDX 15 1 16 2 17 3 18 4 19 5 20 6 21 7 22 8 23 9 24 10 25 11
REMARK SMILES IDX 26 12 27 13 28 14 29 15 30 16 14 17 13 18 12 19 11 20 10 21
REMARK SMILES IDX 9 22 8 23 7 24 6 25 5 26 4 27 3 28 2 29 1 30
REMARK H PARENT
REMARK Flexibility Score: inf
ROOT
ATOM      1  C   UNL     1      17.168  17.922  19.266  1.00  0.00     0.000 C 
ENDROOT
BRANCH   1   2
ATOM      2  C   UNL     1      18.291  17.217  20.057  1.00  0.00     0.000 C 
BRANCH   2   3
ATOM      3  C   UNL     1      19.551  18.081  20.252  1.00  0.00     0.000 C 
BRANCH   3   4
ATOM      4  C   UNL     1      19.579  18.909  21.548  1.00  0.00     0.000 C 
BRANCH   4   5
ATOM      5  C   UNL     1      19.864  18.055  22.796  1.00  0.00     0.000 C 
BRANCH   5   6
ATOM      6  C   UNL     1      20.400  18.892  23.969  1.00  0.00     0.000 C 
BRANCH   6   7
ATOM      7  C   UNL     1      21.045  20.210  23.508  1.00  0.00     0.000 C 
BRANCH   7   8
ATOM      8  C   UNL     1      21.818  20.918  24.633  1.00  0.00     0.000 C 
BRANCH   8   9
ATOM      9  C   UNL     1      23.299  20.491  24.723  1.00  0.00     0.000 C 
BRANCH   9  10
ATOM     10  C   UNL     1      24.128  21.008  23.534  1.00  0.00     0.000 C 
BRANCH  10  11
ATOM     11  C   UNL     1      25.163  19.971  23.044  1.00  0.00     0.000 C 
BRANCH  11  12
ATOM     12  C   UNL     1      24.718  19.198  21.788  1.00  0.00     0.006 C 
BRANCH  12  13
ATOM     13  C   UNL     1      24.377  17.722  22.046  1.00  0.00     0.053 C 
BRANCH  13  14
ATOM     14  C   UNL     1      25.383  17.054  22.935  1.00  0.00     0.041 C 
ATOM     15  O   UNL     1      25.811  15.903  22.655  1.00  0.00    -0.550 OA
ATOM     16  O   UNL     1      25.846  17.701  24.073  1.00  0.00    -0.550 OA
ENDBRANCH  13  14
ENDBRANCH  12  13
ENDBRANCH  11  12
ENDBRANCH  10  11
ENDBRANCH   9  10
ENDBRANCH   8   9
ENDBRANCH   7   8
ENDBRANCH   6   7
ENDBRANCH   5   6
ENDBRANCH   4   5
ENDBRANCH   3   4
ENDBRANCH   2   3
ENDBRANCH   1   2
BRANCH   1  17
ATOM     17  C   UNL     1      15.954  17.006  19.031  1.00  0.00     0.000 C 
BRANCH  17  18
ATOM     18  C   UNL     1      16.111  15.635  19.724  1.00  0.00     0.000 C 
BRANCH  18  19
ATOM     19  C   UNL     1      14.883  15.220  20.554  1.00  0.00     0.000 C 
BRANCH  19  20
ATOM     20  C   UNL     1      14.920  13.741  20.973  1.00  0.00     0.000 C 
BRANCH  20  21
ATOM     21  C   UNL     1      13.895  12.889  20.207  1.00  0.00     0.000 C 
BRANCH  21  22
ATOM     22  C   UNL     1      14.564  11.809  19.337  1.00  0.00    -0.000 C 
BRANCH  22  23
ATOM     23  C   UNL     1      15.422  10.836  20.162  1.00  0.00    -0.000 C 
BRANCH  23  24
ATOM     24  C   UNL     1      15.814   9.580  19.365  1.00  0.00    -0.000 C 
BRANCH  24  25
ATOM     25  C   UNL     1      17.160   8.984  19.814  1.00  0.00    -0.000 C 
BRANCH  25  26
ATOM     26  C   UNL     1      18.328   9.187  18.827  1.00  0.00    -0.000 C 
BRANCH  26  27
ATOM     27  C   UNL     1      19.733   9.104  19.452  1.00  0.00    -0.000 C 
BRANCH  27  28
ATOM     28  C   UNL     1      20.615  10.352  19.245  1.00  0.00    -0.000 C 
BRANCH  28  29
ATOM     29  C   UNL     1      20.183  11.589  20.050  1.00  0.00    -0.003 C 
ATOM     30  C   UNL     1      20.126  11.330  21.554  1.00  0.00     0.004 C 
ENDBRANCH  28  29
ENDBRANCH  27  28
ENDBRANCH  26  27
ENDBRANCH  25  26
ENDBRANCH  24  25
ENDBRANCH  23  24
ENDBRANCH  22  23
ENDBRANCH  21  22
ENDBRANCH  20  21
ENDBRANCH  19  20
ENDBRANCH  18  19
ENDBRANCH  17  18
ENDBRANCH   1  17
TORSDOF 26
ENDMDL
MODEL 6
REMARK VINA RESULT:    22.819      2.089      9.807
REMARK INTER + INTRA:          56.363
REMARK INTER:                  57.579
REMARK INTRA:                  -1.216
REMARK UNBOUND:                -1.139
REMARK SMILES CCCCCCCCCCCCCCCCCCCCCCCCCCCC(=O)[O-]
REMARK SMILES IDX 15 1 16 2 17 3 18 4 19 5 20 6 21 7 22 8 23 9 24 10 25 11
REMARK SMILES IDX 26 12 27 13 28 14 29 15 30 16 14 17 13 18 12 19 11 20 10 21
REMARK SMILES IDX 9 22 8 23 7 24 6 25 5 26 4 27 3 28 2 29 1 30
REMARK H PARENT
REMARK Flexibility Score: inf
ROOT
ATOM      1  C   UNL     1      16.238  16.934  18.898  1.00  0.00     0.000 C 
ENDROOT
BRANCH   1   2
ATOM      2  C   UNL     1      16.547  18.307  19.533  1.00  0.00     0.000 C 
BRANCH   2   3
ATOM      3  C   UNL     1      17.447  18.225  20.781  1.00  0.00     0.000 C 
BRANCH   3   4
ATOM      4  C   UNL     1      18.923  17.897  20.499  1.00  0.00     0.000 C 
BRANCH   4   5
ATOM      5  C   UNL     1      19.895  18.783  21.299  1.00  0.00     0.000 C 
BRANCH   5   6
ATOM      6  C   UNL     1      19.938  18.409  22.789  1.00  0.00     0.000 C 
BRANCH   6   7
ATOM      7  C   UNL     1      21.128  19.049  23.525  1.00  0.00     0.000 C 
BRANCH   7   8
ATOM      8  C   UNL     1      20.859  20.507  23.932  1.00  0.00     0.000 C 
BRANCH   8   9
ATOM      9  C   UNL     1      21.962  21.107  24.830  1.00  0.00     0.000 C 
BRANCH   9  10
ATOM     10  C   UNL     1      23.324  20.423  24.615  1.00  0.00     0.000 C 
BRANCH  10  11
ATOM     11  C   UNL     1      24.172  21.128  23.533  1.00  0.00     0.000 C 
BRANCH  11  12
ATOM     12  C   UNL     1      24.989  20.159  22.658  1.00  0.00     0.006 C 
BRANCH  12  13
ATOM     13  C   UNL     1      25.392  18.858  23.368  1.00  0.00     0.053 C 
BRANCH  13  14
ATOM     14  C   UNL     1      24.999  17.640  22.586  1.00  0.00     0.041 C 
ATOM     15  O   UNL     1      25.253  16.490  23.033  1.00  0.00    -0.550 OA
ATOM     16  O   UNL     1      24.353  17.774  21.364  1.00  0.00    -0.550 OA
ENDBRANCH  13  14
ENDBRANCH  12  13
ENDBRANCH  11  12
ENDBRANCH  10  11
ENDBRANCH   9  10
ENDBRANCH   8   9
ENDBRANCH   7   8
ENDBRANCH   6   7
ENDBRANCH   5   6
ENDBRANCH   4   5
ENDBRANCH   3   4
ENDBRANCH   2   3
ENDBRANCH   1   2
BRANCH   1  17
ATOM     17  C   UNL     1      16.422  15.774  19.893  1.00  0.00     0.000 C 
BRANCH  17  18
ATOM     18  C   UNL     1      15.076  15.250  20.439  1.00  0.00     0.000 C 
BRANCH  18  19
ATOM     19  C   UNL     1      15.033  13.722  20.611  1.00  0.00     0.000 C 
BRANCH  19  20
ATOM     20  C   UNL     1      14.075  13.037  19.624  1.00  0.00     0.000 C 
BRANCH  20  21
ATOM     21  C   UNL     1      14.335  11.527  19.504  1.00  0.00     0.000 C 
BRANCH  21  22
ATOM     22  C   UNL     1      15.644  11.100  20.194  1.00  0.00    -0.000 C 
BRANCH  22  23
ATOM     23  C   UNL     1      15.853   9.577  20.170  1.00  0.00    -0.000 C 
BRANCH  23  24
ATOM     24  C   UNL     1      16.897   9.146  19.125  1.00  0.00    -0.000 C 
BRANCH  24  25
ATOM     25  C   UNL     1      18.296   8.935  19.730  1.00  0.00    -0.000 C 
BRANCH  25  26
ATOM     26  C   UNL     1      19.458   8.969  18.717  1.00  0.00    -0.000 C 
BRANCH  26  27
ATOM     27  C   UNL     1      20.669   9.824  19.141  1.00  0.00    -0.000 C 
BRANCH  27  28
ATOM     28  C   UNL     1      20.360  11.313  19.398  1.00  0.00    -0.000 C 
BRANCH  28  29
ATOM     29  C   UNL     1      20.287  11.711  20.882  1.00  0.00    -0.003 C 
ATOM     30  C   UNL     1      19.873  10.553  21.789  1.00  0.00     0.004 C 
ENDBRANCH  28  29
ENDBRANCH  27  28
ENDBRANCH  26  27
ENDBRANCH  25  26
ENDBRANCH  24  25
ENDBRANCH  23  24
ENDBRANCH  22  23
ENDBRANCH  21  22
ENDBRANCH  20  21
ENDBRANCH  19  20
ENDBRANCH  18  19
ENDBRANCH  17  18
ENDBRANCH   1  17
TORSDOF 26
ENDMDL
MODEL 7
REMARK VINA RESULT:    22.825      0.879      1.845
REMARK INTER + INTRA:          56.380
REMARK INTER:                  57.684
REMARK INTRA:                  -1.304
REMARK UNBOUND:                -1.139
REMARK SMILES CCCCCCCCCCCCCCCCCCCCCCCCCCCC(=O)[O-]
REMARK SMILES IDX 15 1 16 2 17 3 18 4 19 5 20 6 21 7 22 8 23 9 24 10 25 11
REMARK SMILES IDX 26 12 27 13 28 14 29 15 30 16 14 17 13 18 12 19 11 20 10 21
REMARK SMILES IDX 9 22 8 23 7 24 6 25 5 26 4 27 3 28 2 29 1 30
REMARK H PARENT
REMARK Flexibility Score: inf
ROOT
ATOM      1  C   UNL     1      18.226  17.323  19.224  1.00  0.00     0.000 C 
ENDROOT
BRANCH   1   2
ATOM      2  C   UNL     1      16.761  17.555  18.796  1.00  0.00     0.000 C 
BRANCH   2   3
ATOM      3  C   UNL     1      15.730  16.869  19.713  1.00  0.00     0.000 C 
BRANCH   3   4
ATOM      4  C   UNL     1      16.056  15.413  20.085  1.00  0.00     0.000 C 
BRANCH   4   5
ATOM      5  C   UNL     1      14.912  14.721  20.847  1.00  0.00     0.000 C 
BRANCH   5   6
ATOM      6  C   UNL     1      14.968  13.189  20.724  1.00  0.00     0.000 C 
BRANCH   6   7
ATOM      7  C   UNL     1      14.100  12.657  19.570  1.00  0.00     0.000 C 
BRANCH   7   8
ATOM      8  C   UNL     1      14.477  11.225  19.156  1.00  0.00     0.000 C 
BRANCH   8   9
ATOM      9  C   UNL     1      15.650  10.639  19.971  1.00  0.00     0.000 C 
BRANCH   9  10
ATOM     10  C   UNL     1      15.819   9.126  19.746  1.00  0.00     0.000 C 
BRANCH  10  11
ATOM     11  C   UNL     1      17.297   8.683  19.808  1.00  0.00     0.000 C 
BRANCH  11  12
ATOM     12  C   UNL     1      18.245   9.574  18.983  1.00  0.00     0.006 C 
BRANCH  12  13
ATOM     13  C   UNL     1      19.717   9.498  19.417  1.00  0.00     0.053 C 
BRANCH  13  14
ATOM     14  C   UNL     1      20.155  10.725  20.157  1.00  0.00     0.041 C 
ATOM     15  O   UNL     1      20.784  11.637  19.559  1.00  0.00    -0.550 OA
ATOM     16  O   UNL     1      19.871  10.862  21.510  1.00  0.00    -0.550 OA
ENDBRANCH  13  14
ENDBRANCH  12  13
ENDBRANCH  11  12
ENDBRANCH  10  11
ENDBRANCH   9  10
ENDBRANCH   8   9
ENDBRANCH   7   8
ENDBRANCH   6   7
ENDBRANCH   5   6
ENDBRANCH   4   5
ENDBRANCH   3   4
ENDBRANCH   2   3
ENDBRANCH   1   2
BRANCH   1  17
ATOM     17  C   UNL     1      18.462  17.659  20.707  1.00  0.00     0.000 C 
BRANCH  17  18
ATOM     18  C   UNL     1      19.849  18.293  20.952  1.00  0.00     0.000 C 
BRANCH  18  19
ATOM     19  C   UNL     1      19.853  19.357  22.064  1.00  0.00     0.000 C 
BRANCH  19  20
ATOM     20  C   UNL     1      20.847  19.036  23.192  1.00  0.00     0.000 C 
BRANCH  20  21
ATOM     21  C   UNL     1      20.677  19.963  24.406  1.00  0.00     0.000 C 
BRANCH  21  22
ATOM     22  C   UNL     1      21.757  21.059  24.465  1.00  0.00    -0.000 C 
BRANCH  22  23
ATOM     23  C   UNL     1      23.163  20.486  24.709  1.00  0.00    -0.000 C 
BRANCH  23  24
ATOM     24  C   UNL     1      24.181  20.962  23.658  1.00  0.00    -0.000 C 
BRANCH  24  25
ATOM     25  C   UNL     1      24.742  19.811  22.805  1.00  0.00    -0.000 C 
BRANCH  25  26
ATOM     26  C   UNL     1      25.678  18.840  23.553  1.00  0.00    -0.000 C 
BRANCH  26  27
ATOM     27  C   UNL     1      25.496  17.352  23.197  1.00  0.00    -0.000 C 
BRANCH  27  28
ATOM     28  C   UNL     1      24.212  17.022  22.409  1.00  0.00    -0.000 C 
BRANCH  28  29
ATOM     29  C   UNL     1      24.256  17.396  20.917  1.00  0.00    -0.003 C 
ATOM     30  C   UNL     1      22.910  17.884  20.386  1.00  0.00     0.004 C 
ENDBRANCH  28  29
ENDBRANCH  27  28
ENDBRANCH  26  27
ENDBRANCH  25  26
ENDBRANCH  24  25
ENDBRANCH  23  24
ENDBRANCH  22  23
ENDBRANCH  21  22
ENDBRANCH  20  21
ENDBRANCH  19  20
ENDBRANCH  18  19
ENDBRANCH  17  18
ENDBRANCH   1  17
TORSDOF 26
ENDMDL
MODEL 8
REMARK VINA RESULT:    22.884      0.911      2.449
REMARK INTER + INTRA:          56.529
REMARK INTER:                  55.893
REMARK INTRA:                   0.636
REMARK UNBOUND:                -1.139
REMARK SMILES CCCCCCCCCCCCCCCCCCCCCCCCCCCC(=O)[O-]
REMARK SMILES IDX 15 1 16 2 17 3 18 4 19 5 20 6 21 7 22 8 23 9 24 10 25 11
REMARK SMILES IDX 26 12 27 13 28 14 29 15 30 16 14 17 13 18 12 19 11 20 10 21
REMARK SMILES IDX 9 22 8 23 7 24 6 25 5 26 4 27 3 28 2 29 1 30
REMARK H PARENT
REMARK Flexibility Score: inf
ROOT
ATOM      1  C   UNL     1      16.635  17.908  18.885  1.00  0.00     0.000 C 
ENDROOT
BRANCH   1   2
ATOM      2  C   UNL     1      15.458  16.929  19.089  1.00  0.00     0.000 C 
BRANCH   2   3
ATOM      3  C   UNL     1      15.650  15.963  20.273  1.00  0.00     0.000 C 
BRANCH   3   4
ATOM      4  C   UNL     1      15.423  14.477  19.945  1.00  0.00     0.000 C 
BRANCH   4   5
ATOM      5  C   UNL     1      14.610  13.745  21.027  1.00  0.00     0.000 C 
BRANCH   5   6
ATOM      6  C   UNL     1      13.588  12.764  20.429  1.00  0.00     0.000 C 
BRANCH   6   7
ATOM      7  C   UNL     1      14.168  11.946  19.263  1.00  0.00     0.000 C 
BRANCH   7   8
ATOM      8  C   UNL     1      15.435  11.168  19.656  1.00  0.00     0.000 C 
BRANCH   8   9
ATOM      9  C   UNL     1      15.194   9.654  19.838  1.00  0.00     0.000 C 
BRANCH   9  10
ATOM     10  C   UNL     1      16.470   8.908  20.267  1.00  0.00     0.000 C 
BRANCH  10  11
ATOM     11  C   UNL     1      17.739   9.774  20.110  1.00  0.00     0.000 C 
BRANCH  11  12
ATOM     12  C   UNL     1      18.804   9.151  19.188  1.00  0.00     0.006 C 
BRANCH  12  13
ATOM     13  C   UNL     1      20.188   9.810  19.290  1.00  0.00     0.053 C 
BRANCH  13  14
ATOM     14  C   UNL     1      20.223  10.902  20.317  1.00  0.00     0.041 C 
ATOM     15  O   UNL     1      20.525  12.078  19.984  1.00  0.00    -0.550 OA
ATOM     16  O   UNL     1      19.924  10.620  21.644  1.00  0.00    -0.550 OA
ENDBRANCH  13  14
ENDBRANCH  12  13
ENDBRANCH  11  12
ENDBRANCH  10  11
ENDBRANCH   9  10
ENDBRANCH   8   9
ENDBRANCH   7   8
ENDBRANCH   6   7
ENDBRANCH   5   6
ENDBRANCH   4   5
ENDBRANCH   3   4
ENDBRANCH   2   3
ENDBRANCH   1   2
BRANCH   1  17
ATOM     17  C   UNL     1      17.989  17.277  19.255  1.00  0.00     0.000 C 
BRANCH  17  18
ATOM     18  C   UNL     1      18.117  17.007  20.769  1.00  0.00     0.000 C 
BRANCH  18  19
ATOM     19  C   UNL     1      18.661  18.206  21.566  1.00  0.00     0.000 C 
BRANCH  19  20
ATOM     20  C   UNL     1      20.044  18.668  21.078  1.00  0.00     0.000 C 
BRANCH  20  21
ATOM     21  C   UNL     1      20.530  17.875  19.854  1.00  0.00     0.000 C 
BRANCH  21  22
ATOM     22  C   UNL     1      22.065  17.767  19.796  1.00  0.00    -0.000 C 
BRANCH  22  23
ATOM     23  C   UNL     1      22.718  17.917  21.180  1.00  0.00    -0.000 C 
BRANCH  23  24
ATOM     24  C   UNL     1      24.242  18.110  21.091  1.00  0.00    -0.000 C 
BRANCH  24  25
ATOM     25  C   UNL     1      25.005  17.362  22.199  1.00  0.00    -0.000 C 
BRANCH  25  26
ATOM     26  C   UNL     1      25.168  18.140  23.520  1.00  0.00    -0.000 C 
BRANCH  26  27
ATOM     27  C   UNL     1      24.718  19.613  23.470  1.00  0.00    -0.000 C 
BRANCH  27  28
ATOM     28  C   UNL     1      23.864  20.076  24.668  1.00  0.00    -0.000 C 
BRANCH  28  29
ATOM     29  C   UNL     1      22.882  21.219  24.358  1.00  0.00    -0.003 C 
ATOM     30  C   UNL     1      21.428  20.848  24.644  1.00  0.00     0.004 C 
ENDBRANCH  28  29
ENDBRANCH  27  28
ENDBRANCH  26  27
ENDBRANCH  25  26
ENDBRANCH  24  25
ENDBRANCH  23  24
ENDBRANCH  22  23
ENDBRANCH  21  22
ENDBRANCH  20  21
ENDBRANCH  19  20
ENDBRANCH  18  19
ENDBRANCH  17  18
ENDBRANCH   1  17
TORSDOF 26
ENDMDL
MODEL 9
REMARK VINA RESULT:    23.297      2.568     10.306
REMARK INTER + INTRA:          57.569
REMARK INTER:                  58.985
REMARK INTRA:                  -1.416
REMARK UNBOUND:                -1.139
REMARK SMILES CCCCCCCCCCCCCCCCCCCCCCCCCCCC(=O)[O-]
REMARK SMILES IDX 15 1 16 2 17 3 18 4 19 5 20 6 21 7 22 8 23 9 24 10 25 11
REMARK SMILES IDX 26 12 27 13 28 14 29 15 30 16 14 17 13 18 12 19 11 20 10 21
REMARK SMILES IDX 9 22 8 23 7 24 6 25 5 26 4 27 3 28 2 29 1 30
REMARK H PARENT
REMARK Flexibility Score: inf
ROOT
ATOM      1  C   UNL     1      18.022  17.116  20.133  1.00  0.00     0.000 C 
ENDROOT
BRANCH   1   2
ATOM      2  C   UNL     1      19.144  18.123  20.466  1.00  0.00     0.000 C 
BRANCH   2   3
ATOM      3  C   UNL     1      20.498  17.782  19.815  1.00  0.00     0.000 C 
BRANCH   3   4
ATOM      4  C   UNL     1      21.716  17.892  20.748  1.00  0.00     0.000 C 
BRANCH   4   5
ATOM      5  C   UNL     1      23.043  18.035  19.982  1.00  0.00     0.000 C 
BRANCH   5   6
ATOM      6  C   UNL     1      24.242  17.499  20.782  1.00  0.00     0.000 C 
BRANCH   6   7
ATOM      7  C   UNL     1      23.919  17.308  22.274  1.00  0.00     0.000 C 
BRANCH   7   8
ATOM      8  C   UNL     1      25.104  17.666  23.188  1.00  0.00     0.000 C 
BRANCH   8   9
ATOM      9  C   UNL     1      25.901  18.896  22.705  1.00  0.00     0.000 C 
BRANCH   9  10
ATOM     10  C   UNL     1      24.983  20.046  22.254  1.00  0.00     0.000 C 
BRANCH  10  11
ATOM     11  C   UNL     1      25.046  21.258  23.208  1.00  0.00     0.000 C 
BRANCH  11  12
ATOM     12  C   UNL     1      23.684  21.633  23.823  1.00  0.00     0.006 C 
BRANCH  12  13
ATOM     13  C   UNL     1      23.022  20.501  24.623  1.00  0.00     0.053 C 
BRANCH  13  14
ATOM     14  C   UNL     1      21.527  20.526  24.512  1.00  0.00     0.041 C 
ATOM     15  O   UNL     1      20.871  21.486  24.997  1.00  0.00    -0.550 OA
ATOM     16  O   UNL     1      20.858  19.490  23.875  1.00  0.00    -0.550 OA
ENDBRANCH  13  14
ENDBRANCH  12  13
ENDBRANCH  11  12
ENDBRANCH  10  11
ENDBRANCH   9  10
ENDBRANCH   8   9
ENDBRANCH   7   8
ENDBRANCH   6   7
ENDBRANCH   5   6
ENDBRANCH   4   5
ENDBRANCH   3   4
ENDBRANCH   2   3
ENDBRANCH   1   2
BRANCH   1  17
ATOM     17  C   UNL     1      16.937  17.729  19.229  1.00  0.00     0.000 C 
BRANCH  17  18
ATOM     18  C   UNL     1      15.720  16.795  19.057  1.00  0.00     0.000 C 
BRANCH  18  19
ATOM     19  C   UNL     1      15.420  15.937  20.298  1.00  0.00     0.000 C 
BRANCH  19  20
ATOM     20  C   UNL     1      15.658  14.438  20.059  1.00  0.00     0.000 C 
BRANCH  20  21
ATOM     21  C   UNL     1      14.611  13.558  20.761  1.00  0.00     0.000 C 
BRANCH  21  22
ATOM     22  C   UNL     1      13.845  12.657  19.775  1.00  0.00    -0.000 C 
BRANCH  22  23
ATOM     23  C   UNL     1      14.708  11.501  19.241  1.00  0.00    -0.000 C 
BRANCH  23  24
ATOM     24  C   UNL     1      15.313  10.651  20.372  1.00  0.00    -0.000 C 
BRANCH  24  25
ATOM     25  C   UNL     1      16.027   9.390  19.854  1.00  0.00    -0.000 C 
BRANCH  25  26
ATOM     26  C   UNL     1      17.515   9.275  20.242  1.00  0.00    -0.000 C 
BRANCH  26  27
ATOM     27  C   UNL     1      18.484   9.072  19.061  1.00  0.00    -0.000 C 
BRANCH  27  28
ATOM     28  C   UNL     1      19.783   9.899  19.133  1.00  0.00    -0.000 C 
BRANCH  28  29
ATOM     29  C   UNL     1      20.188  10.344  20.549  1.00  0.00    -0.003 C 
ATOM     30  C   UNL     1      20.143  11.859  20.732  1.00  0.00     0.004 C 
ENDBRANCH  28  29
ENDBRANCH  27  28
ENDBRANCH  26  27
ENDBRANCH  25  26
ENDBRANCH  24  25
ENDBRANCH  23  24
ENDBRANCH  22  23
ENDBRANCH  21  22
ENDBRANCH  20  21
ENDBRANCH  19  20
ENDBRANCH  18  19
ENDBRANCH  17  18
ENDBRANCH   1  17
TORSDOF 26
ENDMDL
