MODEL 1
REMARK VINA RESULT:    -4.489      0.000      0.000
REMARK INTER + INTRA:          -4.621
REMARK INTER:                  -4.621
REMARK INTRA:                   0.000
REMARK UNBOUND:                 0.000
REMARK SMILES Cc1ccccc1O
REMARK SMILES IDX 1 1 2 2 3 3 4 4 5 5 6 6 7 7 8 8
REMARK H PARENT 8 9
REMARK Flexibility Score: inf
ROOT
ATOM      1  C   UNL     1      17.755  43.673   6.340  1.00  0.00     0.048 C 
ATOM      2  C   UNL     1      16.591  44.030   5.459  1.00  0.00    -0.009 A 
ATOM      3  C   UNL     1      16.373  43.310   4.270  1.00  0.00     0.007 A 
ATOM      4  C   UNL     1      15.297  43.627   3.437  1.00  0.00     0.001 A 
ATOM      5  C   UNL     1      14.427  44.663   3.780  1.00  0.00     0.004 A 
ATOM      6  C   UNL     1      14.632  45.386   4.957  1.00  0.00     0.046 A 
ATOM      7  C   UNL     1      15.706  45.080   5.801  1.00  0.00     0.118 A 
ENDROOT
BRANCH   7   8
ATOM      8  O   UNL     1      15.868  45.832   6.967  1.00  0.00    -0.508 OA
ATOM      9  H   UNL     1      16.555  46.570   7.056  1.00  0.00     0.293 HD
ENDBRANCH   7   8
TORSDOF 1
ENDMDL
MODEL 2
REMARK VINA RESULT:    -4.421      1.905      2.409
REMARK INTER + INTRA:          -4.550
REMARK INTER:                  -4.550
REMARK INTRA:                   0.000
REMARK UNBOUND:                 0.000
REMARK SMILES Cc1ccccc1O
REMARK SMILES IDX 1 1 2 2 3 3 4 4 5 5 6 6 7 7 8 8
REMARK H PARENT 8 9
REMARK Flexibility Score: inf
ROOT
ATOM      1  C   UNL     1      16.790  43.353   4.155  1.00  0.00     0.048 C 
ATOM      2  C   UNL     1      15.415  43.906   4.402  1.00  0.00    -0.009 A 
ATOM      3  C   UNL     1      14.953  44.989   3.632  1.00  0.00     0.007 A 
ATOM      4  C   UNL     1      13.677  45.518   3.847  1.00  0.00     0.001 A 
ATOM      5  C   UNL     1      12.851  44.973   4.831  1.00  0.00     0.004 A 
ATOM      6  C   UNL     1      13.297  43.899   5.602  1.00  0.00     0.046 A 
ATOM      7  C   UNL     1      14.573  43.359   5.399  1.00  0.00     0.118 A 
ENDROOT
BRANCH   7   8
ATOM      8  O   UNL     1      14.973  42.285   6.196  1.00  0.00    -0.508 OA
ATOM      9  H   UNL     1      15.133  42.367   7.192  1.00  0.00     0.293 HD
ENDBRANCH   7   8
TORSDOF 1
ENDMDL
MODEL 3
REMARK VINA RESULT:    -4.343      0.767      2.571
REMARK INTER + INTRA:          -4.470
REMARK INTER:                  -4.470
REMARK INTRA:                   0.000
REMARK UNBOUND:                 0.000
REMARK SMILES Cc1ccccc1O
REMARK SMILES IDX 1 1 2 2 3 3 4 4 5 5 6 6 7 7 8 8
REMARK H PARENT 8 9
REMARK Flexibility Score: inf
ROOT
ATOM      1  C   UNL     1      13.586  45.539   4.038  1.00  0.00     0.048 C 
ATOM      2  C   UNL     1      14.828  44.810   4.469  1.00  0.00    -0.009 A 
ATOM      3  C   UNL     1      15.361  43.800   3.647  1.00  0.00     0.007 A 
ATOM      4  C   UNL     1      16.514  43.110   4.030  1.00  0.00     0.001 A 
ATOM      5  C   UNL     1      17.147  43.420   5.235  1.00  0.00     0.004 A 
ATOM      6  C   UNL     1      16.630  44.420   6.060  1.00  0.00     0.046 A 
ATOM      7  C   UNL     1      15.474  45.119   5.689  1.00  0.00     0.118 A 
ENDROOT
BRANCH   7   8
ATOM      8  O   UNL     1      14.995  46.110   6.548  1.00  0.00    -0.508 OA
ATOM      9  H   UNL     1      14.287  46.780   6.276  1.00  0.00     0.293 HD
ENDBRANCH   7   8
TORSDOF 1
ENDMDL
MODEL 4
REMARK VINA RESULT:    -4.328      2.788      3.658
REMARK INTER + INTRA:          -4.455
REMARK INTER:                  -4.455
REMARK INTRA:                   0.000
REMARK UNBOUND:                 0.000
REMARK SMILES Cc1ccccc1O
REMARK SMILES IDX 1 1 2 2 3 3 4 4 5 5 6 6 7 7 8 8
REMARK H PARENT 8 9
REMARK Flexibility Score: inf
ROOT
ATOM      1  C   UNL     1      15.211  41.335   8.511  1.00  0.00     0.048 C 
ATOM      2  C   UNL     1      15.904  42.586   8.048  1.00  0.00    -0.009 A 
ATOM      3  C   UNL     1      16.349  42.681   6.717  1.00  0.00     0.007 A 
ATOM      4  C   UNL     1      16.997  43.835   6.267  1.00  0.00     0.001 A 
ATOM      5  C   UNL     1      17.206  44.905   7.139  1.00  0.00     0.004 A 
ATOM      6  C   UNL     1      16.769  44.824   8.462  1.00  0.00     0.046 A 
ATOM      7  C   UNL     1      16.120  43.674   8.927  1.00  0.00     0.118 A 
ENDROOT
BRANCH   7   8
ATOM      8  O   UNL     1      15.702  43.641  10.259  1.00  0.00    -0.508 OA
ATOM      9  H   UNL     1      15.451  44.472  10.779  1.00  0.00     0.293 HD
ENDBRANCH   7   8
TORSDOF 1
ENDMDL
MODEL 5
REMARK VINA RESULT:    -4.315      0.779      2.605
REMARK INTER + INTRA:          -4.442
REMARK INTER:                  -4.442
REMARK INTRA:                   0.000
REMARK UNBOUND:                 0.000
REMARK SMILES Cc1ccccc1O
REMARK SMILES IDX 1 1 2 2 3 3 4 4 5 5 6 6 7 7 8 8
REMARK H PARENT 8 9
REMARK Flexibility Score: inf
ROOT
ATOM      1  C   UNL     1      13.398  46.717   5.215  1.00  0.00     0.048 C 
ATOM      2  C   UNL     1      14.276  45.545   4.880  1.00  0.00    -0.009 A 
ATOM      3  C   UNL     1      13.994  44.769   3.740  1.00  0.00     0.007 A 
ATOM      4  C   UNL     1      14.798  43.675   3.412  1.00  0.00     0.001 A 
ATOM      5  C   UNL     1      15.891  43.343   4.215  1.00  0.00     0.004 A 
ATOM      6  C   UNL     1      16.182  44.103   5.348  1.00  0.00     0.046 A 
ATOM      7  C   UNL     1      15.384  45.203   5.691  1.00  0.00     0.118 A 
ENDROOT
BRANCH   7   8
ATOM      8  O   UNL     1      15.716  45.932   6.834  1.00  0.00    -0.508 OA
ATOM      9  H   UNL     1      16.392  46.685   6.831  1.00  0.00     0.293 HD
ENDBRANCH   7   8
TORSDOF 1
ENDMDL
MODEL 6
REMARK VINA RESULT:    -4.284      1.866      3.488
REMARK INTER + INTRA:          -4.410
REMARK INTER:                  -4.410
REMARK INTRA:                   0.000
REMARK UNBOUND:                 0.000
REMARK SMILES Cc1ccccc1O
REMARK SMILES IDX 1 1 2 2 3 3 4 4 5 5 6 6 7 7 8 8
REMARK H PARENT 8 9
REMARK Flexibility Score: inf
ROOT
ATOM      1  C   UNL     1      14.492  43.934   3.636  1.00  0.00     0.048 C 
ATOM      2  C   UNL     1      15.423  44.165   4.794  1.00  0.00    -0.009 A 
ATOM      3  C   UNL     1      15.045  45.047   5.823  1.00  0.00     0.007 A 
ATOM      4  C   UNL     1      15.897  45.275   6.908  1.00  0.00     0.001 A 
ATOM      5  C   UNL     1      17.131  44.627   6.978  1.00  0.00     0.004 A 
ATOM      6  C   UNL     1      17.517  43.749   5.964  1.00  0.00     0.046 A 
ATOM      7  C   UNL     1      16.676  43.511   4.870  1.00  0.00     0.118 A 
ENDROOT
BRANCH   7   8
ATOM      8  O   UNL     1      17.107  42.625   3.881  1.00  0.00    -0.508 OA
ATOM      9  H   UNL     1      18.081  42.507   3.634  1.00  0.00     0.293 HD
ENDBRANCH   7   8
TORSDOF 1
ENDMDL
MODEL 7
REMARK VINA RESULT:    -4.271      1.655      2.377
REMARK INTER + INTRA:          -4.396
REMARK INTER:                  -4.396
REMARK INTRA:                   0.000
REMARK UNBOUND:                 0.000
REMARK SMILES Cc1ccccc1O
REMARK SMILES IDX 1 1 2 2 3 3 4 4 5 5 6 6 7 7 8 8
REMARK H PARENT 8 9
REMARK Flexibility Score: inf
ROOT
ATOM      1  C   UNL     1      17.508  43.915   6.595  1.00  0.00     0.048 C 
ATOM      2  C   UNL     1      16.361  44.337   5.721  1.00  0.00    -0.009 A 
ATOM      3  C   UNL     1      15.444  45.294   6.191  1.00  0.00     0.007 A 
ATOM      4  C   UNL     1      14.370  45.699   5.394  1.00  0.00     0.001 A 
ATOM      5  C   UNL     1      14.201  45.155   4.120  1.00  0.00     0.004 A 
ATOM      6  C   UNL     1      15.103  44.204   3.640  1.00  0.00     0.046 A 
ATOM      7  C   UNL     1      16.184  43.788   4.428  1.00  0.00     0.118 A 
ENDROOT
BRANCH   7   8
ATOM      8  O   UNL     1      17.059  42.835   3.904  1.00  0.00    -0.508 OA
ATOM      9  H   UNL     1      18.065  42.935   3.933  1.00  0.00     0.293 HD
ENDBRANCH   7   8
TORSDOF 1
ENDMDL
MODEL 8
REMARK VINA RESULT:    -4.244      2.265      3.768
REMARK INTER + INTRA:          -4.368
REMARK INTER:                  -4.368
REMARK INTRA:                   0.000
REMARK UNBOUND:                 0.000
REMARK SMILES Cc1ccccc1O
REMARK SMILES IDX 1 1 2 2 3 3 4 4 5 5 6 6 7 7 8 8
REMARK H PARENT 8 9
REMARK Flexibility Score: inf
ROOT
ATOM      1  C   UNL     1      16.587  43.384   4.343  1.00  0.00     0.048 C 
ATOM      2  C   UNL     1      16.593  43.149   5.828  1.00  0.00    -0.009 A 
ATOM      3  C   UNL     1      17.738  43.472   6.578  1.00  0.00     0.007 A 
ATOM      4  C   UNL     1      17.763  43.261   7.959  1.00  0.00     0.001 A 
ATOM      5  C   UNL     1      16.648  42.727   8.606  1.00  0.00     0.004 A 
ATOM      6  C   UNL     1      15.505  42.402   7.874  1.00  0.00     0.046 A 
ATOM      7  C   UNL     1      15.465  42.607   6.489  1.00  0.00     0.118 A 
ENDROOT
BRANCH   7   8
ATOM      8  O   UNL     1      14.299  42.266   5.801  1.00  0.00    -0.508 OA
ATOM      9  H   UNL     1      14.087  42.606   4.872  1.00  0.00     0.293 HD
ENDBRANCH   7   8
TORSDOF 1
ENDMDL
MODEL 9
REMARK VINA RESULT:    -4.147      2.072      3.695
REMARK INTER + INTRA:          -4.268
REMARK INTER:                  -4.268
REMARK INTRA:                   0.000
REMARK UNBOUND:                 0.000
REMARK SMILES Cc1ccccc1O
REMARK SMILES IDX 1 1 2 2 3 3 4 4 5 5 6 6 7 7 8 8
REMARK H PARENT 8 9
REMARK Flexibility Score: inf
ROOT
ATOM      1  C   UNL     1      14.584  43.424   5.650  1.00  0.00     0.048 C 
ATOM      2  C   UNL     1      15.573  43.517   6.777  1.00  0.00    -0.009 A 
ATOM      3  C   UNL     1      16.034  42.341   7.396  1.00  0.00     0.007 A 
ATOM      4  C   UNL     1      16.954  42.407   8.446  1.00  0.00     0.001 A 
ATOM      5  C   UNL     1      17.423  43.645   8.889  1.00  0.00     0.004 A 
ATOM      6  C   UNL     1      16.974  44.820   8.283  1.00  0.00     0.046 A 
ATOM      7  C   UNL     1      16.052  44.770   7.231  1.00  0.00     0.118 A 
ENDROOT
BRANCH   7   8
ATOM      8  O   UNL     1      15.633  45.972   6.658  1.00  0.00    -0.508 OA
ATOM      9  H   UNL     1      14.749  46.075   6.177  1.00  0.00     0.293 HD
ENDBRANCH   7   8
TORSDOF 1
ENDMDL
