MODEL 1
REMARK VINA RESULT:    -3.308      0.000      0.000
REMARK INTER + INTRA:          -3.040
REMARK INTER:                  -4.081
REMARK INTRA:                   1.041
REMARK UNBOUND:                 1.041
REMARK SMILES C=C1[C@@H]2CC[C@H]3[C@@H]2C(C)(C)CCC[C@@]13C
REMARK SMILES IDX 14 1 6 2 7 3 3 4 2 5 1 6 4 7 5 8 15 9 8 10 9 11 10 12 11 13
REMARK SMILES IDX 13 15 12 16
REMARK H PARENT
REMARK Flexibility Score: 80.00
ROOT
ATOM      1  C   UNL     1      21.371  63.685  16.037  1.00  0.00    -0.008 C 
ATOM      2  C   UNL     1      21.255  62.711  14.802  1.00  0.00     0.003 C 
ATOM      3  C   UNL     1      22.363  63.178  13.832  1.00  0.00     0.006 C 
ATOM      4  C   UNL     1      21.911  64.633  13.845  1.00  0.00     0.019 C 
ATOM      5  C   UNL     1      21.856  64.924  15.318  1.00  0.00    -0.068 C 
ATOM      6  C   UNL     1      22.094  66.122  15.868  1.00  0.00     0.009 C 
ATOM      7  C   UNL     1      20.449  64.485  13.364  1.00  0.00     0.008 C 
ATOM      8  C   UNL     1      20.027  63.110  13.940  1.00  0.00     0.005 C 
ATOM      9  C   UNL     1      20.019  63.978  16.742  1.00  0.00     0.016 C 
ENDROOT
BRANCH   3  10
ATOM     10  C   UNL     1      23.877  62.851  14.123  1.00  0.00    -0.032 C 
ATOM     11  C   UNL     1      24.126  61.355  13.793  1.00  0.00     0.011 C 
ATOM     12  C   UNL     1      24.763  63.671  13.152  1.00  0.00     0.011 C 
BRANCH  10  13
ATOM     13  C   UNL     1      24.370  63.164  15.563  1.00  0.00     0.007 CG0
ATOM     14  G   UNL     1      23.608  62.430  16.668  1.00  0.00     0.000 G0
ENDBRANCH  10  13
ENDBRANCH   3  10
BRANCH   1  15
ATOM     15  C   UNL     1      22.360  63.194  17.135  1.00  0.00     0.011 C 
BRANCH  15  16
ATOM     16  C   UNL     1      23.598  62.434  16.665  1.00  0.00     0.001 CG0
ATOM     17  G   UNL     1      24.365  63.164  15.562  1.00  0.00     0.000 G0
ENDBRANCH  15  16
ENDBRANCH   1  15
TORSDOF 0
ENDMDL
MODEL 2
REMARK VINA RESULT:    -3.285      1.586      3.482
REMARK INTER + INTRA:          -3.013
REMARK INTER:                  -4.035
REMARK INTRA:                   1.023
REMARK UNBOUND:                 1.041
REMARK SMILES C=C1[C@@H]2CC[C@H]3[C@@H]2C(C)(C)CCC[C@@]13C
REMARK SMILES IDX 14 1 6 2 7 3 3 4 2 5 1 6 4 7 5 8 15 9 8 10 9 11 10 12 11 13
REMARK SMILES IDX 13 15 12 16
REMARK H PARENT
REMARK Flexibility Score: 80.00
ROOT
ATOM      1  C   UNL     1      22.561  63.365  16.675  1.00  0.00    -0.008 C 
ATOM      2  C   UNL     1      21.056  62.909  16.790  1.00  0.00     0.003 C 
ATOM      3  C   UNL     1      20.252  64.041  16.112  1.00  0.00     0.006 C 
ATOM      4  C   UNL     1      20.899  65.143  16.942  1.00  0.00     0.019 C 
ATOM      5  C   UNL     1      22.361  64.863  16.739  1.00  0.00    -0.068 C 
ATOM      6  C   UNL     1      23.322  65.795  16.730  1.00  0.00     0.009 C 
ATOM      7  C   UNL     1      20.548  64.671  18.372  1.00  0.00     0.008 C 
ATOM      8  C   UNL     1      20.556  63.127  18.244  1.00  0.00     0.005 C 
ATOM      9  C   UNL     1      23.455  62.901  17.857  1.00  0.00     0.016 C 
ENDROOT
BRANCH   3  10
ATOM     10  C   UNL     1      20.233  64.186  14.543  1.00  0.00    -0.032 C 
ATOM     11  C   UNL     1      19.287  63.099  13.964  1.00  0.00     0.011 C 
ATOM     12  C   UNL     1      19.611  65.555  14.173  1.00  0.00     0.011 C 
BRANCH  10  13
ATOM     13  C   UNL     1      21.617  64.109  13.841  1.00  0.00     0.007 CG0
ATOM     14  G   UNL     1      22.394  62.819  14.109  1.00  0.00     0.000 G0
ENDBRANCH  10  13
ENDBRANCH   3  10
BRANCH   1  15
ATOM     15  C   UNL     1      23.260  62.901  15.365  1.00  0.00     0.011 C 
BRANCH  15  16
ATOM     16  C   UNL     1      22.396  62.815  14.109  1.00  0.00     0.001 CG0
ATOM     17  G   UNL     1      21.610  64.098  13.835  1.00  0.00     0.000 G0
ENDBRANCH  15  16
ENDBRANCH   1  15
TORSDOF 0
ENDMDL
MODEL 3
REMARK VINA RESULT:    -3.228      1.700      3.484
REMARK INTER + INTRA:          -2.942
REMARK INTER:                  -3.963
REMARK INTRA:                   1.021
REMARK UNBOUND:                 1.041
REMARK SMILES C=C1[C@@H]2CC[C@H]3[C@@H]2C(C)(C)CCC[C@@]13C
REMARK SMILES IDX 14 1 6 2 7 3 3 4 2 5 1 6 4 7 5 8 15 9 8 10 9 11 10 12 11 13
REMARK SMILES IDX 13 15 12 16
REMARK H PARENT
REMARK Flexibility Score: 80.00
ROOT
ATOM      1  C   UNL     1      20.068  65.077  14.668  1.00  0.00    -0.008 C 
ATOM      2  C   UNL     1      20.979  65.363  15.922  1.00  0.00     0.003 C 
ATOM      3  C   UNL     1      21.916  64.137  16.012  1.00  0.00     0.006 C 
ATOM      4  C   UNL     1      20.777  63.127  15.969  1.00  0.00     0.019 C 
ATOM      5  C   UNL     1      20.022  63.567  14.747  1.00  0.00    -0.068 C 
ATOM      6  C   UNL     1      19.337  62.747  13.938  1.00  0.00     0.009 C 
ATOM      7  C   UNL     1      19.946  63.579  17.193  1.00  0.00     0.008 C 
ATOM      8  C   UNL     1      20.167  65.112  17.222  1.00  0.00     0.005 C 
ATOM      9  C   UNL     1      18.632  65.656  14.782  1.00  0.00     0.016 C 
ENDROOT
BRANCH   3  10
ATOM     10  C   UNL     1      23.118  63.968  15.005  1.00  0.00    -0.032 C 
ATOM     11  C   UNL     1      24.254  64.937  15.433  1.00  0.00     0.011 C 
ATOM     12  C   UNL     1      23.686  62.534  15.139  1.00  0.00     0.011 C 
BRANCH  10  13
ATOM     13  C   UNL     1      22.777  64.185  13.505  1.00  0.00     0.007 CG0
ATOM     14  G   UNL     1      22.184  65.558  13.181  1.00  0.00     0.000 G0
ENDBRANCH  10  13
ENDBRANCH   3  10
BRANCH   1  15
ATOM     15  C   UNL     1      20.663  65.596  13.326  1.00  0.00     0.011 C 
BRANCH  15  16
ATOM     16  C   UNL     1      22.182  65.550  13.176  1.00  0.00     0.001 CG0
ATOM     17  G   UNL     1      22.774  64.179  13.505  1.00  0.00     0.000 G0
ENDBRANCH  15  16
ENDBRANCH   1  15
TORSDOF 0
ENDMDL
MODEL 4
REMARK VINA RESULT:    -3.173      1.653      3.361
REMARK INTER + INTRA:          -2.874
REMARK INTER:                  -3.862
REMARK INTRA:                   0.988
REMARK UNBOUND:                 1.041
REMARK SMILES C=C1[C@@H]2CC[C@H]3[C@@H]2C(C)(C)CCC[C@@]13C
REMARK SMILES IDX 14 1 6 2 7 3 3 4 2 5 1 6 4 7 5 8 15 9 8 10 9 11 10 12 11 13
REMARK SMILES IDX 13 15 12 16
REMARK H PARENT
REMARK Flexibility Score: 80.00
ROOT
ATOM      1  C   UNL     1      22.479  65.234  17.078  1.00  0.00    -0.008 C 
ATOM      2  C   UNL     1      22.861  63.708  16.964  1.00  0.00     0.003 C 
ATOM      3  C   UNL     1      21.765  63.098  16.061  1.00  0.00     0.006 C 
ATOM      4  C   UNL     1      20.618  63.654  16.894  1.00  0.00     0.019 C 
ATOM      5  C   UNL     1      20.975  65.111  16.977  1.00  0.00    -0.068 C 
ATOM      6  C   UNL     1      20.087  66.110  17.058  1.00  0.00     0.009 C 
ATOM      7  C   UNL     1      20.939  63.037  18.275  1.00  0.00     0.008 C 
ATOM      8  C   UNL     1      22.487  62.980  18.283  1.00  0.00     0.005 C 
ATOM      9  C   UNL     1      22.866  65.884  18.434  1.00  0.00     0.016 C 
ENDROOT
BRANCH   3  10
ATOM     10  C   UNL     1      21.769  63.358  14.506  1.00  0.00    -0.032 C 
ATOM     11  C   UNL     1      22.848  62.446  13.861  1.00  0.00     0.011 C 
ATOM     12  C   UNL     1      20.406  62.912  13.921  1.00  0.00     0.011 C 
BRANCH  10  13
ATOM     13  C   UNL     1      21.993  64.831  14.068  1.00  0.00     0.007 CG0
ATOM     14  G   UNL     1      23.276  65.465  14.607  1.00  0.00     0.000 G0
ENDBRANCH  10  13
ENDBRANCH   3  10
BRANCH   1  15
ATOM     15  C   UNL     1      23.092  66.121  15.955  1.00  0.00     0.011 C 
BRANCH  15  16
ATOM     16  C   UNL     1      23.277  65.477  14.583  1.00  0.00     0.001 CG0
ATOM     17  G   UNL     1      22.004  64.810  14.059  1.00  0.00     0.000 G0
ENDBRANCH  15  16
ENDBRANCH   1  15
TORSDOF 0
ENDMDL
MODEL 5
REMARK VINA RESULT:    -3.136      1.325      2.184
REMARK INTER + INTRA:          -2.829
REMARK INTER:                  -3.869
REMARK INTRA:                   1.040
REMARK UNBOUND:                 1.041
REMARK SMILES C=C1[C@@H]2CC[C@H]3[C@@H]2C(C)(C)CCC[C@@]13C
REMARK SMILES IDX 14 1 6 2 7 3 3 4 2 5 1 6 4 7 5 8 15 9 8 10 9 11 10 12 11 13
REMARK SMILES IDX 13 15 12 16
REMARK H PARENT
REMARK Flexibility Score: 80.00
ROOT
ATOM      1  C   UNL     1      20.952  65.270  15.185  1.00  0.00    -0.008 C 
ATOM      2  C   UNL     1      20.847  63.830  15.818  1.00  0.00     0.003 C 
ATOM      3  C   UNL     1      21.755  62.947  14.933  1.00  0.00     0.006 C 
ATOM      4  C   UNL     1      21.094  63.382  13.632  1.00  0.00     0.019 C 
ATOM      5  C   UNL     1      21.160  64.879  13.739  1.00  0.00    -0.068 C 
ATOM      6  C   UNL     1      21.276  65.713  12.697  1.00  0.00     0.009 C 
ATOM      7  C   UNL     1      19.626  62.980  13.907  1.00  0.00     0.008 C 
ATOM      8  C   UNL     1      19.483  63.193  15.435  1.00  0.00     0.005 C 
ATOM      9  C   UNL     1      19.658  66.118  15.321  1.00  0.00     0.016 C 
ENDROOT
BRANCH   3  10
ATOM     10  C   UNL     1      23.325  63.036  15.053  1.00  0.00    -0.032 C 
ATOM     11  C   UNL     1      23.759  62.296  16.348  1.00  0.00     0.011 C 
ATOM     12  C   UNL     1      23.962  62.265  13.870  1.00  0.00     0.011 C 
BRANCH  10  13
ATOM     13  C   UNL     1      23.923  64.469  15.039  1.00  0.00     0.007 CG0
ATOM     14  G   UNL     1      23.394  65.389  16.141  1.00  0.00     0.000 G0
ENDBRANCH  10  13
ENDBRANCH   3  10
BRANCH   1  15
ATOM     15  C   UNL     1      22.120  66.125  15.757  1.00  0.00     0.011 C 
BRANCH  15  16
ATOM     16  C   UNL     1      23.399  65.385  16.143  1.00  0.00     0.001 CG0
ATOM     17  G   UNL     1      23.925  64.479  15.029  1.00  0.00     0.000 G0
ENDBRANCH  15  16
ENDBRANCH   1  15
TORSDOF 0
ENDMDL
MODEL 6
REMARK VINA RESULT:    -3.126      1.588      3.680
REMARK INTER + INTRA:          -2.816
REMARK INTER:                  -3.832
REMARK INTRA:                   1.016
REMARK UNBOUND:                 1.041
REMARK SMILES C=C1[C@@H]2CC[C@H]3[C@@H]2C(C)(C)CCC[C@@]13C
REMARK SMILES IDX 14 1 6 2 7 3 3 4 2 5 1 6 4 7 5 8 15 9 8 10 9 11 10 12 11 13
REMARK SMILES IDX 13 15 12 16
REMARK H PARENT
REMARK Flexibility Score: 80.00
ROOT
ATOM      1  C   UNL     1      21.587  64.909  14.266  1.00  0.00    -0.008 C 
ATOM      2  C   UNL     1      20.240  64.998  15.082  1.00  0.00     0.003 C 
ATOM      3  C   UNL     1      20.370  63.909  16.171  1.00  0.00     0.006 C 
ATOM      4  C   UNL     1      20.723  62.807  15.180  1.00  0.00     0.019 C 
ATOM      5  C   UNL     1      21.861  63.429  14.421  1.00  0.00    -0.068 C 
ATOM      6  C   UNL     1      22.882  62.749  13.884  1.00  0.00     0.009 C 
ATOM      7  C   UNL     1      19.489  62.851  14.249  1.00  0.00     0.008 C 
ATOM      8  C   UNL     1      19.092  64.349  14.261  1.00  0.00     0.005 C 
ATOM      9  C   UNL     1      21.441  65.265  12.762  1.00  0.00     0.016 C 
ENDROOT
BRANCH   3  10
ATOM     10  C   UNL     1      21.303  64.131  17.422  1.00  0.00    -0.032 C 
ATOM     11  C   UNL     1      20.584  65.097  18.402  1.00  0.00     0.011 C 
ATOM     12  C   UNL     1      21.468  62.785  18.169  1.00  0.00     0.011 C 
BRANCH  10  13
ATOM     13  C   UNL     1      22.731  64.660  17.114  1.00  0.00     0.007 CG0
ATOM     14  G   UNL     1      22.766  65.983  16.345  1.00  0.00     0.000 G0
ENDBRANCH  10  13
ENDBRANCH   3  10
BRANCH   1  15
ATOM     15  C   UNL     1      22.727  65.801  14.838  1.00  0.00     0.011 C 
BRANCH  15  16
ATOM     16  C   UNL     1      22.776  65.980  16.353  1.00  0.00     0.001 CG0
ATOM     17  G   UNL     1      22.738  64.654  17.114  1.00  0.00     0.000 G0
ENDBRANCH  15  16
ENDBRANCH   1  15
TORSDOF 0
ENDMDL
MODEL 7
REMARK VINA RESULT:    -3.032      1.658      3.771
REMARK INTER + INTRA:          -2.700
REMARK INTER:                  -3.717
REMARK INTRA:                   1.016
REMARK UNBOUND:                 1.041
REMARK SMILES C=C1[C@@H]2CC[C@H]3[C@@H]2C(C)(C)CCC[C@@]13C
REMARK SMILES IDX 14 1 6 2 7 3 3 4 2 5 1 6 4 7 5 8 15 9 8 10 9 11 10 12 11 13
REMARK SMILES IDX 13 15 12 16
REMARK H PARENT
REMARK Flexibility Score: 80.00
ROOT
ATOM      1  C   UNL     1      23.636  64.366  15.982  1.00  0.00    -0.008 C 
ATOM      2  C   UNL     1      23.220  64.888  14.553  1.00  0.00     0.003 C 
ATOM      3  C   UNL     1      22.136  63.896  14.076  1.00  0.00     0.006 C 
ATOM      4  C   UNL     1      22.991  62.665  14.344  1.00  0.00     0.019 C 
ATOM      5  C   UNL     1      23.411  62.886  15.769  1.00  0.00    -0.068 C 
ATOM      6  C   UNL     1      23.646  61.909  16.655  1.00  0.00     0.009 C 
ATOM      7  C   UNL     1      24.224  62.973  13.463  1.00  0.00     0.008 C 
ATOM      8  C   UNL     1      24.323  64.517  13.525  1.00  0.00     0.005 C 
ATOM      9  C   UNL     1      25.123  64.628  16.344  1.00  0.00     0.016 C 
ENDROOT
BRANCH   3  10
ATOM     10  C   UNL     1      20.677  63.951  14.672  1.00  0.00    -0.032 C 
ATOM     11  C   UNL     1      19.931  65.151  14.027  1.00  0.00     0.011 C 
ATOM     12  C   UNL     1      19.913  62.674  14.244  1.00  0.00     0.011 C 
BRANCH  10  13
ATOM     13  C   UNL     1      20.584  64.042  16.220  1.00  0.00     0.007 CG0
ATOM     14  G   UNL     1      21.307  65.244  16.830  1.00  0.00     0.000 G0
ENDBRANCH  10  13
ENDBRANCH   3  10
BRANCH   1  15
ATOM     15  C   UNL     1      22.775  64.951  17.140  1.00  0.00     0.011 C 
BRANCH  15  16
ATOM     16  C   UNL     1      21.306  65.238  16.838  1.00  0.00     0.001 CG0
ATOM     17  G   UNL     1      20.579  64.043  16.217  1.00  0.00     0.000 G0
ENDBRANCH  15  16
ENDBRANCH   1  15
TORSDOF 0
ENDMDL
MODEL 8
REMARK VINA RESULT:    -2.937      1.725      2.960
REMARK INTER + INTRA:          -2.583
REMARK INTER:                  -3.593
REMARK INTRA:                   1.011
REMARK UNBOUND:                 1.041
REMARK SMILES C=C1[C@@H]2CC[C@H]3[C@@H]2C(C)(C)CCC[C@@]13C
REMARK SMILES IDX 14 1 6 2 7 3 3 4 2 5 1 6 4 7 5 8 15 9 8 10 9 11 10 12 11 13
REMARK SMILES IDX 13 15 12 16
REMARK H PARENT
REMARK Flexibility Score: 80.00
ROOT
ATOM      1  C   UNL     1      20.858  63.593  15.339  1.00  0.00    -0.008 C 
ATOM      2  C   UNL     1      22.274  62.898  15.348  1.00  0.00     0.003 C 
ATOM      3  C   UNL     1      23.244  63.994  15.842  1.00  0.00     0.006 C 
ATOM      4  C   UNL     1      22.779  65.020  14.817  1.00  0.00     0.019 C 
ATOM      5  C   UNL     1      21.291  65.008  15.023  1.00  0.00    -0.068 C 
ATOM      6  C   UNL     1      20.488  66.065  14.843  1.00  0.00     0.009 C 
ATOM      7  C   UNL     1      23.052  64.256  13.500  1.00  0.00     0.008 C 
ATOM      8  C   UNL     1      22.802  62.778  13.892  1.00  0.00     0.005 C 
ATOM      9  C   UNL     1      19.904  63.073  14.231  1.00  0.00     0.016 C 
ENDROOT
BRANCH   3  10
ATOM     10  C   UNL     1      23.284  64.407  17.363  1.00  0.00    -0.032 C 
ATOM     11  C   UNL     1      24.060  63.312  18.146  1.00  0.00     0.011 C 
ATOM     12  C   UNL     1      24.101  65.715  17.506  1.00  0.00     0.011 C 
BRANCH  10  13
ATOM     13  C   UNL     1      21.904  64.655  18.031  1.00  0.00     0.007 CG0
ATOM     14  G   UNL     1      20.943  63.466  17.965  1.00  0.00     0.000 G0
ENDBRANCH  10  13
ENDBRANCH   3  10
BRANCH   1  15
ATOM     15  C   UNL     1      20.093  63.480  16.690  1.00  0.00     0.011 C 
BRANCH  15  16
ATOM     16  C   UNL     1      20.933  63.476  17.966  1.00  0.00     0.001 CG0
ATOM     17  G   UNL     1      21.900  64.658  18.048  1.00  0.00     0.000 G0
ENDBRANCH  15  16
ENDBRANCH   1  15
TORSDOF 0
ENDMDL
MODEL 9
REMARK VINA RESULT:    -2.826      2.654      4.748
REMARK INTER + INTRA:          -2.446
REMARK INTER:                  -3.462
REMARK INTRA:                   1.016
REMARK UNBOUND:                 1.041
REMARK SMILES C=C1[C@@H]2CC[C@H]3[C@@H]2C(C)(C)CCC[C@@]13C
REMARK SMILES IDX 14 1 6 2 7 3 3 4 2 5 1 6 4 7 5 8 15 9 8 10 9 11 10 12 11 13
REMARK SMILES IDX 13 15 12 16
REMARK H PARENT
REMARK Flexibility Score: 80.00
ROOT
ATOM      1  C   UNL     1      22.986  64.453  16.796  1.00  0.00    -0.008 C 
ATOM      2  C   UNL     1      21.869  65.071  17.720  1.00  0.00     0.003 C 
ATOM      3  C   UNL     1      21.907  64.213  19.006  1.00  0.00     0.006 C 
ATOM      4  C   UNL     1      21.793  62.892  18.257  1.00  0.00     0.019 C 
ATOM      5  C   UNL     1      22.900  63.012  17.249  1.00  0.00    -0.068 C 
ATOM      6  C   UNL     1      23.607  61.982  16.766  1.00  0.00     0.009 C 
ATOM      7  C   UNL     1      20.467  63.109  17.490  1.00  0.00     0.008 C 
ATOM      8  C   UNL     1      20.470  64.633  17.207  1.00  0.00     0.005 C 
ATOM      9  C   UNL     1      22.676  64.548  15.277  1.00  0.00     0.016 C 
ENDROOT
BRANCH   3  10
ATOM     10  C   UNL     1      23.069  64.391  20.056  1.00  0.00    -0.032 C 
ATOM     11  C   UNL     1      22.799  65.687  20.868  1.00  0.00     0.011 C 
ATOM     12  C   UNL     1      23.016  63.218  21.066  1.00  0.00     0.011 C 
BRANCH  10  13
ATOM     13  C   UNL     1      24.508  64.425  19.472  1.00  0.00     0.007 CG0
ATOM     14  G   UNL     1      24.745  65.521  18.431  1.00  0.00     0.000 G0
ENDBRANCH  10  13
ENDBRANCH   3  10
BRANCH   1  15
ATOM     15  C   UNL     1      24.397  65.074  17.013  1.00  0.00     0.011 C 
BRANCH  15  16
ATOM     16  C   UNL     1      24.753  65.512  18.431  1.00  0.00     0.001 CG0
ATOM     17  G   UNL     1      24.507  64.420  19.474  1.00  0.00     0.000 G0
ENDBRANCH  15  16
ENDBRANCH   1  15
TORSDOF 0
ENDMDL
