MODEL 1
REMARK VINA RESULT:    -2.164      0.000      0.000
REMARK INTER + INTRA:          -2.164
REMARK INTER:                  -2.164
REMARK INTRA:                   0.000
REMARK UNBOUND:                 0.000
REMARK SMILES O=c1ccc2ccccc2o1
REMARK SMILES IDX 7 1 8 2 9 3 10 4 5 5 6 6 4 7 3 8 2 9 1 10 11 11
REMARK H PARENT
REMARK Flexibility Score: inf
ROOT
ATOM      1  C   UNL     1      16.059 -35.484  -1.353  1.00  0.00     0.001 A 
ATOM      2  C   UNL     1      16.513 -35.303  -0.042  1.00  0.00     0.004 A 
ATOM      3  C   UNL     1      15.798 -34.492   0.845  1.00  0.00     0.048 A 
ATOM      4  C   UNL     1      14.625 -33.857   0.424  1.00  0.00     0.138 A 
ATOM      5  C   UNL     1      14.165 -34.040  -0.900  1.00  0.00     0.018 A 
ATOM      6  C   UNL     1      14.886 -34.854  -1.785  1.00  0.00     0.012 A 
ATOM      7  C   UNL     1      12.989 -33.392  -1.293  1.00  0.00     0.019 A 
ATOM      8  C   UNL     1      12.309 -32.593  -0.374  1.00  0.00     0.094 A 
ATOM      9  C   UNL     1      12.823 -32.458   0.920  1.00  0.00     0.336 A 
ATOM     10  O   UNL     1      12.223 -31.741   1.762  1.00  0.00    -0.246 OA
ATOM     11  O   UNL     1      13.945 -33.085   1.268  1.00  0.00    -0.423 OA
ENDROOT
TORSDOF 0
ENDMDL
MODEL 2
REMARK VINA RESULT:    -2.149      1.095      2.162
REMARK INTER + INTRA:          -2.149
REMARK INTER:                  -2.149
REMARK INTRA:                   0.000
REMARK UNBOUND:                 0.000
REMARK SMILES O=c1ccc2ccccc2o1
REMARK SMILES IDX 7 1 8 2 9 3 10 4 5 5 6 6 4 7 3 8 2 9 1 10 11 11
REMARK H PARENT
REMARK Flexibility Score: inf
ROOT
ATOM      1  C   UNL     1      17.028 -35.552  -0.777  1.00  0.00     0.001 A 
ATOM      2  C   UNL     1      16.110 -35.597  -1.832  1.00  0.00     0.004 A 
ATOM      3  C   UNL     1      14.876 -34.948  -1.719  1.00  0.00     0.048 A 
ATOM      4  C   UNL     1      14.555 -34.252  -0.549  1.00  0.00     0.138 A 
ATOM      5  C   UNL     1      15.483 -34.205   0.517  1.00  0.00     0.018 A 
ATOM      6  C   UNL     1      16.718 -34.858   0.397  1.00  0.00     0.012 A 
ATOM      7  C   UNL     1      15.133 -33.501   1.674  1.00  0.00     0.019 A 
ATOM      8  C   UNL     1      13.893 -32.869   1.742  1.00  0.00     0.094 A 
ATOM      9  C   UNL     1      13.025 -32.957   0.648  1.00  0.00     0.336 A 
ATOM     10  O   UNL     1      11.900 -32.394   0.691  1.00  0.00    -0.246 OA
ATOM     11  O   UNL     1      13.381 -33.634  -0.442  1.00  0.00    -0.423 OA
ENDROOT
TORSDOF 0
ENDMDL
MODEL 3
REMARK VINA RESULT:    -2.136      2.335      4.559
REMARK INTER + INTRA:          -2.136
REMARK INTER:                  -2.136
REMARK INTRA:                   0.000
REMARK UNBOUND:                 0.000
REMARK SMILES O=c1ccc2ccccc2o1
REMARK SMILES IDX 7 1 8 2 9 3 10 4 5 5 6 6 4 7 3 8 2 9 1 10 11 11
REMARK H PARENT
REMARK Flexibility Score: inf
ROOT
ATOM      1  C   UNL     1      13.175 -33.133   0.752  1.00  0.00     0.001 A 
ATOM      2  C   UNL     1      12.763 -33.504  -0.533  1.00  0.00     0.004 A 
ATOM      3  C   UNL     1      13.622 -34.229  -1.365  1.00  0.00     0.048 A 
ATOM      4  C   UNL     1      14.898 -34.586  -0.916  1.00  0.00     0.138 A 
ATOM      5  C   UNL     1      15.314 -34.212   0.382  1.00  0.00     0.018 A 
ATOM      6  C   UNL     1      14.448 -33.485   1.211  1.00  0.00     0.012 A 
ATOM      7  C   UNL     1      16.595 -34.582   0.803  1.00  0.00     0.019 A 
ATOM      8  C   UNL     1      17.417 -35.305  -0.060  1.00  0.00     0.094 A 
ATOM      9  C   UNL     1      16.938 -35.641  -1.331  1.00  0.00     0.336 A 
ATOM     10  O   UNL     1      17.666 -36.292  -2.125  1.00  0.00    -0.246 OA
ATOM     11  O   UNL     1      15.715 -35.276  -1.709  1.00  0.00    -0.423 OA
ENDROOT
TORSDOF 0
ENDMDL
MODEL 4
REMARK VINA RESULT:    -2.129      2.254      4.072
REMARK INTER + INTRA:          -2.129
REMARK INTER:                  -2.129
REMARK INTRA:                   0.000
REMARK UNBOUND:                 0.000
REMARK SMILES O=c1ccc2ccccc2o1
REMARK SMILES IDX 7 1 8 2 9 3 10 4 5 5 6 6 4 7 3 8 2 9 1 10 11 11
REMARK H PARENT
REMARK Flexibility Score: inf
ROOT
ATOM      1  C   UNL     1      13.372 -32.976   1.151  1.00  0.00     0.001 A 
ATOM      2  C   UNL     1      14.454 -32.980   2.037  1.00  0.00     0.004 A 
ATOM      3  C   UNL     1      15.637 -33.645   1.701  1.00  0.00     0.048 A 
ATOM      4  C   UNL     1      15.743 -34.310   0.475  1.00  0.00     0.138 A 
ATOM      5  C   UNL     1      14.651 -34.306  -0.422  1.00  0.00     0.018 A 
ATOM      6  C   UNL     1      13.467 -33.638  -0.078  1.00  0.00     0.012 A 
ATOM      7  C   UNL     1      14.786 -34.980  -1.640  1.00  0.00     0.019 A 
ATOM      8  C   UNL     1      15.985 -35.629  -1.934  1.00  0.00     0.094 A 
ATOM      9  C   UNL     1      17.024 -35.591  -0.998  1.00  0.00     0.336 A 
ATOM     10  O   UNL     1      18.113 -36.172  -1.245  1.00  0.00    -0.246 OA
ATOM     11  O   UNL     1      16.870 -34.943   0.155  1.00  0.00    -0.423 OA
ENDROOT
TORSDOF 0
ENDMDL
MODEL 5
REMARK VINA RESULT:    -2.120      8.386      9.054
REMARK INTER + INTRA:          -2.120
REMARK INTER:                  -2.120
REMARK INTRA:                   0.000
REMARK UNBOUND:                 0.000
REMARK SMILES O=c1ccc2ccccc2o1
REMARK SMILES IDX 7 1 8 2 9 3 10 4 5 5 6 6 4 7 3 8 2 9 1 10 11 11
REMARK H PARENT
REMARK Flexibility Score: inf
ROOT
ATOM      1  C   UNL     1      19.845 -29.903   2.135  1.00  0.00     0.001 A 
ATOM      2  C   UNL     1      20.136 -28.689   2.765  1.00  0.00     0.004 A 
ATOM      3  C   UNL     1      20.530 -27.580   2.009  1.00  0.00     0.048 A 
ATOM      4  C   UNL     1      20.635 -27.682   0.618  1.00  0.00     0.138 A 
ATOM      5  C   UNL     1      20.340 -28.908  -0.019  1.00  0.00     0.018 A 
ATOM      6  C   UNL     1      19.946 -30.016   0.744  1.00  0.00     0.012 A 
ATOM      7  C   UNL     1      20.454 -28.980  -1.411  1.00  0.00     0.019 A 
ATOM      8  C   UNL     1      20.850 -27.849  -2.125  1.00  0.00     0.094 A 
ATOM      9  C   UNL     1      21.125 -26.668  -1.427  1.00  0.00     0.336 A 
ATOM     10  O   UNL     1      21.485 -25.638  -2.053  1.00  0.00    -0.246 OA
ATOM     11  O   UNL     1      21.010 -26.626  -0.101  1.00  0.00    -0.423 OA
ENDROOT
TORSDOF 0
ENDMDL
MODEL 6
REMARK VINA RESULT:    -2.096      1.852      2.663
REMARK INTER + INTRA:          -2.096
REMARK INTER:                  -2.096
REMARK INTRA:                   0.000
REMARK UNBOUND:                 0.000
REMARK SMILES O=c1ccc2ccccc2o1
REMARK SMILES IDX 7 1 8 2 9 3 10 4 5 5 6 6 4 7 3 8 2 9 1 10 11 11
REMARK H PARENT
REMARK Flexibility Score: inf
ROOT
ATOM      1  C   UNL     1      17.753 -35.330  -0.088  1.00  0.00     0.001 A 
ATOM      2  C   UNL     1      17.477 -35.798  -1.377  1.00  0.00     0.004 A 
ATOM      3  C   UNL     1      16.212 -35.606  -1.940  1.00  0.00     0.048 A 
ATOM      4  C   UNL     1      15.215 -34.943  -1.215  1.00  0.00     0.138 A 
ATOM      5  C   UNL     1      15.494 -34.469   0.087  1.00  0.00     0.018 A 
ATOM      6  C   UNL     1      16.765 -34.666   0.646  1.00  0.00     0.012 A 
ATOM      7  C   UNL     1      14.478 -33.811   0.788  1.00  0.00     0.019 A 
ATOM      8  C   UNL     1      13.231 -33.641   0.187  1.00  0.00     0.094 A 
ATOM      9  C   UNL     1      13.028 -34.136  -1.106  1.00  0.00     0.336 A 
ATOM     10  O   UNL     1      11.909 -33.993  -1.664  1.00  0.00    -0.246 OA
ATOM     11  O   UNL     1      14.011 -34.760  -1.751  1.00  0.00    -0.423 OA
ENDROOT
TORSDOF 0
ENDMDL
MODEL 7
REMARK VINA RESULT:    -2.058      1.673      3.033
REMARK INTER + INTRA:          -2.058
REMARK INTER:                  -2.058
REMARK INTRA:                   0.000
REMARK UNBOUND:                 0.000
REMARK SMILES O=c1ccc2ccccc2o1
REMARK SMILES IDX 7 1 8 2 9 3 10 4 5 5 6 6 4 7 3 8 2 9 1 10 11 11
REMARK H PARENT
REMARK Flexibility Score: inf
ROOT
ATOM      1  C   UNL     1      17.145 -33.923   1.916  1.00  0.00     0.001 A 
ATOM      2  C   UNL     1      16.044 -33.230   2.430  1.00  0.00     0.004 A 
ATOM      3  C   UNL     1      14.826 -33.234   1.744  1.00  0.00     0.048 A 
ATOM      4  C   UNL     1      14.704 -33.931   0.538  1.00  0.00     0.138 A 
ATOM      5  C   UNL     1      15.815 -34.633   0.017  1.00  0.00     0.018 A 
ATOM      6  C   UNL     1      17.034 -34.624   0.710  1.00  0.00     0.012 A 
ATOM      7  C   UNL     1      15.662 -35.321  -1.191  1.00  0.00     0.019 A 
ATOM      8  C   UNL     1      14.429 -35.298  -1.840  1.00  0.00     0.094 A 
ATOM      9  C   UNL     1      13.373 -34.583  -1.266  1.00  0.00     0.336 A 
ATOM     10  O   UNL     1      12.252 -34.549  -1.838  1.00  0.00    -0.246 OA
ATOM     11  O   UNL     1      13.544 -33.935  -0.115  1.00  0.00    -0.423 OA
ENDROOT
TORSDOF 0
ENDMDL
MODEL 8
REMARK VINA RESULT:    -2.054      7.992      8.647
REMARK INTER + INTRA:          -2.054
REMARK INTER:                  -2.054
REMARK INTRA:                   0.000
REMARK UNBOUND:                 0.000
REMARK SMILES O=c1ccc2ccccc2o1
REMARK SMILES IDX 7 1 8 2 9 3 10 4 5 5 6 6 4 7 3 8 2 9 1 10 11 11
REMARK H PARENT
REMARK Flexibility Score: inf
ROOT
ATOM      1  C   UNL     1      20.679 -27.984  -1.784  1.00  0.00     0.001 A 
ATOM      2  C   UNL     1      21.039 -26.776  -1.176  1.00  0.00     0.004 A 
ATOM      3  C   UNL     1      20.975 -26.642   0.215  1.00  0.00     0.048 A 
ATOM      4  C   UNL     1      20.550 -27.716   1.004  1.00  0.00     0.138 A 
ATOM      5  C   UNL     1      20.187 -28.937   0.390  1.00  0.00     0.018 A 
ATOM      6  C   UNL     1      20.253 -29.064  -1.005  1.00  0.00     0.012 A 
ATOM      7  C   UNL     1      19.766 -29.993   1.205  1.00  0.00     0.019 A 
ATOM      8  C   UNL     1      19.719 -29.814   2.587  1.00  0.00     0.094 A 
ATOM      9  C   UNL     1      20.093 -28.578   3.125  1.00  0.00     0.336 A 
ATOM     10  O   UNL     1      20.056 -28.398   4.370  1.00  0.00    -0.246 OA
ATOM     11  O   UNL     1      20.490 -27.588   2.327  1.00  0.00    -0.423 OA
ENDROOT
TORSDOF 0
ENDMDL
MODEL 9
REMARK VINA RESULT:    -1.991      2.041      2.599
REMARK INTER + INTRA:          -1.991
REMARK INTER:                  -1.991
REMARK INTRA:                   0.000
REMARK UNBOUND:                 0.000
REMARK SMILES O=c1ccc2ccccc2o1
REMARK SMILES IDX 7 1 8 2 9 3 10 4 5 5 6 6 4 7 3 8 2 9 1 10 11 11
REMARK H PARENT
REMARK Flexibility Score: inf
ROOT
ATOM      1  C   UNL     1      15.324 -35.366  -2.118  1.00  0.00     0.001 A 
ATOM      2  C   UNL     1      16.604 -35.724  -1.681  1.00  0.00     0.004 A 
ATOM      3  C   UNL     1      17.045 -35.345  -0.409  1.00  0.00     0.048 A 
ATOM      4  C   UNL     1      16.207 -34.606   0.432  1.00  0.00     0.138 A 
ATOM      5  C   UNL     1      14.913 -34.244  -0.009  1.00  0.00     0.018 A 
ATOM      6  C   UNL     1      14.478 -34.627  -1.286  1.00  0.00     0.012 A 
ATOM      7  C   UNL     1      14.098 -33.505   0.854  1.00  0.00     0.019 A 
ATOM      8  C   UNL     1      14.579 -33.150   2.113  1.00  0.00     0.094 A 
ATOM      9  C   UNL     1      15.870 -33.543   2.483  1.00  0.00     0.336 A 
ATOM     10  O   UNL     1      16.321 -33.230   3.615  1.00  0.00    -0.246 OA
ATOM     11  O   UNL     1      16.627 -34.246   1.642  1.00  0.00    -0.423 OA
ENDROOT
TORSDOF 0
ENDMDL
