MODEL 1
REMARK VINA RESULT:    -2.863      0.000      0.000
REMARK INTER + INTRA:         -13.192
REMARK INTER:                  -7.466
REMARK INTRA:                  -5.727
REMARK UNBOUND:                -5.727
REMARK SMILES CCCCCCCCCCCCCCCCCCCCCCCCCCCCCO
REMARK SMILES IDX 16 1 15 2 14 3 13 4 12 5 11 6 10 7 9 8 8 9 7 10 6 11 5 12
REMARK SMILES IDX 4 13 3 14 2 15 1 16 17 17 18 18 19 19 20 20 21 21 22 22
REMARK SMILES IDX 23 23 24 24 25 25 26 26 27 27 28 28 29 29 30 30
REMARK H PARENT 30 31
REMARK Flexibility Score: inf
ROOT
ATOM      1  C   UNL     1     142.209 135.707 139.602  1.00  0.00     0.000 C 
ENDROOT
BRANCH   1   2
ATOM      2  C   UNL     1     143.609 135.142 139.330  1.00  0.00     0.000 C 
BRANCH   2   3
ATOM      3  C   UNL     1     144.677 135.889 140.141  1.00  0.00     0.000 C 
BRANCH   3   4
ATOM      4  C   UNL     1     144.808 137.370 139.736  1.00  0.00     0.000 C 
BRANCH   4   5
ATOM      5  C   UNL     1     144.645 138.378 140.888  1.00  0.00     0.000 C 
BRANCH   5   6
ATOM      6  C   UNL     1     144.820 139.836 140.430  1.00  0.00     0.000 C 
BRANCH   6   7
ATOM      7  C   UNL     1     145.009 139.965 138.910  1.00  0.00     0.000 C 
BRANCH   7   8
ATOM      8  C   UNL     1     145.752 141.234 138.450  1.00  0.00    -0.000 C 
BRANCH   8   9
ATOM      9  C   UNL     1     145.144 141.893 137.189  1.00  0.00    -0.000 C 
BRANCH   9  10
ATOM     10  C   UNL     1     143.706 141.434 136.886  1.00  0.00    -0.000 C 
BRANCH  10  11
ATOM     11  C   UNL     1     142.686 142.575 137.027  1.00  0.00    -0.000 C 
BRANCH  11  12
ATOM     12  C   UNL     1     142.252 142.745 138.488  1.00  0.00    -0.000 C 
BRANCH  12  13
ATOM     13  C   UNL     1     142.771 144.067 139.065  1.00  0.00    -0.000 C 
BRANCH  13  14
ATOM     14  C   UNL     1     143.760 143.819 140.210  1.00  0.00    -0.000 C 
BRANCH  14  15
ATOM     15  C   UNL     1     144.768 144.968 140.324  1.00  0.00    -0.003 C 
ATOM     16  C   UNL     1     145.654 145.049 139.084  1.00  0.00     0.004 C 
ENDBRANCH  14  15
ENDBRANCH  13  14
ENDBRANCH  12  13
ENDBRANCH  11  12
ENDBRANCH  10  11
ENDBRANCH   9  10
ENDBRANCH   8   9
ENDBRANCH   7   8
ENDBRANCH   6   7
ENDBRANCH   5   6
ENDBRANCH   4   5
ENDBRANCH   3   4
ENDBRANCH   2   3
ENDBRANCH   1   2
BRANCH   1  17
ATOM     17  C   UNL     1     141.394 135.793 138.306  1.00  0.00     0.000 C 
BRANCH  17  18
ATOM     18  C   UNL     1     142.191 136.495 137.195  1.00  0.00     0.000 C 
BRANCH  18  19
ATOM     19  C   UNL     1     142.176 138.026 137.337  1.00  0.00     0.000 C 
BRANCH  19  20
ATOM     20  C   UNL     1     140.764 138.623 137.185  1.00  0.00     0.000 C 
BRANCH  20  21
ATOM     21  C   UNL     1     140.395 139.559 138.348  1.00  0.00     0.000 C 
BRANCH  21  22
ATOM     22  C   UNL     1     141.331 139.395 139.558  1.00  0.00     0.000 C 
BRANCH  22  23
ATOM     23  C   UNL     1     140.612 138.831 140.797  1.00  0.00     0.000 C 
BRANCH  23  24
ATOM     24  C   UNL     1     139.104 138.566 140.611  1.00  0.00     0.000 C 
BRANCH  24  25
ATOM     25  C   UNL     1     138.764 137.069 140.521  1.00  0.00     0.000 C 
BRANCH  25  26
ATOM     26  C   UNL     1     138.061 136.739 139.200  1.00  0.00     0.000 C 
BRANCH  26  27
ATOM     27  C   UNL     1     137.027 137.820 138.846  1.00  0.00     0.002 C 
BRANCH  27  28
ATOM     28  C   UNL     1     135.611 137.469 139.332  1.00  0.00     0.028 C 
BRANCH  28  29
ATOM     29  C   UNL     1     135.298 135.975 139.216  1.00  0.00     0.156 C 
BRANCH  29  30
ATOM     30  O   UNL     1     135.048 135.452 140.489  1.00  0.00    -0.396 OA
ATOM     31  H   UNL     1     135.926 135.408 140.949  1.00  0.00     0.210 HD
ENDBRANCH  29  30
ENDBRANCH  28  29
ENDBRANCH  27  28
ENDBRANCH  26  27
ENDBRANCH  25  26
ENDBRANCH  24  25
ENDBRANCH  23  24
ENDBRANCH  22  23
ENDBRANCH  21  22
ENDBRANCH  20  21
ENDBRANCH  19  20
ENDBRANCH  18  19
ENDBRANCH  17  18
ENDBRANCH   1  17
TORSDOF 28
ENDMDL
MODEL 2
REMARK VINA RESULT:    -2.850      4.571      6.502
REMARK INTER + INTRA:         -13.157
REMARK INTER:                  -7.928
REMARK INTRA:                  -5.229
REMARK UNBOUND:                -5.727
REMARK SMILES CCCCCCCCCCCCCCCCCCCCCCCCCCCCCO
REMARK SMILES IDX 16 1 15 2 14 3 13 4 12 5 11 6 10 7 9 8 8 9 7 10 6 11 5 12
REMARK SMILES IDX 4 13 3 14 2 15 1 16 17 17 18 18 19 19 20 20 21 21 22 22
REMARK SMILES IDX 23 23 24 24 25 25 26 26 27 27 28 28 29 29 30 30
REMARK H PARENT 30 31
REMARK Flexibility Score: inf
ROOT
ATOM      1  C   UNL     1     135.524 138.453 141.861  1.00  0.00     0.000 C 
ENDROOT
BRANCH   1   2
ATOM      2  C   UNL     1     135.354 139.957 142.111  1.00  0.00     0.000 C 
BRANCH   2   3
ATOM      3  C   UNL     1     136.664 140.715 141.854  1.00  0.00     0.000 C 
BRANCH   3   4
ATOM      4  C   UNL     1     136.470 142.242 141.796  1.00  0.00     0.000 C 
BRANCH   4   5
ATOM      5  C   UNL     1     137.116 142.936 140.583  1.00  0.00     0.000 C 
BRANCH   5   6
ATOM      6  C   UNL     1     138.619 142.631 140.455  1.00  0.00     0.000 C 
BRANCH   6   7
ATOM      7  C   UNL     1     139.032 142.261 139.022  1.00  0.00     0.000 C 
BRANCH   7   8
ATOM      8  C   UNL     1     138.459 143.174 137.920  1.00  0.00    -0.000 C 
BRANCH   8   9
ATOM      9  C   UNL     1     139.505 144.119 137.283  1.00  0.00    -0.000 C 
BRANCH   9  10
ATOM     10  C   UNL     1     140.672 144.471 138.223  1.00  0.00    -0.000 C 
BRANCH  10  11
ATOM     11  C   UNL     1     140.493 145.845 138.890  1.00  0.00    -0.000 C 
BRANCH  11  12
ATOM     12  C   UNL     1     139.737 146.807 137.966  1.00  0.00    -0.000 C 
BRANCH  12  13
ATOM     13  C   UNL     1     138.846 147.758 138.774  1.00  0.00    -0.000 C 
BRANCH  13  14
ATOM     14  C   UNL     1     137.365 147.544 138.439  1.00  0.00    -0.000 C 
BRANCH  14  15
ATOM     15  C   UNL     1     136.845 146.242 139.060  1.00  0.00    -0.003 C 
ATOM     16  C   UNL     1     136.074 146.514 140.348  1.00  0.00     0.004 C 
ENDBRANCH  14  15
ENDBRANCH  13  14
ENDBRANCH  12  13
ENDBRANCH  11  12
ENDBRANCH  10  11
ENDBRANCH   9  10
ENDBRANCH   8   9
ENDBRANCH   7   8
ENDBRANCH   6   7
ENDBRANCH   5   6
ENDBRANCH   4   5
ENDBRANCH   3   4
ENDBRANCH   2   3
ENDBRANCH   1   2
BRANCH   1  17
ATOM     17  C   UNL     1     136.917 138.147 141.299  1.00  0.00     0.000 C 
BRANCH  17  18
ATOM     18  C   UNL     1     136.878 136.941 140.347  1.00  0.00     0.000 C 
BRANCH  18  19
ATOM     19  C   UNL     1     137.242 137.319 138.902  1.00  0.00     0.000 C 
BRANCH  19  20
ATOM     20  C   UNL     1     137.542 138.821 138.737  1.00  0.00     0.000 C 
BRANCH  20  21
ATOM     21  C   UNL     1     136.626 139.491 137.701  1.00  0.00     0.000 C 
BRANCH  21  22
ATOM     22  C   UNL     1     135.595 140.433 138.344  1.00  0.00     0.000 C 
BRANCH  22  23
ATOM     23  C   UNL     1     134.232 139.757 138.580  1.00  0.00     0.000 C 
BRANCH  23  24
ATOM     24  C   UNL     1     133.847 138.687 137.539  1.00  0.00     0.000 C 
BRANCH  24  25
ATOM     25  C   UNL     1     133.634 137.296 138.157  1.00  0.00     0.000 C 
BRANCH  25  26
ATOM     26  C   UNL     1     132.986 137.398 139.542  1.00  0.00     0.000 C 
BRANCH  26  27
ATOM     27  C   UNL     1     133.236 136.119 140.358  1.00  0.00     0.002 C 
BRANCH  27  28
ATOM     28  C   UNL     1     132.357 134.943 139.905  1.00  0.00     0.028 C 
BRANCH  28  29
ATOM     29  C   UNL     1     133.147 133.867 139.156  1.00  0.00     0.156 C 
BRANCH  29  30
ATOM     30  O   UNL     1     134.497 133.946 139.514  1.00  0.00    -0.396 OA
ATOM     31  H   UNL     1     134.616 134.826 139.956  1.00  0.00     0.210 HD
ENDBRANCH  29  30
ENDBRANCH  28  29
ENDBRANCH  27  28
ENDBRANCH  26  27
ENDBRANCH  25  26
ENDBRANCH  24  25
ENDBRANCH  23  24
ENDBRANCH  22  23
ENDBRANCH  21  22
ENDBRANCH  20  21
ENDBRANCH  19  20
ENDBRANCH  18  19
ENDBRANCH  17  18
ENDBRANCH   1  17
TORSDOF 28
ENDMDL
MODEL 3
REMARK VINA RESULT:    -2.843      5.119      6.948
REMARK INTER + INTRA:         -13.139
REMARK INTER:                  -8.664
REMARK INTRA:                  -4.475
REMARK UNBOUND:                -5.727
REMARK SMILES CCCCCCCCCCCCCCCCCCCCCCCCCCCCCO
REMARK SMILES IDX 16 1 15 2 14 3 13 4 12 5 11 6 10 7 9 8 8 9 7 10 6 11 5 12
REMARK SMILES IDX 4 13 3 14 2 15 1 16 17 17 18 18 19 19 20 20 21 21 22 22
REMARK SMILES IDX 23 23 24 24 25 25 26 26 27 27 28 28 29 29 30 30
REMARK H PARENT 30 31
REMARK Flexibility Score: inf
ROOT
ATOM      1  C   UNL     1     135.975 136.508 140.239  1.00  0.00     0.000 C 
ENDROOT
BRANCH   1   2
ATOM      2  C   UNL     1     136.050 137.579 141.335  1.00  0.00     0.000 C 
BRANCH   2   3
ATOM      3  C   UNL     1     134.677 138.220 141.580  1.00  0.00     0.000 C 
BRANCH   3   4
ATOM      4  C   UNL     1     134.766 139.728 141.879  1.00  0.00     0.000 C 
BRANCH   4   5
ATOM      5  C   UNL     1     136.196 140.293 141.958  1.00  0.00     0.000 C 
BRANCH   5   6
ATOM      6  C   UNL     1     136.232 141.830 141.899  1.00  0.00     0.000 C 
BRANCH   6   7
ATOM      7  C   UNL     1     137.662 142.391 141.833  1.00  0.00     0.000 C 
BRANCH   7   8
ATOM      8  C   UNL     1     138.050 143.036 140.489  1.00  0.00    -0.000 C 
BRANCH   8   9
ATOM      9  C   UNL     1     136.844 143.328 139.565  1.00  0.00    -0.000 C 
BRANCH   9  10
ATOM     10  C   UNL     1     136.788 144.783 139.063  1.00  0.00    -0.000 C 
BRANCH  10  11
ATOM     11  C   UNL     1     136.304 145.758 140.149  1.00  0.00    -0.000 C 
BRANCH  11  12
ATOM     12  C   UNL     1     136.905 147.153 139.940  1.00  0.00    -0.000 C 
BRANCH  12  13
ATOM     13  C   UNL     1     137.355 147.347 138.488  1.00  0.00    -0.000 C 
BRANCH  13  14
ATOM     14  C   UNL     1     138.657 148.153 138.417  1.00  0.00    -0.000 C 
BRANCH  14  15
ATOM     15  C   UNL     1     139.860 147.232 138.181  1.00  0.00    -0.003 C 
ATOM     16  C   UNL     1     139.509 146.099 137.221  1.00  0.00     0.004 C 
ENDBRANCH  14  15
ENDBRANCH  13  14
ENDBRANCH  12  13
ENDBRANCH  11  12
ENDBRANCH  10  11
ENDBRANCH   9  10
ENDBRANCH   8   9
ENDBRANCH   7   8
ENDBRANCH   6   7
ENDBRANCH   5   6
ENDBRANCH   4   5
ENDBRANCH   3   4
ENDBRANCH   2   3
ENDBRANCH   1   2
BRANCH   1  17
ATOM     17  C   UNL     1     136.971 136.809 139.113  1.00  0.00     0.000 C 
BRANCH  17  18
ATOM     18  C   UNL     1     137.612 138.193 139.295  1.00  0.00     0.000 C 
BRANCH  18  19
ATOM     19  C   UNL     1     137.908 138.887 137.955  1.00  0.00     0.000 C 
BRANCH  19  20
ATOM     20  C   UNL     1     136.646 139.480 137.301  1.00  0.00     0.000 C 
BRANCH  20  21
ATOM     21  C   UNL     1     135.781 140.264 138.301  1.00  0.00     0.000 C 
BRANCH  21  22
ATOM     22  C   UNL     1     134.296 139.868 138.236  1.00  0.00     0.000 C 
BRANCH  22  23
ATOM     23  C   UNL     1     134.067 138.527 137.515  1.00  0.00     0.000 C 
BRANCH  23  24
ATOM     24  C   UNL     1     132.943 137.653 138.107  1.00  0.00     0.000 C 
BRANCH  24  25
ATOM     25  C   UNL     1     133.207 136.147 137.949  1.00  0.00     0.000 C 
BRANCH  25  26
ATOM     26  C   UNL     1     131.898 135.372 137.761  1.00  0.00     0.000 C 
BRANCH  26  27
ATOM     27  C   UNL     1     131.575 134.533 139.007  1.00  0.00     0.002 C 
BRANCH  27  28
ATOM     28  C   UNL     1     132.706 134.556 140.048  1.00  0.00     0.028 C 
BRANCH  28  29
ATOM     29  C   UNL     1     133.401 133.200 140.199  1.00  0.00     0.156 C 
BRANCH  29  30
ATOM     30  O   UNL     1     134.524 133.157 139.365  1.00  0.00    -0.396 OA
ATOM     31  H   UNL     1     134.923 132.256 139.484  1.00  0.00     0.210 HD
ENDBRANCH  29  30
ENDBRANCH  28  29
ENDBRANCH  27  28
ENDBRANCH  26  27
ENDBRANCH  25  26
ENDBRANCH  24  25
ENDBRANCH  23  24
ENDBRANCH  22  23
ENDBRANCH  21  22
ENDBRANCH  20  21
ENDBRANCH  19  20
ENDBRANCH  18  19
ENDBRANCH  17  18
ENDBRANCH   1  17
TORSDOF 28
ENDMDL
MODEL 4
REMARK VINA RESULT:    -2.799      3.660      7.684
REMARK INTER + INTRA:         -13.026
REMARK INTER:                  -7.294
REMARK INTRA:                  -5.732
REMARK UNBOUND:                -5.727
REMARK SMILES CCCCCCCCCCCCCCCCCCCCCCCCCCCCCO
REMARK SMILES IDX 16 1 15 2 14 3 13 4 12 5 11 6 10 7 9 8 8 9 7 10 6 11 5 12
REMARK SMILES IDX 4 13 3 14 2 15 1 16 17 17 18 18 19 19 20 20 21 21 22 22
REMARK SMILES IDX 23 23 24 24 25 25 26 26 27 27 28 28 29 29 30 30
REMARK H PARENT 30 31
REMARK Flexibility Score: inf
ROOT
ATOM      1  C   UNL     1     135.204 140.043 139.116  1.00  0.00     0.000 C 
ENDROOT
BRANCH   1   2
ATOM      2  C   UNL     1     134.071 139.315 139.851  1.00  0.00     0.000 C 
BRANCH   2   3
ATOM      3  C   UNL     1     133.161 138.567 138.867  1.00  0.00     0.000 C 
BRANCH   3   4
ATOM      4  C   UNL     1     132.953 137.090 139.251  1.00  0.00     0.000 C 
BRANCH   4   5
ATOM      5  C   UNL     1     133.728 136.077 138.388  1.00  0.00     0.000 C 
BRANCH   5   6
ATOM      6  C   UNL     1     134.852 135.371 139.166  1.00  0.00     0.000 C 
BRANCH   6   7
ATOM      7  C   UNL     1     136.152 136.192 139.211  1.00  0.00     0.000 C 
BRANCH   7   8
ATOM      8  C   UNL     1     136.580 136.661 140.614  1.00  0.00    -0.000 C 
BRANCH   8   9
ATOM      9  C   UNL     1     138.101 136.910 140.753  1.00  0.00    -0.000 C 
BRANCH   9  10
ATOM     10  C   UNL     1     138.451 138.084 141.687  1.00  0.00    -0.000 C 
BRANCH  10  11
ATOM     11  C   UNL     1     137.213 138.900 142.091  1.00  0.00    -0.000 C 
BRANCH  11  12
ATOM     12  C   UNL     1     137.485 140.404 141.968  1.00  0.00    -0.000 C 
BRANCH  12  13
ATOM     13  C   UNL     1     138.882 140.666 141.394  1.00  0.00    -0.000 C 
BRANCH  13  14
ATOM     14  C   UNL     1     138.892 141.927 140.522  1.00  0.00    -0.000 C 
BRANCH  14  15
ATOM     15  C   UNL     1     137.497 142.561 140.458  1.00  0.00    -0.003 C 
ATOM     16  C   UNL     1     137.230 143.172 139.086  1.00  0.00     0.004 C 
ENDBRANCH  14  15
ENDBRANCH  13  14
ENDBRANCH  12  13
ENDBRANCH  11  12
ENDBRANCH  10  11
ENDBRANCH   9  10
ENDBRANCH   8   9
ENDBRANCH   7   8
ENDBRANCH   6   7
ENDBRANCH   5   6
ENDBRANCH   4   5
ENDBRANCH   3   4
ENDBRANCH   2   3
ENDBRANCH   1   2
BRANCH   1  17
ATOM     17  C   UNL     1     135.152 139.755 137.611  1.00  0.00     0.000 C 
BRANCH  17  18
ATOM     18  C   UNL     1     136.557 139.487 137.050  1.00  0.00     0.000 C 
BRANCH  18  19
ATOM     19  C   UNL     1     137.633 139.451 138.146  1.00  0.00     0.000 C 
BRANCH  19  20
ATOM     20  C   UNL     1     138.893 138.674 137.719  1.00  0.00     0.000 C 
BRANCH  20  21
ATOM     21  C   UNL     1     140.118 139.589 137.554  1.00  0.00     0.000 C 
BRANCH  21  22
ATOM     22  C   UNL     1     141.415 138.937 138.061  1.00  0.00     0.000 C 
BRANCH  22  23
ATOM     23  C   UNL     1     141.487 138.864 139.596  1.00  0.00     0.000 C 
BRANCH  23  24
ATOM     24  C   UNL     1     142.058 137.548 140.161  1.00  0.00     0.000 C 
BRANCH  24  25
ATOM     25  C   UNL     1     142.560 136.592 139.066  1.00  0.00     0.000 C 
BRANCH  25  26
ATOM     26  C   UNL     1     141.811 135.255 139.112  1.00  0.00     0.000 C 
BRANCH  26  27
ATOM     27  C   UNL     1     141.097 134.984 137.778  1.00  0.00     0.002 C 
BRANCH  27  28
ATOM     28  C   UNL     1     141.825 133.942 136.915  1.00  0.00     0.028 C 
BRANCH  28  29
ATOM     29  C   UNL     1     142.582 132.906 137.750  1.00  0.00     0.156 C 
BRANCH  29  30
ATOM     30  O   UNL     1     142.984 131.848 136.927  1.00  0.00    -0.396 OA
ATOM     31  H   UNL     1     143.966 131.765 137.039  1.00  0.00     0.210 HD
ENDBRANCH  29  30
ENDBRANCH  28  29
ENDBRANCH  27  28
ENDBRANCH  26  27
ENDBRANCH  25  26
ENDBRANCH  24  25
ENDBRANCH  23  24
ENDBRANCH  22  23
ENDBRANCH  21  22
ENDBRANCH  20  21
ENDBRANCH  19  20
ENDBRANCH  18  19
ENDBRANCH  17  18
ENDBRANCH   1  17
TORSDOF 28
ENDMDL
MODEL 5
REMARK VINA RESULT:    -2.784      5.746      9.576
REMARK INTER + INTRA:         -12.986
REMARK INTER:                  -8.409
REMARK INTRA:                  -4.577
REMARK UNBOUND:                -5.727
REMARK SMILES CCCCCCCCCCCCCCCCCCCCCCCCCCCCCO
REMARK SMILES IDX 16 1 15 2 14 3 13 4 12 5 11 6 10 7 9 8 8 9 7 10 6 11 5 12
REMARK SMILES IDX 4 13 3 14 2 15 1 16 17 17 18 18 19 19 20 20 21 21 22 22
REMARK SMILES IDX 23 23 24 24 25 25 26 26 27 27 28 28 29 29 30 30
REMARK H PARENT 30 31
REMARK Flexibility Score: inf
ROOT
ATOM      1  C   UNL     1     144.407 141.119 140.093  1.00  0.00     0.000 C 
ENDROOT
BRANCH   1   2
ATOM      2  C   UNL     1     145.308 141.549 141.258  1.00  0.00     0.000 C 
BRANCH   2   3
ATOM      3  C   UNL     1     146.735 141.846 140.777  1.00  0.00     0.000 C 
BRANCH   3   4
ATOM      4  C   UNL     1     147.284 143.178 141.321  1.00  0.00     0.000 C 
BRANCH   4   5
ATOM      5  C   UNL     1     146.356 144.392 141.131  1.00  0.00     0.000 C 
BRANCH   5   6
ATOM      6  C   UNL     1     146.104 144.720 139.649  1.00  0.00     0.000 C 
BRANCH   6   7
ATOM      7  C   UNL     1     144.608 144.783 139.299  1.00  0.00     0.000 C 
BRANCH   7   8
ATOM      8  C   UNL     1     143.655 144.808 140.508  1.00  0.00    -0.000 C 
BRANCH   8   9
ATOM      9  C   UNL     1     142.269 144.181 140.226  1.00  0.00    -0.000 C 
BRANCH   9  10
ATOM     10  C   UNL     1     142.007 143.909 138.733  1.00  0.00    -0.000 C 
BRANCH  10  11
ATOM     11  C   UNL     1     140.693 144.538 138.244  1.00  0.00    -0.000 C 
BRANCH  11  12
ATOM     12  C   UNL     1     140.383 145.827 139.015  1.00  0.00    -0.000 C 
BRANCH  12  13
ATOM     13  C   UNL     1     139.918 146.937 138.066  1.00  0.00    -0.000 C 
BRANCH  13  14
ATOM     14  C   UNL     1     138.387 147.011 138.012  1.00  0.00    -0.000 C 
BRANCH  14  15
ATOM     15  C   UNL     1     137.760 146.260 139.192  1.00  0.00    -0.003 C 
ATOM     16  C   UNL     1     136.242 146.415 139.200  1.00  0.00     0.004 C 
ENDBRANCH  14  15
ENDBRANCH  13  14
ENDBRANCH  12  13
ENDBRANCH  11  12
ENDBRANCH  10  11
ENDBRANCH   9  10
ENDBRANCH   8   9
ENDBRANCH   7   8
ENDBRANCH   6   7
ENDBRANCH   5   6
ENDBRANCH   4   5
ENDBRANCH   3   4
ENDBRANCH   2   3
ENDBRANCH   1   2
BRANCH   1  17
ATOM     17  C   UNL     1     145.246 140.720 138.873  1.00  0.00     0.000 C 
BRANCH  17  18
ATOM     18  C   UNL     1     144.956 141.641 137.677  1.00  0.00     0.000 C 
BRANCH  18  19
ATOM     19  C   UNL     1     146.237 142.081 136.949  1.00  0.00     0.000 C 
BRANCH  19  20
ATOM     20  C   UNL     1     147.472 141.263 137.371  1.00  0.00     0.000 C 
BRANCH  20  21
ATOM     21  C   UNL     1     148.791 141.981 137.039  1.00  0.00     0.000 C 
BRANCH  21  22
ATOM     22  C   UNL     1     149.055 143.187 137.956  1.00  0.00     0.000 C 
BRANCH  22  23
ATOM     23  C   UNL     1     150.362 143.924 137.612  1.00  0.00     0.000 C 
BRANCH  23  24
ATOM     24  C   UNL     1     150.808 144.976 138.647  1.00  0.00     0.000 C 
BRANCH  24  25
ATOM     25  C   UNL     1     149.767 145.209 139.755  1.00  0.00     0.000 C 
BRANCH  25  26
ATOM     26  C   UNL     1     150.434 145.678 141.053  1.00  0.00     0.000 C 
BRANCH  26  27
ATOM     27  C   UNL     1     150.040 147.127 141.377  1.00  0.00     0.002 C 
BRANCH  27  28
ATOM     28  C   UNL     1     148.536 147.389 141.195  1.00  0.00     0.028 C 
BRANCH  28  29
ATOM     29  C   UNL     1     148.245 148.481 140.162  1.00  0.00     0.156 C 
BRANCH  29  30
ATOM     30  O   UNL     1     147.146 148.104 139.383  1.00  0.00    -0.396 OA
ATOM     31  H   UNL     1     147.150 147.112 139.359  1.00  0.00     0.210 HD
ENDBRANCH  29  30
ENDBRANCH  28  29
ENDBRANCH  27  28
ENDBRANCH  26  27
ENDBRANCH  25  26
ENDBRANCH  24  25
ENDBRANCH  23  24
ENDBRANCH  22  23
ENDBRANCH  21  22
ENDBRANCH  20  21
ENDBRANCH  19  20
ENDBRANCH  18  19
ENDBRANCH  17  18
ENDBRANCH   1  17
TORSDOF 28
ENDMDL
MODEL 6
REMARK VINA RESULT:    -2.781      2.554      5.020
REMARK INTER + INTRA:         -12.979
REMARK INTER:                  -8.024
REMARK INTRA:                  -4.956
REMARK UNBOUND:                -5.727
REMARK SMILES CCCCCCCCCCCCCCCCCCCCCCCCCCCCCO
REMARK SMILES IDX 16 1 15 2 14 3 13 4 12 5 11 6 10 7 9 8 8 9 7 10 6 11 5 12
REMARK SMILES IDX 4 13 3 14 2 15 1 16 17 17 18 18 19 19 20 20 21 21 22 22
REMARK SMILES IDX 23 23 24 24 25 25 26 26 27 27 28 28 29 29 30 30
REMARK H PARENT 30 31
REMARK Flexibility Score: inf
ROOT
ATOM      1  C   UNL     1     144.256 139.125 139.821  1.00  0.00     0.000 C 
ENDROOT
BRANCH   1   2
ATOM      2  C   UNL     1     143.022 139.698 139.112  1.00  0.00     0.000 C 
BRANCH   2   3
ATOM      3  C   UNL     1     143.394 140.300 137.749  1.00  0.00     0.000 C 
BRANCH   3   4
ATOM      4  C   UNL     1     144.080 141.674 137.870  1.00  0.00     0.000 C 
BRANCH   4   5
ATOM      5  C   UNL     1     145.474 141.765 137.225  1.00  0.00     0.000 C 
BRANCH   5   6
ATOM      6  C   UNL     1     146.608 141.429 138.209  1.00  0.00     0.000 C 
BRANCH   6   7
ATOM      7  C   UNL     1     147.915 142.172 137.889  1.00  0.00     0.000 C 
BRANCH   7   8
ATOM      8  C   UNL     1     148.241 143.354 138.822  1.00  0.00    -0.000 C 
BRANCH   8   9
ATOM      9  C   UNL     1     147.720 144.717 138.311  1.00  0.00    -0.000 C 
BRANCH   9  10
ATOM     10  C   UNL     1     146.819 145.452 139.320  1.00  0.00    -0.000 C 
BRANCH  10  11
ATOM     11  C   UNL     1     145.328 145.149 139.102  1.00  0.00    -0.000 C 
BRANCH  11  12
ATOM     12  C   UNL     1     144.642 144.790 140.426  1.00  0.00    -0.000 C 
BRANCH  12  13
ATOM     13  C   UNL     1     144.867 143.316 140.779  1.00  0.00    -0.000 C 
BRANCH  13  14
ATOM     14  C   UNL     1     145.840 143.173 141.955  1.00  0.00    -0.000 C 
BRANCH  14  15
ATOM     15  C   UNL     1     146.501 141.789 141.956  1.00  0.00    -0.003 C 
ATOM     16  C   UNL     1     148.006 141.897 142.179  1.00  0.00     0.004 C 
ENDBRANCH  14  15
ENDBRANCH  13  14
ENDBRANCH  12  13
ENDBRANCH  11  12
ENDBRANCH  10  11
ENDBRANCH   9  10
ENDBRANCH   8   9
ENDBRANCH   7   8
ENDBRANCH   6   7
ENDBRANCH   5   6
ENDBRANCH   4   5
ENDBRANCH   3   4
ENDBRANCH   2   3
ENDBRANCH   1   2
BRANCH   1  17
ATOM     17  C   UNL     1     144.743 137.848 139.124  1.00  0.00     0.000 C 
BRANCH  17  18
ATOM     18  C   UNL     1     144.948 136.709 140.135  1.00  0.00     0.000 C 
BRANCH  18  19
ATOM     19  C   UNL     1     145.113 135.341 139.454  1.00  0.00     0.000 C 
BRANCH  19  20
ATOM     20  C   UNL     1     144.349 134.218 140.182  1.00  0.00     0.000 C 
BRANCH  20  21
ATOM     21  C   UNL     1     144.369 132.894 139.401  1.00  0.00     0.000 C 
BRANCH  21  22
ATOM     22  C   UNL     1     143.750 133.025 138.000  1.00  0.00     0.000 C 
BRANCH  22  23
ATOM     23  C   UNL     1     142.230 132.783 137.993  1.00  0.00     0.000 C 
BRANCH  23  24
ATOM     24  C   UNL     1     141.397 133.893 137.320  1.00  0.00     0.000 C 
BRANCH  24  25
ATOM     25  C   UNL     1     142.236 135.120 136.929  1.00  0.00     0.000 C 
BRANCH  25  26
ATOM     26  C   UNL     1     141.810 136.359 137.725  1.00  0.00     0.000 C 
BRANCH  26  27
ATOM     27  C   UNL     1     140.742 135.997 138.769  1.00  0.00     0.002 C 
BRANCH  27  28
ATOM     28  C   UNL     1     141.258 136.116 140.212  1.00  0.00     0.028 C 
BRANCH  28  29
ATOM     29  C   UNL     1     140.786 137.396 140.907  1.00  0.00     0.156 C 
BRANCH  29  30
ATOM     30  O   UNL     1     141.707 137.755 141.897  1.00  0.00    -0.396 OA
ATOM     31  H   UNL     1     142.478 137.139 141.796  1.00  0.00     0.210 HD
ENDBRANCH  29  30
ENDBRANCH  28  29
ENDBRANCH  27  28
ENDBRANCH  26  27
ENDBRANCH  25  26
ENDBRANCH  24  25
ENDBRANCH  23  24
ENDBRANCH  22  23
ENDBRANCH  21  22
ENDBRANCH  20  21
ENDBRANCH  19  20
ENDBRANCH  18  19
ENDBRANCH  17  18
ENDBRANCH   1  17
TORSDOF 28
ENDMDL
MODEL 7
REMARK VINA RESULT:    -2.746      3.187      8.092
REMARK INTER + INTRA:         -12.887
REMARK INTER:                  -7.454
REMARK INTRA:                  -5.433
REMARK UNBOUND:                -5.727
REMARK SMILES CCCCCCCCCCCCCCCCCCCCCCCCCCCCCO
REMARK SMILES IDX 16 1 15 2 14 3 13 4 12 5 11 6 10 7 9 8 8 9 7 10 6 11 5 12
REMARK SMILES IDX 4 13 3 14 2 15 1 16 17 17 18 18 19 19 20 20 21 21 22 22
REMARK SMILES IDX 23 23 24 24 25 25 26 26 27 27 28 28 29 29 30 30
REMARK H PARENT 30 31
REMARK Flexibility Score: inf
ROOT
ATOM      1  C   UNL     1     143.520 141.478 137.337  1.00  0.00     0.000 C 
ENDROOT
BRANCH   1   2
ATOM      2  C   UNL     1     142.993 140.842 138.630  1.00  0.00     0.000 C 
BRANCH   2   3
ATOM      3  C   UNL     1     142.057 139.663 138.328  1.00  0.00     0.000 C 
BRANCH   3   4
ATOM      4  C   UNL     1     142.628 138.704 137.267  1.00  0.00     0.000 C 
BRANCH   4   5
ATOM      5  C   UNL     1     141.860 137.379 137.106  1.00  0.00     0.000 C 
BRANCH   5   6
ATOM      6  C   UNL     1     141.155 136.940 138.401  1.00  0.00     0.000 C 
BRANCH   6   7
ATOM      7  C   UNL     1     141.101 135.412 138.562  1.00  0.00     0.000 C 
BRANCH   7   8
ATOM      8  C   UNL     1     141.746 134.611 137.415  1.00  0.00    -0.000 C 
BRANCH   8   9
ATOM      9  C   UNL     1     142.612 133.421 137.892  1.00  0.00    -0.000 C 
BRANCH   9  10
ATOM     10  C   UNL     1     144.079 133.797 138.172  1.00  0.00    -0.000 C 
BRANCH  10  11
ATOM     11  C   UNL     1     144.421 133.743 139.669  1.00  0.00    -0.000 C 
BRANCH  11  12
ATOM     12  C   UNL     1     145.064 135.055 140.133  1.00  0.00    -0.000 C 
BRANCH  12  13
ATOM     13  C   UNL     1     144.641 136.222 139.234  1.00  0.00    -0.000 C 
BRANCH  13  14
ATOM     14  C   UNL     1     145.106 137.563 139.815  1.00  0.00    -0.000 C 
BRANCH  14  15
ATOM     15  C   UNL     1     144.102 138.091 140.847  1.00  0.00    -0.003 C 
ATOM     16  C   UNL     1     144.776 139.031 141.841  1.00  0.00     0.004 C 
ENDBRANCH  14  15
ENDBRANCH  13  14
ENDBRANCH  12  13
ENDBRANCH  11  12
ENDBRANCH  10  11
ENDBRANCH   9  10
ENDBRANCH   8   9
ENDBRANCH   7   8
ENDBRANCH   6   7
ENDBRANCH   5   6
ENDBRANCH   4   5
ENDBRANCH   3   4
ENDBRANCH   2   3
ENDBRANCH   1   2
BRANCH   1  17
ATOM     17  C   UNL     1     145.024 141.757 137.440  1.00  0.00     0.000 C 
BRANCH  17  18
ATOM     18  C   UNL     1     145.652 140.987 138.612  1.00  0.00     0.000 C 
BRANCH  18  19
ATOM     19  C   UNL     1     146.831 141.741 139.249  1.00  0.00     0.000 C 
BRANCH  19  20
ATOM     20  C   UNL     1     147.760 142.385 138.203  1.00  0.00     0.000 C 
BRANCH  20  21
ATOM     21  C   UNL     1     148.081 143.853 138.529  1.00  0.00     0.000 C 
BRANCH  21  22
ATOM     22  C   UNL     1     147.866 144.189 140.014  1.00  0.00     0.000 C 
BRANCH  22  23
ATOM     23  C   UNL     1     146.856 145.331 140.227  1.00  0.00     0.000 C 
BRANCH  23  24
ATOM     24  C   UNL     1     145.826 145.510 139.094  1.00  0.00     0.000 C 
BRANCH  24  25
ATOM     25  C   UNL     1     144.510 144.759 139.353  1.00  0.00     0.000 C 
BRANCH  25  26
ATOM     26  C   UNL     1     144.207 144.674 140.853  1.00  0.00     0.000 C 
BRANCH  26  27
ATOM     27  C   UNL     1     143.985 143.215 141.283  1.00  0.00     0.002 C 
BRANCH  27  28
ATOM     28  C   UNL     1     145.037 142.726 142.291  1.00  0.00     0.028 C 
BRANCH  28  29
ATOM     29  C   UNL     1     144.540 142.775 143.738  1.00  0.00     0.156 C 
BRANCH  29  30
ATOM     30  O   UNL     1     144.795 141.548 144.360  1.00  0.00    -0.396 OA
ATOM     31  H   UNL     1     143.909 141.132 144.528  1.00  0.00     0.210 HD
ENDBRANCH  29  30
ENDBRANCH  28  29
ENDBRANCH  27  28
ENDBRANCH  26  27
ENDBRANCH  25  26
ENDBRANCH  24  25
ENDBRANCH  23  24
ENDBRANCH  22  23
ENDBRANCH  21  22
ENDBRANCH  20  21
ENDBRANCH  19  20
ENDBRANCH  18  19
ENDBRANCH  17  18
ENDBRANCH   1  17
TORSDOF 28
ENDMDL
MODEL 8
REMARK VINA RESULT:    -2.735      4.791      7.239
REMARK INTER + INTRA:         -12.859
REMARK INTER:                  -8.233
REMARK INTRA:                  -4.626
REMARK UNBOUND:                -5.727
REMARK SMILES CCCCCCCCCCCCCCCCCCCCCCCCCCCCCO
REMARK SMILES IDX 16 1 15 2 14 3 13 4 12 5 11 6 10 7 9 8 8 9 7 10 6 11 5 12
REMARK SMILES IDX 4 13 3 14 2 15 1 16 17 17 18 18 19 19 20 20 21 21 22 22
REMARK SMILES IDX 23 23 24 24 25 25 26 26 27 27 28 28 29 29 30 30
REMARK H PARENT 30 31
REMARK Flexibility Score: inf
ROOT
ATOM      1  C   UNL     1     137.220 139.811 142.385  1.00  0.00     0.000 C 
ENDROOT
BRANCH   1   2
ATOM      2  C   UNL     1     137.909 140.869 141.515  1.00  0.00     0.000 C 
BRANCH   2   3
ATOM      3  C   UNL     1     137.615 142.287 142.025  1.00  0.00     0.000 C 
BRANCH   3   4
ATOM      4  C   UNL     1     136.451 142.962 141.275  1.00  0.00     0.000 C 
BRANCH   4   5
ATOM      5  C   UNL     1     136.823 144.249 140.517  1.00  0.00     0.000 C 
BRANCH   5   6
ATOM      6  C   UNL     1     136.957 144.028 139.001  1.00  0.00     0.000 C 
BRANCH   6   7
ATOM      7  C   UNL     1     138.381 143.630 138.580  1.00  0.00     0.000 C 
BRANCH   7   8
ATOM      8  C   UNL     1     139.118 144.664 137.706  1.00  0.00    -0.000 C 
BRANCH   8   9
ATOM      9  C   UNL     1     139.914 145.714 138.517  1.00  0.00    -0.000 C 
BRANCH   9  10
ATOM     10  C   UNL     1     139.257 147.106 138.537  1.00  0.00    -0.000 C 
BRANCH  10  11
ATOM     11  C   UNL     1     138.708 147.474 139.925  1.00  0.00    -0.000 C 
BRANCH  11  12
ATOM     12  C   UNL     1     137.260 147.970 139.828  1.00  0.00    -0.000 C 
BRANCH  12  13
ATOM     13  C   UNL     1     136.670 147.678 138.444  1.00  0.00    -0.000 C 
BRANCH  13  14
ATOM     14  C   UNL     1     135.396 148.496 138.204  1.00  0.00    -0.000 C 
BRANCH  14  15
ATOM     15  C   UNL     1     134.292 148.093 139.189  1.00  0.00    -0.003 C 
ATOM     16  C   UNL     1     133.786 149.299 139.975  1.00  0.00     0.004 C 
ENDBRANCH  14  15
ENDBRANCH  13  14
ENDBRANCH  12  13
ENDBRANCH  11  12
ENDBRANCH  10  11
ENDBRANCH   9  10
ENDBRANCH   8   9
ENDBRANCH   7   8
ENDBRANCH   6   7
ENDBRANCH   5   6
ENDBRANCH   4   5
ENDBRANCH   3   4
ENDBRANCH   2   3
ENDBRANCH   1   2
BRANCH   1  17
ATOM     17  C   UNL     1     135.966 139.265 141.692  1.00  0.00     0.000 C 
BRANCH  17  18
ATOM     18  C   UNL     1     136.018 137.734 141.577  1.00  0.00     0.000 C 
BRANCH  18  19
ATOM     19  C   UNL     1     137.317 137.235 140.923  1.00  0.00     0.000 C 
BRANCH  19  20
ATOM     20  C   UNL     1     137.240 137.219 139.385  1.00  0.00     0.000 C 
BRANCH  20  21
ATOM     21  C   UNL     1     138.042 138.364 138.746  1.00  0.00     0.000 C 
BRANCH  21  22
ATOM     22  C   UNL     1     137.256 139.093 137.643  1.00  0.00     0.000 C 
BRANCH  22  23
ATOM     23  C   UNL     1     136.535 140.352 138.156  1.00  0.00     0.000 C 
BRANCH  23  24
ATOM     24  C   UNL     1     135.031 140.170 138.444  1.00  0.00     0.000 C 
BRANCH  24  25
ATOM     25  C   UNL     1     134.268 139.532 137.272  1.00  0.00     0.000 C 
BRANCH  25  26
ATOM     26  C   UNL     1     133.064 138.724 137.769  1.00  0.00     0.000 C 
BRANCH  26  27
ATOM     27  C   UNL     1     133.466 137.806 138.934  1.00  0.00     0.002 C 
BRANCH  27  28
ATOM     28  C   UNL     1     133.834 136.387 138.473  1.00  0.00     0.028 C 
BRANCH  28  29
ATOM     29  C   UNL     1     133.896 135.385 139.629  1.00  0.00     0.156 C 
BRANCH  29  30
ATOM     30  O   UNL     1     134.757 134.336 139.291  1.00  0.00    -0.396 OA
ATOM     31  H   UNL     1     134.974 134.454 138.330  1.00  0.00     0.210 HD
ENDBRANCH  29  30
ENDBRANCH  28  29
ENDBRANCH  27  28
ENDBRANCH  26  27
ENDBRANCH  25  26
ENDBRANCH  24  25
ENDBRANCH  23  24
ENDBRANCH  22  23
ENDBRANCH  21  22
ENDBRANCH  20  21
ENDBRANCH  19  20
ENDBRANCH  18  19
ENDBRANCH  17  18
ENDBRANCH   1  17
TORSDOF 28
ENDMDL
MODEL 9
REMARK VINA RESULT:    -2.730      4.337      8.140
REMARK INTER + INTRA:         -12.845
REMARK INTER:                  -7.943
REMARK INTRA:                  -4.902
REMARK UNBOUND:                -5.727
REMARK SMILES CCCCCCCCCCCCCCCCCCCCCCCCCCCCCO
REMARK SMILES IDX 16 1 15 2 14 3 13 4 12 5 11 6 10 7 9 8 8 9 7 10 6 11 5 12
REMARK SMILES IDX 4 13 3 14 2 15 1 16 17 17 18 18 19 19 20 20 21 21 22 22
REMARK SMILES IDX 23 23 24 24 25 25 26 26 27 27 28 28 29 29 30 30
REMARK H PARENT 30 31
REMARK Flexibility Score: inf
ROOT
ATOM      1  C   UNL     1     145.605 142.117 137.955  1.00  0.00     0.000 C 
ENDROOT
BRANCH   1   2
ATOM      2  C   UNL     1     144.562 141.795 136.878  1.00  0.00     0.000 C 
BRANCH   2   3
ATOM      3  C   UNL     1     143.223 142.482 137.178  1.00  0.00     0.000 C 
BRANCH   3   4
ATOM      4  C   UNL     1     143.199 143.169 138.556  1.00  0.00     0.000 C 
BRANCH   4   5
ATOM      5  C   UNL     1     142.014 142.781 139.458  1.00  0.00     0.000 C 
BRANCH   5   6
ATOM      6  C   UNL     1     141.384 143.993 140.166  1.00  0.00     0.000 C 
BRANCH   6   7
ATOM      7  C   UNL     1     140.188 144.577 139.397  1.00  0.00     0.000 C 
BRANCH   7   8
ATOM      8  C   UNL     1     140.500 145.830 138.557  1.00  0.00    -0.000 C 
BRANCH   8   9
ATOM      9  C   UNL     1     139.563 146.017 137.340  1.00  0.00    -0.000 C 
BRANCH   9  10
ATOM     10  C   UNL     1     138.773 147.338 137.367  1.00  0.00    -0.000 C 
BRANCH  10  11
ATOM     11  C   UNL     1     138.928 148.086 138.700  1.00  0.00    -0.000 C 
BRANCH  11  12
ATOM     12  C   UNL     1     137.570 148.270 139.388  1.00  0.00    -0.000 C 
BRANCH  12  13
ATOM     13  C   UNL     1     136.464 147.529 138.628  1.00  0.00    -0.000 C 
BRANCH  13  14
ATOM     14  C   UNL     1     135.830 146.440 139.500  1.00  0.00    -0.000 C 
BRANCH  14  15
ATOM     15  C   UNL     1     136.474 145.075 139.229  1.00  0.00    -0.003 C 
ATOM     16  C   UNL     1     136.618 144.268 140.516  1.00  0.00     0.004 C 
ENDBRANCH  14  15
ENDBRANCH  13  14
ENDBRANCH  12  13
ENDBRANCH  11  12
ENDBRANCH  10  11
ENDBRANCH   9  10
ENDBRANCH   8   9
ENDBRANCH   7   8
ENDBRANCH   6   7
ENDBRANCH   5   6
ENDBRANCH   4   5
ENDBRANCH   3   4
ENDBRANCH   2   3
ENDBRANCH   1   2
BRANCH   1  17
ATOM     17  C   UNL     1     147.026 142.023 137.385  1.00  0.00     0.000 C 
BRANCH  17  18
ATOM     18  C   UNL     1     148.079 142.157 138.496  1.00  0.00     0.000 C 
BRANCH  18  19
ATOM     19  C   UNL     1     148.881 143.465 138.393  1.00  0.00     0.000 C 
BRANCH  19  20
ATOM     20  C   UNL     1     148.346 144.565 139.329  1.00  0.00     0.000 C 
BRANCH  20  21
ATOM     21  C   UNL     1     147.315 145.473 138.637  1.00  0.00     0.000 C 
BRANCH  21  22
ATOM     22  C   UNL     1     145.959 145.487 139.362  1.00  0.00     0.000 C 
BRANCH  22  23
ATOM     23  C   UNL     1     146.083 145.190 140.867  1.00  0.00     0.000 C 
BRANCH  23  24
ATOM     24  C   UNL     1     144.773 144.759 141.557  1.00  0.00     0.000 C 
BRANCH  24  25
ATOM     25  C   UNL     1     144.770 143.278 141.969  1.00  0.00     0.000 C 
BRANCH  25  26
ATOM     26  C   UNL     1     146.116 142.613 141.659  1.00  0.00     0.000 C 
BRANCH  26  27
ATOM     27  C   UNL     1     145.946 141.098 141.469  1.00  0.00     0.002 C 
BRANCH  27  28
ATOM     28  C   UNL     1     144.487 140.692 141.205  1.00  0.00     0.028 C 
BRANCH  28  29
ATOM     29  C   UNL     1     144.366 139.337 140.504  1.00  0.00     0.156 C 
BRANCH  29  30
ATOM     30  O   UNL     1     143.579 139.475 139.355  1.00  0.00    -0.396 OA
ATOM     31  H   UNL     1     143.254 138.565 139.130  1.00  0.00     0.210 HD
ENDBRANCH  29  30
ENDBRANCH  28  29
ENDBRANCH  27  28
ENDBRANCH  26  27
ENDBRANCH  25  26
ENDBRANCH  24  25
ENDBRANCH  23  24
ENDBRANCH  22  23
ENDBRANCH  21  22
ENDBRANCH  20  21
ENDBRANCH  19  20
ENDBRANCH  18  19
ENDBRANCH  17  18
ENDBRANCH   1  17
TORSDOF 28
ENDMDL
