MODEL 1
REMARK VINA RESULT:    -4.108      0.000      0.000
REMARK INTER + INTRA:          -4.108
REMARK INTER:                  -4.108
REMARK INTRA:                   0.000
REMARK UNBOUND:                 0.000
REMARK SMILES CC(C)=C1CC[C@@H](C)CC1=O
REMARK SMILES IDX 8 1 7 2 6 3 5 4 4 5 2 6 1 7 3 8 10 9 11 10 9 11
REMARK H PARENT
REMARK Flexibility Score: inf
ROOT
ATOM      1  C   UNL     1     150.567 159.589 195.788  1.00  0.00     0.008 C 
ATOM      2  C   UNL     1     150.626 160.324 197.132  1.00  0.00    -0.006 C 
ATOM      3  C   UNL     1     152.049 160.283 197.709  1.00  0.00     0.008 C 
ATOM      4  C   UNL     1     152.150 161.100 199.004  1.00  0.00     0.039 C 
ATOM      5  C   UNL     1     151.094 160.706 200.027  1.00  0.00    -0.006 C 
ATOM      6  C   UNL     1     151.341 160.782 201.367  1.00  0.00    -0.070 C 
ATOM      7  C   UNL     1     152.669 161.278 201.893  1.00  0.00     0.039 C 
ATOM      8  C   UNL     1     150.321 160.339 202.392  1.00  0.00     0.039 C 
ATOM      9  C   UNL     1     149.752 160.349 199.479  1.00  0.00     0.159 C 
ATOM     10  O   UNL     1     148.696 160.586 200.125  1.00  0.00    -0.295 OA
ATOM     11  C   UNL     1     149.637 159.700 198.129  1.00  0.00     0.084 C 
ENDROOT
TORSDOF 0
ENDMDL
MODEL 2
REMARK VINA RESULT:    -4.070      2.217      3.795
REMARK INTER + INTRA:          -4.070
REMARK INTER:                  -4.070
REMARK INTRA:                   0.000
REMARK UNBOUND:                 0.000
REMARK SMILES CC(C)=C1CC[C@@H](C)CC1=O
REMARK SMILES IDX 8 1 7 2 6 3 5 4 4 5 2 6 1 7 3 8 10 9 11 10 9 11
REMARK H PARENT
REMARK Flexibility Score: inf
ROOT
ATOM      1  C   UNL     1     156.410 160.261 199.462  1.00  0.00     0.008 C 
ATOM      2  C   UNL     1     155.019 160.791 199.830  1.00  0.00    -0.006 C 
ATOM      3  C   UNL     1     154.581 160.253 201.201  1.00  0.00     0.008 C 
ATOM      4  C   UNL     1     153.236 160.854 201.630  1.00  0.00     0.039 C 
ATOM      5  C   UNL     1     152.158 160.693 200.568  1.00  0.00    -0.006 C 
ATOM      6  C   UNL     1     150.844 160.542 200.907  1.00  0.00    -0.070 C 
ATOM      7  C   UNL     1     150.401 160.546 202.352  1.00  0.00     0.039 C 
ATOM      8  C   UNL     1     149.772 160.324 199.863  1.00  0.00     0.039 C 
ATOM      9  C   UNL     1     152.609 160.826 199.151  1.00  0.00     0.159 C 
ATOM     10  O   UNL     1     151.851 161.303 198.264  1.00  0.00    -0.295 OA
ATOM     11  C   UNL     1     153.993 160.395 198.757  1.00  0.00     0.084 C 
ENDROOT
TORSDOF 0
ENDMDL
MODEL 3
REMARK VINA RESULT:    -3.986      2.102      2.753
REMARK INTER + INTRA:          -3.986
REMARK INTER:                  -3.986
REMARK INTRA:                   0.000
REMARK UNBOUND:                 0.000
REMARK SMILES CC(C)=C1CC[C@@H](C)CC1=O
REMARK SMILES IDX 8 1 7 2 6 3 5 4 4 5 2 6 1 7 3 8 10 9 11 10 9 11
REMARK H PARENT
REMARK Flexibility Score: inf
ROOT
ATOM      1  C   UNL     1     149.971 158.826 196.667  1.00  0.00     0.008 C 
ATOM      2  C   UNL     1     150.591 158.979 198.061  1.00  0.00    -0.006 C 
ATOM      3  C   UNL     1     150.156 160.304 198.705  1.00  0.00     0.008 C 
ATOM      4  C   UNL     1     150.685 160.426 200.140  1.00  0.00     0.039 C 
ATOM      5  C   UNL     1     152.187 160.198 200.231  1.00  0.00    -0.006 C 
ATOM      6  C   UNL     1     152.948 160.840 201.166  1.00  0.00    -0.070 C 
ATOM      7  C   UNL     1     152.326 161.792 202.162  1.00  0.00     0.039 C 
ATOM      8  C   UNL     1     154.448 160.665 201.228  1.00  0.00     0.039 C 
ATOM      9  C   UNL     1     152.748 159.155 199.321  1.00  0.00     0.159 C 
ATOM     10  O   UNL     1     153.742 158.457 199.659  1.00  0.00    -0.295 OA
ATOM     11  C   UNL     1     152.124 158.913 197.977  1.00  0.00     0.084 C 
ENDROOT
TORSDOF 0
ENDMDL
MODEL 4
REMARK VINA RESULT:    -3.841      2.861      4.608
REMARK INTER + INTRA:          -3.841
REMARK INTER:                  -3.841
REMARK INTRA:                   0.000
REMARK UNBOUND:                 0.000
REMARK SMILES CC(C)=C1CC[C@@H](C)CC1=O
REMARK SMILES IDX 8 1 7 2 6 3 5 4 4 5 2 6 1 7 3 8 10 9 11 10 9 11
REMARK H PARENT
REMARK Flexibility Score: inf
ROOT
ATOM      1  C   UNL     1     152.037 162.537 202.561  1.00  0.00     0.008 C 
ATOM      2  C   UNL     1     152.502 161.205 201.961  1.00  0.00    -0.006 C 
ATOM      3  C   UNL     1     152.235 161.171 200.449  1.00  0.00     0.008 C 
ATOM      4  C   UNL     1     152.786 159.887 199.814  1.00  0.00     0.039 C 
ATOM      5  C   UNL     1     152.300 158.630 200.522  1.00  0.00    -0.006 C 
ATOM      6  C   UNL     1     152.105 157.463 199.841  1.00  0.00    -0.070 C 
ATOM      7  C   UNL     1     152.380 157.365 198.358  1.00  0.00     0.039 C 
ATOM      8  C   UNL     1     151.567 156.224 200.522  1.00  0.00     0.039 C 
ATOM      9  C   UNL     1     152.165 158.724 202.006  1.00  0.00     0.159 C 
ATOM     10  O   UNL     1     152.367 157.724 202.747  1.00  0.00    -0.295 OA
ATOM     11  C   UNL     1     151.790 160.029 202.647  1.00  0.00     0.084 C 
ENDROOT
TORSDOF 0
ENDMDL
MODEL 5
REMARK VINA RESULT:    -3.776      1.225      4.050
REMARK INTER + INTRA:          -3.776
REMARK INTER:                  -3.776
REMARK INTRA:                   0.000
REMARK UNBOUND:                 0.000
REMARK SMILES CC(C)=C1CC[C@@H](C)CC1=O
REMARK SMILES IDX 8 1 7 2 6 3 5 4 4 5 2 6 1 7 3 8 10 9 11 10 9 11
REMARK H PARENT
REMARK Flexibility Score: inf
ROOT
ATOM      1  C   UNL     1     151.132 160.646 202.696  1.00  0.00     0.008 C 
ATOM      2  C   UNL     1     151.259 160.309 201.206  1.00  0.00    -0.006 C 
ATOM      3  C   UNL     1     152.323 161.195 200.540  1.00  0.00     0.008 C 
ATOM      4  C   UNL     1     152.537 160.802 199.072  1.00  0.00     0.039 C 
ATOM      5  C   UNL     1     151.235 160.758 198.283  1.00  0.00    -0.006 C 
ATOM      6  C   UNL     1     151.200 161.067 196.954  1.00  0.00    -0.070 C 
ATOM      7  C   UNL     1     152.457 161.448 196.204  1.00  0.00     0.039 C 
ATOM      8  C   UNL     1     149.905 161.083 196.174  1.00  0.00     0.039 C 
ATOM      9  C   UNL     1     150.040 160.251 199.020  1.00  0.00     0.159 C 
ATOM     10  O   UNL     1     149.127 159.615 198.427  1.00  0.00    -0.295 OA
ATOM     11  C   UNL     1     149.908 160.487 200.497  1.00  0.00     0.084 C 
ENDROOT
TORSDOF 0
ENDMDL
MODEL 6
REMARK VINA RESULT:    -3.763      2.645      4.838
REMARK INTER + INTRA:          -3.763
REMARK INTER:                  -3.763
REMARK INTRA:                   0.000
REMARK UNBOUND:                 0.000
REMARK SMILES CC(C)=C1CC[C@@H](C)CC1=O
REMARK SMILES IDX 8 1 7 2 6 3 5 4 4 5 2 6 1 7 3 8 10 9 11 10 9 11
REMARK H PARENT
REMARK Flexibility Score: inf
ROOT
ATOM      1  C   UNL     1     150.533 160.373 202.429  1.00  0.00     0.008 C 
ATOM      2  C   UNL     1     151.600 160.854 201.439  1.00  0.00    -0.006 C 
ATOM      3  C   UNL     1     151.156 160.585 199.993  1.00  0.00     0.008 C 
ATOM      4  C   UNL     1     152.165 161.152 198.985  1.00  0.00     0.039 C 
ATOM      5  C   UNL     1     153.588 160.682 199.257  1.00  0.00    -0.006 C 
ATOM      6  C   UNL     1     154.481 160.501 198.240  1.00  0.00    -0.070 C 
ATOM      7  C   UNL     1     154.100 160.775 196.803  1.00  0.00     0.039 C 
ATOM      8  C   UNL     1     155.878 159.980 198.492  1.00  0.00     0.039 C 
ATOM      9  C   UNL     1     153.971 160.548 200.694  1.00  0.00     0.159 C 
ATOM     10  O   UNL     1     155.151 160.763 201.079  1.00  0.00    -0.295 OA
ATOM     11  C   UNL     1     152.941 160.158 201.715  1.00  0.00     0.084 C 
ENDROOT
TORSDOF 0
ENDMDL
MODEL 7
REMARK VINA RESULT:    -3.759      1.659      3.839
REMARK INTER + INTRA:          -3.759
REMARK INTER:                  -3.759
REMARK INTRA:                   0.000
REMARK UNBOUND:                 0.000
REMARK SMILES CC(C)=C1CC[C@@H](C)CC1=O
REMARK SMILES IDX 8 1 7 2 6 3 5 4 4 5 2 6 1 7 3 8 10 9 11 10 9 11
REMARK H PARENT
REMARK Flexibility Score: inf
ROOT
ATOM      1  C   UNL     1     155.388 160.542 200.906  1.00  0.00     0.008 C 
ATOM      2  C   UNL     1     153.983 159.996 200.624  1.00  0.00    -0.006 C 
ATOM      3  C   UNL     1     153.638 160.132 199.134  1.00  0.00     0.008 C 
ATOM      4  C   UNL     1     152.278 159.499 198.816  1.00  0.00     0.039 C 
ATOM      5  C   UNL     1     151.167 160.013 199.721  1.00  0.00    -0.006 C 
ATOM      6  C   UNL     1     149.881 160.122 199.276  1.00  0.00    -0.070 C 
ATOM      7  C   UNL     1     149.502 159.719 197.869  1.00  0.00     0.039 C 
ATOM      8  C   UNL     1     148.782 160.686 200.147  1.00  0.00     0.039 C 
ATOM      9  C   UNL     1     151.549 160.276 201.141  1.00  0.00     0.159 C 
ATOM     10  O   UNL     1     150.725 160.115 202.081  1.00  0.00    -0.295 OA
ATOM     11  C   UNL     1     152.939 160.736 201.475  1.00  0.00     0.084 C 
ENDROOT
TORSDOF 0
ENDMDL
MODEL 8
REMARK VINA RESULT:    -3.738      3.296      4.323
REMARK INTER + INTRA:          -3.738
REMARK INTER:                  -3.738
REMARK INTRA:                   0.000
REMARK UNBOUND:                 0.000
REMARK SMILES CC(C)=C1CC[C@@H](C)CC1=O
REMARK SMILES IDX 8 1 7 2 6 3 5 4 4 5 2 6 1 7 3 8 10 9 11 10 9 11
REMARK H PARENT
REMARK Flexibility Score: inf
ROOT
ATOM      1  C   UNL     1     152.347 154.851 201.602  1.00  0.00     0.008 C 
ATOM      2  C   UNL     1     151.825 156.277 201.389  1.00  0.00    -0.006 C 
ATOM      3  C   UNL     1     152.364 156.860 200.074  1.00  0.00     0.008 C 
ATOM      4  C   UNL     1     151.771 158.248 199.795  1.00  0.00     0.039 C 
ATOM      5  C   UNL     1     151.937 159.202 200.969  1.00  0.00    -0.006 C 
ATOM      6  C   UNL     1     152.094 160.544 200.777  1.00  0.00    -0.070 C 
ATOM      7  C   UNL     1     152.092 161.142 199.388  1.00  0.00     0.039 C 
ATOM      8  C   UNL     1     152.318 161.494 201.932  1.00  0.00     0.039 C 
ATOM      9  C   UNL     1     151.802 158.598 202.328  1.00  0.00     0.159 C 
ATOM     10  O   UNL     1     151.329 159.257 203.293  1.00  0.00    -0.295 OA
ATOM     11  C   UNL     1     152.226 157.177 202.567  1.00  0.00     0.084 C 
ENDROOT
TORSDOF 0
ENDMDL
MODEL 9
REMARK VINA RESULT:    -3.715      3.152      4.089
REMARK INTER + INTRA:          -3.715
REMARK INTER:                  -3.715
REMARK INTRA:                   0.000
REMARK UNBOUND:                 0.000
REMARK SMILES CC(C)=C1CC[C@@H](C)CC1=O
REMARK SMILES IDX 8 1 7 2 6 3 5 4 4 5 2 6 1 7 3 8 10 9 11 10 9 11
REMARK H PARENT
REMARK Flexibility Score: inf
ROOT
ATOM      1  C   UNL     1     156.274 157.493 200.223  1.00  0.00     0.008 C 
ATOM      2  C   UNL     1     155.150 158.534 200.239  1.00  0.00    -0.006 C 
ATOM      3  C   UNL     1     155.456 159.646 201.255  1.00  0.00     0.008 C 
ATOM      4  C   UNL     1     154.391 160.749 201.211  1.00  0.00     0.039 C 
ATOM      5  C   UNL     1     152.977 160.203 201.352  1.00  0.00    -0.006 C 
ATOM      6  C   UNL     1     151.993 160.928 201.960  1.00  0.00    -0.070 C 
ATOM      7  C   UNL     1     152.261 162.313 202.504  1.00  0.00     0.039 C 
ATOM      8  C   UNL     1     150.600 160.373 202.157  1.00  0.00     0.039 C 
ATOM      9  C   UNL     1     152.712 158.892 200.689  1.00  0.00     0.159 C 
ATOM     10  O   UNL     1     151.580 158.618 200.208  1.00  0.00    -0.295 OA
ATOM     11  C   UNL     1     153.807 157.869 200.577  1.00  0.00     0.084 C 
ENDROOT
TORSDOF 0
ENDMDL
