MODEL 1
REMARK VINA RESULT:    -2.918      0.000      0.000
REMARK INTER + INTRA:          -2.856
REMARK INTER:                  -3.600
REMARK INTRA:                   0.743
REMARK UNBOUND:                 0.743
REMARK SMILES CC1=CC=CC(C)(C)CC1=O
REMARK SMILES IDX 1 1 2 2 3 3 10 4 11 5 9 6 4 8 5 9 6 10 7 11 8 12
REMARK H PARENT
REMARK Flexibility Score: 80.00
ROOT
ATOM      1  C   UNL     1      14.915  52.324  34.577  1.00  0.00     0.048 C 
ATOM      2  C   UNL     1      16.420  52.420  34.491  1.00  0.00    -0.008 C 
ATOM      3  C   UNL     1      17.078  52.920  35.559  1.00  0.00     0.007 C 
ENDROOT
BRANCH   2   4
ATOM      4  C   UNL     1      17.049  52.027  33.205  1.00  0.00     0.159 C 
ATOM      5  O   UNL     1      16.311  51.835  32.200  1.00  0.00    -0.295 OA
BRANCH   4   6
ATOM      6  C   UNL     1      18.524  51.831  33.033  1.00  0.00     0.091 CG0
ATOM      7  G   UNL     1      19.350  53.094  33.366  1.00  0.00     0.000 G0
ENDBRANCH   4   6
ENDBRANCH   2   4
BRANCH   3   8
ATOM      8  C   UNL     1      18.527  53.158  35.759  1.00  0.00    -0.003 C 
ATOM      9  C   UNL     1      19.501  53.245  34.845  1.00  0.00    -0.020 C 
BRANCH   9  10
ATOM     10  C   UNL     1      19.347  53.088  33.350  1.00  0.00    -0.010 CG0
ATOM     11  C   UNL     1      18.748  54.377  32.743  1.00  0.00     0.016 C 
ATOM     12  C   UNL     1      20.750  52.879  32.737  1.00  0.00     0.016 C 
ATOM     13  G   UNL     1      18.498  51.834  33.044  1.00  0.00     0.000 G0
ENDBRANCH   9  10
ENDBRANCH   3   8
TORSDOF 0
ENDMDL
MODEL 2
REMARK VINA RESULT:    -2.835      2.617      4.207
REMARK INTER + INTRA:          -2.755
REMARK INTER:                  -3.509
REMARK INTRA:                   0.753
REMARK UNBOUND:                 0.743
REMARK SMILES CC1=CC=CC(C)(C)CC1=O
REMARK SMILES IDX 1 1 2 2 3 3 10 4 11 5 9 6 4 8 5 9 6 10 7 11 8 12
REMARK H PARENT
REMARK Flexibility Score: 80.00
ROOT
ATOM      1  C   UNL     1      19.156  52.894  35.371  1.00  0.00     0.048 C 
ATOM      2  C   UNL     1      17.691  53.172  35.127  1.00  0.00    -0.008 C 
ATOM      3  C   UNL     1      16.823  52.150  35.297  1.00  0.00     0.007 C 
ENDROOT
BRANCH   2   4
ATOM      4  C   UNL     1      17.331  54.529  34.645  1.00  0.00     0.159 C 
ATOM      5  O   UNL     1      18.253  55.303  34.267  1.00  0.00    -0.295 OA
BRANCH   4   6
ATOM      6  C   UNL     1      15.925  55.041  34.593  1.00  0.00     0.091 CG0
ATOM      7  G   UNL     1      15.002  54.197  33.686  1.00  0.00     0.000 G0
ENDBRANCH   4   6
ENDBRANCH   2   4
BRANCH   3   8
ATOM      8  C   UNL     1      15.354  52.109  35.110  1.00  0.00    -0.003 C 
ATOM      9  C   UNL     1      14.566  52.949  34.428  1.00  0.00    -0.020 C 
BRANCH   9  10
ATOM     10  C   UNL     1      15.006  54.191  33.687  1.00  0.00    -0.010 CG0
ATOM     11  C   UNL     1      15.673  53.800  32.349  1.00  0.00     0.016 C 
ATOM     12  C   UNL     1      13.751  55.034  33.366  1.00  0.00     0.016 C 
ATOM     13  G   UNL     1      15.932  55.034  34.591  1.00  0.00     0.000 G0
ENDBRANCH   9  10
ENDBRANCH   3   8
TORSDOF 0
ENDMDL
MODEL 3
REMARK VINA RESULT:    -2.827     13.328     14.687
REMARK INTER + INTRA:          -2.745
REMARK INTER:                  -3.500
REMARK INTRA:                   0.755
REMARK UNBOUND:                 0.743
REMARK SMILES CC1=CC=CC(C)(C)CC1=O
REMARK SMILES IDX 1 1 2 2 3 3 10 4 11 5 9 6 4 8 5 9 6 10 7 11 8 12
REMARK H PARENT
REMARK Flexibility Score: 80.00
ROOT
ATOM      1  C   UNL     1      12.756  61.615  19.685  1.00  0.00     0.048 C 
ATOM      2  C   UNL     1      13.818  61.164  20.661  1.00  0.00    -0.008 C 
ATOM      3  C   UNL     1      15.055  61.690  20.528  1.00  0.00     0.007 C 
ENDROOT
BRANCH   2   4
ATOM      4  C   UNL     1      13.433  60.119  21.643  1.00  0.00     0.159 C 
ATOM      5  O   UNL     1      12.327  59.530  21.501  1.00  0.00    -0.295 OA
BRANCH   4   6
ATOM      6  C   UNL     1      14.286  59.729  22.811  1.00  0.00     0.091 CG0
ATOM      7  G   UNL     1      15.685  59.218  22.400  1.00  0.00     0.000 G0
ENDBRANCH   4   6
ENDBRANCH   2   4
BRANCH   3   8
ATOM      8  C   UNL     1      16.289  61.427  21.304  1.00  0.00    -0.003 C 
ATOM      9  C   UNL     1      16.584  60.387  22.093  1.00  0.00    -0.020 C 
BRANCH   9  10
ATOM     10  C   UNL     1      15.685  59.214  22.407  1.00  0.00    -0.010 CG0
ATOM     11  C   UNL     1      15.648  58.241  21.207  1.00  0.00     0.016 C 
ATOM     12  C   UNL     1      16.278  58.457  23.617  1.00  0.00     0.016 C 
ATOM     13  G   UNL     1      14.282  59.726  22.802  1.00  0.00     0.000 G0
ENDBRANCH   9  10
ENDBRANCH   3   8
TORSDOF 0
ENDMDL
MODEL 4
REMARK VINA RESULT:    -2.814      2.413      4.219
REMARK INTER + INTRA:          -2.729
REMARK INTER:                  -3.470
REMARK INTRA:                   0.742
REMARK UNBOUND:                 0.743
REMARK SMILES CC1=CC=CC(C)(C)CC1=O
REMARK SMILES IDX 1 1 2 2 3 3 10 4 11 5 9 6 4 8 5 9 6 10 7 11 8 12
REMARK H PARENT
REMARK Flexibility Score: 80.00
ROOT
ATOM      1  C   UNL     1      18.829  52.848  35.508  1.00  0.00     0.048 C 
ATOM      2  C   UNL     1      17.669  52.430  34.636  1.00  0.00    -0.008 C 
ATOM      3  C   UNL     1      17.919  52.196  33.329  1.00  0.00     0.007 C 
ENDROOT
BRANCH   2   4
ATOM      4  C   UNL     1      16.328  52.384  35.271  1.00  0.00     0.159 C 
ATOM      5  O   UNL     1      16.185  52.873  36.426  1.00  0.00    -0.295 OA
BRANCH   4   6
ATOM      6  C   UNL     1      15.126  51.772  34.620  1.00  0.00     0.091 CG0
ATOM      7  G   UNL     1      14.766  52.428  33.269  1.00  0.00     0.000 G0
ENDBRANCH   4   6
ENDBRANCH   2   4
BRANCH   3   8
ATOM      8  C   UNL     1      16.996  51.805  32.238  1.00  0.00    -0.003 C 
ATOM      9  C   UNL     1      15.662  51.899  32.187  1.00  0.00    -0.020 C 
BRANCH   9  10
ATOM     10  C   UNL     1      14.757  52.420  33.279  1.00  0.00    -0.010 CG0
ATOM     11  C   UNL     1      14.806  53.965  33.314  1.00  0.00     0.016 C 
ATOM     12  C   UNL     1      13.307  51.996  32.950  1.00  0.00     0.016 C 
ATOM     13  G   UNL     1      15.149  51.780  34.629  1.00  0.00     0.000 G0
ENDBRANCH   9  10
ENDBRANCH   3   8
TORSDOF 0
ENDMDL
MODEL 5
REMARK VINA RESULT:    -2.803      2.326      4.242
REMARK INTER + INTRA:          -2.715
REMARK INTER:                  -3.458
REMARK INTRA:                   0.743
REMARK UNBOUND:                 0.743
REMARK SMILES CC1=CC=CC(C)(C)CC1=O
REMARK SMILES IDX 1 1 2 2 3 3 10 4 11 5 9 6 4 8 5 9 6 10 7 11 8 12
REMARK H PARENT
REMARK Flexibility Score: 80.00
ROOT
ATOM      1  C   UNL     1      18.896  51.949  32.872  1.00  0.00     0.048 C 
ATOM      2  C   UNL     1      17.552  52.218  33.507  1.00  0.00    -0.008 C 
ATOM      3  C   UNL     1      16.449  51.996  32.758  1.00  0.00     0.007 C 
ENDROOT
BRANCH   2   4
ATOM      4  C   UNL     1      17.553  52.777  34.882  1.00  0.00     0.159 C 
ATOM      5  O   UNL     1      18.640  53.196  35.367  1.00  0.00    -0.295 OA
BRANCH   4   6
ATOM      6  C   UNL     1      16.329  52.863  35.741  1.00  0.00     0.091 CG0
ATOM      7  G   UNL     1      15.203  53.715  35.113  1.00  0.00     0.000 G0
ENDBRANCH   4   6
ENDBRANCH   2   4
BRANCH   3   8
ATOM      8  C   UNL     1      15.018  52.189  33.090  1.00  0.00    -0.003 C 
ATOM      9  C   UNL     1      14.470  52.919  34.069  1.00  0.00    -0.020 C 
BRANCH   9  10
ATOM     10  C   UNL     1      15.212  53.719  35.115  1.00  0.00    -0.010 CG0
ATOM     11  C   UNL     1      15.731  55.038  34.501  1.00  0.00     0.016 C 
ATOM     12  C   UNL     1      14.220  54.076  36.246  1.00  0.00     0.016 C 
ATOM     13  G   UNL     1      16.342  52.859  35.723  1.00  0.00     0.000 G0
ENDBRANCH   9  10
ENDBRANCH   3   8
TORSDOF 0
ENDMDL
MODEL 6
REMARK VINA RESULT:    -2.793      1.730      2.132
REMARK INTER + INTRA:          -2.703
REMARK INTER:                  -3.462
REMARK INTRA:                   0.760
REMARK UNBOUND:                 0.743
REMARK SMILES CC1=CC=CC(C)(C)CC1=O
REMARK SMILES IDX 1 1 2 2 3 3 10 4 11 5 9 6 4 8 5 9 6 10 7 11 8 12
REMARK H PARENT
REMARK Flexibility Score: 80.00
ROOT
ATOM      1  C   UNL     1      15.229  52.107  36.791  1.00  0.00     0.048 C 
ATOM      2  C   UNL     1      16.141  52.408  35.626  1.00  0.00    -0.008 C 
ATOM      3  C   UNL     1      17.370  52.899  35.902  1.00  0.00     0.007 C 
ENDROOT
BRANCH   2   4
ATOM      4  C   UNL     1      15.586  52.211  34.263  1.00  0.00     0.159 C 
ATOM      5  O   UNL     1      14.345  52.017  34.136  1.00  0.00    -0.295 OA
BRANCH   4   6
ATOM      6  C   UNL     1      16.422  52.218  33.021  1.00  0.00     0.091 CG0
ATOM      7  G   UNL     1      17.167  53.552  32.795  1.00  0.00     0.000 G0
ENDBRANCH   4   6
ENDBRANCH   2   4
BRANCH   3   8
ATOM      8  C   UNL     1      18.459  53.308  34.985  1.00  0.00    -0.003 C 
ATOM      9  C   UNL     1      18.400  53.597  33.679  1.00  0.00    -0.020 C 
BRANCH   9  10
ATOM     10  C   UNL     1      17.169  53.544  32.804  1.00  0.00    -0.010 CG0
ATOM     11  C   UNL     1      16.278  54.779  33.069  1.00  0.00     0.016 C 
ATOM     12  C   UNL     1      17.623  53.591  31.327  1.00  0.00     0.016 C 
ATOM     13  G   UNL     1      16.424  52.210  33.034  1.00  0.00     0.000 G0
ENDBRANCH   9  10
ENDBRANCH   3   8
TORSDOF 0
ENDMDL
MODEL 7
REMARK VINA RESULT:    -2.730     13.708     15.133
REMARK INTER + INTRA:          -2.625
REMARK INTER:                  -3.380
REMARK INTRA:                   0.755
REMARK UNBOUND:                 0.743
REMARK SMILES CC1=CC=CC(C)(C)CC1=O
REMARK SMILES IDX 1 1 2 2 3 3 10 4 11 5 9 6 4 8 5 9 6 10 7 11 8 12
REMARK H PARENT
REMARK Flexibility Score: 80.00
ROOT
ATOM      1  C   UNL     1      16.462  61.850  21.133  1.00  0.00     0.048 C 
ATOM      2  C   UNL     1      15.163  61.090  21.263  1.00  0.00    -0.008 C 
ATOM      3  C   UNL     1      14.230  61.275  20.304  1.00  0.00     0.007 C 
ENDROOT
BRANCH   2   4
ATOM      4  C   UNL     1      14.987  60.255  22.479  1.00  0.00     0.159 C 
ATOM      5  O   UNL     1      15.821  60.368  23.419  1.00  0.00    -0.295 OA
BRANCH   4   6
ATOM      6  C   UNL     1      13.873  59.269  22.650  1.00  0.00     0.091 CG0
ATOM      7  G   UNL     1      12.471  59.911  22.551  1.00  0.00     0.000 G0
ENDBRANCH   4   6
ENDBRANCH   2   4
BRANCH   3   8
ATOM      8  C   UNL     1      12.871  60.698  20.175  1.00  0.00    -0.003 C 
ATOM      9  C   UNL     1      12.103  60.129  21.112  1.00  0.00    -0.020 C 
BRANCH   9  10
ATOM     10  C   UNL     1      12.468  59.913  22.562  1.00  0.00    -0.010 CG0
ATOM     11  C   UNL     1      12.360  61.245  23.338  1.00  0.00     0.016 C 
ATOM     12  C   UNL     1      11.453  58.920  23.174  1.00  0.00     0.016 C 
ATOM     13  G   UNL     1      13.874  59.281  22.656  1.00  0.00     0.000 G0
ENDBRANCH   9  10
ENDBRANCH   3   8
TORSDOF 0
ENDMDL
MODEL 8
REMARK VINA RESULT:    -2.688     13.539     14.821
REMARK INTER + INTRA:          -2.573
REMARK INTER:                  -3.323
REMARK INTRA:                   0.750
REMARK UNBOUND:                 0.743
REMARK SMILES CC1=CC=CC(C)(C)CC1=O
REMARK SMILES IDX 1 1 2 2 3 3 10 4 11 5 9 6 4 8 5 9 6 10 7 11 8 12
REMARK H PARENT
REMARK Flexibility Score: 80.00
ROOT
ATOM      1  C   UNL     1      12.806  62.077  19.744  1.00  0.00     0.048 C 
ATOM      2  C   UNL     1      13.515  61.367  20.874  1.00  0.00    -0.008 C 
ATOM      3  C   UNL     1      13.025  61.531  22.122  1.00  0.00     0.007 C 
ENDROOT
BRANCH   2   4
ATOM      4  C   UNL     1      14.742  60.606  20.530  1.00  0.00     0.159 C 
ATOM      5  O   UNL     1      15.241  60.745  19.379  1.00  0.00    -0.295 OA
BRANCH   4   6
ATOM      6  C   UNL     1      15.421  59.663  21.474  1.00  0.00     0.091 CG0
ATOM      7  G   UNL     1      15.883  60.340  22.784  1.00  0.00     0.000 G0
ENDBRANCH   4   6
ENDBRANCH   2   4
BRANCH   3   8
ATOM      8  C   UNL     1      13.511  60.992  23.414  1.00  0.00    -0.003 C 
ATOM      9  C   UNL     1      14.716  60.495  23.721  1.00  0.00    -0.020 C 
BRANCH   9  10
ATOM     10  C   UNL     1      15.888  60.338  22.781  1.00  0.00    -0.010 CG0
ATOM     11  C   UNL     1      16.567  61.707  22.550  1.00  0.00     0.016 C 
ATOM     12  C   UNL     1      16.921  59.399  23.446  1.00  0.00     0.016 C 
ATOM     13  G   UNL     1      15.416  59.677  21.466  1.00  0.00     0.000 G0
ENDBRANCH   9  10
ENDBRANCH   3   8
TORSDOF 0
ENDMDL
MODEL 9
REMARK VINA RESULT:    -2.613      1.832      2.814
REMARK INTER + INTRA:          -2.480
REMARK INTER:                  -3.227
REMARK INTRA:                   0.746
REMARK UNBOUND:                 0.743
REMARK SMILES CC1=CC=CC(C)(C)CC1=O
REMARK SMILES IDX 1 1 2 2 3 3 10 4 11 5 9 6 4 8 5 9 6 10 7 11 8 12
REMARK H PARENT
REMARK Flexibility Score: 80.00
ROOT
ATOM      1  C   UNL     1      15.313  51.710  36.226  1.00  0.00     0.048 C 
ATOM      2  C   UNL     1      15.871  52.386  34.996  1.00  0.00    -0.008 C 
ATOM      3  C   UNL     1      15.293  52.103  33.809  1.00  0.00     0.007 C 
ENDROOT
BRANCH   2   4
ATOM      4  C   UNL     1      17.062  53.252  35.183  1.00  0.00     0.159 C 
ATOM      5  O   UNL     1      17.674  53.215  36.286  1.00  0.00    -0.295 OA
BRANCH   4   6
ATOM      6  C   UNL     1      17.578  54.186  34.131  1.00  0.00     0.091 CG0
ATOM      7  G   UNL     1      17.997  53.466  32.830  1.00  0.00     0.000 G0
ENDBRANCH   4   6
ENDBRANCH   2   4
BRANCH   3   8
ATOM      8  C   UNL     1      15.630  52.582  32.448  1.00  0.00    -0.003 C 
ATOM      9  C   UNL     1      16.761  53.146  32.008  1.00  0.00    -0.020 C 
BRANCH   9  10
ATOM     10  C   UNL     1      17.987  53.460  32.833  1.00  0.00    -0.010 CG0
ATOM     11  C   UNL     1      18.795  52.168  33.091  1.00  0.00     0.016 C 
ATOM     12  C   UNL     1      18.881  54.429  32.024  1.00  0.00     0.016 C 
ATOM     13  G   UNL     1      17.568  54.172  34.138  1.00  0.00     0.000 G0
ENDBRANCH   9  10
ENDBRANCH   3   8
TORSDOF 0
ENDMDL
