MODEL 1
REMARK VINA RESULT:    -3.294      0.000      0.000
REMARK INTER + INTRA:          -6.601
REMARK INTER:                  -5.028
REMARK INTRA:                  -1.573
REMARK UNBOUND:                -1.573
REMARK SMILES OC[C@@H]1O[C@@](CO)(O[C@H]2O[C@@H](CO)[C@@H](O)[C@H](O)[C@@H]2O)[C@H](O)[C@@H]1O
REMARK SMILES IDX 8 1 9 2 11 3 14 4 10 5 16 6 18 7 12 8 13 9 15 11 17 13 19 15
REMARK SMILES IDX 5 17 20 18 4 19 22 20 3 21 6 22 7 23 21 25 23 27 2 29 1 30
REMARK H PARENT 13 10 15 12 17 14 19 16 7 24 21 26 23 28 1 31
REMARK Flexibility Score: inf
ROOT
ATOM      1  O   UNL     1       9.302  35.104  34.578  1.00  0.00    -0.313 OA
ENDROOT
BRANCH   1   2
ATOM      2  C   UNL     1      10.337  34.708  33.687  1.00  0.00     0.285 C 
ATOM      3  C   UNL     1      11.625  36.718  33.526  1.00  0.00     0.178 C 
ATOM      4  C   UNL     1      12.980  36.039  33.908  1.00  0.00     0.177 C 
ATOM      5  O   UNL     1      10.729  35.818  32.885  1.00  0.00    -0.341 OA
ATOM      6  C   UNL     1      12.872  34.499  33.926  1.00  0.00     0.179 C 
ATOM      7  C   UNL     1      11.508  34.082  34.496  1.00  0.00     0.202 C 
BRANCH   3   8
ATOM      8  C   UNL     1      10.931  37.514  34.648  1.00  0.00     0.191 C 
BRANCH   8   9
ATOM      9  O   UNL     1       9.771  38.119  34.155  1.00  0.00    -0.394 OA
ATOM     10  H   UNL     1       9.626  37.738  33.252  1.00  0.00     0.210 HD
ENDBRANCH   8   9
ENDBRANCH   3   8
BRANCH   4  11
ATOM     11  O   UNL     1      13.510  36.534  35.117  1.00  0.00    -0.387 OA
ATOM     12  H   UNL     1      14.346  37.031  34.908  1.00  0.00     0.211 HD
ENDBRANCH   4  11
BRANCH   6  13
ATOM     13  O   UNL     1      13.012  34.000  32.615  1.00  0.00    -0.387 OA
ATOM     14  H   UNL     1      13.041  33.012  32.682  1.00  0.00     0.211 HD
ENDBRANCH   6  13
BRANCH   7  15
ATOM     15  O   UNL     1      11.396  32.680  34.564  1.00  0.00    -0.385 OA
ATOM     16  H   UNL     1      11.594  32.400  35.495  1.00  0.00     0.211 HD
ENDBRANCH   7  15
ENDBRANCH   1   2
BRANCH   1  17
ATOM     17  C   UNL     1       7.981  34.826  34.121  1.00  0.00     0.224 C 
ATOM     18  C   UNL     1       8.115  33.831  32.953  1.00  0.00     0.208 C 
ATOM     19  O   UNL     1       7.215  34.180  35.125  1.00  0.00    -0.337 OA
ATOM     20  C   UNL     1       8.138  32.491  33.671  1.00  0.00     0.180 C 
ATOM     21  C   UNL     1       7.394  32.781  34.989  1.00  0.00     0.179 C 
BRANCH  17  22
ATOM     22  C   UNL     1       7.305  36.149  33.688  1.00  0.00     0.225 C 
BRANCH  22  23
ATOM     23  O   UNL     1       7.900  36.656  32.526  1.00  0.00    -0.391 OA
ATOM     24  H   UNL     1       8.113  37.600  32.721  1.00  0.00     0.210 HD
ENDBRANCH  22  23
ENDBRANCH  17  22
BRANCH  18  25
ATOM     25  O   UNL     1       7.054  33.924  32.022  1.00  0.00    -0.385 OA
ATOM     26  H   UNL     1       6.802  32.999  31.737  1.00  0.00     0.211 HD
ENDBRANCH  18  25
BRANCH  20  27
ATOM     27  O   UNL     1       7.531  31.477  32.904  1.00  0.00    -0.387 OA
ATOM     28  H   UNL     1       7.436  31.817  31.979  1.00  0.00     0.211 HD
ENDBRANCH  20  27
BRANCH  21  29
ATOM     29  C   UNL     1       6.019  32.095  35.113  1.00  0.00     0.191 C 
BRANCH  29  30
ATOM     30  O   UNL     1       5.114  32.622  34.174  1.00  0.00    -0.394 OA
ATOM     31  H   UNL     1       5.575  32.595  33.297  1.00  0.00     0.210 HD
ENDBRANCH  29  30
ENDBRANCH  21  29
ENDBRANCH   1  17
TORSDOF 13
ENDMDL
MODEL 2
REMARK VINA RESULT:    -2.934      1.651      5.846
REMARK INTER + INTRA:          -6.051
REMARK INTER:                  -4.609
REMARK INTRA:                  -1.442
REMARK UNBOUND:                -1.573
REMARK SMILES OC[C@@H]1O[C@@](CO)(O[C@H]2O[C@@H](CO)[C@@H](O)[C@H](O)[C@@H]2O)[C@H](O)[C@@H]1O
REMARK SMILES IDX 8 1 9 2 11 3 14 4 10 5 16 6 18 7 12 8 13 9 15 11 17 13 19 15
REMARK SMILES IDX 5 17 20 18 4 19 22 20 3 21 6 22 7 23 21 25 23 27 2 29 1 30
REMARK H PARENT 13 10 15 12 17 14 19 16 7 24 21 26 23 28 1 31
REMARK Flexibility Score: inf
ROOT
ATOM      1  O   UNL     1      10.788  35.323  33.642  1.00  0.00    -0.313 OA
ENDROOT
BRANCH   1   2
ATOM      2  C   UNL     1       9.543  35.039  34.269  1.00  0.00     0.285 C 
ATOM      3  C   UNL     1       8.524  37.204  34.307  1.00  0.00     0.178 C 
ATOM      4  C   UNL     1       7.206  36.744  33.603  1.00  0.00     0.177 C 
ATOM      5  O   UNL     1       9.135  36.158  35.051  1.00  0.00    -0.341 OA
ATOM      6  C   UNL     1       7.113  35.206  33.495  1.00  0.00     0.179 C 
ATOM      7  C   UNL     1       8.503  34.624  33.190  1.00  0.00     0.202 C 
BRANCH   3   8
ATOM      8  C   UNL     1       9.540  37.942  33.416  1.00  0.00     0.191 C 
BRANCH   8   9
ATOM      9  O   UNL     1      10.743  38.116  34.107  1.00  0.00    -0.394 OA
ATOM     10  H   UNL     1      10.740  39.053  34.428  1.00  0.00     0.210 HD
ENDBRANCH   8   9
ENDBRANCH   3   8
BRANCH   4  11
ATOM     11  O   UNL     1       7.018  37.363  32.351  1.00  0.00    -0.387 OA
ATOM     12  H   UNL     1       6.844  38.329  32.507  1.00  0.00     0.211 HD
ENDBRANCH   4  11
BRANCH   6  13
ATOM     13  O   UNL     1       6.631  34.674  34.708  1.00  0.00    -0.387 OA
ATOM     14  H   UNL     1       6.430  35.442  35.302  1.00  0.00     0.211 HD
ENDBRANCH   6  13
BRANCH   7  15
ATOM     15  O   UNL     1       8.443  33.225  33.044  1.00  0.00    -0.385 OA
ATOM     16  H   UNL     1       8.663  32.815  33.921  1.00  0.00     0.211 HD
ENDBRANCH   7  15
ENDBRANCH   1   2
BRANCH   1  17
ATOM     17  C   UNL     1      11.924  34.748  34.284  1.00  0.00     0.224 C 
ATOM     18  C   UNL     1      12.911  34.351  33.171  1.00  0.00     0.208 C 
ATOM     19  O   UNL     1      12.587  35.697  35.103  1.00  0.00    -0.337 OA
ATOM     20  C   UNL     1      13.694  35.637  32.960  1.00  0.00     0.180 C 
ATOM     21  C   UNL     1      13.559  36.362  34.314  1.00  0.00     0.179 C 
BRANCH  17  22
ATOM     22  C   UNL     1      11.469  33.529  35.123  1.00  0.00     0.225 C 
BRANCH  22  23
ATOM     23  O   UNL     1      11.214  32.425  34.302  1.00  0.00    -0.391 OA
ATOM     24  H   UNL     1      10.357  32.614  33.850  1.00  0.00     0.210 HD
ENDBRANCH  22  23
ENDBRANCH  17  22
BRANCH  18  25
ATOM     25  O   UNL     1      13.745  33.267  33.530  1.00  0.00    -0.385 OA
ATOM     26  H   UNL     1      13.260  32.702  34.198  1.00  0.00     0.211 HD
ENDBRANCH  18  25
BRANCH  20  27
ATOM     27  O   UNL     1      15.032  35.381  32.600  1.00  0.00    -0.387 OA
ATOM     28  H   UNL     1      15.112  35.524  31.624  1.00  0.00     0.211 HD
ENDBRANCH  20  27
BRANCH  21  29
ATOM     29  C   UNL     1      14.868  36.456  35.124  1.00  0.00     0.191 C 
BRANCH  29  30
ATOM     30  O   UNL     1      15.801  37.279  34.467  1.00  0.00    -0.394 OA
ATOM     31  H   UNL     1      16.314  36.688  33.858  1.00  0.00     0.210 HD
ENDBRANCH  29  30
ENDBRANCH  21  29
ENDBRANCH   1  17
TORSDOF 13
ENDMDL
MODEL 3
REMARK VINA RESULT:    -2.923      1.619      2.735
REMARK INTER + INTRA:          -6.034
REMARK INTER:                  -5.043
REMARK INTRA:                  -0.991
REMARK UNBOUND:                -1.573
REMARK SMILES OC[C@@H]1O[C@@](CO)(O[C@H]2O[C@@H](CO)[C@@H](O)[C@H](O)[C@@H]2O)[C@H](O)[C@@H]1O
REMARK SMILES IDX 8 1 9 2 11 3 14 4 10 5 16 6 18 7 12 8 13 9 15 11 17 13 19 15
REMARK SMILES IDX 5 17 20 18 4 19 22 20 3 21 6 22 7 23 21 25 23 27 2 29 1 30
REMARK H PARENT 13 10 15 12 17 14 19 16 7 24 21 26 23 28 1 31
REMARK Flexibility Score: inf
ROOT
ATOM      1  O   UNL     1       9.432  33.899  34.131  1.00  0.00    -0.313 OA
ENDROOT
BRANCH   1   2
ATOM      2  C   UNL     1      10.250  35.060  34.044  1.00  0.00     0.285 C 
ATOM      3  C   UNL     1      12.328  34.245  34.906  1.00  0.00     0.178 C 
ATOM      4  C   UNL     1      13.174  34.704  33.674  1.00  0.00     0.177 C 
ATOM      5  O   UNL     1      11.187  35.066  35.118  1.00  0.00    -0.341 OA
ATOM      6  C   UNL     1      12.367  35.618  32.727  1.00  0.00     0.179 C 
ATOM      7  C   UNL     1      10.915  35.122  32.640  1.00  0.00     0.202 C 
BRANCH   3   8
ATOM      8  C   UNL     1      11.973  32.747  34.958  1.00  0.00     0.191 C 
BRANCH   8   9
ATOM      9  O   UNL     1      13.140  31.983  35.061  1.00  0.00    -0.394 OA
ATOM     10  H   UNL     1      13.062  31.272  34.375  1.00  0.00     0.210 HD
ENDBRANCH   8   9
ENDBRANCH   3   8
BRANCH   4  11
ATOM     11  O   UNL     1      13.750  33.621  32.981  1.00  0.00    -0.387 OA
ATOM     12  H   UNL     1      13.168  33.404  32.205  1.00  0.00     0.211 HD
ENDBRANCH   4  11
BRANCH   6  13
ATOM     13  O   UNL     1      12.389  36.941  33.213  1.00  0.00    -0.387 OA
ATOM     14  H   UNL     1      12.575  37.532  32.440  1.00  0.00     0.211 HD
ENDBRANCH   6  13
BRANCH   7  15
ATOM     15  O   UNL     1      10.164  35.912  31.750  1.00  0.00    -0.385 OA
ATOM     16  H   UNL     1       9.295  35.458  31.593  1.00  0.00     0.211 HD
ENDBRANCH   7  15
ENDBRANCH   1   2
BRANCH   1  17
ATOM     17  C   UNL     1       8.039  34.161  34.282  1.00  0.00     0.224 C 
ATOM     18  C   UNL     1       7.429  34.151  32.868  1.00  0.00     0.208 C 
ATOM     19  O   UNL     1       7.399  33.129  35.014  1.00  0.00    -0.337 OA
ATOM     20  C   UNL     1       7.119  32.677  32.661  1.00  0.00     0.180 C 
ATOM     21  C   UNL     1       6.959  32.141  34.097  1.00  0.00     0.179 C 
BRANCH  17  22
ATOM     22  C   UNL     1       7.853  35.525  34.989  1.00  0.00     0.225 C 
BRANCH  22  23
ATOM     23  O   UNL     1       6.494  35.835  35.125  1.00  0.00    -0.391 OA
ATOM     24  H   UNL     1       6.376  36.135  36.058  1.00  0.00     0.210 HD
ENDBRANCH  22  23
ENDBRANCH  17  22
BRANCH  18  25
ATOM     25  O   UNL     1       6.276  34.963  32.756  1.00  0.00    -0.385 OA
ATOM     26  H   UNL     1       6.458  35.835  33.210  1.00  0.00     0.211 HD
ENDBRANCH  18  25
BRANCH  20  27
ATOM     27  O   UNL     1       5.968  32.491  31.870  1.00  0.00    -0.387 OA
ATOM     28  H   UNL     1       5.639  31.572  32.033  1.00  0.00     0.211 HD
ENDBRANCH  20  27
BRANCH  21  29
ATOM     29  C   UNL     1       5.521  31.729  34.471  1.00  0.00     0.191 C 
BRANCH  29  30
ATOM     30  O   UNL     1       5.280  30.389  34.117  1.00  0.00    -0.394 OA
ATOM     31  H   UNL     1       4.916  29.948  34.927  1.00  0.00     0.210 HD
ENDBRANCH  29  30
ENDBRANCH  21  29
ENDBRANCH   1  17
TORSDOF 13
ENDMDL
MODEL 4
REMARK VINA RESULT:    -2.334      1.752      5.990
REMARK INTER + INTRA:          -5.135
REMARK INTER:                  -4.167
REMARK INTRA:                  -0.968
REMARK UNBOUND:                -1.573
REMARK SMILES OC[C@@H]1O[C@@](CO)(O[C@H]2O[C@@H](CO)[C@@H](O)[C@H](O)[C@@H]2O)[C@H](O)[C@@H]1O
REMARK SMILES IDX 8 1 9 2 11 3 14 4 10 5 16 6 18 7 12 8 13 9 15 11 17 13 19 15
REMARK SMILES IDX 5 17 20 18 4 19 22 20 3 21 6 22 7 23 21 25 23 27 2 29 1 30
REMARK H PARENT 13 10 15 12 17 14 19 16 7 24 21 26 23 28 1 31
REMARK Flexibility Score: inf
ROOT
ATOM      1  O   UNL     1       7.063  34.770  34.617  1.00  0.00    -0.313 OA
ENDROOT
BRANCH   1   2
ATOM      2  C   UNL     1       6.008  34.199  33.854  1.00  0.00     0.285 C 
ATOM      3  C   UNL     1       6.873  32.014  33.404  1.00  0.00     0.178 C 
ATOM      4  C   UNL     1       5.622  31.257  33.956  1.00  0.00     0.177 C 
ATOM      5  O   UNL     1       6.547  33.299  32.890  1.00  0.00    -0.341 OA
ATOM      6  C   UNL     1       4.442  32.215  34.235  1.00  0.00     0.179 C 
ATOM      7  C   UNL     1       4.975  33.538  34.810  1.00  0.00     0.202 C 
BRANCH   3   8
ATOM      8  C   UNL     1       8.096  32.064  34.339  1.00  0.00     0.191 C 
BRANCH   8   9
ATOM      9  O   UNL     1       9.230  32.454  33.620  1.00  0.00    -0.394 OA
ATOM     10  H   UNL     1       8.955  32.480  32.669  1.00  0.00     0.210 HD
ENDBRANCH   8   9
ENDBRANCH   3   8
BRANCH   4  11
ATOM     11  O   UNL     1       5.923  30.466  35.083  1.00  0.00    -0.387 OA
ATOM     12  H   UNL     1       5.612  29.539  34.901  1.00  0.00     0.211 HD
ENDBRANCH   4  11
BRANCH   6  13
ATOM     13  O   UNL     1       3.742  32.465  33.038  1.00  0.00    -0.387 OA
ATOM     14  H   UNL     1       4.184  31.933  32.328  1.00  0.00     0.211 HD
ENDBRANCH   6  13
BRANCH   7  15
ATOM     15  O   UNL     1       3.919  34.417  35.114  1.00  0.00    -0.385 OA
ATOM     16  H   UNL     1       4.060  34.761  36.035  1.00  0.00     0.211 HD
ENDBRANCH   7  15
ENDBRANCH   1   2
BRANCH   1  17
ATOM     17  C   UNL     1       7.709  35.883  34.004  1.00  0.00     0.224 C 
ATOM     18  C   UNL     1       8.661  36.480  35.055  1.00  0.00     0.208 C 
ATOM     19  O   UNL     1       8.510  35.472  32.908  1.00  0.00    -0.337 OA
ATOM     20  C   UNL     1       9.921  35.653  34.856  1.00  0.00     0.180 C 
ATOM     21  C   UNL     1       9.809  35.180  33.393  1.00  0.00     0.179 C 
BRANCH  17  22
ATOM     22  C   UNL     1       6.637  36.900  33.541  1.00  0.00     0.225 C 
BRANCH  22  23
ATOM     23  O   UNL     1       7.109  37.671  32.472  1.00  0.00    -0.391 OA
ATOM     24  H   UNL     1       7.744  38.317  32.864  1.00  0.00     0.210 HD
ENDBRANCH  22  23
ENDBRANCH  17  22
BRANCH  18  25
ATOM     25  O   UNL     1       8.893  37.864  34.871  1.00  0.00    -0.385 OA
ATOM     26  H   UNL     1       9.337  38.223  35.692  1.00  0.00     0.211 HD
ENDBRANCH  18  25
BRANCH  20  27
ATOM     27  O   UNL     1      11.086  36.405  35.107  1.00  0.00    -0.387 OA
ATOM     28  H   UNL     1      10.954  37.303  34.710  1.00  0.00     0.211 HD
ENDBRANCH  20  27
BRANCH  21  29
ATOM     29  C   UNL     1      10.844  35.805  32.436  1.00  0.00     0.191 C 
BRANCH  29  30
ATOM     30  O   UNL     1      12.091  35.168  32.567  1.00  0.00    -0.394 OA
ATOM     31  H   UNL     1      12.747  35.740  32.091  1.00  0.00     0.210 HD
ENDBRANCH  29  30
ENDBRANCH  21  29
ENDBRANCH   1  17
TORSDOF 13
ENDMDL
MODEL 5
REMARK VINA RESULT:    -2.190      1.424      5.836
REMARK INTER + INTRA:          -4.916
REMARK INTER:                  -3.213
REMARK INTRA:                  -1.703
REMARK UNBOUND:                -1.573
REMARK SMILES OC[C@@H]1O[C@@](CO)(O[C@H]2O[C@@H](CO)[C@@H](O)[C@H](O)[C@@H]2O)[C@H](O)[C@@H]1O
REMARK SMILES IDX 8 1 9 2 11 3 14 4 10 5 16 6 18 7 12 8 13 9 15 11 17 13 19 15
REMARK SMILES IDX 5 17 20 18 4 19 22 20 3 21 6 22 7 23 21 25 23 27 2 29 1 30
REMARK H PARENT 13 10 15 12 17 14 19 16 7 24 21 26 23 28 1 31
REMARK Flexibility Score: inf
ROOT
ATOM      1  O   UNL     1       9.587  35.253  34.057  1.00  0.00    -0.313 OA
ENDROOT
BRANCH   1   2
ATOM      2  C   UNL     1       8.670  34.750  33.093  1.00  0.00     0.285 C 
ATOM      3  C   UNL     1       8.570  32.435  33.692  1.00  0.00     0.178 C 
ATOM      4  C   UNL     1       7.012  32.395  33.813  1.00  0.00     0.177 C 
ATOM      5  O   UNL     1       9.017  33.410  32.757  1.00  0.00    -0.341 OA
ATOM      6  C   UNL     1       6.356  33.681  33.265  1.00  0.00     0.179 C 
ATOM      7  C   UNL     1       7.218  34.899  33.630  1.00  0.00     0.202 C 
BRANCH   3   8
ATOM      8  C   UNL     1       9.347  32.518  35.019  1.00  0.00     0.191 C 
BRANCH   8   9
ATOM      9  O   UNL     1      10.722  32.460  34.772  1.00  0.00    -0.394 OA
ATOM     10  H   UNL     1      10.862  31.673  34.187  1.00  0.00     0.210 HD
ENDBRANCH   8   9
ENDBRANCH   3   8
BRANCH   4  11
ATOM     11  O   UNL     1       6.580  32.113  35.124  1.00  0.00    -0.387 OA
ATOM     12  H   UNL     1       6.080  32.902  35.463  1.00  0.00     0.211 HD
ENDBRANCH   4  11
BRANCH   6  13
ATOM     13  O   UNL     1       6.232  33.589  31.864  1.00  0.00    -0.387 OA
ATOM     14  H   UNL     1       6.536  32.682  31.605  1.00  0.00     0.211 HD
ENDBRANCH   6  13
BRANCH   7  15
ATOM     15  O   UNL     1       6.623  36.093  33.179  1.00  0.00    -0.385 OA
ATOM     16  H   UNL     1       6.629  36.083  32.186  1.00  0.00     0.211 HD
ENDBRANCH   7  15
ENDBRANCH   1   2
BRANCH   1  17
ATOM     17  C   UNL     1      10.564  36.153  33.539  1.00  0.00     0.224 C 
ATOM     18  C   UNL     1      11.475  36.547  34.716  1.00  0.00     0.208 C 
ATOM     19  O   UNL     1      11.388  35.516  32.576  1.00  0.00    -0.337 OA
ATOM     20  C   UNL     1      12.510  35.434  34.709  1.00  0.00     0.180 C 
ATOM     21  C   UNL     1      12.495  34.941  33.249  1.00  0.00     0.179 C 
BRANCH  17  22
ATOM     22  C   UNL     1       9.848  37.377  32.918  1.00  0.00     0.225 C 
BRANCH  22  23
ATOM     23  O   UNL     1       9.063  38.033  33.875  1.00  0.00    -0.391 OA
ATOM     24  H   UNL     1       9.567  37.979  34.722  1.00  0.00     0.210 HD
ENDBRANCH  22  23
ENDBRANCH  17  22
BRANCH  18  25
ATOM     25  O   UNL     1      12.060  37.825  34.561  1.00  0.00    -0.385 OA
ATOM     26  H   UNL     1      12.349  37.928  33.609  1.00  0.00     0.211 HD
ENDBRANCH  18  25
BRANCH  20  27
ATOM     27  O   UNL     1      13.776  35.894  35.125  1.00  0.00    -0.387 OA
ATOM     28  H   UNL     1      13.647  36.776  35.557  1.00  0.00     0.211 HD
ENDBRANCH  20  27
BRANCH  21  29
ATOM     29  C   UNL     1      13.775  35.261  32.451  1.00  0.00     0.191 C 
BRANCH  29  30
ATOM     30  O   UNL     1      14.119  36.618  32.585  1.00  0.00    -0.394 OA
ATOM     31  H   UNL     1      15.104  36.646  32.696  1.00  0.00     0.210 HD
ENDBRANCH  29  30
ENDBRANCH  21  29
ENDBRANCH   1  17
TORSDOF 13
ENDMDL
MODEL 6
REMARK VINA RESULT:    -1.961      1.612      3.664
REMARK INTER + INTRA:          -4.566
REMARK INTER:                  -3.364
REMARK INTRA:                  -1.202
REMARK UNBOUND:                -1.573
REMARK SMILES OC[C@@H]1O[C@@](CO)(O[C@H]2O[C@@H](CO)[C@@H](O)[C@H](O)[C@@H]2O)[C@H](O)[C@@H]1O
REMARK SMILES IDX 8 1 9 2 11 3 14 4 10 5 16 6 18 7 12 8 13 9 15 11 17 13 19 15
REMARK SMILES IDX 5 17 20 18 4 19 22 20 3 21 6 22 7 23 21 25 23 27 2 29 1 30
REMARK H PARENT 13 10 15 12 17 14 19 16 7 24 21 26 23 28 1 31
REMARK Flexibility Score: inf
ROOT
ATOM      1  O   UNL     1       8.806  34.297  32.830  1.00  0.00    -0.313 OA
ENDROOT
BRANCH   1   2
ATOM      2  C   UNL     1       8.645  35.322  33.802  1.00  0.00     0.285 C 
ATOM      3  C   UNL     1      10.921  35.884  34.284  1.00  0.00     0.178 C 
ATOM      4  C   UNL     1      10.742  37.413  34.011  1.00  0.00     0.177 C 
ATOM      5  O   UNL     1       9.720  35.269  34.735  1.00  0.00    -0.341 OA
ATOM      6  C   UNL     1       9.256  37.803  33.852  1.00  0.00     0.179 C 
ATOM      7  C   UNL     1       8.510  36.698  33.089  1.00  0.00     0.202 C 
BRANCH   3   8
ATOM      8  C   UNL     1      11.591  35.074  33.159  1.00  0.00     0.191 C 
BRANCH   8   9
ATOM      9  O   UNL     1      12.417  34.088  33.708  1.00  0.00    -0.394 OA
ATOM     10  H   UNL     1      12.898  34.521  34.459  1.00  0.00     0.210 HD
ENDBRANCH   8   9
ENDBRANCH   3   8
BRANCH   4  11
ATOM     11  O   UNL     1      11.514  37.861  32.921  1.00  0.00    -0.387 OA
ATOM     12  H   UNL     1      11.621  38.846  33.001  1.00  0.00     0.211 HD
ENDBRANCH   4  11
BRANCH   6  13
ATOM     13  O   UNL     1       8.674  37.979  35.123  1.00  0.00    -0.387 OA
ATOM     14  H   UNL     1       8.180  37.147  35.334  1.00  0.00     0.211 HD
ENDBRANCH   6  13
BRANCH   7  15
ATOM     15  O   UNL     1       7.160  37.044  32.891  1.00  0.00    -0.385 OA
ATOM     16  H   UNL     1       7.070  38.023  33.027  1.00  0.00     0.211 HD
ENDBRANCH   7  15
ENDBRANCH   1   2
BRANCH   1  17
ATOM     17  C   UNL     1       8.132  33.078  33.131  1.00  0.00     0.224 C 
ATOM     18  C   UNL     1       7.211  33.364  34.331  1.00  0.00     0.208 C 
ATOM     19  O   UNL     1       7.297  32.674  32.058  1.00  0.00    -0.337 OA
ATOM     20  C   UNL     1       5.952  33.881  33.655  1.00  0.00     0.180 C 
ATOM     21  C   UNL     1       6.017  33.252  32.249  1.00  0.00     0.179 C 
BRANCH  17  22
ATOM     22  C   UNL     1       9.180  31.983  33.446  1.00  0.00     0.225 C 
BRANCH  22  23
ATOM     23  O   UNL     1      10.085  32.424  34.420  1.00  0.00    -0.391 OA
ATOM     24  H   UNL     1      10.843  32.818  33.926  1.00  0.00     0.210 HD
ENDBRANCH  22  23
ENDBRANCH  17  22
BRANCH  18  25
ATOM     25  O   UNL     1       6.963  32.219  35.124  1.00  0.00    -0.385 OA
ATOM     26  H   UNL     1       6.220  31.697  34.704  1.00  0.00     0.211 HD
ENDBRANCH  18  25
BRANCH  20  27
ATOM     27  O   UNL     1       4.790  33.522  34.368  1.00  0.00    -0.387 OA
ATOM     28  H   UNL     1       4.097  33.275  33.706  1.00  0.00     0.211 HD
ENDBRANCH  20  27
BRANCH  21  29
ATOM     29  C   UNL     1       4.946  32.177  31.978  1.00  0.00     0.191 C 
BRANCH  29  30
ATOM     30  O   UNL     1       4.955  31.199  32.989  1.00  0.00    -0.394 OA
ATOM     31  H   UNL     1       4.408  30.444  32.651  1.00  0.00     0.210 HD
ENDBRANCH  29  30
ENDBRANCH  21  29
ENDBRANCH   1  17
TORSDOF 13
ENDMDL
MODEL 7
REMARK VINA RESULT:    -1.792      1.394      2.854
REMARK INTER + INTRA:          -4.307
REMARK INTER:                  -3.572
REMARK INTRA:                  -0.735
REMARK UNBOUND:                -1.573
REMARK SMILES OC[C@@H]1O[C@@](CO)(O[C@H]2O[C@@H](CO)[C@@H](O)[C@H](O)[C@@H]2O)[C@H](O)[C@@H]1O
REMARK SMILES IDX 8 1 9 2 11 3 14 4 10 5 16 6 18 7 12 8 13 9 15 11 17 13 19 15
REMARK SMILES IDX 5 17 20 18 4 19 22 20 3 21 6 22 7 23 21 25 23 27 2 29 1 30
REMARK H PARENT 13 10 15 12 17 14 19 16 7 24 21 26 23 28 1 31
REMARK Flexibility Score: inf
ROOT
ATOM      1  O   UNL     1      10.095  34.968  33.896  1.00  0.00    -0.313 OA
ENDROOT
BRANCH   1   2
ATOM      2  C   UNL     1      10.940  36.014  34.359  1.00  0.00     0.285 C 
ATOM      3  C   UNL     1      13.079  34.941  34.349  1.00  0.00     0.178 C 
ATOM      4  C   UNL     1      13.775  36.037  33.478  1.00  0.00     0.177 C 
ATOM      5  O   UNL     1      12.007  35.463  35.125  1.00  0.00    -0.341 OA
ATOM      6  C   UNL     1      12.888  37.290  33.308  1.00  0.00     0.179 C 
ATOM      7  C   UNL     1      11.419  36.868  33.151  1.00  0.00     0.202 C 
BRANCH   3   8
ATOM      8  C   UNL     1      12.674  33.651  33.610  1.00  0.00     0.191 C 
BRANCH   8   9
ATOM      9  O   UNL     1      13.797  32.841  33.415  1.00  0.00    -0.394 OA
ATOM     10  H   UNL     1      14.425  33.062  34.149  1.00  0.00     0.210 HD
ENDBRANCH   8   9
ENDBRANCH   3   8
BRANCH   4  11
ATOM     11  O   UNL     1      14.213  35.541  32.235  1.00  0.00    -0.387 OA
ATOM     12  H   UNL     1      14.184  34.548  32.270  1.00  0.00     0.211 HD
ENDBRANCH   4  11
BRANCH   6  13
ATOM     13  O   UNL     1      13.026  38.123  34.437  1.00  0.00    -0.387 OA
ATOM     14  H   UNL     1      13.254  39.028  34.104  1.00  0.00     0.211 HD
ENDBRANCH   6  13
BRANCH   7  15
ATOM     15  O   UNL     1      10.591  37.988  32.952  1.00  0.00    -0.385 OA
ATOM     16  H   UNL     1       9.706  37.793  33.357  1.00  0.00     0.211 HD
ENDBRANCH   7  15
ENDBRANCH   1   2
BRANCH   1  17
ATOM     17  C   UNL     1       8.740  35.060  34.327  1.00  0.00     0.224 C 
ATOM     18  C   UNL     1       7.865  35.007  33.061  1.00  0.00     0.208 C 
ATOM     19  O   UNL     1       8.377  33.945  35.124  1.00  0.00    -0.337 OA
ATOM     20  C   UNL     1       7.687  33.512  32.854  1.00  0.00     0.180 C 
ATOM     21  C   UNL     1       7.877  32.931  34.269  1.00  0.00     0.179 C 
BRANCH  17  22
ATOM     22  C   UNL     1       8.547  36.378  35.116  1.00  0.00     0.225 C 
BRANCH  22  23
ATOM     23  O   UNL     1       8.421  37.467  34.245  1.00  0.00    -0.391 OA
ATOM     24  H   UNL     1       7.537  37.371  33.817  1.00  0.00     0.210 HD
ENDBRANCH  22  23
ENDBRANCH  17  22
BRANCH  18  25
ATOM     25  O   UNL     1       6.630  35.679  33.212  1.00  0.00    -0.385 OA
ATOM     26  H   UNL     1       6.014  35.095  33.741  1.00  0.00     0.211 HD
ENDBRANCH  18  25
BRANCH  20  27
ATOM     27  O   UNL     1       6.430  33.207  32.296  1.00  0.00    -0.387 OA
ATOM     28  H   UNL     1       5.746  33.363  32.995  1.00  0.00     0.211 HD
ENDBRANCH  20  27
BRANCH  21  29
ATOM     29  C   UNL     1       6.598  32.344  34.899  1.00  0.00     0.191 C 
BRANCH  29  30
ATOM     30  O   UNL     1       6.298  31.089  34.337  1.00  0.00    -0.394 OA
ATOM     31  H   UNL     1       6.107  31.252  33.378  1.00  0.00     0.210 HD
ENDBRANCH  29  30
ENDBRANCH  21  29
ENDBRANCH   1  17
TORSDOF 13
ENDMDL
MODEL 8
REMARK VINA RESULT:    -1.577      1.982      6.154
REMARK INTER + INTRA:          -3.980
REMARK INTER:                  -3.348
REMARK INTRA:                  -0.632
REMARK UNBOUND:                -1.573
REMARK SMILES OC[C@@H]1O[C@@](CO)(O[C@H]2O[C@@H](CO)[C@@H](O)[C@H](O)[C@@H]2O)[C@H](O)[C@@H]1O
REMARK SMILES IDX 8 1 9 2 11 3 14 4 10 5 16 6 18 7 12 8 13 9 15 11 17 13 19 15
REMARK SMILES IDX 5 17 20 18 4 19 22 20 3 21 6 22 7 23 21 25 23 27 2 29 1 30
REMARK H PARENT 13 10 15 12 17 14 19 16 7 24 21 26 23 28 1 31
REMARK Flexibility Score: inf
ROOT
ATOM      1  O   UNL     1       7.311  34.342  33.990  1.00  0.00    -0.313 OA
ENDROOT
BRANCH   1   2
ATOM      2  C   UNL     1       7.142  32.930  33.959  1.00  0.00     0.285 C 
ATOM      3  C   UNL     1       5.030  32.678  35.057  1.00  0.00     0.178 C 
ATOM      4  C   UNL     1       4.382  31.839  33.909  1.00  0.00     0.177 C 
ATOM      5  O   UNL     1       6.441  32.507  35.125  1.00  0.00    -0.341 OA
ATOM      6  C   UNL     1       5.422  31.394  32.858  1.00  0.00     0.179 C 
ATOM      7  C   UNL     1       6.443  32.520  32.632  1.00  0.00     0.202 C 
BRANCH   3   8
ATOM      8  C   UNL     1       4.632  34.165  35.111  1.00  0.00     0.191 C 
BRANCH   8   9
ATOM      9  O   UNL     1       3.239  34.285  35.125  1.00  0.00    -0.394 OA
ATOM     10  H   UNL     1       2.914  33.631  35.796  1.00  0.00     0.210 HD
ENDBRANCH   8   9
ENDBRANCH   3   8
BRANCH   4  11
ATOM     11  O   UNL     1       3.289  32.496  33.310  1.00  0.00    -0.387 OA
ATOM     12  H   UNL     1       3.425  32.488  32.325  1.00  0.00     0.211 HD
ENDBRANCH   4  11
BRANCH   6  13
ATOM     13  O   UNL     1       6.085  30.235  33.308  1.00  0.00    -0.387 OA
ATOM     14  H   UNL     1       6.791  30.531  33.938  1.00  0.00     0.211 HD
ENDBRANCH   6  13
BRANCH   7  15
ATOM     15  O   UNL     1       7.381  32.160  31.646  1.00  0.00    -0.385 OA
ATOM     16  H   UNL     1       8.072  31.589  32.073  1.00  0.00     0.211 HD
ENDBRANCH   7  15
ENDBRANCH   1   2
BRANCH   1  17
ATOM     17  C   UNL     1       8.635  34.778  34.286  1.00  0.00     0.224 C 
ATOM     18  C   UNL     1       9.278  35.189  32.949  1.00  0.00     0.208 C 
ATOM     19  O   UNL     1       8.624  35.933  35.110  1.00  0.00    -0.337 OA
ATOM     20  C   UNL     1       8.842  36.639  32.814  1.00  0.00     0.180 C 
ATOM     21  C   UNL     1       8.598  37.075  34.272  1.00  0.00     0.179 C 
BRANCH  17  22
ATOM     22  C   UNL     1       9.406  33.626  34.976  1.00  0.00     0.225 C 
BRANCH  22  23
ATOM     23  O   UNL     1       9.953  32.754  34.027  1.00  0.00    -0.391 OA
ATOM     24  H   UNL     1      10.844  33.116  33.807  1.00  0.00     0.210 HD
ENDBRANCH  22  23
ENDBRANCH  17  22
BRANCH  18  25
ATOM     25  O   UNL     1      10.686  35.049  32.944  1.00  0.00    -0.385 OA
ATOM     26  H   UNL     1      11.010  35.143  32.003  1.00  0.00     0.211 HD
ENDBRANCH  18  25
BRANCH  20  27
ATOM     27  O   UNL     1       9.816  37.419  32.158  1.00  0.00    -0.387 OA
ATOM     28  H   UNL     1      10.210  38.031  32.829  1.00  0.00     0.211 HD
ENDBRANCH  20  27
BRANCH  21  29
ATOM     29  C   UNL     1       9.613  38.104  34.811  1.00  0.00     0.191 C 
BRANCH  29  30
ATOM     30  O   UNL     1      10.917  37.576  34.786  1.00  0.00    -0.394 OA
ATOM     31  H   UNL     1      11.342  37.925  33.960  1.00  0.00     0.210 HD
ENDBRANCH  29  30
ENDBRANCH  21  29
ENDBRANCH   1  17
TORSDOF 13
ENDMDL
