MODEL 1
REMARK VINA RESULT:    -3.670      0.000      0.000
REMARK INTER + INTRA:          -9.882
REMARK INTER:                  -6.888
REMARK INTRA:                  -2.993
REMARK UNBOUND:                -2.993
REMARK SMILES CCCCCCCCC=CCCCCCCCC(=O)[O-]
REMARK SMILES IDX 10 1 9 2 11 3 12 4 13 5 14 6 15 7 16 8 17 9 18 10 19 11
REMARK SMILES IDX 20 12 8 13 7 14 6 15 5 16 4 17 3 18 2 19 1 20
REMARK H PARENT
REMARK Flexibility Score: inf
ROOT
ATOM      1  C   UNL     1     -10.838 -11.901  26.725  1.00  0.00    -0.031 C 
ATOM      2  C   UNL     1     -12.134 -12.244  26.767  1.00  0.00    -0.031 C 
ENDROOT
BRANCH   1   3
ATOM      3  C   UNL     1     -10.100 -11.780  25.421  1.00  0.00     0.027 C 
BRANCH   3   4
ATOM      4  C   UNL     1     -11.074 -11.647  24.242  1.00  0.00     0.004 C 
BRANCH   4   5
ATOM      5  C   UNL     1     -10.808 -12.688  23.130  1.00  0.00     0.000 C 
BRANCH   5   6
ATOM      6  C   UNL     1     -10.544 -14.107  23.666  1.00  0.00     0.000 C 
BRANCH   6   7
ATOM      7  C   UNL     1     -11.814 -14.937  23.930  1.00  0.00     0.000 C 
BRANCH   7   8
ATOM      8  C   UNL     1     -11.807 -15.662  25.295  1.00  0.00     0.006 C 
BRANCH   8   9
ATOM      9  C   UNL     1     -10.440 -15.611  25.987  1.00  0.00     0.053 C 
BRANCH   9  10
ATOM     10  C   UNL     1     -10.127 -16.928  26.625  1.00  0.00     0.041 C 
ATOM     11  O   UNL     1     -10.987 -17.848  26.634  1.00  0.00    -0.550 OA
ATOM     12  O   UNL     1      -8.903 -17.125  27.251  1.00  0.00    -0.550 OA
ENDBRANCH   9  10
ENDBRANCH   8   9
ENDBRANCH   7   8
ENDBRANCH   6   7
ENDBRANCH   5   6
ENDBRANCH   4   5
ENDBRANCH   3   4
ENDBRANCH   1   3
BRANCH   2  13
ATOM     13  C   UNL     1     -12.861 -12.431  28.072  1.00  0.00     0.027 C 
BRANCH  13  14
ATOM     14  C   UNL     1     -13.364 -11.096  28.633  1.00  0.00     0.004 C 
BRANCH  14  15
ATOM     15  C   UNL     1     -12.461 -10.559  29.757  1.00  0.00     0.000 C 
BRANCH  15  16
ATOM     16  C   UNL     1     -11.585  -9.378  29.288  1.00  0.00     0.000 C 
BRANCH  16  17
ATOM     17  C   UNL     1     -12.192  -8.582  28.118  1.00  0.00    -0.000 C 
BRANCH  17  18
ATOM     18  C   UNL     1     -11.266  -8.418  26.900  1.00  0.00    -0.000 C 
BRANCH  18  19
ATOM     19  C   UNL     1     -12.040  -8.218  25.588  1.00  0.00    -0.003 C 
ATOM     20  C   UNL     1     -13.374  -8.957  25.621  1.00  0.00     0.004 C 
ENDBRANCH  18  19
ENDBRANCH  17  18
ENDBRANCH  16  17
ENDBRANCH  15  16
ENDBRANCH  14  15
ENDBRANCH  13  14
ENDBRANCH   2  13
TORSDOF 15
ENDMDL
MODEL 2
REMARK VINA RESULT:    -3.649      3.335      5.551
REMARK INTER + INTRA:          -9.842
REMARK INTER:                  -7.219
REMARK INTRA:                  -2.623
REMARK UNBOUND:                -2.993
REMARK SMILES CCCCCCCCC=CCCCCCCCC(=O)[O-]
REMARK SMILES IDX 10 1 9 2 11 3 12 4 13 5 14 6 15 7 16 8 17 9 18 10 19 11
REMARK SMILES IDX 20 12 8 13 7 14 6 15 5 16 4 17 3 18 2 19 1 20
REMARK H PARENT
REMARK Flexibility Score: inf
ROOT
ATOM      1  C   UNL     1     -12.587  -8.407  26.053  1.00  0.00    -0.031 C 
ATOM      2  C   UNL     1     -13.823  -8.491  26.566  1.00  0.00    -0.031 C 
ENDROOT
BRANCH   1   3
ATOM      3  C   UNL     1     -11.366  -8.545  26.919  1.00  0.00     0.027 C 
BRANCH   3   4
ATOM      4  C   UNL     1     -11.677  -8.184  28.378  1.00  0.00     0.004 C 
BRANCH   4   5
ATOM      5  C   UNL     1     -11.579  -9.401  29.326  1.00  0.00     0.000 C 
BRANCH   5   6
ATOM      6  C   UNL     1     -11.078 -10.682  28.634  1.00  0.00     0.000 C 
BRANCH   6   7
ATOM      7  C   UNL     1     -12.000 -11.903  28.803  1.00  0.00     0.000 C 
BRANCH   7   8
ATOM      8  C   UNL     1     -13.386 -11.730  28.139  1.00  0.00     0.006 C 
BRANCH   8   9
ATOM      9  C   UNL     1     -13.617 -12.714  26.986  1.00  0.00     0.053 C 
BRANCH   9  10
ATOM     10  C   UNL     1     -13.377 -12.044  25.670  1.00  0.00     0.041 C 
ATOM     11  O   UNL     1     -14.347 -11.752  24.922  1.00  0.00    -0.550 OA
ATOM     12  O   UNL     1     -12.079 -11.785  25.248  1.00  0.00    -0.550 OA
ENDBRANCH   9  10
ENDBRANCH   8   9
ENDBRANCH   7   8
ENDBRANCH   6   7
ENDBRANCH   5   6
ENDBRANCH   4   5
ENDBRANCH   3   4
ENDBRANCH   1   3
BRANCH   2  13
ATOM     13  C   UNL     1     -15.048  -8.288  25.715  1.00  0.00     0.027 C 
BRANCH  13  14
ATOM     14  C   UNL     1     -15.834  -7.044  26.147  1.00  0.00     0.004 C 
BRANCH  14  15
ATOM     15  C   UNL     1     -15.951  -6.008  25.016  1.00  0.00     0.000 C 
BRANCH  15  16
ATOM     16  C   UNL     1     -14.571  -5.564  24.484  1.00  0.00     0.000 C 
BRANCH  16  17
ATOM     17  C   UNL     1     -14.337  -5.911  23.001  1.00  0.00    -0.000 C 
BRANCH  17  18
ATOM     18  C   UNL     1     -13.065  -6.731  22.725  1.00  0.00    -0.000 C 
BRANCH  18  19
ATOM     19  C   UNL     1     -13.314  -7.908  21.769  1.00  0.00    -0.003 C 
ATOM     20  C   UNL     1     -13.350  -9.231  22.528  1.00  0.00     0.004 C 
ENDBRANCH  18  19
ENDBRANCH  17  18
ENDBRANCH  16  17
ENDBRANCH  15  16
ENDBRANCH  14  15
ENDBRANCH  13  14
ENDBRANCH   2  13
TORSDOF 15
ENDMDL
MODEL 3
REMARK VINA RESULT:    -3.628      2.802      5.317
REMARK INTER + INTRA:          -9.802
REMARK INTER:                  -7.288
REMARK INTRA:                  -2.514
REMARK UNBOUND:                -2.993
REMARK SMILES CCCCCCCCC=CCCCCCCCC(=O)[O-]
REMARK SMILES IDX 10 1 9 2 11 3 12 4 13 5 14 6 15 7 16 8 17 9 18 10 19 11
REMARK SMILES IDX 20 12 8 13 7 14 6 15 5 16 4 17 3 18 2 19 1 20
REMARK H PARENT
REMARK Flexibility Score: inf
ROOT
ATOM      1  C   UNL     1     -12.233  -8.696  27.366  1.00  0.00    -0.031 C 
ATOM      2  C   UNL     1     -11.621  -8.827  26.181  1.00  0.00    -0.031 C 
ENDROOT
BRANCH   1   3
ATOM      3  C   UNL     1     -11.552  -8.037  28.533  1.00  0.00     0.027 C 
BRANCH   3   4
ATOM      4  C   UNL     1     -11.622  -8.919  29.788  1.00  0.00     0.004 C 
BRANCH   4   5
ATOM      5  C   UNL     1     -11.083 -10.347  29.542  1.00  0.00     0.000 C 
BRANCH   5   6
ATOM      6  C   UNL     1     -12.082 -11.456  29.919  1.00  0.00     0.000 C 
BRANCH   6   7
ATOM      7  C   UNL     1     -13.542 -11.160  29.531  1.00  0.00     0.000 C 
BRANCH   7   8
ATOM      8  C   UNL     1     -13.951 -11.753  28.162  1.00  0.00     0.006 C 
BRANCH   8   9
ATOM      9  C   UNL     1     -12.793 -12.467  27.455  1.00  0.00     0.053 C 
BRANCH   9  10
ATOM     10  C   UNL     1     -13.301 -13.265  26.296  1.00  0.00     0.041 C 
ATOM     11  O   UNL     1     -12.977 -14.476  26.171  1.00  0.00    -0.550 OA
ATOM     12  O   UNL     1     -14.092 -12.661  25.328  1.00  0.00    -0.550 OA
ENDBRANCH   9  10
ENDBRANCH   8   9
ENDBRANCH   7   8
ENDBRANCH   6   7
ENDBRANCH   5   6
ENDBRANCH   4   5
ENDBRANCH   3   4
ENDBRANCH   1   3
BRANCH   2  13
ATOM     13  C   UNL     1     -12.272  -9.545  25.029  1.00  0.00     0.027 C 
BRANCH  13  14
ATOM     14  C   UNL     1     -12.964  -8.565  24.073  1.00  0.00     0.004 C 
BRANCH  14  15
ATOM     15  C   UNL     1     -12.536  -7.109  24.323  1.00  0.00     0.000 C 
BRANCH  15  16
ATOM     16  C   UNL     1     -13.746  -6.159  24.455  1.00  0.00     0.000 C 
BRANCH  16  17
ATOM     17  C   UNL     1     -15.106  -6.883  24.459  1.00  0.00    -0.000 C 
BRANCH  17  18
ATOM     18  C   UNL     1     -15.914  -6.730  25.759  1.00  0.00    -0.000 C 
BRANCH  18  19
ATOM     19  C   UNL     1     -15.683  -7.887  26.742  1.00  0.00    -0.003 C 
ATOM     20  C   UNL     1     -15.924  -9.235  26.068  1.00  0.00     0.004 C 
ENDBRANCH  18  19
ENDBRANCH  17  18
ENDBRANCH  16  17
ENDBRANCH  15  16
ENDBRANCH  14  15
ENDBRANCH  13  14
ENDBRANCH   2  13
TORSDOF 15
ENDMDL
MODEL 4
REMARK VINA RESULT:    -3.562      2.571      4.921
REMARK INTER + INTRA:          -9.679
REMARK INTER:                  -7.038
REMARK INTRA:                  -2.641
REMARK UNBOUND:                -2.993
REMARK SMILES CCCCCCCCC=CCCCCCCCC(=O)[O-]
REMARK SMILES IDX 10 1 9 2 11 3 12 4 13 5 14 6 15 7 16 8 17 9 18 10 19 11
REMARK SMILES IDX 20 12 8 13 7 14 6 15 5 16 4 17 3 18 2 19 1 20
REMARK H PARENT
REMARK Flexibility Score: inf
ROOT
ATOM      1  C   UNL     1     -11.466  -9.057  27.587  1.00  0.00    -0.031 C 
ATOM      2  C   UNL     1     -12.343  -8.323  26.888  1.00  0.00    -0.031 C 
ENDROOT
BRANCH   1   3
ATOM      3  C   UNL     1     -11.639  -9.296  29.061  1.00  0.00     0.027 C 
BRANCH   3   4
ATOM      4  C   UNL     1     -12.137 -10.721  29.338  1.00  0.00     0.004 C 
BRANCH   4   5
ATOM      5  C   UNL     1     -13.645 -10.893  29.042  1.00  0.00     0.000 C 
BRANCH   5   6
ATOM      6  C   UNL     1     -13.940 -11.893  27.909  1.00  0.00     0.000 C 
BRANCH   6   7
ATOM      7  C   UNL     1     -12.691 -12.564  27.308  1.00  0.00     0.000 C 
BRANCH   7   8
ATOM      8  C   UNL     1     -12.456 -12.215  25.820  1.00  0.00     0.006 C 
BRANCH   8   9
ATOM      9  C   UNL     1     -13.592 -12.697  24.911  1.00  0.00     0.053 C 
BRANCH   9  10
ATOM     10  C   UNL     1     -13.571 -14.189  24.793  1.00  0.00     0.041 C 
ATOM     11  O   UNL     1     -14.535 -14.873  25.230  1.00  0.00    -0.550 OA
ATOM     12  O   UNL     1     -12.467 -14.828  24.245  1.00  0.00    -0.550 OA
ENDBRANCH   9  10
ENDBRANCH   8   9
ENDBRANCH   7   8
ENDBRANCH   6   7
ENDBRANCH   5   6
ENDBRANCH   4   5
ENDBRANCH   3   4
ENDBRANCH   1   3
BRANCH   2  13
ATOM     13  C   UNL     1     -12.139  -8.026  25.426  1.00  0.00     0.027 C 
BRANCH  13  14
ATOM     14  C   UNL     1     -13.202  -8.711  24.558  1.00  0.00     0.004 C 
BRANCH  14  15
ATOM     15  C   UNL     1     -14.458  -9.085  25.363  1.00  0.00     0.000 C 
BRANCH  15  16
ATOM     16  C   UNL     1     -15.685  -8.239  24.959  1.00  0.00     0.000 C 
BRANCH  16  17
ATOM     17  C   UNL     1     -15.784  -6.895  25.707  1.00  0.00    -0.000 C 
BRANCH  17  18
ATOM     18  C   UNL     1     -15.263  -5.680  24.920  1.00  0.00    -0.000 C 
BRANCH  18  19
ATOM     19  C   UNL     1     -15.640  -5.730  23.432  1.00  0.00    -0.003 C 
ATOM     20  C   UNL     1     -14.403  -5.604  22.548  1.00  0.00     0.004 C 
ENDBRANCH  18  19
ENDBRANCH  17  18
ENDBRANCH  16  17
ENDBRANCH  15  16
ENDBRANCH  14  15
ENDBRANCH  13  14
ENDBRANCH   2  13
TORSDOF 15
ENDMDL
MODEL 5
REMARK VINA RESULT:    -3.540      1.996      2.672
REMARK INTER + INTRA:          -9.637
REMARK INTER:                  -6.963
REMARK INTRA:                  -2.674
REMARK UNBOUND:                -2.993
REMARK SMILES CCCCCCCCC=CCCCCCCCC(=O)[O-]
REMARK SMILES IDX 10 1 9 2 11 3 12 4 13 5 14 6 15 7 16 8 17 9 18 10 19 11
REMARK SMILES IDX 20 12 8 13 7 14 6 15 5 16 4 17 3 18 2 19 1 20
REMARK H PARENT
REMARK Flexibility Score: inf
ROOT
ATOM      1  C   UNL     1     -12.812 -12.399  26.662  1.00  0.00    -0.031 C 
ATOM      2  C   UNL     1     -12.854 -12.278  27.997  1.00  0.00    -0.031 C 
ENDROOT
BRANCH   1   3
ATOM      3  C   UNL     1     -14.068 -12.493  25.842  1.00  0.00     0.027 C 
BRANCH   3   4
ATOM      4  C   UNL     1     -13.769 -13.005  24.425  1.00  0.00     0.004 C 
BRANCH   4   5
ATOM      5  C   UNL     1     -14.595 -14.259  24.058  1.00  0.00     0.000 C 
BRANCH   5   6
ATOM      6  C   UNL     1     -15.186 -14.985  25.280  1.00  0.00     0.000 C 
BRANCH   6   7
ATOM      7  C   UNL     1     -14.473 -16.298  25.651  1.00  0.00     0.000 C 
BRANCH   7   8
ATOM      8  C   UNL     1     -13.222 -16.095  26.537  1.00  0.00     0.006 C 
BRANCH   8   9
ATOM      9  C   UNL     1     -11.944 -16.648  25.894  1.00  0.00     0.053 C 
BRANCH   9  10
ATOM     10  C   UNL     1     -11.117 -15.535  25.332  1.00  0.00     0.041 C 
ATOM     11  O   UNL     1     -11.123 -15.304  24.094  1.00  0.00    -0.550 OA
ATOM     12  O   UNL     1     -10.303 -14.783  26.169  1.00  0.00    -0.550 OA
ENDBRANCH   9  10
ENDBRANCH   8   9
ENDBRANCH   7   8
ENDBRANCH   6   7
ENDBRANCH   5   6
ENDBRANCH   4   5
ENDBRANCH   3   4
ENDBRANCH   1   3
BRANCH   2  13
ATOM     13  C   UNL     1     -11.599 -12.250  28.828  1.00  0.00     0.027 C 
BRANCH  13  14
ATOM     14  C   UNL     1     -10.903 -10.886  28.752  1.00  0.00     0.004 C 
BRANCH  14  15
ATOM     15  C   UNL     1     -11.805  -9.743  29.251  1.00  0.00     0.000 C 
BRANCH  15  16
ATOM     16  C   UNL     1     -11.643  -8.461  28.407  1.00  0.00     0.000 C 
BRANCH  16  17
ATOM     17  C   UNL     1     -11.279  -8.729  26.934  1.00  0.00    -0.000 C 
BRANCH  17  18
ATOM     18  C   UNL     1     -12.479  -8.782  25.973  1.00  0.00    -0.000 C 
BRANCH  18  19
ATOM     19  C   UNL     1     -13.723  -8.079  26.537  1.00  0.00    -0.003 C 
ATOM     20  C   UNL     1     -14.848  -9.078  26.792  1.00  0.00     0.004 C 
ENDBRANCH  18  19
ENDBRANCH  17  18
ENDBRANCH  16  17
ENDBRANCH  15  16
ENDBRANCH  14  15
ENDBRANCH  13  14
ENDBRANCH   2  13
TORSDOF 15
ENDMDL
MODEL 6
REMARK VINA RESULT:    -3.535      4.068      6.993
REMARK INTER + INTRA:          -9.629
REMARK INTER:                  -7.167
REMARK INTRA:                  -2.462
REMARK UNBOUND:                -2.993
REMARK SMILES CCCCCCCCC=CCCCCCCCC(=O)[O-]
REMARK SMILES IDX 10 1 9 2 11 3 12 4 13 5 14 6 15 7 16 8 17 9 18 10 19 11
REMARK SMILES IDX 20 12 8 13 7 14 6 15 5 16 4 17 3 18 2 19 1 20
REMARK H PARENT
REMARK Flexibility Score: inf
ROOT
ATOM      1  C   UNL     1     -13.723  -8.194  26.344  1.00  0.00    -0.031 C 
ATOM      2  C   UNL     1     -12.480  -8.414  25.891  1.00  0.00    -0.031 C 
ENDROOT
BRANCH   1   3
ATOM      3  C   UNL     1     -14.881  -8.010  25.403  1.00  0.00     0.027 C 
BRANCH   3   4
ATOM      4  C   UNL     1     -15.827  -6.906  25.896  1.00  0.00     0.004 C 
BRANCH   4   5
ATOM      5  C   UNL     1     -15.822  -5.663  24.977  1.00  0.00     0.000 C 
BRANCH   5   6
ATOM      6  C   UNL     1     -15.935  -6.005  23.480  1.00  0.00     0.000 C 
BRANCH   6   7
ATOM      7  C   UNL     1     -14.750  -5.524  22.623  1.00  0.00     0.000 C 
BRANCH   7   8
ATOM      8  C   UNL     1     -14.183  -6.612  21.682  1.00  0.00     0.006 C 
BRANCH   8   9
ATOM      9  C   UNL     1     -13.034  -7.404  22.317  1.00  0.00     0.053 C 
BRANCH   9  10
ATOM     10  C   UNL     1     -13.090  -8.838  21.892  1.00  0.00     0.041 C 
ATOM     11  O   UNL     1     -13.378  -9.736  22.728  1.00  0.00    -0.550 OA
ATOM     12  O   UNL     1     -12.776  -9.189  20.586  1.00  0.00    -0.550 OA
ENDBRANCH   9  10
ENDBRANCH   8   9
ENDBRANCH   7   8
ENDBRANCH   6   7
ENDBRANCH   5   6
ENDBRANCH   4   5
ENDBRANCH   3   4
ENDBRANCH   1   3
BRANCH   2  13
ATOM     13  C   UNL     1     -11.307  -8.533  26.827  1.00  0.00     0.027 C 
BRANCH  13  14
ATOM     14  C   UNL     1     -11.758  -8.602  28.290  1.00  0.00     0.004 C 
BRANCH  14  15
ATOM     15  C   UNL     1     -11.497  -9.982  28.916  1.00  0.00     0.000 C 
BRANCH  15  16
ATOM     16  C   UNL     1     -12.737 -10.537  29.649  1.00  0.00     0.000 C 
BRANCH  16  17
ATOM     17  C   UNL     1     -13.792 -11.148  28.706  1.00  0.00    -0.000 C 
BRANCH  17  18
ATOM     18  C   UNL     1     -13.245 -12.191  27.717  1.00  0.00    -0.000 C 
BRANCH  18  19
ATOM     19  C   UNL     1     -13.722 -11.950  26.277  1.00  0.00    -0.003 C 
ATOM     20  C   UNL     1     -12.601 -12.218  25.277  1.00  0.00     0.004 C 
ENDBRANCH  18  19
ENDBRANCH  17  18
ENDBRANCH  16  17
ENDBRANCH  15  16
ENDBRANCH  14  15
ENDBRANCH  13  14
ENDBRANCH   2  13
TORSDOF 15
ENDMDL
MODEL 7
REMARK VINA RESULT:    -3.531      2.634      4.507
REMARK INTER + INTRA:          -9.620
REMARK INTER:                  -6.543
REMARK INTRA:                  -3.077
REMARK UNBOUND:                -2.993
REMARK SMILES CCCCCCCCC=CCCCCCCCC(=O)[O-]
REMARK SMILES IDX 10 1 9 2 11 3 12 4 13 5 14 6 15 7 16 8 17 9 18 10 19 11
REMARK SMILES IDX 20 12 8 13 7 14 6 15 5 16 4 17 3 18 2 19 1 20
REMARK H PARENT
REMARK Flexibility Score: inf
ROOT
ATOM      1  C   UNL     1     -14.804 -11.409  25.211  1.00  0.00    -0.031 C 
ATOM      2  C   UNL     1     -14.559 -10.421  26.084  1.00  0.00    -0.031 C 
ENDROOT
BRANCH   1   3
ATOM      3  C   UNL     1     -14.437 -12.835  25.514  1.00  0.00     0.027 C 
BRANCH   3   4
ATOM      4  C   UNL     1     -13.337 -12.909  26.583  1.00  0.00     0.004 C 
BRANCH   4   5
ATOM      5  C   UNL     1     -12.115 -13.737  26.124  1.00  0.00     0.000 C 
BRANCH   5   6
ATOM      6  C   UNL     1     -10.767 -13.041  26.384  1.00  0.00     0.000 C 
BRANCH   6   7
ATOM      7  C   UNL     1     -10.487 -11.829  25.477  1.00  0.00     0.000 C 
BRANCH   7   8
ATOM      8  C   UNL     1     -10.464 -12.174  23.971  1.00  0.00     0.006 C 
BRANCH   8   9
ATOM      9  C   UNL     1     -11.642 -11.561  23.204  1.00  0.00     0.053 C 
BRANCH   9  10
ATOM     10  C   UNL     1     -12.228 -12.562  22.257  1.00  0.00     0.041 C 
ATOM     11  O   UNL     1     -12.291 -13.777  22.581  1.00  0.00    -0.550 OA
ATOM     12  O   UNL     1     -12.659 -12.160  21.000  1.00  0.00    -0.550 OA
ENDBRANCH   9  10
ENDBRANCH   8   9
ENDBRANCH   7   8
ENDBRANCH   6   7
ENDBRANCH   5   6
ENDBRANCH   4   5
ENDBRANCH   3   4
ENDBRANCH   1   3
BRANCH   2  13
ATOM     13  C   UNL     1     -14.865  -8.984  25.758  1.00  0.00     0.027 C 
BRANCH  13  14
ATOM     14  C   UNL     1     -13.710  -8.058  26.156  1.00  0.00     0.004 C 
BRANCH  14  15
ATOM     15  C   UNL     1     -12.335  -8.675  25.847  1.00  0.00     0.000 C 
BRANCH  15  16
ATOM     16  C   UNL     1     -11.325  -8.456  26.993  1.00  0.00     0.000 C 
BRANCH  16  17
ATOM     17  C   UNL     1     -11.826  -8.950  28.364  1.00  0.00    -0.000 C 
BRANCH  17  18
ATOM     18  C   UNL     1     -11.345 -10.358  28.756  1.00  0.00    -0.000 C 
BRANCH  18  19
ATOM     19  C   UNL     1     -12.148 -10.956  29.922  1.00  0.00    -0.003 C 
ATOM     20  C   UNL     1     -13.646 -10.906  29.637  1.00  0.00     0.004 C 
ENDBRANCH  18  19
ENDBRANCH  17  18
ENDBRANCH  16  17
ENDBRANCH  15  16
ENDBRANCH  14  15
ENDBRANCH  13  14
ENDBRANCH   2  13
TORSDOF 15
ENDMDL
MODEL 8
REMARK VINA RESULT:    -3.528      3.650      7.256
REMARK INTER + INTRA:          -9.616
REMARK INTER:                  -6.946
REMARK INTRA:                  -2.670
REMARK UNBOUND:                -2.993
REMARK SMILES CCCCCCCCC=CCCCCCCCC(=O)[O-]
REMARK SMILES IDX 10 1 9 2 11 3 12 4 13 5 14 6 15 7 16 8 17 9 18 10 19 11
REMARK SMILES IDX 20 12 8 13 7 14 6 15 5 16 4 17 3 18 2 19 1 20
REMARK H PARENT
REMARK Flexibility Score: inf
ROOT
ATOM      1  C   UNL     1     -13.054 -11.973  28.162  1.00  0.00    -0.031 C 
ATOM      2  C   UNL     1     -13.806 -11.969  27.051  1.00  0.00    -0.031 C 
ENDROOT
BRANCH   1   3
ATOM      3  C   UNL     1     -13.545 -11.362  29.445  1.00  0.00     0.027 C 
BRANCH   3   4
ATOM      4  C   UNL     1     -12.472 -10.466  30.079  1.00  0.00     0.004 C 
BRANCH   4   5
ATOM      5  C   UNL     1     -11.359 -10.073  29.081  1.00  0.00     0.000 C 
BRANCH   5   6
ATOM      6  C   UNL     1     -11.593  -8.712  28.400  1.00  0.00     0.000 C 
BRANCH   6   7
ATOM      7  C   UNL     1     -11.383  -8.716  26.875  1.00  0.00     0.000 C 
BRANCH   7   8
ATOM      8  C   UNL     1     -12.677  -8.451  26.071  1.00  0.00     0.006 C 
BRANCH   8   9
ATOM      9  C   UNL     1     -13.911  -8.294  26.967  1.00  0.00     0.053 C 
BRANCH   9  10
ATOM     10  C   UNL     1     -15.153  -8.208  26.137  1.00  0.00     0.041 C 
ATOM     11  O   UNL     1     -15.884  -7.184  26.195  1.00  0.00    -0.550 OA
ATOM     12  O   UNL     1     -15.529  -9.277  25.335  1.00  0.00    -0.550 OA
ENDBRANCH   9  10
ENDBRANCH   8   9
ENDBRANCH   7   8
ENDBRANCH   6   7
ENDBRANCH   5   6
ENDBRANCH   4   5
ENDBRANCH   3   4
ENDBRANCH   1   3
BRANCH   2  13
ATOM     13  C   UNL     1     -13.294 -12.520  25.747  1.00  0.00     0.027 C 
BRANCH  13  14
ATOM     14  C   UNL     1     -11.774 -12.718  25.778  1.00  0.00     0.004 C 
BRANCH  14  15
ATOM     15  C   UNL     1     -11.261 -13.483  24.546  1.00  0.00     0.000 C 
BRANCH  15  16
ATOM     16  C   UNL     1     -11.962 -14.848  24.372  1.00  0.00     0.000 C 
BRANCH  16  17
ATOM     17  C   UNL     1     -11.282 -15.996  25.143  1.00  0.00    -0.000 C 
BRANCH  17  18
ATOM     18  C   UNL     1     -12.244 -16.905  25.926  1.00  0.00    -0.000 C 
BRANCH  18  19
ATOM     19  C   UNL     1     -13.187 -16.117  26.849  1.00  0.00    -0.003 C 
ATOM     20  C   UNL     1     -12.463 -15.663  28.113  1.00  0.00     0.004 C 
ENDBRANCH  18  19
ENDBRANCH  17  18
ENDBRANCH  16  17
ENDBRANCH  15  16
ENDBRANCH  14  15
ENDBRANCH  13  14
ENDBRANCH   2  13
TORSDOF 15
ENDMDL
MODEL 9
REMARK VINA RESULT:    -3.518      2.655      5.248
REMARK INTER + INTRA:          -9.597
REMARK INTER:                  -6.696
REMARK INTRA:                  -2.901
REMARK UNBOUND:                -2.993
REMARK SMILES CCCCCCCCC=CCCCCCCCC(=O)[O-]
REMARK SMILES IDX 10 1 9 2 11 3 12 4 13 5 14 6 15 7 16 8 17 9 18 10 19 11
REMARK SMILES IDX 20 12 8 13 7 14 6 15 5 16 4 17 3 18 2 19 1 20
REMARK H PARENT
REMARK Flexibility Score: inf
ROOT
ATOM      1  C   UNL     1     -12.718  -8.989  25.301  1.00  0.00    -0.031 C 
ATOM      2  C   UNL     1     -13.997  -8.996  25.703  1.00  0.00    -0.031 C 
ENDROOT
BRANCH   1   3
ATOM      3  C   UNL     1     -11.619  -8.472  26.187  1.00  0.00     0.027 C 
BRANCH   3   4
ATOM      4  C   UNL     1     -12.106  -8.302  27.634  1.00  0.00     0.004 C 
BRANCH   4   5
ATOM      5  C   UNL     1     -11.599  -9.425  28.567  1.00  0.00     0.000 C 
BRANCH   5   6
ATOM      6  C   UNL     1     -12.651 -10.514  28.848  1.00  0.00     0.000 C 
BRANCH   6   7
ATOM      7  C   UNL     1     -12.330 -11.887  28.229  1.00  0.00     0.000 C 
BRANCH   7   8
ATOM      8  C   UNL     1     -13.313 -12.308  27.112  1.00  0.00     0.006 C 
BRANCH   8   9
ATOM      9  C   UNL     1     -12.604 -12.640  25.793  1.00  0.00     0.053 C 
BRANCH   9  10
ATOM     10  C   UNL     1     -12.615 -14.117  25.551  1.00  0.00     0.041 C 
ATOM     11  O   UNL     1     -11.774 -14.859  26.124  1.00  0.00    -0.550 OA
ATOM     12  O   UNL     1     -13.523 -14.669  24.657  1.00  0.00    -0.550 OA
ENDBRANCH   9  10
ENDBRANCH   8   9
ENDBRANCH   7   8
ENDBRANCH   6   7
ENDBRANCH   5   6
ENDBRANCH   4   5
ENDBRANCH   3   4
ENDBRANCH   1   3
BRANCH   2  13
ATOM     13  C   UNL     1     -15.109  -9.451  24.795  1.00  0.00     0.027 C 
BRANCH  13  14
ATOM     14  C   UNL     1     -14.592  -9.769  23.387  1.00  0.00     0.004 C 
BRANCH  14  15
ATOM     15  C   UNL     1     -14.919  -8.652  22.381  1.00  0.00     0.000 C 
BRANCH  15  16
ATOM     16  C   UNL     1     -13.650  -8.066  21.726  1.00  0.00     0.000 C 
BRANCH  16  17
ATOM     17  C   UNL     1     -13.168  -6.754  22.375  1.00  0.00    -0.000 C 
BRANCH  17  18
ATOM     18  C   UNL     1     -14.292  -5.825  22.865  1.00  0.00    -0.000 C 
BRANCH  18  19
ATOM     19  C   UNL     1     -14.262  -5.608  24.386  1.00  0.00    -0.003 C 
ATOM     20  C   UNL     1     -15.661  -5.728  24.984  1.00  0.00     0.004 C 
ENDBRANCH  18  19
ENDBRANCH  17  18
ENDBRANCH  16  17
ENDBRANCH  15  16
ENDBRANCH  14  15
ENDBRANCH  13  14
ENDBRANCH   2  13
TORSDOF 15
ENDMDL
