MODEL 1
REMARK VINA RESULT:    -6.342      0.000      0.000
REMARK INTER + INTRA:          -7.718
REMARK INTER:                  -7.454
REMARK INTRA:                  -0.264
REMARK UNBOUND:                -0.264
REMARK SMILES O=c1cc(-c2ccc(O)c(O)c2)oc2cc(O)cc(O)c12
REMARK SMILES IDX 4 1 3 2 2 3 1 4 21 5 19 6 18 7 16 8 15 9 14 10 13 11 5 12
REMARK SMILES IDX 6 13 7 14 8 15 12 16 10 17 9 18 11 20 20 22 17 24
REMARK H PARENT 9 19 11 21 20 23 17 25
REMARK Flexibility Score: inf
ROOT
ATOM      1  C   UNL     1      57.084   8.875   3.541  1.00  0.00     0.138 A 
ATOM      2  C   UNL     1      58.458   8.963   3.265  1.00  0.00     0.100 A 
ATOM      3  C   UNL     1      58.881   9.242   1.965  1.00  0.00     0.197 A 
ATOM      4  O   UNL     1      60.117   9.320   1.727  1.00  0.00    -0.289 OA
ATOM      5  C   UNL     1      57.925   9.433   0.947  1.00  0.00     0.107 A 
ATOM      6  C   UNL     1      58.267   9.717  -0.396  1.00  0.00     0.134 A 
ATOM      7  C   UNL     1      57.254   9.900  -1.348  1.00  0.00     0.093 A 
ATOM      8  C   UNL     1      55.908   9.805  -0.984  1.00  0.00     0.123 A 
ATOM      9  C   UNL     1      55.563   9.525   0.342  1.00  0.00     0.094 A 
ATOM     10  C   UNL     1      56.558   9.338   1.307  1.00  0.00     0.146 A 
ATOM     11  O   UNL     1      56.206   9.071   2.560  1.00  0.00    -0.456 OA
ENDROOT
BRANCH   1  12
ATOM     12  C   UNL     1      56.576   8.583   4.905  1.00  0.00     0.021 A 
ATOM     13  C   UNL     1      56.077   7.302   5.197  1.00  0.00     0.016 A 
ATOM     14  C   UNL     1      55.600   6.998   6.475  1.00  0.00     0.051 A 
ATOM     15  C   UNL     1      55.624   7.967   7.485  1.00  0.00     0.157 A 
ATOM     16  C   UNL     1      56.608   9.548   5.930  1.00  0.00     0.062 A 
ATOM     17  C   UNL     1      56.131   9.243   7.213  1.00  0.00     0.158 A 
BRANCH  15  18
ATOM     18  O   UNL     1      55.147   7.669   8.761  1.00  0.00    -0.504 OA
ATOM     19  H   UNL     1      55.728   7.201   9.447  1.00  0.00     0.293 HD
ENDBRANCH  15  18
BRANCH  17  20
ATOM     20  O   UNL     1      56.163  10.202   8.224  1.00  0.00    -0.504 OA
ATOM     21  H   UNL     1      55.468  10.221   8.961  1.00  0.00     0.293 HD
ENDBRANCH  17  20
ENDBRANCH   1  12
BRANCH   6  22
ATOM     22  O   UNL     1      59.602   9.818  -0.789  1.00  0.00    -0.507 OA
ATOM     23  H   UNL     1      59.886   9.679  -1.751  1.00  0.00     0.293 HD
ENDBRANCH   6  22
BRANCH   8  24
ATOM     24  O   UNL     1      54.921   9.991  -1.949  1.00  0.00    -0.508 OA
ATOM     25  H   UNL     1      54.911   9.454  -2.808  1.00  0.00     0.293 HD
ENDBRANCH   8  24
TORSDOF 5
ENDMDL
MODEL 2
REMARK VINA RESULT:    -6.200      1.141      2.686
REMARK INTER + INTRA:          -7.552
REMARK INTER:                  -7.286
REMARK INTRA:                  -0.266
REMARK UNBOUND:                -0.264
REMARK SMILES O=c1cc(-c2ccc(O)c(O)c2)oc2cc(O)cc(O)c12
REMARK SMILES IDX 4 1 3 2 2 3 1 4 21 5 19 6 18 7 16 8 15 9 14 10 13 11 5 12
REMARK SMILES IDX 6 13 7 14 8 15 12 16 10 17 9 18 11 20 20 22 17 24
REMARK H PARENT 9 19 11 21 20 23 17 25
REMARK Flexibility Score: inf
ROOT
ATOM      1  C   UNL     1      56.101   9.127   3.069  1.00  0.00     0.138 A 
ATOM      2  C   UNL     1      54.906   9.118   2.331  1.00  0.00     0.100 A 
ATOM      3  C   UNL     1      54.953   9.288   0.946  1.00  0.00     0.197 A 
ATOM      4  O   UNL     1      53.875   9.277   0.292  1.00  0.00    -0.289 OA
ATOM      5  C   UNL     1      56.197   9.463   0.308  1.00  0.00     0.107 A 
ATOM      6  C   UNL     1      56.334   9.644  -1.089  1.00  0.00     0.134 A 
ATOM      7  C   UNL     1      57.610   9.806  -1.647  1.00  0.00     0.093 A 
ATOM      8  C   UNL     1      58.750   9.791  -0.838  1.00  0.00     0.123 A 
ATOM      9  C   UNL     1      58.621   9.613   0.543  1.00  0.00     0.094 A 
ATOM     10  C   UNL     1      57.357   9.451   1.120  1.00  0.00     0.146 A 
ATOM     11  O   UNL     1      57.261   9.285   2.435  1.00  0.00    -0.456 OA
ENDROOT
BRANCH   1  12
ATOM     12  C   UNL     1      56.112   8.949   4.543  1.00  0.00     0.021 A 
ATOM     13  C   UNL     1      56.085   7.651   5.083  1.00  0.00     0.016 A 
ATOM     14  C   UNL     1      56.101   7.455   6.466  1.00  0.00     0.051 A 
ATOM     15  C   UNL     1      56.155   8.554   7.333  1.00  0.00     0.157 A 
ATOM     16  C   UNL     1      56.178  10.048   5.421  1.00  0.00     0.062 A 
ATOM     17  C   UNL     1      56.197   9.851   6.810  1.00  0.00     0.158 A 
BRANCH  15  18
ATOM     18  O   UNL     1      56.170   8.363   8.714  1.00  0.00    -0.504 OA
ATOM     19  H   UNL     1      55.778   9.051   9.348  1.00  0.00     0.293 HD
ENDBRANCH  15  18
BRANCH  17  20
ATOM     20  O   UNL     1      56.261  10.942   7.676  1.00  0.00    -0.504 OA
ATOM     21  H   UNL     1      56.826  11.756   7.464  1.00  0.00     0.293 HD
ENDBRANCH  17  20
ENDBRANCH   1  12
BRANCH   6  22
ATOM     22  O   UNL     1      55.215   9.662  -1.922  1.00  0.00    -0.507 OA
ATOM     23  H   UNL     1      54.587  10.456  -1.951  1.00  0.00     0.293 HD
ENDBRANCH   6  22
BRANCH   8  24
ATOM     24  O   UNL     1      60.006   9.954  -1.418  1.00  0.00    -0.508 OA
ATOM     25  H   UNL     1      60.356   9.308  -2.115  1.00  0.00     0.293 HD
ENDBRANCH   8  24
TORSDOF 5
ENDMDL
MODEL 3
REMARK VINA RESULT:    -6.153     14.387     16.239
REMARK INTER + INTRA:          -7.496
REMARK INTER:                  -7.179
REMARK INTRA:                  -0.317
REMARK UNBOUND:                -0.264
REMARK SMILES O=c1cc(-c2ccc(O)c(O)c2)oc2cc(O)cc(O)c12
REMARK SMILES IDX 4 1 3 2 2 3 1 4 21 5 19 6 18 7 16 8 15 9 14 10 13 11 5 12
REMARK SMILES IDX 6 13 7 14 8 15 12 16 10 17 9 18 11 20 20 22 17 24
REMARK H PARENT 9 19 11 21 20 23 17 25
REMARK Flexibility Score: inf
ROOT
ATOM      1  C   UNL     1      71.921  13.593  -1.599  1.00  0.00     0.138 A 
ATOM      2  C   UNL     1      73.101  13.786  -2.336  1.00  0.00     0.100 A 
ATOM      3  C   UNL     1      73.054  14.507  -3.530  1.00  0.00     0.197 A 
ATOM      4  O   UNL     1      74.119  14.677  -4.184  1.00  0.00    -0.289 OA
ATOM      5  C   UNL     1      71.826  15.033  -3.978  1.00  0.00     0.107 A 
ATOM      6  C   UNL     1      71.689  15.773  -5.176  1.00  0.00     0.134 A 
ATOM      7  C   UNL     1      70.431  16.268  -5.549  1.00  0.00     0.093 A 
ATOM      8  C   UNL     1      69.308  16.037  -4.748  1.00  0.00     0.123 A 
ATOM      9  C   UNL     1      69.437  15.306  -3.563  1.00  0.00     0.094 A 
ATOM     10  C   UNL     1      70.683  14.803  -3.174  1.00  0.00     0.146 A 
ATOM     11  O   UNL     1      70.779  14.110  -2.044  1.00  0.00    -0.456 OA
ENDROOT
BRANCH   1  12
ATOM     12  C   UNL     1      71.912  12.836  -0.322  1.00  0.00     0.021 A 
ATOM     13  C   UNL     1      73.071  12.151   0.085  1.00  0.00     0.016 A 
ATOM     14  C   UNL     1      73.092  11.437   1.285  1.00  0.00     0.051 A 
ATOM     15  C   UNL     1      71.958  11.404   2.105  1.00  0.00     0.157 A 
ATOM     16  C   UNL     1      70.780  12.808   0.515  1.00  0.00     0.062 A 
ATOM     17  C   UNL     1      70.801  12.092   1.722  1.00  0.00     0.158 A 
BRANCH  15  18
ATOM     18  O   UNL     1      71.973  10.691   3.304  1.00  0.00    -0.504 OA
ATOM     19  H   UNL     1      71.584   9.758   3.370  1.00  0.00     0.293 HD
ENDBRANCH  15  18
BRANCH  17  20
ATOM     20  O   UNL     1      69.677  12.066   2.546  1.00  0.00    -0.504 OA
ATOM     21  H   UNL     1      69.150  11.214   2.698  1.00  0.00     0.293 HD
ENDBRANCH  17  20
ENDBRANCH   1  12
BRANCH   6  22
ATOM     22  O   UNL     1      72.792  16.020  -5.995  1.00  0.00    -0.507 OA
ATOM     23  H   UNL     1      73.264  15.273  -6.491  1.00  0.00     0.293 HD
ENDBRANCH   6  22
BRANCH   8  24
ATOM     24  O   UNL     1      68.070  16.538  -5.141  1.00  0.00    -0.508 OA
ATOM     25  H   UNL     1      67.973  17.472  -5.523  1.00  0.00     0.293 HD
ENDBRANCH   8  24
TORSDOF 5
ENDMDL
MODEL 4
REMARK VINA RESULT:    -6.127     16.064     16.958
REMARK INTER + INTRA:          -7.466
REMARK INTER:                  -7.169
REMARK INTRA:                  -0.297
REMARK UNBOUND:                -0.264
REMARK SMILES O=c1cc(-c2ccc(O)c(O)c2)oc2cc(O)cc(O)c12
REMARK SMILES IDX 4 1 3 2 2 3 1 4 21 5 19 6 18 7 16 8 15 9 14 10 13 11 5 12
REMARK SMILES IDX 6 13 7 14 8 15 12 16 10 17 9 18 11 20 20 22 17 24
REMARK H PARENT 9 19 11 21 20 23 17 25
REMARK Flexibility Score: inf
ROOT
ATOM      1  C   UNL     1      72.785  12.430   0.245  1.00  0.00     0.138 A 
ATOM      2  C   UNL     1      72.016  13.540   0.631  1.00  0.00     0.100 A 
ATOM      3  C   UNL     1      71.759  14.553  -0.294  1.00  0.00     0.197 A 
ATOM      4  O   UNL     1      71.066  15.545   0.061  1.00  0.00    -0.289 OA
ATOM      5  C   UNL     1      72.271  14.446  -1.603  1.00  0.00     0.107 A 
ATOM      6  C   UNL     1      72.059  15.427  -2.601  1.00  0.00     0.134 A 
ATOM      7  C   UNL     1      72.598  15.244  -3.882  1.00  0.00     0.093 A 
ATOM      8  C   UNL     1      73.344  14.101  -4.185  1.00  0.00     0.123 A 
ATOM      9  C   UNL     1      73.557  13.128  -3.202  1.00  0.00     0.094 A 
ATOM     10  C   UNL     1      73.029  13.293  -1.918  1.00  0.00     0.146 A 
ATOM     11  O   UNL     1      73.246  12.355  -1.002  1.00  0.00    -0.456 OA
ENDROOT
BRANCH   1  12
ATOM     12  C   UNL     1      73.089  11.323   1.186  1.00  0.00     0.021 A 
ATOM     13  C   UNL     1      73.819  10.210   0.731  1.00  0.00     0.016 A 
ATOM     14  C   UNL     1      74.124   9.157   1.598  1.00  0.00     0.051 A 
ATOM     15  C   UNL     1      73.716   9.205   2.936  1.00  0.00     0.157 A 
ATOM     16  C   UNL     1      72.693  11.368   2.536  1.00  0.00     0.062 A 
ATOM     17  C   UNL     1      73.002  10.313   3.407  1.00  0.00     0.158 A 
BRANCH  15  18
ATOM     18  O   UNL     1      74.017   8.157   3.804  1.00  0.00    -0.504 OA
ATOM     19  H   UNL     1      73.329   7.790   4.451  1.00  0.00     0.293 HD
ENDBRANCH  15  18
BRANCH  17  20
ATOM     20  O   UNL     1      72.606  10.362   4.743  1.00  0.00    -0.504 OA
ATOM     21  H   UNL     1      71.893   9.741   5.108  1.00  0.00     0.293 HD
ENDBRANCH  17  20
ENDBRANCH   1  12
BRANCH   6  22
ATOM     22  O   UNL     1      71.318  16.578  -2.329  1.00  0.00    -0.507 OA
ATOM     23  H   UNL     1      71.229  17.326  -3.006  1.00  0.00     0.293 HD
ENDBRANCH   6  22
BRANCH   8  24
ATOM     24  O   UNL     1      73.869  13.942  -5.465  1.00  0.00    -0.508 OA
ATOM     25  H   UNL     1      74.591  13.259  -5.661  1.00  0.00     0.293 HD
ENDBRANCH   8  24
TORSDOF 5
ENDMDL
MODEL 5
REMARK VINA RESULT:    -6.005     13.539     14.986
REMARK INTER + INTRA:          -7.323
REMARK INTER:                  -7.022
REMARK INTRA:                  -0.301
REMARK UNBOUND:                -0.264
REMARK SMILES O=c1cc(-c2ccc(O)c(O)c2)oc2cc(O)cc(O)c12
REMARK SMILES IDX 4 1 3 2 2 3 1 4 21 5 19 6 18 7 16 8 15 9 14 10 13 11 5 12
REMARK SMILES IDX 6 13 7 14 8 15 12 16 10 17 9 18 11 20 20 22 17 24
REMARK H PARENT 9 19 11 21 20 23 17 25
REMARK Flexibility Score: inf
ROOT
ATOM      1  C   UNL     1      71.268  12.758   0.551  1.00  0.00     0.138 A 
ATOM      2  C   UNL     1      71.947  13.988   0.563  1.00  0.00     0.100 A 
ATOM      3  C   UNL     1      71.705  14.916  -0.451  1.00  0.00     0.197 A 
ATOM      4  O   UNL     1      72.319  16.017  -0.431  1.00  0.00    -0.289 OA
ATOM      5  C   UNL     1      70.781  14.608  -1.470  1.00  0.00     0.107 A 
ATOM      6  C   UNL     1      70.478  15.490  -2.534  1.00  0.00     0.134 A 
ATOM      7  C   UNL     1      69.542  15.111  -3.506  1.00  0.00     0.093 A 
ATOM      8  C   UNL     1      68.902  13.870  -3.435  1.00  0.00     0.123 A 
ATOM      9  C   UNL     1      69.198  12.994  -2.385  1.00  0.00     0.094 A 
ATOM     10  C   UNL     1      70.130  13.352  -1.406  1.00  0.00     0.146 A 
ATOM     11  O   UNL     1      70.394  12.503  -0.420  1.00  0.00    -0.456 OA
ENDROOT
BRANCH   1  12
ATOM     12  C   UNL     1      71.484  11.734   1.604  1.00  0.00     0.021 A 
ATOM     13  C   UNL     1      72.768  11.567   2.152  1.00  0.00     0.016 A 
ATOM     14  C   UNL     1      72.999  10.616   3.149  1.00  0.00     0.051 A 
ATOM     15  C   UNL     1      71.946   9.823   3.623  1.00  0.00     0.157 A 
ATOM     16  C   UNL     1      70.429  10.941   2.095  1.00  0.00     0.062 A 
ATOM     17  C   UNL     1      70.660   9.987   3.098  1.00  0.00     0.158 A 
BRANCH  15  18
ATOM     18  O   UNL     1      72.171   8.871   4.617  1.00  0.00    -0.504 OA
ATOM     19  H   UNL     1      72.350   7.900   4.389  1.00  0.00     0.293 HD
ENDBRANCH  15  18
BRANCH  17  20
ATOM     20  O   UNL     1      69.612   9.203   3.579  1.00  0.00    -0.504 OA
ATOM     21  H   UNL     1      68.741   9.112   3.071  1.00  0.00     0.293 HD
ENDBRANCH  17  20
ENDBRANCH   1  12
BRANCH   6  22
ATOM     22  O   UNL     1      71.100  16.736  -2.631  1.00  0.00    -0.507 OA
ATOM     23  H   UNL     1      70.757  17.542  -2.123  1.00  0.00     0.293 HD
ENDBRANCH   6  22
BRANCH   8  24
ATOM     24  O   UNL     1      67.976  13.517  -4.413  1.00  0.00    -0.508 OA
ATOM     25  H   UNL     1      67.287  14.177  -4.753  1.00  0.00     0.293 HD
ENDBRANCH   8  24
TORSDOF 5
ENDMDL
MODEL 6
REMARK VINA RESULT:    -5.936     12.343     16.009
REMARK INTER + INTRA:          -7.242
REMARK INTER:                  -6.924
REMARK INTRA:                  -0.318
REMARK UNBOUND:                -0.264
REMARK SMILES O=c1cc(-c2ccc(O)c(O)c2)oc2cc(O)cc(O)c12
REMARK SMILES IDX 4 1 3 2 2 3 1 4 21 5 19 6 18 7 16 8 15 9 14 10 13 11 5 12
REMARK SMILES IDX 6 13 7 14 8 15 12 16 10 17 9 18 11 20 20 22 17 24
REMARK H PARENT 9 19 11 21 20 23 17 25
REMARK Flexibility Score: inf
ROOT
ATOM      1  C   UNL     1      70.325  14.133  -1.638  1.00  0.00     0.138 A 
ATOM      2  C   UNL     1      71.476  14.219  -0.837  1.00  0.00     0.100 A 
ATOM      3  C   UNL     1      71.622  13.356   0.250  1.00  0.00     0.197 A 
ATOM      4  O   UNL     1      72.659  13.440   0.963  1.00  0.00    -0.289 OA
ATOM      5  C   UNL     1      70.616  12.408   0.527  1.00  0.00     0.107 A 
ATOM      6  C   UNL     1      70.684  11.498   1.608  1.00  0.00     0.134 A 
ATOM      7  C   UNL     1      69.643  10.581   1.812  1.00  0.00     0.093 A 
ATOM      8  C   UNL     1      68.537  10.556   0.958  1.00  0.00     0.123 A 
ATOM      9  C   UNL     1      68.464  11.454  -0.113  1.00  0.00     0.094 A 
ATOM     10  C   UNL     1      69.491  12.377  -0.333  1.00  0.00     0.146 A 
ATOM     11  O   UNL     1      69.398  13.220  -1.355  1.00  0.00    -0.456 OA
ENDROOT
BRANCH   1  12
ATOM     12  C   UNL     1      70.117  15.024  -2.807  1.00  0.00     0.021 A 
ATOM     13  C   UNL     1      71.077  16.006  -3.107  1.00  0.00     0.016 A 
ATOM     14  C   UNL     1      70.909  16.854  -4.205  1.00  0.00     0.051 A 
ATOM     15  C   UNL     1      69.784  16.726  -5.028  1.00  0.00     0.157 A 
ATOM     16  C   UNL     1      68.994  14.894  -3.647  1.00  0.00     0.062 A 
ATOM     17  C   UNL     1      68.826  15.743  -4.751  1.00  0.00     0.158 A 
BRANCH  15  18
ATOM     18  O   UNL     1      69.611  17.570  -6.124  1.00  0.00    -0.504 OA
ATOM     19  H   UNL     1      69.539  17.206  -7.067  1.00  0.00     0.293 HD
ENDBRANCH  15  18
BRANCH  17  20
ATOM     20  O   UNL     1      67.712  15.612  -5.579  1.00  0.00    -0.504 OA
ATOM     21  H   UNL     1      67.761  15.117  -6.461  1.00  0.00     0.293 HD
ENDBRANCH  17  20
ENDBRANCH   1  12
BRANCH   6  22
ATOM     22  O   UNL     1      71.776  11.498   2.477  1.00  0.00    -0.507 OA
ATOM     23  H   UNL     1      71.866  10.813   3.219  1.00  0.00     0.293 HD
ENDBRANCH   6  22
BRANCH   8  24
ATOM     24  O   UNL     1      67.516   9.636   1.182  1.00  0.00    -0.508 OA
ATOM     25  H   UNL     1      66.548   9.860   0.986  1.00  0.00     0.293 HD
ENDBRANCH   8  24
TORSDOF 5
ENDMDL
MODEL 7
REMARK VINA RESULT:    -5.905     14.086     15.750
REMARK INTER + INTRA:          -7.205
REMARK INTER:                  -6.931
REMARK INTRA:                  -0.274
REMARK UNBOUND:                -0.264
REMARK SMILES O=c1cc(-c2ccc(O)c(O)c2)oc2cc(O)cc(O)c12
REMARK SMILES IDX 4 1 3 2 2 3 1 4 21 5 19 6 18 7 16 8 15 9 14 10 13 11 5 12
REMARK SMILES IDX 6 13 7 14 8 15 12 16 10 17 9 18 11 20 20 22 17 24
REMARK H PARENT 9 19 11 21 20 23 17 25
REMARK Flexibility Score: inf
ROOT
ATOM      1  C   UNL     1      70.288  13.967  -2.039  1.00  0.00     0.138 A 
ATOM      2  C   UNL     1      69.191  13.366  -2.678  1.00  0.00     0.100 A 
ATOM      3  C   UNL     1      68.618  13.987  -3.788  1.00  0.00     0.197 A 
ATOM      4  O   UNL     1      67.634  13.440  -4.356  1.00  0.00    -0.289 OA
ATOM      5  C   UNL     1      69.149  15.207  -4.255  1.00  0.00     0.107 A 
ATOM      6  C   UNL     1      68.628  15.903  -5.371  1.00  0.00     0.134 A 
ATOM      7  C   UNL     1      69.218  17.109  -5.776  1.00  0.00     0.093 A 
ATOM      8  C   UNL     1      70.317  17.631  -5.088  1.00  0.00     0.123 A 
ATOM      9  C   UNL     1      70.837  16.948  -3.983  1.00  0.00     0.094 A 
ATOM     10  C   UNL     1      70.262  15.744  -3.563  1.00  0.00     0.146 A 
ATOM     11  O   UNL     1      70.772  15.114  -2.510  1.00  0.00    -0.456 OA
ENDROOT
BRANCH   1  12
ATOM     12  C   UNL     1      70.939  13.351  -0.855  1.00  0.00     0.021 A 
ATOM     13  C   UNL     1      72.336  13.196  -0.836  1.00  0.00     0.016 A 
ATOM     14  C   UNL     1      72.974  12.625   0.268  1.00  0.00     0.051 A 
ATOM     15  C   UNL     1      72.227  12.210   1.377  1.00  0.00     0.157 A 
ATOM     16  C   UNL     1      70.196  12.943   0.270  1.00  0.00     0.062 A 
ATOM     17  C   UNL     1      70.837  12.372   1.380  1.00  0.00     0.158 A 
BRANCH  15  18
ATOM     18  O   UNL     1      72.859  11.639   2.481  1.00  0.00    -0.504 OA
ATOM     19  H   UNL     1      73.830  11.349   2.443  1.00  0.00     0.293 HD
ENDBRANCH  15  18
BRANCH  17  20
ATOM     20  O   UNL     1      70.097  11.967   2.490  1.00  0.00    -0.504 OA
ATOM     21  H   UNL     1      69.091  12.077   2.526  1.00  0.00     0.293 HD
ENDBRANCH  17  20
ENDBRANCH   1  12
BRANCH   6  22
ATOM     22  O   UNL     1      67.533  15.406  -6.078  1.00  0.00    -0.507 OA
ATOM     23  H   UNL     1      67.285  14.424  -6.053  1.00  0.00     0.293 HD
ENDBRANCH   6  22
BRANCH   8  24
ATOM     24  O   UNL     1      70.885  18.831  -5.510  1.00  0.00    -0.508 OA
ATOM     25  H   UNL     1      71.775  19.152  -5.149  1.00  0.00     0.293 HD
ENDBRANCH   8  24
TORSDOF 5
ENDMDL
MODEL 8
REMARK VINA RESULT:    -5.828     13.189     16.263
REMARK INTER + INTRA:          -7.114
REMARK INTER:                  -6.823
REMARK INTRA:                  -0.291
REMARK UNBOUND:                -0.264
REMARK SMILES O=c1cc(-c2ccc(O)c(O)c2)oc2cc(O)cc(O)c12
REMARK SMILES IDX 4 1 3 2 2 3 1 4 21 5 19 6 18 7 16 8 15 9 14 10 13 11 5 12
REMARK SMILES IDX 6 13 7 14 8 15 12 16 10 17 9 18 11 20 20 22 17 24
REMARK H PARENT 9 19 11 21 20 23 17 25
REMARK Flexibility Score: inf
ROOT
ATOM      1  C   UNL     1      70.867  12.287   0.851  1.00  0.00     0.138 A 
ATOM      2  C   UNL     1      69.748  11.438   0.874  1.00  0.00     0.100 A 
ATOM      3  C   UNL     1      69.706  10.381   1.784  1.00  0.00     0.197 A 
ATOM      4  O   UNL     1      68.697   9.625   1.798  1.00  0.00    -0.289 OA
ATOM      5  C   UNL     1      70.784  10.182   2.670  1.00  0.00     0.107 A 
ATOM      6  C   UNL     1      70.824   9.136   3.622  1.00  0.00     0.134 A 
ATOM      7  C   UNL     1      71.932   9.010   4.471  1.00  0.00     0.093 A 
ATOM      8  C   UNL     1      73.000   9.908   4.388  1.00  0.00     0.123 A 
ATOM      9  C   UNL     1      72.967  10.944   3.449  1.00  0.00     0.094 A 
ATOM     10  C   UNL     1      71.872  11.086   2.591  1.00  0.00     0.146 A 
ATOM     11  O   UNL     1      71.864  12.078   1.707  1.00  0.00    -0.456 OA
ENDROOT
BRANCH   1  12
ATOM     12  C   UNL     1      70.965  13.427  -0.095  1.00  0.00     0.021 A 
ATOM     13  C   UNL     1      71.791  14.519   0.222  1.00  0.00     0.016 A 
ATOM     14  C   UNL     1      71.907  15.602  -0.653  1.00  0.00     0.051 A 
ATOM     15  C   UNL     1      71.207  15.606  -1.866  1.00  0.00     0.157 A 
ATOM     16  C   UNL     1      70.274  13.433  -1.322  1.00  0.00     0.062 A 
ATOM     17  C   UNL     1      70.392  14.519  -2.203  1.00  0.00     0.158 A 
BRANCH  15  18
ATOM     18  O   UNL     1      71.318  16.684  -2.742  1.00  0.00    -0.504 OA
ATOM     19  H   UNL     1      71.752  16.585  -3.653  1.00  0.00     0.293 HD
ENDBRANCH  15  18
BRANCH  17  20
ATOM     20  O   UNL     1      69.704  14.522  -3.415  1.00  0.00    -0.504 OA
ATOM     21  H   UNL     1      69.799  15.282  -4.078  1.00  0.00     0.293 HD
ENDBRANCH  17  20
ENDBRANCH   1  12
BRANCH   6  22
ATOM     22  O   UNL     1      69.772   8.225   3.729  1.00  0.00    -0.507 OA
ATOM     23  H   UNL     1      68.814   8.531   3.851  1.00  0.00     0.293 HD
ENDBRANCH   6  22
BRANCH   8  24
ATOM     24  O   UNL     1      74.090   9.761   5.243  1.00  0.00    -0.508 OA
ATOM     25  H   UNL     1      75.042   9.855   4.910  1.00  0.00     0.293 HD
ENDBRANCH   8  24
TORSDOF 5
ENDMDL
MODEL 9
REMARK VINA RESULT:    -5.771     14.437     16.245
REMARK INTER + INTRA:          -7.048
REMARK INTER:                  -6.784
REMARK INTRA:                  -0.264
REMARK UNBOUND:                -0.264
REMARK SMILES O=c1cc(-c2ccc(O)c(O)c2)oc2cc(O)cc(O)c12
REMARK SMILES IDX 4 1 3 2 2 3 1 4 21 5 19 6 18 7 16 8 15 9 14 10 13 11 5 12
REMARK SMILES IDX 6 13 7 14 8 15 12 16 10 17 9 18 11 20 20 22 17 24
REMARK H PARENT 9 19 11 21 20 23 17 25
REMARK Flexibility Score: inf
ROOT
ATOM      1  C   UNL     1      72.460  11.697   0.578  1.00  0.00     0.138 A 
ATOM      2  C   UNL     1      73.207  11.105  -0.454  1.00  0.00     0.100 A 
ATOM      3  C   UNL     1      73.452  11.824  -1.624  1.00  0.00     0.197 A 
ATOM      4  O   UNL     1      74.125  11.284  -2.544  1.00  0.00    -0.289 OA
ATOM      5  C   UNL     1      72.952  13.135  -1.753  1.00  0.00     0.107 A 
ATOM      6  C   UNL     1      73.153  13.932  -2.905  1.00  0.00     0.134 A 
ATOM      7  C   UNL     1      72.626  15.231  -2.953  1.00  0.00     0.093 A 
ATOM      8  C   UNL     1      71.903  15.747  -1.874  1.00  0.00     0.123 A 
ATOM      9  C   UNL     1      71.700  14.963  -0.733  1.00  0.00     0.094 A 
ATOM     10  C   UNL     1      72.216  13.666  -0.666  1.00  0.00     0.146 A 
ATOM     11  O   UNL     1      72.010  12.941   0.428  1.00  0.00    -0.456 OA
ENDROOT
BRANCH   1  12
ATOM     12  C   UNL     1      72.169  10.980   1.845  1.00  0.00     0.021 A 
ATOM     13  C   UNL     1      70.933  10.328   2.002  1.00  0.00     0.016 A 
ATOM     14  C   UNL     1      70.636   9.640   3.181  1.00  0.00     0.051 A 
ATOM     15  C   UNL     1      71.575   9.582   4.219  1.00  0.00     0.157 A 
ATOM     16  C   UNL     1      73.112  10.907   2.888  1.00  0.00     0.062 A 
ATOM     17  C   UNL     1      72.815  10.214   4.072  1.00  0.00     0.158 A 
BRANCH  15  18
ATOM     18  O   UNL     1      71.282   8.898   5.398  1.00  0.00    -0.504 OA
ATOM     19  H   UNL     1      70.340   8.594   5.614  1.00  0.00     0.293 HD
ENDBRANCH  15  18
BRANCH  17  20
ATOM     20  O   UNL     1      73.751  10.146   5.103  1.00  0.00    -0.504 OA
ATOM     21  H   UNL     1      74.089   9.258   5.455  1.00  0.00     0.293 HD
ENDBRANCH  17  20
ENDBRANCH   1  12
BRANCH   6  22
ATOM     22  O   UNL     1      73.871  13.445  -3.997  1.00  0.00    -0.507 OA
ATOM     23  H   UNL     1      74.771  13.831  -4.258  1.00  0.00     0.293 HD
ENDBRANCH   6  22
BRANCH   8  24
ATOM     24  O   UNL     1      71.389  17.040  -1.946  1.00  0.00    -0.508 OA
ATOM     25  H   UNL     1      70.495  17.231  -2.382  1.00  0.00     0.293 HD
ENDBRANCH   8  24
TORSDOF 5
ENDMDL
