MODEL 1
REMARK VINA RESULT:    -2.777      0.000      0.000
REMARK INTER + INTRA:          -3.140
REMARK INTER:                  -3.102
REMARK INTRA:                  -0.038
REMARK UNBOUND:                -0.038
REMARK SMILES CCCC(=O)[O-]
REMARK SMILES IDX 3 1 4 2 5 3 6 4 2 5 1 6
REMARK H PARENT
REMARK Flexibility Score: inf
ROOT
ATOM      1  C   UNL     1     -27.002 -17.955  12.095  1.00  0.00     0.052 C 
ENDROOT
BRANCH   1   2
ATOM      2  C   UNL     1     -27.018 -17.524  13.527  1.00  0.00     0.041 C 
ATOM      3  O   UNL     1     -26.110 -17.903  14.314  1.00  0.00    -0.550 OA
ATOM      4  O   UNL     1     -28.062 -16.744  14.008  1.00  0.00    -0.550 OA
ENDBRANCH   1   2
BRANCH   1   5
ATOM      5  C   UNL     1     -27.857 -17.014  11.243  1.00  0.00     0.003 C 
ATOM      6  C   UNL     1     -26.989 -16.018  10.481  1.00  0.00     0.004 C 
ENDBRANCH   1   5
TORSDOF 2
ENDMDL
MODEL 2
REMARK VINA RESULT:    -2.775      0.085      1.322
REMARK INTER + INTRA:          -3.138
REMARK INTER:                  -3.100
REMARK INTRA:                  -0.038
REMARK UNBOUND:                -0.038
REMARK SMILES CCCC(=O)[O-]
REMARK SMILES IDX 3 1 4 2 5 3 6 4 2 5 1 6
REMARK H PARENT
REMARK Flexibility Score: inf
ROOT
ATOM      1  C   UNL     1     -27.033 -17.927  12.113  1.00  0.00     0.052 C 
ENDROOT
BRANCH   1   2
ATOM      2  C   UNL     1     -27.069 -17.476  13.539  1.00  0.00     0.041 C 
ATOM      3  O   UNL     1     -28.032 -16.783  13.961  1.00  0.00    -0.550 OA
ATOM      4  O   UNL     1     -26.014 -17.777  14.391  1.00  0.00    -0.550 OA
ENDBRANCH   1   2
BRANCH   1   5
ATOM      5  C   UNL     1     -27.869 -16.992  11.235  1.00  0.00     0.003 C 
ATOM      6  C   UNL     1     -26.983 -16.013  10.473  1.00  0.00     0.004 C 
ENDBRANCH   1   5
TORSDOF 2
ENDMDL
MODEL 3
REMARK VINA RESULT:    -2.408      2.108      3.368
REMARK INTER + INTRA:          -2.727
REMARK INTER:                  -2.714
REMARK INTRA:                  -0.013
REMARK UNBOUND:                -0.038
REMARK SMILES CCCC(=O)[O-]
REMARK SMILES IDX 3 1 4 2 5 3 6 4 2 5 1 6
REMARK H PARENT
REMARK Flexibility Score: inf
ROOT
ATOM      1  C   UNL     1     -26.260 -17.121  13.086  1.00  0.00     0.052 C 
ENDROOT
BRANCH   1   2
ATOM      2  C   UNL     1     -27.052 -17.057  11.818  1.00  0.00     0.041 C 
ATOM      3  O   UNL     1     -27.994 -17.868  11.618  1.00  0.00    -0.550 OA
ATOM      4  O   UNL     1     -26.719 -16.134  10.835  1.00  0.00    -0.550 OA
ENDBRANCH   1   2
BRANCH   1   5
ATOM      5  C   UNL     1     -26.703 -18.316  13.934  1.00  0.00     0.003 C 
ATOM      6  C   UNL     1     -26.031 -18.299  15.303  1.00  0.00     0.004 C 
ENDBRANCH   1   5
TORSDOF 2
ENDMDL
MODEL 4
REMARK VINA RESULT:    -2.299      1.990      3.152
REMARK INTER + INTRA:          -2.606
REMARK INTER:                  -2.584
REMARK INTRA:                  -0.021
REMARK UNBOUND:                -0.038
REMARK SMILES CCCC(=O)[O-]
REMARK SMILES IDX 3 1 4 2 5 3 6 4 2 5 1 6
REMARK H PARENT
REMARK Flexibility Score: inf
ROOT
ATOM      1  C   UNL     1     -27.435 -18.578  12.353  1.00  0.00     0.052 C 
ENDROOT
BRANCH   1   2
ATOM      2  C   UNL     1     -26.697 -17.277  12.387  1.00  0.00     0.041 C 
ATOM      3  O   UNL     1     -26.713 -16.513  11.386  1.00  0.00    -0.550 OA
ATOM      4  O   UNL     1     -25.948 -16.930  13.504  1.00  0.00    -0.550 OA
ENDBRANCH   1   2
BRANCH   1   5
ATOM      5  C   UNL     1     -28.125 -18.837  13.695  1.00  0.00     0.003 C 
ATOM      6  C   UNL     1     -28.043 -20.310  14.081  1.00  0.00     0.004 C 
ENDBRANCH   1   5
TORSDOF 2
ENDMDL
MODEL 5
REMARK VINA RESULT:    -2.221     22.513     23.029
REMARK INTER + INTRA:          -2.519
REMARK INTER:                  -2.496
REMARK INTRA:                  -0.022
REMARK UNBOUND:                -0.038
REMARK SMILES CCCC(=O)[O-]
REMARK SMILES IDX 3 1 4 2 5 3 6 4 2 5 1 6
REMARK H PARENT
REMARK Flexibility Score: inf
ROOT
ATOM      1  C   UNL     1      -9.422 -20.689  -1.657  1.00  0.00     0.052 C 
ENDROOT
BRANCH   1   2
ATOM      2  C   UNL     1     -10.174 -21.836  -2.255  1.00  0.00     0.041 C 
ATOM      3  O   UNL     1     -10.719 -21.716  -3.384  1.00  0.00    -0.550 OA
ATOM      4  O   UNL     1     -10.317 -23.021  -1.545  1.00  0.00    -0.550 OA
ENDBRANCH   1   2
BRANCH   1   5
ATOM      5  C   UNL     1      -9.652 -19.414  -2.471  1.00  0.00     0.003 C 
ATOM      6  C   UNL     1      -9.994 -18.236  -1.565  1.00  0.00     0.004 C 
ENDBRANCH   1   5
TORSDOF 2
ENDMDL
MODEL 6
REMARK VINA RESULT:    -2.198     22.649     23.294
REMARK INTER + INTRA:          -2.493
REMARK INTER:                  -2.477
REMARK INTRA:                  -0.016
REMARK UNBOUND:                -0.038
REMARK SMILES CCCC(=O)[O-]
REMARK SMILES IDX 3 1 4 2 5 3 6 4 2 5 1 6
REMARK H PARENT
REMARK Flexibility Score: inf
ROOT
ATOM      1  C   UNL     1      -9.639 -19.872  -3.128  1.00  0.00     0.052 C 
ENDROOT
BRANCH   1   2
ATOM      2  C   UNL     1      -9.676 -18.411  -2.808  1.00  0.00     0.041 C 
ATOM      3  O   UNL     1      -9.193 -17.573  -3.614  1.00  0.00    -0.550 OA
ATOM      4  O   UNL     1     -10.200 -17.976  -1.597  1.00  0.00    -0.550 OA
ENDBRANCH   1   2
BRANCH   1   5
ATOM      5  C   UNL     1      -9.832 -20.703  -1.858  1.00  0.00     0.003 C 
ATOM      6  C   UNL     1     -10.496 -22.040  -2.170  1.00  0.00     0.004 C 
ENDBRANCH   1   5
TORSDOF 2
ENDMDL
MODEL 7
REMARK VINA RESULT:    -2.182     22.561     23.124
REMARK INTER + INTRA:          -2.475
REMARK INTER:                  -2.456
REMARK INTRA:                  -0.019
REMARK UNBOUND:                -0.038
REMARK SMILES CCCC(=O)[O-]
REMARK SMILES IDX 3 1 4 2 5 3 6 4 2 5 1 6
REMARK H PARENT
REMARK Flexibility Score: inf
ROOT
ATOM      1  C   UNL     1      -9.980 -18.298  -1.621  1.00  0.00     0.052 C 
ENDROOT
BRANCH   1   2
ATOM      2  C   UNL     1      -8.780 -17.459  -1.312  1.00  0.00     0.041 C 
ATOM      3  O   UNL     1      -8.205 -17.563  -0.196  1.00  0.00    -0.550 OA
ATOM      4  O   UNL     1      -8.325 -16.527  -2.235  1.00  0.00    -0.550 OA
ENDBRANCH   1   2
BRANCH   1   5
ATOM      5  C   UNL     1      -9.589 -19.489  -2.499  1.00  0.00     0.003 C 
ATOM      6  C   UNL     1      -9.979 -20.809  -1.842  1.00  0.00     0.004 C 
ENDBRANCH   1   5
TORSDOF 2
ENDMDL
MODEL 8
REMARK VINA RESULT:    -2.173     17.521     18.026
REMARK INTER + INTRA:          -2.465
REMARK INTER:                  -2.429
REMARK INTRA:                  -0.036
REMARK UNBOUND:                -0.038
REMARK SMILES CCCC(=O)[O-]
REMARK SMILES IDX 3 1 4 2 5 3 6 4 2 5 1 6
REMARK H PARENT
REMARK Flexibility Score: inf
ROOT
ATOM      1  C   UNL     1     -10.079 -18.385  10.875  1.00  0.00     0.052 C 
ENDROOT
BRANCH   1   2
ATOM      2  C   UNL     1      -9.594 -17.696  12.111  1.00  0.00     0.041 C 
ATOM      3  O   UNL     1     -10.414 -17.156  12.899  1.00  0.00    -0.550 OA
ATOM      4  O   UNL     1      -8.232 -17.606  12.369  1.00  0.00    -0.550 OA
ENDBRANCH   1   2
BRANCH   1   5
ATOM      5  C   UNL     1      -9.192 -18.029   9.680  1.00  0.00     0.003 C 
ATOM      6  C   UNL     1      -8.374 -19.232   9.222  1.00  0.00     0.004 C 
ENDBRANCH   1   5
TORSDOF 2
ENDMDL
MODEL 9
REMARK VINA RESULT:    -2.170     17.246     17.708
REMARK INTER + INTRA:          -2.461
REMARK INTER:                  -2.395
REMARK INTRA:                  -0.067
REMARK UNBOUND:                -0.038
REMARK SMILES CCCC(=O)[O-]
REMARK SMILES IDX 3 1 4 2 5 3 6 4 2 5 1 6
REMARK H PARENT
REMARK Flexibility Score: inf
ROOT
ATOM      1  C   UNL     1     -10.106 -18.647  10.880  1.00  0.00     0.052 C 
ENDROOT
BRANCH   1   2
ATOM      2  C   UNL     1      -9.559 -17.983  12.104  1.00  0.00     0.041 C 
ATOM      3  O   UNL     1      -8.377 -18.210  12.474  1.00  0.00    -0.550 OA
ATOM      4  O   UNL     1     -10.370 -17.151  12.865  1.00  0.00    -0.550 OA
ENDBRANCH   1   2
BRANCH   1   5
ATOM      5  C   UNL     1      -9.362 -18.165   9.632  1.00  0.00     0.003 C 
ATOM      6  C   UNL     1      -9.467 -16.651   9.478  1.00  0.00     0.004 C 
ENDBRANCH   1   5
TORSDOF 2
ENDMDL
