MODEL 1
REMARK VINA RESULT:    -4.404      0.000      0.000
REMARK INTER + INTRA:         -10.095
REMARK INTER:                  -7.236
REMARK INTRA:                  -2.858
REMARK UNBOUND:                -2.858
REMARK SMILES C[C@H]1O[C@H](OC[C@H]2O[C@@H](Oc3c(-c4ccc(O)c(O)c4)oc4cc(O)cc(O)c4c3=O)[C@@H](O)[C@H](O)[C@H]2O)[C@H](O)[C@@H](O)[C@H]1O
REMARK SMILES IDX 7 1 36 2 34 3 32 4 9 5 8 6 6 7 5 8 4 9 1 10 2 11 42 12 3 13
REMARK SMILES IDX 40 14 38 15 43 16 41 18 39 20 37 22 35 24 10 26 11 27 12 28
REMARK SMILES IDX 30 29 21 30 29 31 31 32 22 33 27 34 23 35 26 36 24 37 13 38
REMARK SMILES IDX 20 39 14 40 18 41 15 42 16 43 19 44 17 46 28 48 25 50 33 52
REMARK H PARENT 43 17 41 19 39 21 37 23 35 25 19 45 17 47 28 49 25 51 33 53
REMARK Flexibility Score: inf
ROOT
ATOM      1  C   UNL     1      37.440   8.289  25.066  1.00  0.00     0.180 C 
ATOM      2  C   UNL     1      36.695   7.930  23.756  1.00  0.00     0.177 C 
ATOM      3  C   UNL     1      37.681   7.574  22.633  1.00  0.00     0.180 C 
ATOM      4  C   UNL     1      38.711   8.698  22.497  1.00  0.00     0.214 C 
ATOM      5  C   UNL     1      39.385   8.976  23.854  1.00  0.00     0.339 C 
ATOM      6  O   UNL     1      38.439   9.284  24.871  1.00  0.00    -0.332 OA
ENDROOT
BRANCH   1   7
ATOM      7  C   UNL     1      37.978   7.077  25.853  1.00  0.00     0.198 C 
BRANCH   7   8
ATOM      8  O   UNL     1      37.038   6.687  26.834  1.00  0.00    -0.347 OA
BRANCH   8   9
ATOM      9  C   UNL     1      37.001   5.272  26.981  1.00  0.00     0.281 C 
ATOM     10  C   UNL     1      38.034   5.107  30.517  1.00  0.00     0.041 C 
ATOM     11  C   UNL     1      37.133   5.433  29.324  1.00  0.00     0.150 C 
ATOM     12  C   UNL     1      35.704   4.889  29.538  1.00  0.00     0.174 C 
ATOM     13  O   UNL     1      37.712   4.884  28.149  1.00  0.00    -0.344 OA
ATOM     14  C   UNL     1      34.845   5.240  28.316  1.00  0.00     0.179 C 
ATOM     15  C   UNL     1      35.542   4.763  27.026  1.00  0.00     0.202 C 
BRANCH  12  16
ATOM     16  O   UNL     1      35.735   3.492  29.706  1.00  0.00    -0.388 OA
ATOM     17  H   UNL     1      34.847   3.143  29.430  1.00  0.00     0.211 HD
ENDBRANCH  12  16
BRANCH  14  18
ATOM     18  O   UNL     1      33.585   4.629  28.443  1.00  0.00    -0.387 OA
ATOM     19  H   UNL     1      33.684   3.694  28.121  1.00  0.00     0.211 HD
ENDBRANCH  14  18
BRANCH  15  20
ATOM     20  O   UNL     1      34.844   5.227  25.898  1.00  0.00    -0.385 OA
ATOM     21  H   UNL     1      33.941   4.818  25.930  1.00  0.00     0.211 HD
ENDBRANCH  15  20
ENDBRANCH   8   9
ENDBRANCH   7   8
ENDBRANCH   1   7
BRANCH   2  22
ATOM     22  O   UNL     1      35.804   6.865  23.980  1.00  0.00    -0.387 OA
ATOM     23  H   UNL     1      36.347   6.036  24.020  1.00  0.00     0.211 HD
ENDBRANCH   2  22
BRANCH   3  24
ATOM     24  O   UNL     1      36.991   7.438  21.417  1.00  0.00    -0.387 OA
ATOM     25  H   UNL     1      36.251   6.796  21.574  1.00  0.00     0.211 HD
ENDBRANCH   3  24
BRANCH   5  26
ATOM     26  O   UNL     1      40.235   7.884  24.218  1.00  0.00    -0.454 OA
BRANCH  26  27
ATOM     27  C   UNL     1      41.634   7.930  24.369  1.00  0.00     0.214 A 
ATOM     28  C   UNL     1      42.165   8.132  25.659  1.00  0.00     0.180 A 
ATOM     29  C   UNL     1      42.533   7.763  23.294  1.00  0.00     0.239 A 
ATOM     30  O   UNL     1      43.481   8.116  25.851  1.00  0.00    -0.452 OA
ATOM     31  C   UNL     1      43.923   7.769  23.539  1.00  0.00     0.111 A 
ATOM     32  O   UNL     1      42.098   7.621  22.121  1.00  0.00    -0.285 OA
ATOM     33  C   UNL     1      44.358   7.947  24.872  1.00  0.00     0.146 A 
ATOM     34  C   UNL     1      44.890   7.602  22.517  1.00  0.00     0.134 A 
ATOM     35  C   UNL     1      45.723   7.947  25.176  1.00  0.00     0.094 A 
ATOM     36  C   UNL     1      46.255   7.609  22.840  1.00  0.00     0.093 A 
ATOM     37  C   UNL     1      46.672   7.777  24.163  1.00  0.00     0.123 A 
BRANCH  28  38
ATOM     38  C   UNL     1      41.296   8.317  26.842  1.00  0.00     0.025 A 
ATOM     39  C   UNL     1      40.767   9.588  27.117  1.00  0.00     0.062 A 
ATOM     40  C   UNL     1      40.949   7.237  27.671  1.00  0.00     0.016 A 
ATOM     41  C   UNL     1      39.934   9.790  28.225  1.00  0.00     0.158 A 
ATOM     42  C   UNL     1      40.121   7.434  28.778  1.00  0.00     0.051 A 
ATOM     43  C   UNL     1      39.613   8.710  29.063  1.00  0.00     0.157 A 
BRANCH  41  44
ATOM     44  O   UNL     1      39.437  11.070  28.474  1.00  0.00    -0.504 OA
ATOM     45  H   UNL     1      39.285  11.742  27.731  1.00  0.00     0.293 HD
ENDBRANCH  41  44
BRANCH  43  46
ATOM     46  O   UNL     1      38.789   8.905  30.171  1.00  0.00    -0.504 OA
ATOM     47  H   UNL     1      38.244   9.753  30.285  1.00  0.00     0.293 HD
ENDBRANCH  43  46
ENDBRANCH  28  38
BRANCH  34  48
ATOM     48  O   UNL     1      44.506   7.426  21.186  1.00  0.00    -0.507 OA
ATOM     49  H   UNL     1      45.026   7.844  20.423  1.00  0.00     0.293 HD
ENDBRANCH  34  48
BRANCH  37  50
ATOM     50  O   UNL     1      48.034   7.773  24.459  1.00  0.00    -0.508 OA
ATOM     51  H   UNL     1      48.666   8.455  24.052  1.00  0.00     0.293 HD
ENDBRANCH  37  50
ENDBRANCH  26  27
ENDBRANCH   5  26
BRANCH   4  52
ATOM     52  O   UNL     1      39.675   8.327  21.544  1.00  0.00    -0.384 OA
ATOM     53  H   UNL     1      40.544   8.700  21.854  1.00  0.00     0.211 HD
ENDBRANCH   4  52
TORSDOF 16
ENDMDL
MODEL 2
REMARK VINA RESULT:    -4.383      0.904      1.941
REMARK INTER + INTRA:         -10.059
REMARK INTER:                  -7.056
REMARK INTRA:                  -3.003
REMARK UNBOUND:                -2.858
REMARK SMILES C[C@H]1O[C@H](OC[C@H]2O[C@@H](Oc3c(-c4ccc(O)c(O)c4)oc4cc(O)cc(O)c4c3=O)[C@@H](O)[C@H](O)[C@H]2O)[C@H](O)[C@@H](O)[C@H]1O
REMARK SMILES IDX 7 1 36 2 34 3 32 4 9 5 8 6 6 7 5 8 4 9 1 10 2 11 42 12 3 13
REMARK SMILES IDX 40 14 38 15 43 16 41 18 39 20 37 22 35 24 10 26 11 27 12 28
REMARK SMILES IDX 30 29 21 30 29 31 31 32 22 33 27 34 23 35 26 36 24 37 13 38
REMARK SMILES IDX 20 39 14 40 18 41 15 42 16 43 19 44 17 46 28 48 25 50 33 52
REMARK H PARENT 43 17 41 19 39 21 37 23 35 25 19 45 17 47 28 49 25 51 33 53
REMARK Flexibility Score: inf
ROOT
ATOM      1  C   UNL     1      37.446   8.214  25.040  1.00  0.00     0.180 C 
ATOM      2  C   UNL     1      36.694   7.888  23.726  1.00  0.00     0.177 C 
ATOM      3  C   UNL     1      37.673   7.559  22.590  1.00  0.00     0.180 C 
ATOM      4  C   UNL     1      38.705   8.685  22.476  1.00  0.00     0.214 C 
ATOM      5  C   UNL     1      39.385   8.929  23.836  1.00  0.00     0.339 C 
ATOM      6  O   UNL     1      38.445   9.212  24.866  1.00  0.00    -0.332 OA
ENDROOT
BRANCH   1   7
ATOM      7  C   UNL     1      37.986   6.982  25.795  1.00  0.00     0.198 C 
BRANCH   7   8
ATOM      8  O   UNL     1      36.910   6.228  26.315  1.00  0.00    -0.347 OA
BRANCH   8   9
ATOM      9  C   UNL     1      36.577   6.643  27.634  1.00  0.00     0.281 C 
ATOM     10  C   UNL     1      33.058   7.548  27.002  1.00  0.00     0.041 C 
ATOM     11  C   UNL     1      34.277   6.633  27.141  1.00  0.00     0.150 C 
ATOM     12  C   UNL     1      33.982   5.450  28.086  1.00  0.00     0.174 C 
ATOM     13  O   UNL     1      35.373   7.400  27.618  1.00  0.00    -0.344 OA
ATOM     14  C   UNL     1      35.232   4.567  28.192  1.00  0.00     0.179 C 
ATOM     15  C   UNL     1      36.453   5.426  28.579  1.00  0.00     0.202 C 
BRANCH  12  16
ATOM     16  O   UNL     1      33.630   5.923  29.365  1.00  0.00    -0.388 OA
ATOM     17  H   UNL     1      32.650   6.084  29.359  1.00  0.00     0.211 HD
ENDBRANCH  12  16
BRANCH  14  18
ATOM     18  O   UNL     1      35.015   3.568  29.157  1.00  0.00    -0.387 OA
ATOM     19  H   UNL     1      35.611   2.807  28.925  1.00  0.00     0.211 HD
ENDBRANCH  14  18
BRANCH  15  20
ATOM     20  O   UNL     1      37.627   4.656  28.515  1.00  0.00    -0.385 OA
ATOM     21  H   UNL     1      37.655   4.248  27.611  1.00  0.00     0.211 HD
ENDBRANCH  15  20
ENDBRANCH   8   9
ENDBRANCH   7   8
ENDBRANCH   1   7
BRANCH   2  22
ATOM     22  O   UNL     1      35.803   6.818  23.928  1.00  0.00    -0.387 OA
ATOM     23  H   UNL     1      35.573   6.810  24.893  1.00  0.00     0.211 HD
ENDBRANCH   2  22
BRANCH   3  24
ATOM     24  O   UNL     1      36.978   7.453  21.374  1.00  0.00    -0.387 OA
ATOM     25  H   UNL     1      37.570   6.965  20.744  1.00  0.00     0.211 HD
ENDBRANCH   3  24
BRANCH   5  26
ATOM     26  O   UNL     1      40.236   7.827  24.168  1.00  0.00    -0.454 OA
BRANCH  26  27
ATOM     27  C   UNL     1      41.633   7.873  24.341  1.00  0.00     0.214 A 
ATOM     28  C   UNL     1      42.145   8.037  25.643  1.00  0.00     0.180 A 
ATOM     29  C   UNL     1      42.548   7.744  23.274  1.00  0.00     0.239 A 
ATOM     30  O   UNL     1      43.458   8.020  25.854  1.00  0.00    -0.452 OA
ATOM     31  C   UNL     1      43.934   7.747  23.538  1.00  0.00     0.111 A 
ATOM     32  O   UNL     1      42.129   7.637  22.091  1.00  0.00    -0.285 OA
ATOM     33  C   UNL     1      44.349   7.885  24.883  1.00  0.00     0.146 A 
ATOM     34  C   UNL     1      44.916   7.616  22.525  1.00  0.00     0.134 A 
ATOM     35  C   UNL     1      45.710   7.881  25.205  1.00  0.00     0.094 A 
ATOM     36  C   UNL     1      46.276   7.618  22.868  1.00  0.00     0.093 A 
ATOM     37  C   UNL     1      46.674   7.746  24.201  1.00  0.00     0.123 A 
BRANCH  28  38
ATOM     38  C   UNL     1      41.259   8.182  26.820  1.00  0.00     0.025 A 
ATOM     39  C   UNL     1      40.976   7.058  27.613  1.00  0.00     0.062 A 
ATOM     40  C   UNL     1      40.734   9.431  27.190  1.00  0.00     0.016 A 
ATOM     41  C   UNL     1      40.148   7.170  28.738  1.00  0.00     0.158 A 
ATOM     42  C   UNL     1      39.906   9.546  28.309  1.00  0.00     0.051 A 
ATOM     43  C   UNL     1      39.606   8.418  29.086  1.00  0.00     0.157 A 
BRANCH  41  44
ATOM     44  O   UNL     1      39.878   6.029  29.495  1.00  0.00    -0.504 OA
ATOM     45  H   UNL     1      39.039   5.478  29.356  1.00  0.00     0.293 HD
ENDBRANCH  41  44
BRANCH  43  46
ATOM     46  O   UNL     1      38.777   8.534  30.201  1.00  0.00    -0.504 OA
ATOM     47  H   UNL     1      38.028   9.216  30.237  1.00  0.00     0.293 HD
ENDBRANCH  43  46
ENDBRANCH  28  38
BRANCH  34  48
ATOM     48  O   UNL     1      44.551   7.481  21.185  1.00  0.00    -0.507 OA
ATOM     49  H   UNL     1      43.855   6.806  20.888  1.00  0.00     0.293 HD
ENDBRANCH  34  48
BRANCH  37  50
ATOM     50  O   UNL     1      48.031   7.738  24.515  1.00  0.00    -0.508 OA
ATOM     51  H   UNL     1      48.472   8.526  24.977  1.00  0.00     0.293 HD
ENDBRANCH  37  50
ENDBRANCH  26  27
ENDBRANCH   5  26
BRANCH   4  52
ATOM     52  O   UNL     1      39.664   8.336  21.510  1.00  0.00    -0.384 OA
ATOM     53  H   UNL     1      39.738   7.345  21.522  1.00  0.00     0.211 HD
ENDBRANCH   4  52
TORSDOF 16
ENDMDL
MODEL 3
REMARK VINA RESULT:    -4.317      9.538     12.985
REMARK INTER + INTRA:          -9.952
REMARK INTER:                  -6.997
REMARK INTRA:                  -2.955
REMARK UNBOUND:                -2.858
REMARK SMILES C[C@H]1O[C@H](OC[C@H]2O[C@@H](Oc3c(-c4ccc(O)c(O)c4)oc4cc(O)cc(O)c4c3=O)[C@@H](O)[C@H](O)[C@H]2O)[C@H](O)[C@@H](O)[C@H]1O
REMARK SMILES IDX 7 1 36 2 34 3 32 4 9 5 8 6 6 7 5 8 4 9 1 10 2 11 42 12 3 13
REMARK SMILES IDX 40 14 38 15 43 16 41 18 39 20 37 22 35 24 10 26 11 27 12 28
REMARK SMILES IDX 30 29 21 30 29 31 31 32 22 33 27 34 23 35 26 36 24 37 13 38
REMARK SMILES IDX 20 39 14 40 18 41 15 42 16 43 19 44 17 46 28 48 25 50 33 52
REMARK H PARENT 43 17 41 19 39 21 37 23 35 25 19 45 17 47 28 49 25 51 33 53
REMARK Flexibility Score: inf
ROOT
ATOM      1  C   UNL     1      40.068  16.489  18.877  1.00  0.00     0.180 C 
ATOM      2  C   UNL     1      39.092  17.428  19.629  1.00  0.00     0.177 C 
ATOM      3  C   UNL     1      37.636  16.972  19.455  1.00  0.00     0.180 C 
ATOM      4  C   UNL     1      37.339  16.801  17.963  1.00  0.00     0.214 C 
ATOM      5  C   UNL     1      38.370  15.857  17.316  1.00  0.00     0.339 C 
ATOM      6  O   UNL     1      39.707  16.303  17.513  1.00  0.00    -0.332 OA
ENDROOT
BRANCH   1   7
ATOM      7  C   UNL     1      40.350  15.150  19.589  1.00  0.00     0.198 C 
BRANCH   7   8
ATOM      8  O   UNL     1      41.743  14.927  19.658  1.00  0.00    -0.347 OA
BRANCH   8   9
ATOM      9  C   UNL     1      42.432  16.088  20.105  1.00  0.00     0.281 C 
ATOM     10  C   UNL     1      42.255  15.417  23.727  1.00  0.00     0.041 C 
ATOM     11  C   UNL     1      42.678  15.206  22.271  1.00  0.00     0.150 C 
ATOM     12  C   UNL     1      44.212  15.079  22.149  1.00  0.00     0.174 C 
ATOM     13  O   UNL     1      42.198  16.292  21.493  1.00  0.00    -0.344 OA
ATOM     14  C   UNL     1      44.583  14.871  20.675  1.00  0.00     0.179 C 
ATOM     15  C   UNL     1      43.945  15.977  19.810  1.00  0.00     0.202 C 
BRANCH  12  16
ATOM     16  O   UNL     1      44.838  16.244  22.632  1.00  0.00    -0.388 OA
ATOM     17  H   UNL     1      44.710  16.259  23.617  1.00  0.00     0.211 HD
ENDBRANCH  12  16
BRANCH  14  18
ATOM     18  O   UNL     1      45.982  14.894  20.540  1.00  0.00    -0.387 OA
ATOM     19  H   UNL     1      46.177  15.024  19.575  1.00  0.00     0.211 HD
ENDBRANCH  14  18
BRANCH  15  20
ATOM     20  O   UNL     1      44.142  15.699  18.446  1.00  0.00    -0.385 OA
ATOM     21  H   UNL     1      44.302  14.723  18.371  1.00  0.00     0.211 HD
ENDBRANCH  15  20
ENDBRANCH   8   9
ENDBRANCH   7   8
ENDBRANCH   1   7
BRANCH   2  22
ATOM     22  O   UNL     1      39.427  17.485  20.994  1.00  0.00    -0.387 OA
ATOM     23  H   UNL     1      39.640  18.431  21.201  1.00  0.00     0.211 HD
ENDBRANCH   2  22
BRANCH   3  24
ATOM     24  O   UNL     1      36.766  17.940  19.984  1.00  0.00    -0.387 OA
ATOM     25  H   UNL     1      35.842  17.645  19.772  1.00  0.00     0.211 HD
ENDBRANCH   3  24
BRANCH   5  26
ATOM     26  O   UNL     1      38.172  14.517  17.778  1.00  0.00    -0.454 OA
BRANCH  26  27
ATOM     27  C   UNL     1      37.632  13.449  17.036  1.00  0.00     0.214 A 
ATOM     28  C   UNL     1      38.432  12.843  16.047  1.00  0.00     0.180 A 
ATOM     29  C   UNL     1      36.331  12.942  17.247  1.00  0.00     0.239 A 
ATOM     30  O   UNL     1      37.980  11.791  15.371  1.00  0.00    -0.452 OA
ATOM     31  C   UNL     1      35.883  11.834  16.497  1.00  0.00     0.111 A 
ATOM     32  O   UNL     1      35.571  13.482  18.093  1.00  0.00    -0.285 OA
ATOM     33  C   UNL     1      36.773  11.275  15.551  1.00  0.00     0.146 A 
ATOM     34  C   UNL     1      34.597  11.261  16.654  1.00  0.00     0.134 A 
ATOM     35  C   UNL     1      36.387  10.167  14.789  1.00  0.00     0.094 A 
ATOM     36  C   UNL     1      34.228  10.153  15.878  1.00  0.00     0.093 A 
ATOM     37  C   UNL     1      35.118   9.604  14.952  1.00  0.00     0.123 A 
BRANCH  28  38
ATOM     38  C   UNL     1      39.806  13.311  15.757  1.00  0.00     0.025 A 
ATOM     39  C   UNL     1      40.831  13.055  16.682  1.00  0.00     0.062 A 
ATOM     40  C   UNL     1      40.117  13.964  14.553  1.00  0.00     0.016 A 
ATOM     41  C   UNL     1      42.142  13.478  16.428  1.00  0.00     0.158 A 
ATOM     42  C   UNL     1      41.422  14.390  14.297  1.00  0.00     0.051 A 
ATOM     43  C   UNL     1      42.439  14.154  15.233  1.00  0.00     0.157 A 
BRANCH  41  44
ATOM     44  O   UNL     1      43.132  13.218  17.376  1.00  0.00    -0.504 OA
ATOM     45  H   UNL     1      44.118  13.324  17.166  1.00  0.00     0.293 HD
ENDBRANCH  41  44
BRANCH  43  46
ATOM     46  O   UNL     1      43.741  14.583  14.977  1.00  0.00    -0.504 OA
ATOM     47  H   UNL     1      44.530  13.947  15.030  1.00  0.00     0.293 HD
ENDBRANCH  43  46
ENDBRANCH  28  38
BRANCH  34  48
ATOM     48  O   UNL     1      33.686  11.783  17.574  1.00  0.00    -0.507 OA
ATOM     49  H   UNL     1      32.691  11.607  17.495  1.00  0.00     0.293 HD
ENDBRANCH  34  48
BRANCH  37  50
ATOM     50  O   UNL     1      34.729   8.498  14.199  1.00  0.00    -0.508 OA
ATOM     51  H   UNL     1      34.875   8.463  13.195  1.00  0.00     0.293 HD
ENDBRANCH  37  50
ENDBRANCH  26  27
ENDBRANCH   5  26
BRANCH   4  52
ATOM     52  O   UNL     1      36.043  16.283  17.806  1.00  0.00    -0.384 OA
ATOM     53  H   UNL     1      36.097  15.577  17.108  1.00  0.00     0.211 HD
ENDBRANCH   4  52
TORSDOF 16
ENDMDL
MODEL 4
REMARK VINA RESULT:    -4.271      9.927     12.881
REMARK INTER + INTRA:          -9.877
REMARK INTER:                  -7.798
REMARK INTRA:                  -2.079
REMARK UNBOUND:                -2.858
REMARK SMILES C[C@H]1O[C@H](OC[C@H]2O[C@@H](Oc3c(-c4ccc(O)c(O)c4)oc4cc(O)cc(O)c4c3=O)[C@@H](O)[C@H](O)[C@H]2O)[C@H](O)[C@@H](O)[C@H]1O
REMARK SMILES IDX 7 1 36 2 34 3 32 4 9 5 8 6 6 7 5 8 4 9 1 10 2 11 42 12 3 13
REMARK SMILES IDX 40 14 38 15 43 16 41 18 39 20 37 22 35 24 10 26 11 27 12 28
REMARK SMILES IDX 30 29 21 30 29 31 31 32 22 33 27 34 23 35 26 36 24 37 13 38
REMARK SMILES IDX 20 39 14 40 18 41 15 42 16 43 19 44 17 46 28 48 25 50 33 52
REMARK H PARENT 43 17 41 19 39 21 37 23 35 25 19 45 17 47 28 49 25 51 33 53
REMARK Flexibility Score: inf
ROOT
ATOM      1  C   UNL     1      38.134  12.965  13.968  1.00  0.00     0.180 C 
ATOM      2  C   UNL     1      38.498  12.557  12.519  1.00  0.00     0.177 C 
ATOM      3  C   UNL     1      39.994  12.764  12.241  1.00  0.00     0.180 C 
ATOM      4  C   UNL     1      40.381  14.196  12.620  1.00  0.00     0.214 C 
ATOM      5  C   UNL     1      39.969  14.496  14.073  1.00  0.00     0.339 C 
ATOM      6  O   UNL     1      38.581  14.276  14.296  1.00  0.00    -0.332 OA
ENDROOT
BRANCH   1   7
ATOM      7  C   UNL     1      38.528  11.934  15.046  1.00  0.00     0.198 C 
BRANCH   7   8
ATOM      8  O   UNL     1      37.403  11.156  15.400  1.00  0.00    -0.347 OA
BRANCH   8   9
ATOM      9  C   UNL     1      36.190  11.812  15.053  1.00  0.00     0.281 C 
ATOM     10  C   UNL     1      34.394   8.880  13.723  1.00  0.00     0.041 C 
ATOM     11  C   UNL     1      35.069   9.763  14.774  1.00  0.00     0.150 C 
ATOM     12  C   UNL     1      34.144   9.994  15.987  1.00  0.00     0.174 C 
ATOM     13  O   UNL     1      35.429  10.998  14.170  1.00  0.00    -0.344 OA
ATOM     14  C   UNL     1      34.865  10.885  17.007  1.00  0.00     0.179 C 
ATOM     15  C   UNL     1      35.376  12.167  16.319  1.00  0.00     0.202 C 
BRANCH  12  16
ATOM     16  O   UNL     1      32.950  10.618  15.578  1.00  0.00    -0.388 OA
ATOM     17  H   UNL     1      32.556  10.058  14.859  1.00  0.00     0.211 HD
ENDBRANCH  12  16
BRANCH  14  18
ATOM     18  O   UNL     1      33.978  11.212  18.048  1.00  0.00    -0.387 OA
ATOM     19  H   UNL     1      33.124  10.740  17.858  1.00  0.00     0.211 HD
ENDBRANCH  14  18
BRANCH  15  20
ATOM     20  O   UNL     1      36.178  12.906  17.206  1.00  0.00    -0.385 OA
ATOM     21  H   UNL     1      36.970  13.210  16.692  1.00  0.00     0.211 HD
ENDBRANCH  15  20
ENDBRANCH   8   9
ENDBRANCH   7   8
ENDBRANCH   1   7
BRANCH   2  22
ATOM     22  O   UNL     1      38.139  11.217  12.287  1.00  0.00    -0.387 OA
ATOM     23  H   UNL     1      38.775  10.653  12.797  1.00  0.00     0.211 HD
ENDBRANCH   2  22
BRANCH   3  24
ATOM     24  O   UNL     1      40.259  12.566  10.876  1.00  0.00    -0.387 OA
ATOM     25  H   UNL     1      39.938  11.656  10.648  1.00  0.00     0.211 HD
ENDBRANCH   3  24
BRANCH   5  26
ATOM     26  O   UNL     1      40.787  13.755  14.983  1.00  0.00    -0.454 OA
BRANCH  26  27
ATOM     27  C   UNL     1      41.232  14.186  16.248  1.00  0.00     0.214 A 
ATOM     28  C   UNL     1      42.588  14.537  16.400  1.00  0.00     0.180 A 
ATOM     29  C   UNL     1      40.380  14.304  17.367  1.00  0.00     0.239 A 
ATOM     30  O   UNL     1      43.030  15.011  17.562  1.00  0.00    -0.452 OA
ATOM     31  C   UNL     1      40.893  14.795  18.587  1.00  0.00     0.111 A 
ATOM     32  O   UNL     1      39.172  13.961  17.282  1.00  0.00    -0.285 OA
ATOM     33  C   UNL     1      42.261  15.152  18.631  1.00  0.00     0.146 A 
ATOM     34  C   UNL     1      40.104  14.949  19.753  1.00  0.00     0.134 A 
ATOM     35  C   UNL     1      42.820  15.658  19.809  1.00  0.00     0.094 A 
ATOM     36  C   UNL     1      40.684  15.455  20.926  1.00  0.00     0.093 A 
ATOM     37  C   UNL     1      42.035  15.812  20.955  1.00  0.00     0.123 A 
BRANCH  28  38
ATOM     38  C   UNL     1      43.551  14.444  15.281  1.00  0.00     0.025 A 
ATOM     39  C   UNL     1      43.943  13.179  14.813  1.00  0.00     0.062 A 
ATOM     40  C   UNL     1      44.045  15.594  14.643  1.00  0.00     0.016 A 
ATOM     41  C   UNL     1      44.846  13.062  13.748  1.00  0.00     0.158 A 
ATOM     42  C   UNL     1      44.948  15.482  13.583  1.00  0.00     0.051 A 
ATOM     43  C   UNL     1      45.356  14.217  13.133  1.00  0.00     0.157 A 
BRANCH  41  44
ATOM     44  O   UNL     1      45.224  11.789  13.318  1.00  0.00    -0.504 OA
ATOM     45  H   UNL     1      45.438  11.591  12.348  1.00  0.00     0.293 HD
ENDBRANCH  41  44
BRANCH  43  46
ATOM     46  O   UNL     1      46.259  14.107  12.076  1.00  0.00    -0.504 OA
ATOM     47  H   UNL     1      47.249  13.960  12.238  1.00  0.00     0.293 HD
ENDBRANCH  43  46
ENDBRANCH  28  38
BRANCH  34  48
ATOM     48  O   UNL     1      38.751  14.608  19.755  1.00  0.00    -0.507 OA
ATOM     49  H   UNL     1      38.383  13.886  19.145  1.00  0.00     0.293 HD
ENDBRANCH  34  48
BRANCH  37  50
ATOM     50  O   UNL     1      42.585  16.318  22.131  1.00  0.00    -0.508 OA
ATOM     51  H   UNL     1      43.588  16.331  22.284  1.00  0.00     0.293 HD
ENDBRANCH  37  50
ENDBRANCH  26  27
ENDBRANCH   5  26
BRANCH   4  52
ATOM     52  O   UNL     1      41.769  14.355  12.467  1.00  0.00    -0.384 OA
ATOM     53  H   UNL     1      42.067  14.979  13.181  1.00  0.00     0.211 HD
ENDBRANCH   4  52
TORSDOF 16
ENDMDL
MODEL 5
REMARK VINA RESULT:    -4.221      7.902     12.732
REMARK INTER + INTRA:          -9.793
REMARK INTER:                  -7.540
REMARK INTRA:                  -2.252
REMARK UNBOUND:                -2.858
REMARK SMILES C[C@H]1O[C@H](OC[C@H]2O[C@@H](Oc3c(-c4ccc(O)c(O)c4)oc4cc(O)cc(O)c4c3=O)[C@@H](O)[C@H](O)[C@H]2O)[C@H](O)[C@@H](O)[C@H]1O
REMARK SMILES IDX 7 1 36 2 34 3 32 4 9 5 8 6 6 7 5 8 4 9 1 10 2 11 42 12 3 13
REMARK SMILES IDX 40 14 38 15 43 16 41 18 39 20 37 22 35 24 10 26 11 27 12 28
REMARK SMILES IDX 30 29 21 30 29 31 31 32 22 33 27 34 23 35 26 36 24 37 13 38
REMARK SMILES IDX 20 39 14 40 18 41 15 42 16 43 19 44 17 46 28 48 25 50 33 52
REMARK H PARENT 43 17 41 19 39 21 37 23 35 25 19 45 17 47 28 49 25 51 33 53
REMARK Flexibility Score: inf
ROOT
ATOM      1  C   UNL     1      47.551   0.903  20.235  1.00  0.00     0.180 C 
ATOM      2  C   UNL     1      48.876   0.321  20.790  1.00  0.00     0.177 C 
ATOM      3  C   UNL     1      50.042   0.571  19.822  1.00  0.00     0.180 C 
ATOM      4  C   UNL     1      49.654   0.069  18.429  1.00  0.00     0.214 C 
ATOM      5  C   UNL     1      48.324   0.703  17.981  1.00  0.00     0.339 C 
ATOM      6  O   UNL     1      47.273   0.465  18.910  1.00  0.00    -0.332 OA
ENDROOT
BRANCH   1   7
ATOM      7  C   UNL     1      47.409   2.432  20.381  1.00  0.00     0.198 C 
BRANCH   7   8
ATOM      8  O   UNL     1      46.218   2.740  21.074  1.00  0.00    -0.347 OA
BRANCH   8   9
ATOM      9  C   UNL     1      46.424   2.744  22.481  1.00  0.00     0.281 C 
ATOM     10  C   UNL     1      48.387   5.858  22.693  1.00  0.00     0.041 C 
ATOM     11  C   UNL     1      47.160   4.978  22.447  1.00  0.00     0.150 C 
ATOM     12  C   UNL     1      45.936   5.494  23.231  1.00  0.00     0.174 C 
ATOM     13  O   UNL     1      47.472   3.643  22.819  1.00  0.00    -0.344 OA
ATOM     14  C   UNL     1      44.736   4.578  22.952  1.00  0.00     0.179 C 
ATOM     15  C   UNL     1      45.119   3.110  23.226  1.00  0.00     0.202 C 
BRANCH  12  16
ATOM     16  O   UNL     1      46.209   5.504  24.612  1.00  0.00    -0.388 OA
ATOM     17  H   UNL     1      47.067   5.988  24.739  1.00  0.00     0.211 HD
ENDBRANCH  12  16
BRANCH  14  18
ATOM     18  O   UNL     1      43.659   4.961  23.769  1.00  0.00    -0.387 OA
ATOM     19  H   UNL     1      43.325   4.137  24.213  1.00  0.00     0.211 HD
ENDBRANCH  14  18
BRANCH  15  20
ATOM     20  O   UNL     1      44.083   2.254  22.815  1.00  0.00    -0.385 OA
ATOM     21  H   UNL     1      43.580   2.731  22.106  1.00  0.00     0.211 HD
ENDBRANCH  15  20
ENDBRANCH   8   9
ENDBRANCH   7   8
ENDBRANCH   1   7
BRANCH   2  22
ATOM     22  O   UNL     1      49.160   0.875  22.051  1.00  0.00    -0.387 OA
ATOM     23  H   UNL     1      48.548   0.443  22.702  1.00  0.00     0.211 HD
ENDBRANCH   2  22
BRANCH   3  24
ATOM     24  O   UNL     1      51.182  -0.125  20.257  1.00  0.00    -0.387 OA
ATOM     25  H   UNL     1      51.353   0.156  21.193  1.00  0.00     0.211 HD
ENDBRANCH   3  24
BRANCH   5  26
ATOM     26  O   UNL     1      48.506   2.097  17.715  1.00  0.00    -0.454 OA
BRANCH  26  27
ATOM     27  C   UNL     1      48.543   2.707  16.446  1.00  0.00     0.214 A 
ATOM     28  C   UNL     1      47.331   2.887  15.750  1.00  0.00     0.180 A 
ATOM     29  C   UNL     1      49.735   3.167  15.844  1.00  0.00     0.239 A 
ATOM     30  O   UNL     1      47.318   3.517  14.579  1.00  0.00    -0.452 OA
ATOM     31  C   UNL     1      49.679   3.816  14.593  1.00  0.00     0.111 A 
ATOM     32  O   UNL     1      50.842   2.988  16.416  1.00  0.00    -0.285 OA
ATOM     33  C   UNL     1      48.411   3.978  13.988  1.00  0.00     0.146 A 
ATOM     34  C   UNL     1      50.827   4.312  13.926  1.00  0.00     0.134 A 
ATOM     35  C   UNL     1      48.295   4.626  12.755  1.00  0.00     0.094 A 
ATOM     36  C   UNL     1      50.691   4.956  12.688  1.00  0.00     0.093 A 
ATOM     37  C   UNL     1      49.432   5.117  12.104  1.00  0.00     0.123 A 
BRANCH  28  38
ATOM     38  C   UNL     1      46.036   2.435  16.304  1.00  0.00     0.025 A 
ATOM     39  C   UNL     1      45.501   3.086  17.428  1.00  0.00     0.062 A 
ATOM     40  C   UNL     1      45.304   1.399  15.701  1.00  0.00     0.016 A 
ATOM     41  C   UNL     1      44.272   2.685  17.967  1.00  0.00     0.158 A 
ATOM     42  C   UNL     1      44.080   0.993  16.237  1.00  0.00     0.051 A 
ATOM     43  C   UNL     1      43.559   1.630  17.373  1.00  0.00     0.157 A 
BRANCH  41  44
ATOM     44  O   UNL     1      43.779   3.346  19.092  1.00  0.00    -0.504 OA
ATOM     45  H   UNL     1      42.794   3.562  19.200  1.00  0.00     0.293 HD
ENDBRANCH  41  44
BRANCH  43  46
ATOM     46  O   UNL     1      42.338   1.222  17.909  1.00  0.00    -0.504 OA
ATOM     47  H   UNL     1      41.532   1.837  17.922  1.00  0.00     0.293 HD
ENDBRANCH  43  46
ENDBRANCH  28  38
BRANCH  34  48
ATOM     48  O   UNL     1      52.099   4.172  14.485  1.00  0.00    -0.507 OA
ATOM     49  H   UNL     1      52.916   3.996  13.911  1.00  0.00     0.293 HD
ENDBRANCH  34  48
BRANCH  37  50
ATOM     50  O   UNL     1      49.323   5.767  10.877  1.00  0.00    -0.508 OA
ATOM     51  H   UNL     1      49.399   6.777  10.803  1.00  0.00     0.293 HD
ENDBRANCH  37  50
ENDBRANCH  26  27
ENDBRANCH   5  26
BRANCH   4  52
ATOM     52  O   UNL     1      50.676   0.392  17.521  1.00  0.00    -0.384 OA
ATOM     53  H   UNL     1      50.240   0.824  16.738  1.00  0.00     0.211 HD
ENDBRANCH   4  52
TORSDOF 16
ENDMDL
MODEL 6
REMARK VINA RESULT:    -4.114     10.077     13.284
REMARK INTER + INTRA:          -9.618
REMARK INTER:                  -7.448
REMARK INTRA:                  -2.170
REMARK UNBOUND:                -2.858
REMARK SMILES C[C@H]1O[C@H](OC[C@H]2O[C@@H](Oc3c(-c4ccc(O)c(O)c4)oc4cc(O)cc(O)c4c3=O)[C@@H](O)[C@H](O)[C@H]2O)[C@H](O)[C@@H](O)[C@H]1O
REMARK SMILES IDX 7 1 36 2 34 3 32 4 9 5 8 6 6 7 5 8 4 9 1 10 2 11 42 12 3 13
REMARK SMILES IDX 40 14 38 15 43 16 41 18 39 20 37 22 35 24 10 26 11 27 12 28
REMARK SMILES IDX 30 29 21 30 29 31 31 32 22 33 27 34 23 35 26 36 24 37 13 38
REMARK SMILES IDX 20 39 14 40 18 41 15 42 16 43 19 44 17 46 28 48 25 50 33 52
REMARK H PARENT 43 17 41 19 39 21 37 23 35 25 19 45 17 47 28 49 25 51 33 53
REMARK Flexibility Score: inf
ROOT
ATOM      1  C   UNL     1      38.109  15.018  14.255  1.00  0.00     0.180 C 
ATOM      2  C   UNL     1      38.211  14.836  12.720  1.00  0.00     0.177 C 
ATOM      3  C   UNL     1      39.669  14.646  12.277  1.00  0.00     0.180 C 
ATOM      4  C   UNL     1      40.518  15.787  12.845  1.00  0.00     0.214 C 
ATOM      5  C   UNL     1      40.337  15.882  14.371  1.00  0.00     0.339 C 
ATOM      6  O   UNL     1      38.972  16.039  14.743  1.00  0.00    -0.332 OA
ENDROOT
BRANCH   1   7
ATOM      7  C   UNL     1      38.239  13.714  15.068  1.00  0.00     0.198 C 
BRANCH   7   8
ATOM      8  O   UNL     1      37.102  12.902  14.860  1.00  0.00    -0.347 OA
BRANCH   8   9
ATOM      9  C   UNL     1      37.323  11.573  15.315  1.00  0.00     0.281 C 
ATOM     10  C   UNL     1      33.957  10.942  16.682  1.00  0.00     0.041 C 
ATOM     11  C   UNL     1      35.019  11.207  15.612  1.00  0.00     0.150 C 
ATOM     12  C   UNL     1      34.941  10.163  14.479  1.00  0.00     0.174 C 
ATOM     13  O   UNL     1      36.300  11.192  16.226  1.00  0.00    -0.344 OA
ATOM     14  C   UNL     1      36.024  10.471  13.436  1.00  0.00     0.179 C 
ATOM     15  C   UNL     1      37.399  10.590  14.124  1.00  0.00     0.202 C 
BRANCH  12  16
ATOM     16  O   UNL     1      35.138   8.867  14.993  1.00  0.00    -0.388 OA
ATOM     17  H   UNL     1      35.443   8.295  14.242  1.00  0.00     0.211 HD
ENDBRANCH  12  16
BRANCH  14  18
ATOM     18  O   UNL     1      36.049   9.446  12.475  1.00  0.00    -0.387 OA
ATOM     19  H   UNL     1      36.103   8.586  12.970  1.00  0.00     0.211 HD
ENDBRANCH  14  18
BRANCH  15  20
ATOM     20  O   UNL     1      38.364  11.035  13.205  1.00  0.00    -0.385 OA
ATOM     21  H   UNL     1      39.218  11.120  13.702  1.00  0.00     0.211 HD
ENDBRANCH  15  20
ENDBRANCH   8   9
ENDBRANCH   7   8
ENDBRANCH   1   7
BRANCH   2  22
ATOM     22  O   UNL     1      37.429  13.742  12.308  1.00  0.00    -0.387 OA
ATOM     23  H   UNL     1      36.706  13.632  12.978  1.00  0.00     0.211 HD
ENDBRANCH   2  22
BRANCH   3  24
ATOM     24  O   UNL     1      39.750  14.672  10.875  1.00  0.00    -0.387 OA
ATOM     25  H   UNL     1      40.715  14.680  10.642  1.00  0.00     0.211 HD
ENDBRANCH   3  24
BRANCH   5  26
ATOM     26  O   UNL     1      40.946  14.757  15.013  1.00  0.00    -0.454 OA
BRANCH  26  27
ATOM     27  C   UNL     1      41.635  14.769  16.241  1.00  0.00     0.214 A 
ATOM     28  C   UNL     1      43.030  14.566  16.233  1.00  0.00     0.180 A 
ATOM     29  C   UNL     1      40.999  14.996  17.481  1.00  0.00     0.239 A 
ATOM     30  O   UNL     1      43.723  14.634  17.366  1.00  0.00    -0.452 OA
ATOM     31  C   UNL     1      41.770  15.045  18.663  1.00  0.00     0.111 A 
ATOM     32  O   UNL     1      39.750  15.142  17.535  1.00  0.00    -0.285 OA
ATOM     33  C   UNL     1      43.167  14.860  18.547  1.00  0.00     0.146 A 
ATOM     34  C   UNL     1      41.210  15.274  19.944  1.00  0.00     0.134 A 
ATOM     35  C   UNL     1      43.982  14.914  19.682  1.00  0.00     0.094 A 
ATOM     36  C   UNL     1      42.044  15.320  21.071  1.00  0.00     0.093 A 
ATOM     37  C   UNL     1      43.424  15.144  20.944  1.00  0.00     0.123 A 
BRANCH  28  38
ATOM     38  C   UNL     1      43.777  14.320  14.980  1.00  0.00     0.025 A 
ATOM     39  C   UNL     1      43.674  13.069  14.349  1.00  0.00     0.062 A 
ATOM     40  C   UNL     1      44.549  15.328  14.379  1.00  0.00     0.016 A 
ATOM     41  C   UNL     1      44.363  12.813  13.157  1.00  0.00     0.158 A 
ATOM     42  C   UNL     1      45.240  15.076  13.192  1.00  0.00     0.051 A 
ATOM     43  C   UNL     1      45.154  13.818  12.577  1.00  0.00     0.157 A 
BRANCH  41  44
ATOM     44  O   UNL     1      44.247  11.555  12.566  1.00  0.00    -0.504 OA
ATOM     45  H   UNL     1      45.045  10.941  12.448  1.00  0.00     0.293 HD
ENDBRANCH  41  44
BRANCH  43  46
ATOM     46  O   UNL     1      45.847  13.568  11.393  1.00  0.00    -0.504 OA
ATOM     47  H   UNL     1      46.859  13.516  11.371  1.00  0.00     0.293 HD
ENDBRANCH  43  46
ENDBRANCH  28  38
BRANCH  34  48
ATOM     48  O   UNL     1      39.836  15.459  20.104  1.00  0.00    -0.507 OA
ATOM     49  H   UNL     1      39.461  16.064  20.826  1.00  0.00     0.293 HD
ENDBRANCH  34  48
BRANCH  37  50
ATOM     50  O   UNL     1      44.230  15.201  22.078  1.00  0.00    -0.508 OA
ATOM     51  H   UNL     1      44.648  14.365  22.474  1.00  0.00     0.293 HD
ENDBRANCH  37  50
ENDBRANCH  26  27
ENDBRANCH   5  26
BRANCH   4  52
ATOM     52  O   UNL     1      41.868  15.559  12.530  1.00  0.00    -0.384 OA
ATOM     53  H   UNL     1      41.948  14.598  12.287  1.00  0.00     0.211 HD
ENDBRANCH   4  52
TORSDOF 16
ENDMDL
MODEL 7
REMARK VINA RESULT:    -4.051      8.958     13.152
REMARK INTER + INTRA:          -9.515
REMARK INTER:                  -6.757
REMARK INTRA:                  -2.758
REMARK UNBOUND:                -2.858
REMARK SMILES C[C@H]1O[C@H](OC[C@H]2O[C@@H](Oc3c(-c4ccc(O)c(O)c4)oc4cc(O)cc(O)c4c3=O)[C@@H](O)[C@H](O)[C@H]2O)[C@H](O)[C@@H](O)[C@H]1O
REMARK SMILES IDX 7 1 36 2 34 3 32 4 9 5 8 6 6 7 5 8 4 9 1 10 2 11 42 12 3 13
REMARK SMILES IDX 40 14 38 15 43 16 41 18 39 20 37 22 35 24 10 26 11 27 12 28
REMARK SMILES IDX 30 29 21 30 29 31 31 32 22 33 27 34 23 35 26 36 24 37 13 38
REMARK SMILES IDX 20 39 14 40 18 41 15 42 16 43 19 44 17 46 28 48 25 50 33 52
REMARK H PARENT 43 17 41 19 39 21 37 23 35 25 19 45 17 47 28 49 25 51 33 53
REMARK Flexibility Score: inf
ROOT
ATOM      1  C   UNL     1      50.814   2.927  21.482  1.00  0.00     0.180 C 
ATOM      2  C   UNL     1      51.929   2.294  20.612  1.00  0.00     0.177 C 
ATOM      3  C   UNL     1      51.347   1.643  19.348  1.00  0.00     0.180 C 
ATOM      4  C   UNL     1      50.224   0.683  19.751  1.00  0.00     0.214 C 
ATOM      5  C   UNL     1      49.179   1.412  20.615  1.00  0.00     0.339 C 
ATOM      6  O   UNL     1      49.758   2.017  21.765  1.00  0.00    -0.332 OA
ENDROOT
BRANCH   1   7
ATOM      7  C   UNL     1      50.287   4.282  20.966  1.00  0.00     0.198 C 
BRANCH   7   8
ATOM      8  O   UNL     1      51.180   5.314  21.328  1.00  0.00    -0.347 OA
BRANCH   8   9
ATOM      9  C   UNL     1      50.495   6.545  21.526  1.00  0.00     0.281 C 
ATOM     10  C   UNL     1      51.606   7.190  24.982  1.00  0.00     0.041 C 
ATOM     11  C   UNL     1      51.736   7.016  23.468  1.00  0.00     0.150 C 
ATOM     12  C   UNL     1      52.464   8.217  22.828  1.00  0.00     0.174 C 
ATOM     13  O   UNL     1      50.438   6.856  22.912  1.00  0.00    -0.344 OA
ATOM     14  C   UNL     1      52.566   7.994  21.313  1.00  0.00     0.179 C 
ATOM     15  C   UNL     1      51.173   7.685  20.730  1.00  0.00     0.202 C 
BRANCH  12  16
ATOM     16  O   UNL     1      51.756   9.408  23.081  1.00  0.00    -0.388 OA
ATOM     17  H   UNL     1      52.089   9.769  23.943  1.00  0.00     0.211 HD
ENDBRANCH  12  16
BRANCH  14  18
ATOM     18  O   UNL     1      53.102   9.144  20.709  1.00  0.00    -0.387 OA
ATOM     19  H   UNL     1      53.354   8.893  19.781  1.00  0.00     0.211 HD
ENDBRANCH  14  18
BRANCH  15  20
ATOM     20  O   UNL     1      51.284   7.317  19.378  1.00  0.00    -0.385 OA
ATOM     21  H   UNL     1      51.228   8.152  18.846  1.00  0.00     0.211 HD
ENDBRANCH  15  20
ENDBRANCH   8   9
ENDBRANCH   7   8
ENDBRANCH   1   7
BRANCH   2  22
ATOM     22  O   UNL     1      52.885   3.265  20.265  1.00  0.00    -0.387 OA
ATOM     23  H   UNL     1      52.393   4.030  19.869  1.00  0.00     0.211 HD
ENDBRANCH   2  22
BRANCH   3  24
ATOM     24  O   UNL     1      52.348   0.919  18.679  1.00  0.00    -0.387 OA
ATOM     25  H   UNL     1      51.892   0.197  18.173  1.00  0.00     0.211 HD
ENDBRANCH   3  24
BRANCH   5  26
ATOM     26  O   UNL     1      48.448   2.351  19.820  1.00  0.00    -0.454 OA
BRANCH  26  27
ATOM     27  C   UNL     1      47.084   2.271  19.478  1.00  0.00     0.214 A 
ATOM     28  C   UNL     1      46.124   2.579  20.461  1.00  0.00     0.180 A 
ATOM     29  C   UNL     1      46.631   1.916  18.188  1.00  0.00     0.239 A 
ATOM     30  O   UNL     1      44.829   2.578  20.157  1.00  0.00    -0.452 OA
ATOM     31  C   UNL     1      45.248   1.912  17.911  1.00  0.00     0.111 A 
ATOM     32  O   UNL     1      47.457   1.595  17.294  1.00  0.00    -0.285 OA
ATOM     33  C   UNL     1      44.364   2.267  18.956  1.00  0.00     0.146 A 
ATOM     34  C   UNL     1      44.713   1.575  16.643  1.00  0.00     0.134 A 
ATOM     35  C   UNL     1      42.984   2.294  18.734  1.00  0.00     0.094 A 
ATOM     36  C   UNL     1      43.325   1.604  16.441  1.00  0.00     0.093 A 
ATOM     37  C   UNL     1      42.462   1.964  17.479  1.00  0.00     0.123 A 
BRANCH  28  38
ATOM     38  C   UNL     1      46.509   2.959  21.839  1.00  0.00     0.025 A 
ATOM     39  C   UNL     1      46.934   4.272  22.099  1.00  0.00     0.062 A 
ATOM     40  C   UNL     1      46.411   2.048  22.903  1.00  0.00     0.016 A 
ATOM     41  C   UNL     1      47.295   4.661  23.395  1.00  0.00     0.158 A 
ATOM     42  C   UNL     1      46.772   2.430  24.197  1.00  0.00     0.051 A 
ATOM     43  C   UNL     1      47.219   3.736  24.449  1.00  0.00     0.157 A 
BRANCH  41  44
ATOM     44  O   UNL     1      47.726   5.970  23.614  1.00  0.00    -0.504 OA
ATOM     45  H   UNL     1      47.911   6.327  24.544  1.00  0.00     0.293 HD
ENDBRANCH  41  44
BRANCH  43  46
ATOM     46  O   UNL     1      47.583   4.115  25.741  1.00  0.00    -0.504 OA
ATOM     47  H   UNL     1      46.910   4.513  26.386  1.00  0.00     0.293 HD
ENDBRANCH  43  46
ENDBRANCH  28  38
BRANCH  34  48
ATOM     48  O   UNL     1      45.548   1.215  15.584  1.00  0.00    -0.507 OA
ATOM     49  H   UNL     1      45.449   1.630  14.664  1.00  0.00     0.293 HD
ENDBRANCH  34  48
BRANCH  37  50
ATOM     50  O   UNL     1      41.088   1.992  17.251  1.00  0.00    -0.508 OA
ATOM     51  H   UNL     1      40.457   1.366  17.740  1.00  0.00     0.293 HD
ENDBRANCH  37  50
ENDBRANCH  26  27
ENDBRANCH   5  26
BRANCH   4  52
ATOM     52  O   UNL     1      49.621   0.167  18.592  1.00  0.00    -0.384 OA
ATOM     53  H   UNL     1      49.553  -0.817  18.717  1.00  0.00     0.211 HD
ENDBRANCH   4  52
TORSDOF 16
ENDMDL
MODEL 8
REMARK VINA RESULT:    -3.966      9.810     12.516
REMARK INTER + INTRA:          -9.374
REMARK INTER:                  -6.343
REMARK INTRA:                  -3.032
REMARK UNBOUND:                -2.858
REMARK SMILES C[C@H]1O[C@H](OC[C@H]2O[C@@H](Oc3c(-c4ccc(O)c(O)c4)oc4cc(O)cc(O)c4c3=O)[C@@H](O)[C@H](O)[C@H]2O)[C@H](O)[C@@H](O)[C@H]1O
REMARK SMILES IDX 7 1 36 2 34 3 32 4 9 5 8 6 6 7 5 8 4 9 1 10 2 11 42 12 3 13
REMARK SMILES IDX 40 14 38 15 43 16 41 18 39 20 37 22 35 24 10 26 11 27 12 28
REMARK SMILES IDX 30 29 21 30 29 31 31 32 22 33 27 34 23 35 26 36 24 37 13 38
REMARK SMILES IDX 20 39 14 40 18 41 15 42 16 43 19 44 17 46 28 48 25 50 33 52
REMARK H PARENT 43 17 41 19 39 21 37 23 35 25 19 45 17 47 28 49 25 51 33 53
REMARK Flexibility Score: inf
ROOT
ATOM      1  C   UNL     1      39.972  14.072  13.806  1.00  0.00     0.180 C 
ATOM      2  C   UNL     1      41.134  13.549  12.926  1.00  0.00     0.177 C 
ATOM      3  C   UNL     1      42.430  13.412  13.739  1.00  0.00     0.180 C 
ATOM      4  C   UNL     1      42.714  14.735  14.456  1.00  0.00     0.214 C 
ATOM      5  C   UNL     1      41.495  15.164  15.292  1.00  0.00     0.339 C 
ATOM      6  O   UNL     1      40.311  15.262  14.509  1.00  0.00    -0.332 OA
ENDROOT
BRANCH   1   7
ATOM      7  C   UNL     1      39.338  13.014  14.733  1.00  0.00     0.198 C 
BRANCH   7   8
ATOM      8  O   UNL     1      38.216  12.433  14.101  1.00  0.00    -0.347 OA
BRANCH   8   9
ATOM      9  C   UNL     1      37.934  11.144  14.631  1.00  0.00     0.281 C 
ATOM     10  C   UNL     1      34.301  11.572  15.093  1.00  0.00     0.041 C 
ATOM     11  C   UNL     1      35.620  11.438  14.329  1.00  0.00     0.150 C 
ATOM     12  C   UNL     1      35.527  10.349  13.240  1.00  0.00     0.174 C 
ATOM     13  O   UNL     1      36.656  11.139  15.254  1.00  0.00    -0.344 OA
ATOM     14  C   UNL     1      36.871  10.254  12.507  1.00  0.00     0.179 C 
ATOM     15  C   UNL     1      38.014  10.066  13.524  1.00  0.00     0.202 C 
BRANCH  12  16
ATOM     16  O   UNL     1      35.217   9.104  13.819  1.00  0.00    -0.388 OA
ATOM     17  H   UNL     1      34.271   8.903  13.596  1.00  0.00     0.211 HD
ENDBRANCH  12  16
BRANCH  14  18
ATOM     18  O   UNL     1      36.836   9.173  11.610  1.00  0.00    -0.387 OA
ATOM     19  H   UNL     1      37.662   8.642  11.764  1.00  0.00     0.211 HD
ENDBRANCH  14  18
BRANCH  15  20
ATOM     20  O   UNL     1      39.259  10.146  12.876  1.00  0.00    -0.385 OA
ATOM     21  H   UNL     1      39.743  10.913  13.276  1.00  0.00     0.211 HD
ENDBRANCH  15  20
ENDBRANCH   8   9
ENDBRANCH   7   8
ENDBRANCH   1   7
BRANCH   2  22
ATOM     22  O   UNL     1      40.788  12.314  12.348  1.00  0.00    -0.387 OA
ATOM     23  H   UNL     1      41.627  11.903  12.017  1.00  0.00     0.211 HD
ENDBRANCH   2  22
BRANCH   3  24
ATOM     24  O   UNL     1      43.504  13.118  12.882  1.00  0.00    -0.387 OA
ATOM     25  H   UNL     1      44.293  13.609  13.229  1.00  0.00     0.211 HD
ENDBRANCH   3  24
BRANCH   5  26
ATOM     26  O   UNL     1      41.331  14.290  16.413  1.00  0.00    -0.454 OA
BRANCH  26  27
ATOM     27  C   UNL     1      41.417  14.649  17.772  1.00  0.00     0.214 A 
ATOM     28  C   UNL     1      40.230  14.969  18.460  1.00  0.00     0.180 A 
ATOM     29  C   UNL     1      42.634  14.685  18.486  1.00  0.00     0.239 A 
ATOM     30  O   UNL     1      40.263  15.250  19.759  1.00  0.00    -0.452 OA
ATOM     31  C   UNL     1      42.628  15.004  19.861  1.00  0.00     0.111 A 
ATOM     32  O   UNL     1      43.721  14.445  17.897  1.00  0.00    -0.285 OA
ATOM     33  C   UNL     1      41.382  15.279  20.469  1.00  0.00     0.146 A 
ATOM     34  C   UNL     1      43.804  15.055  20.649  1.00  0.00     0.134 A 
ATOM     35  C   UNL     1      41.314  15.586  21.832  1.00  0.00     0.094 A 
ATOM     36  C   UNL     1      43.716  15.369  22.013  1.00  0.00     0.093 A 
ATOM     37  C   UNL     1      42.478  15.630  22.605  1.00  0.00     0.123 A 
BRANCH  28  38
ATOM     38  C   UNL     1      38.910  14.959  17.790  1.00  0.00     0.025 A 
ATOM     39  C   UNL     1      38.047  13.869  17.984  1.00  0.00     0.062 A 
ATOM     40  C   UNL     1      38.482  16.040  17.002  1.00  0.00     0.016 A 
ATOM     41  C   UNL     1      36.788  13.838  17.370  1.00  0.00     0.158 A 
ATOM     42  C   UNL     1      37.229  16.012  16.385  1.00  0.00     0.051 A 
ATOM     43  C   UNL     1      36.378  14.911  16.562  1.00  0.00     0.157 A 
BRANCH  41  44
ATOM     44  O   UNL     1      35.962  12.732  17.574  1.00  0.00    -0.504 OA
ATOM     45  H   UNL     1      36.164  11.827  17.166  1.00  0.00     0.293 HD
ENDBRANCH  41  44
BRANCH  43  46
ATOM     46  O   UNL     1      35.129  14.884  15.943  1.00  0.00    -0.504 OA
ATOM     47  H   UNL     1      34.702  15.724  15.570  1.00  0.00     0.293 HD
ENDBRANCH  43  46
ENDBRANCH  28  38
BRANCH  34  48
ATOM     48  O   UNL     1      45.056  14.793  20.090  1.00  0.00    -0.507 OA
ATOM     49  H   UNL     1      45.832  14.464  20.653  1.00  0.00     0.293 HD
ENDBRANCH  34  48
BRANCH  37  50
ATOM     50  O   UNL     1      42.417  15.933  23.964  1.00  0.00    -0.508 OA
ATOM     51  H   UNL     1      42.286  16.886  24.289  1.00  0.00     0.293 HD
ENDBRANCH  37  50
ENDBRANCH  26  27
ENDBRANCH   5  26
BRANCH   4  52
ATOM     52  O   UNL     1      43.839  14.580  15.282  1.00  0.00    -0.384 OA
ATOM     53  H   UNL     1      43.997  15.458  15.721  1.00  0.00     0.211 HD
ENDBRANCH   4  52
TORSDOF 16
ENDMDL
MODEL 9
REMARK VINA RESULT:    -3.939      6.185     10.310
REMARK INTER + INTRA:          -9.330
REMARK INTER:                  -7.448
REMARK INTRA:                  -1.882
REMARK UNBOUND:                -2.858
REMARK SMILES C[C@H]1O[C@H](OC[C@H]2O[C@@H](Oc3c(-c4ccc(O)c(O)c4)oc4cc(O)cc(O)c4c3=O)[C@@H](O)[C@H](O)[C@H]2O)[C@H](O)[C@@H](O)[C@H]1O
REMARK SMILES IDX 7 1 36 2 34 3 32 4 9 5 8 6 6 7 5 8 4 9 1 10 2 11 42 12 3 13
REMARK SMILES IDX 40 14 38 15 43 16 41 18 39 20 37 22 35 24 10 26 11 27 12 28
REMARK SMILES IDX 30 29 21 30 29 31 31 32 22 33 27 34 23 35 26 36 24 37 13 38
REMARK SMILES IDX 20 39 14 40 18 41 15 42 16 43 19 44 17 46 28 48 25 50 33 52
REMARK H PARENT 43 17 41 19 39 21 37 23 35 25 19 45 17 47 28 49 25 51 33 53
REMARK Flexibility Score: inf
ROOT
ATOM      1  C   UNL     1      45.736   1.655  22.209  1.00  0.00     0.180 C 
ATOM      2  C   UNL     1      45.333   1.347  23.673  1.00  0.00     0.177 C 
ATOM      3  C   UNL     1      46.027   2.302  24.654  1.00  0.00     0.180 C 
ATOM      4  C   UNL     1      47.535   2.288  24.387  1.00  0.00     0.214 C 
ATOM      5  C   UNL     1      47.821   2.599  22.907  1.00  0.00     0.339 C 
ATOM      6  O   UNL     1      47.147   1.704  22.028  1.00  0.00    -0.332 OA
ENDROOT
BRANCH   1   7
ATOM      7  C   UNL     1      45.032   2.880  21.592  1.00  0.00     0.198 C 
BRANCH   7   8
ATOM      8  O   UNL     1      45.239   2.900  20.195  1.00  0.00    -0.347 OA
BRANCH   8   9
ATOM      9  C   UNL     1      45.106   1.601  19.633  1.00  0.00     0.281 C 
ATOM     10  C   UNL     1      41.943   2.155  17.821  1.00  0.00     0.041 C 
ATOM     11  C   UNL     1      43.427   2.324  18.153  1.00  0.00     0.150 C 
ATOM     12  C   UNL     1      44.306   2.118  16.902  1.00  0.00     0.174 C 
ATOM     13  O   UNL     1      43.776   1.399  19.174  1.00  0.00    -0.344 OA
ATOM     14  C   UNL     1      45.781   2.297  17.289  1.00  0.00     0.179 C 
ATOM     15  C   UNL     1      46.124   1.390  18.488  1.00  0.00     0.202 C 
BRANCH  12  16
ATOM     16  O   UNL     1      44.111   0.827  16.375  1.00  0.00    -0.388 OA
ATOM     17  H   UNL     1      44.849   0.257  16.714  1.00  0.00     0.211 HD
ENDBRANCH  12  16
BRANCH  14  18
ATOM     18  O   UNL     1      46.592   1.975  16.187  1.00  0.00    -0.387 OA
ATOM     19  H   UNL     1      46.235   2.478  15.409  1.00  0.00     0.211 HD
ENDBRANCH  14  18
BRANCH  15  20
ATOM     20  O   UNL     1      47.421   1.671  18.951  1.00  0.00    -0.385 OA
ATOM     21  H   UNL     1      48.044   1.107  18.423  1.00  0.00     0.211 HD
ENDBRANCH  15  20
ENDBRANCH   8   9
ENDBRANCH   7   8
ENDBRANCH   1   7
BRANCH   2  22
ATOM     22  O   UNL     1      43.937   1.425  23.819  1.00  0.00    -0.387 OA
ATOM     23  H   UNL     1      43.614   0.508  24.018  1.00  0.00     0.211 HD
ENDBRANCH   2  22
BRANCH   3  24
ATOM     24  O   UNL     1      45.794   1.884  25.975  1.00  0.00    -0.387 OA
ATOM     25  H   UNL     1      45.917   0.899  25.992  1.00  0.00     0.211 HD
ENDBRANCH   3  24
BRANCH   5  26
ATOM     26  O   UNL     1      47.518   3.968  22.621  1.00  0.00    -0.454 OA
BRANCH  26  27
ATOM     27  C   UNL     1      48.438   4.966  22.248  1.00  0.00     0.214 A 
ATOM     28  C   UNL     1      48.067   6.316  22.406  1.00  0.00     0.180 A 
ATOM     29  C   UNL     1      49.725   4.681  21.742  1.00  0.00     0.239 A 
ATOM     30  O   UNL     1      48.933   7.286  22.126  1.00  0.00    -0.452 OA
ATOM     31  C   UNL     1      50.608   5.740  21.442  1.00  0.00     0.111 A 
ATOM     32  O   UNL     1      50.078   3.488  21.548  1.00  0.00    -0.285 OA
ATOM     33  C   UNL     1      50.155   7.060  21.665  1.00  0.00     0.146 A 
ATOM     34  C   UNL     1      51.916   5.538  20.937  1.00  0.00     0.134 A 
ATOM     35  C   UNL     1      50.992   8.148  21.399  1.00  0.00     0.094 A 
ATOM     36  C   UNL     1      52.740   6.641  20.673  1.00  0.00     0.093 A 
ATOM     37  C   UNL     1      52.284   7.942  20.905  1.00  0.00     0.123 A 
BRANCH  28  38
ATOM     38  C   UNL     1      46.739   6.707  22.928  1.00  0.00     0.025 A 
ATOM     39  C   UNL     1      45.663   6.852  22.037  1.00  0.00     0.062 A 
ATOM     40  C   UNL     1      46.518   6.887  24.304  1.00  0.00     0.016 A 
ATOM     41  C   UNL     1      44.393   7.211  22.505  1.00  0.00     0.158 A 
ATOM     42  C   UNL     1      45.253   7.248  24.775  1.00  0.00     0.051 A 
ATOM     43  C   UNL     1      44.187   7.415  23.880  1.00  0.00     0.157 A 
BRANCH  41  44
ATOM     44  O   UNL     1      43.351   7.360  21.590  1.00  0.00    -0.504 OA
ATOM     45  H   UNL     1      42.636   8.070  21.699  1.00  0.00     0.293 HD
ENDBRANCH  41  44
BRANCH  43  46
ATOM     46  O   UNL     1      42.926   7.779  24.352  1.00  0.00    -0.504 OA
ATOM     47  H   UNL     1      42.739   8.710  24.705  1.00  0.00     0.293 HD
ENDBRANCH  43  46
ENDBRANCH  28  38
BRANCH  34  48
ATOM     48  O   UNL     1      52.404   4.251  20.700  1.00  0.00    -0.507 OA
ATOM     49  H   UNL     1      52.737   3.661  21.454  1.00  0.00     0.293 HD
ENDBRANCH  34  48
BRANCH  37  50
ATOM     50  O   UNL     1      53.125   9.021  20.641  1.00  0.00    -0.508 OA
ATOM     51  H   UNL     1      53.572   9.135  19.737  1.00  0.00     0.293 HD
ENDBRANCH  37  50
ENDBRANCH  26  27
ENDBRANCH   5  26
BRANCH   4  52
ATOM     52  O   UNL     1      48.159   3.239  25.212  1.00  0.00    -0.384 OA
ATOM     53  H   UNL     1      48.207   2.843  26.122  1.00  0.00     0.211 HD
ENDBRANCH   4  52
TORSDOF 16
ENDMDL
