MODEL 1
REMARK VINA RESULT:    -4.659      0.000      0.000
REMARK INTER + INTRA:          -5.863
REMARK INTER:                  -5.748
REMARK INTRA:                  -0.115
REMARK UNBOUND:                -0.115
REMARK SMILES [NH3+][C@H](Cc1ccc(O)cc1)C(=O)[O-]
REMARK SMILES IDX 3 1 2 2 1 3 11 7 12 8 13 9 4 10 5 11 10 12 6 13 9 14 7 15
REMARK SMILES IDX 8 16
REMARK H PARENT 1 4 1 5 1 6 8 17
REMARK Flexibility Score: inf
ROOT
ATOM      1  C   UNL     1      27.308  16.047  -2.488  1.00  0.00     0.107 C 
ENDROOT
BRANCH   1   2
ATOM      2  C   UNL     1      26.000  15.247  -2.656  1.00  0.00     0.232 C 
BRANCH   2   3
ATOM      3  N   UNL     1      26.010  14.059  -1.793  1.00  0.00    -0.350 N 
ATOM      4  H   UNL     1      26.498  14.279  -0.894  1.00  0.00     0.345 HD
ATOM      5  H   UNL     1      26.528  13.281  -2.264  1.00  0.00     0.345 HD
ATOM      6  H   UNL     1      25.034  13.745  -1.584  1.00  0.00     0.345 HD
ENDBRANCH   2   3
BRANCH   2   7
ATOM      7  C   UNL     1      24.797  16.102  -2.353  1.00  0.00     0.099 C 
ATOM      8  O   UNL     1      23.994  16.421  -3.269  1.00  0.00    -0.544 OA
ATOM      9  O   UNL     1      24.556  16.522  -1.051  1.00  0.00    -0.544 OA
ENDBRANCH   2   7
ENDBRANCH   1   2
BRANCH   1  10
ATOM     10  C   UNL     1      28.500  15.292  -3.023  1.00  0.00    -0.041 A 
ATOM     11  C   UNL     1      28.396  14.546  -4.208  1.00  0.00     0.008 A 
ATOM     12  C   UNL     1      29.712  15.291  -2.313  1.00  0.00     0.008 A 
ATOM     13  C   UNL     1      29.494  13.823  -4.685  1.00  0.00     0.046 A 
ATOM     14  C   UNL     1      30.808  14.568  -2.792  1.00  0.00     0.046 A 
ATOM     15  C   UNL     1      30.704  13.833  -3.977  1.00  0.00     0.115 A 
BRANCH  15  16
ATOM     16  O   UNL     1      31.804  13.116  -4.442  1.00  0.00    -0.508 OA
ATOM     17  H   UNL     1      32.324  13.416  -5.258  1.00  0.00     0.293 HD
ENDBRANCH  15  16
ENDBRANCH   1  10
TORSDOF 5
ENDMDL
MODEL 2
REMARK VINA RESULT:    -4.419      1.939      2.340
REMARK INTER + INTRA:          -5.568
REMARK INTER:                  -5.359
REMARK INTRA:                  -0.209
REMARK UNBOUND:                -0.115
REMARK SMILES [NH3+][C@H](Cc1ccc(O)cc1)C(=O)[O-]
REMARK SMILES IDX 3 1 2 2 1 3 11 7 12 8 13 9 4 10 5 11 10 12 6 13 9 14 7 15
REMARK SMILES IDX 8 16
REMARK H PARENT 1 4 1 5 1 6 8 17
REMARK Flexibility Score: inf
ROOT
ATOM      1  C   UNL     1      26.344  14.703  -3.160  1.00  0.00     0.107 C 
ENDROOT
BRANCH   1   2
ATOM      2  C   UNL     1      25.844  13.406  -3.828  1.00  0.00     0.232 C 
BRANCH   2   3
ATOM      3  N   UNL     1      25.671  12.346  -2.827  1.00  0.00    -0.350 N 
ATOM      4  H   UNL     1      26.151  12.617  -1.938  1.00  0.00     0.345 HD
ATOM      5  H   UNL     1      26.101  11.457  -3.173  1.00  0.00     0.345 HD
ATOM      6  H   UNL     1      24.655  12.184  -2.632  1.00  0.00     0.345 HD
ENDBRANCH   2   3
BRANCH   2   7
ATOM      7  C   UNL     1      24.554  13.640  -4.570  1.00  0.00     0.099 C 
ATOM      8  O   UNL     1      23.699  12.721  -4.672  1.00  0.00    -0.544 OA
ATOM      9  O   UNL     1      24.289  14.886  -5.125  1.00  0.00    -0.544 OA
ENDBRANCH   2   7
ENDBRANCH   1   2
BRANCH   1  10
ATOM     10  C   UNL     1      27.824  14.908  -3.372  1.00  0.00    -0.041 A 
ATOM     11  C   UNL     1      28.483  14.281  -4.442  1.00  0.00     0.008 A 
ATOM     12  C   UNL     1      28.565  15.691  -2.471  1.00  0.00     0.008 A 
ATOM     13  C   UNL     1      29.860  14.449  -4.618  1.00  0.00     0.046 A 
ATOM     14  C   UNL     1      29.941  15.858  -2.649  1.00  0.00     0.046 A 
ATOM     15  C   UNL     1      30.593  15.239  -3.721  1.00  0.00     0.115 A 
BRANCH  15  16
ATOM     16  O   UNL     1      31.965  15.413  -3.886  1.00  0.00    -0.508 OA
ATOM     17  H   UNL     1      32.349  15.822  -4.729  1.00  0.00     0.293 HD
ENDBRANCH  15  16
ENDBRANCH   1  10
TORSDOF 5
ENDMDL
MODEL 3
REMARK VINA RESULT:    -4.155      2.695      5.240
REMARK INTER + INTRA:          -5.242
REMARK INTER:                  -5.012
REMARK INTRA:                  -0.230
REMARK UNBOUND:                -0.115
REMARK SMILES [NH3+][C@H](Cc1ccc(O)cc1)C(=O)[O-]
REMARK SMILES IDX 3 1 2 2 1 3 11 7 12 8 13 9 4 10 5 11 10 12 6 13 9 14 7 15
REMARK SMILES IDX 8 16
REMARK H PARENT 1 4 1 5 1 6 8 17
REMARK Flexibility Score: inf
ROOT
ATOM      1  C   UNL     1      29.049  16.299  -2.716  1.00  0.00     0.107 C 
ENDROOT
BRANCH   1   2
ATOM      2  C   UNL     1      30.325  15.889  -3.479  1.00  0.00     0.232 C 
BRANCH   2   3
ATOM      3  N   UNL     1      31.014  17.076  -4.003  1.00  0.00    -0.350 N 
ATOM      4  H   UNL     1      31.968  16.810  -4.340  1.00  0.00     0.345 HD
ATOM      5  H   UNL     1      31.122  17.787  -3.243  1.00  0.00     0.345 HD
ATOM      6  H   UNL     1      30.476  17.496  -4.795  1.00  0.00     0.345 HD
ENDBRANCH   2   3
BRANCH   2   7
ATOM      7  C   UNL     1      31.252  15.093  -2.598  1.00  0.00     0.099 C 
ATOM      8  O   UNL     1      31.797  15.628  -1.596  1.00  0.00    -0.544 OA
ATOM      9  O   UNL     1      31.490  13.752  -2.874  1.00  0.00    -0.544 OA
ENDBRANCH   2   7
ENDBRANCH   1   2
BRANCH   1  10
ATOM     10  C   UNL     1      27.891  15.382  -3.028  1.00  0.00    -0.041 A 
ATOM     11  C   UNL     1      26.826  15.248  -2.122  1.00  0.00     0.008 A 
ATOM     12  C   UNL     1      27.893  14.619  -4.207  1.00  0.00     0.008 A 
ATOM     13  C   UNL     1      25.770  14.374  -2.400  1.00  0.00     0.046 A 
ATOM     14  C   UNL     1      26.836  13.747  -4.483  1.00  0.00     0.046 A 
ATOM     15  C   UNL     1      25.772  13.622  -3.583  1.00  0.00     0.115 A 
BRANCH  15  16
ATOM     16  O   UNL     1      24.726  12.748  -3.871  1.00  0.00    -0.508 OA
ATOM     17  H   UNL     1      23.850  13.081  -4.254  1.00  0.00     0.293 HD
ENDBRANCH  15  16
ENDBRANCH   1  10
TORSDOF 5
ENDMDL
MODEL 4
REMARK VINA RESULT:    -4.122      2.446      5.225
REMARK INTER + INTRA:          -5.200
REMARK INTER:                  -5.319
REMARK INTRA:                   0.118
REMARK UNBOUND:                -0.115
REMARK SMILES [NH3+][C@H](Cc1ccc(O)cc1)C(=O)[O-]
REMARK SMILES IDX 3 1 2 2 1 3 11 7 12 8 13 9 4 10 5 11 10 12 6 13 9 14 7 15
REMARK SMILES IDX 8 16
REMARK H PARENT 1 4 1 5 1 6 8 17
REMARK Flexibility Score: inf
ROOT
ATOM      1  C   UNL     1      28.002  15.554  -4.590  1.00  0.00     0.107 C 
ENDROOT
BRANCH   1   2
ATOM      2  C   UNL     1      28.606  15.632  -3.173  1.00  0.00     0.232 C 
BRANCH   2   3
ATOM      3  N   UNL     1      27.655  15.119  -2.179  1.00  0.00    -0.350 N 
ATOM      4  H   UNL     1      26.680  15.190  -2.552  1.00  0.00     0.345 HD
ATOM      5  H   UNL     1      27.713  15.690  -1.304  1.00  0.00     0.345 HD
ATOM      6  H   UNL     1      27.862  14.118  -1.952  1.00  0.00     0.345 HD
ENDBRANCH   2   3
BRANCH   2   7
ATOM      7  C   UNL     1      29.905  14.872  -3.095  1.00  0.00     0.099 C 
ATOM      8  O   UNL     1      30.687  15.042  -2.122  1.00  0.00    -0.544 OA
ATOM      9  O   UNL     1      30.234  13.957  -4.087  1.00  0.00    -0.544 OA
ENDBRANCH   2   7
ENDBRANCH   1   2
BRANCH   1  10
ATOM     10  C   UNL     1      26.710  14.773  -4.605  1.00  0.00    -0.041 A 
ATOM     11  C   UNL     1      26.726  13.373  -4.712  1.00  0.00     0.008 A 
ATOM     12  C   UNL     1      25.478  15.446  -4.561  1.00  0.00     0.008 A 
ATOM     13  C   UNL     1      25.527  12.655  -4.756  1.00  0.00     0.046 A 
ATOM     14  C   UNL     1      24.280  14.727  -4.604  1.00  0.00     0.046 A 
ATOM     15  C   UNL     1      24.300  13.331  -4.702  1.00  0.00     0.115 A 
BRANCH  15  16
ATOM     16  O   UNL     1      23.099  12.627  -4.745  1.00  0.00    -0.508 OA
ATOM     17  H   UNL     1      22.306  12.898  -4.176  1.00  0.00     0.293 HD
ENDBRANCH  15  16
ENDBRANCH   1  10
TORSDOF 5
ENDMDL
MODEL 5
REMARK VINA RESULT:    -3.532     23.943     25.706
REMARK INTER + INTRA:          -4.472
REMARK INTER:                  -4.244
REMARK INTRA:                  -0.228
REMARK UNBOUND:                -0.115
REMARK SMILES [NH3+][C@H](Cc1ccc(O)cc1)C(=O)[O-]
REMARK SMILES IDX 3 1 2 2 1 3 11 7 12 8 13 9 4 10 5 11 10 12 6 13 9 14 7 15
REMARK SMILES IDX 8 16
REMARK H PARENT 1 4 1 5 1 6 8 17
REMARK Flexibility Score: inf
ROOT
ATOM      1  C   UNL     1      11.905   0.208   8.772  1.00  0.00     0.107 C 
ENDROOT
BRANCH   1   2
ATOM      2  C   UNL     1      13.119  -0.206   7.916  1.00  0.00     0.232 C 
BRANCH   2   3
ATOM      3  N   UNL     1      12.690  -0.580   6.562  1.00  0.00    -0.350 N 
ATOM      4  H   UNL     1      11.859  -0.009   6.284  1.00  0.00     0.345 HD
ATOM      5  H   UNL     1      12.414  -1.589   6.543  1.00  0.00     0.345 HD
ATOM      6  H   UNL     1      13.461  -0.421   5.873  1.00  0.00     0.345 HD
ENDBRANCH   2   3
BRANCH   2   7
ATOM      7  C   UNL     1      14.141   0.899   7.853  1.00  0.00     0.099 C 
ATOM      8  O   UNL     1      14.412   1.578   8.879  1.00  0.00    -0.544 OA
ATOM      9  O   UNL     1      14.810   1.158   6.663  1.00  0.00    -0.544 OA
ENDBRANCH   2   7
ENDBRANCH   1   2
BRANCH   1  10
ATOM     10  C   UNL     1      11.875  -0.522  10.092  1.00  0.00    -0.041 A 
ATOM     11  C   UNL     1      11.896   0.192  11.301  1.00  0.00     0.008 A 
ATOM     12  C   UNL     1      11.875  -1.927  10.123  1.00  0.00     0.008 A 
ATOM     13  C   UNL     1      11.899  -0.489  12.523  1.00  0.00     0.046 A 
ATOM     14  C   UNL     1      11.877  -2.605  11.345  1.00  0.00     0.046 A 
ATOM     15  C   UNL     1      11.889  -1.890  12.547  1.00  0.00     0.115 A 
BRANCH  15  16
ATOM     16  O   UNL     1      11.892  -2.580  13.758  1.00  0.00    -0.508 OA
ATOM     17  H   UNL     1      11.951  -2.092  14.644  1.00  0.00     0.293 HD
ENDBRANCH  15  16
ENDBRANCH   1  10
TORSDOF 5
ENDMDL
MODEL 6
REMARK VINA RESULT:    -3.490     22.660     24.297
REMARK INTER + INTRA:          -4.421
REMARK INTER:                  -4.531
REMARK INTRA:                   0.110
REMARK UNBOUND:                -0.115
REMARK SMILES [NH3+][C@H](Cc1ccc(O)cc1)C(=O)[O-]
REMARK SMILES IDX 3 1 2 2 1 3 11 7 12 8 13 9 4 10 5 11 10 12 6 13 9 14 7 15
REMARK SMILES IDX 8 16
REMARK H PARENT 1 4 1 5 1 6 8 17
REMARK Flexibility Score: inf
ROOT
ATOM      1  C   UNL     1      13.093  -0.935   6.562  1.00  0.00     0.107 C 
ENDROOT
BRANCH   1   2
ATOM      2  C   UNL     1      12.305  -2.105   7.186  1.00  0.00     0.232 C 
BRANCH   2   3
ATOM      3  N   UNL     1      11.875  -3.048   6.145  1.00  0.00    -0.350 N 
ATOM      4  H   UNL     1      12.674  -3.668   5.877  1.00  0.00     0.345 HD
ATOM      5  H   UNL     1      11.570  -2.523   5.294  1.00  0.00     0.345 HD
ATOM      6  H   UNL     1      11.083  -3.641   6.487  1.00  0.00     0.345 HD
ENDBRANCH   2   3
BRANCH   2   7
ATOM      7  C   UNL     1      13.126  -2.818   8.229  1.00  0.00     0.099 C 
ATOM      8  O   UNL     1      14.327  -3.120   8.000  1.00  0.00    -0.544 OA
ATOM      9  O   UNL     1      12.565  -3.123   9.463  1.00  0.00    -0.544 OA
ENDBRANCH   2   7
ENDBRANCH   1   2
BRANCH   1  10
ATOM     10  C   UNL     1      13.434   0.119   7.586  1.00  0.00    -0.041 A 
ATOM     11  C   UNL     1      12.647   0.272   8.740  1.00  0.00     0.008 A 
ATOM     12  C   UNL     1      14.516   0.989   7.371  1.00  0.00     0.008 A 
ATOM     13  C   UNL     1      12.949   1.270   9.672  1.00  0.00     0.046 A 
ATOM     14  C   UNL     1      14.816   1.985   8.304  1.00  0.00     0.046 A 
ATOM     15  C   UNL     1      14.035   2.129   9.456  1.00  0.00     0.115 A 
BRANCH  15  16
ATOM     16  O   UNL     1      14.345   3.127  10.377  1.00  0.00    -0.508 OA
ATOM     17  H   UNL     1      14.680   2.903  11.307  1.00  0.00     0.293 HD
ENDBRANCH  15  16
ENDBRANCH   1  10
TORSDOF 5
ENDMDL
MODEL 7
REMARK VINA RESULT:    -3.486     22.045     23.682
REMARK INTER + INTRA:          -4.416
REMARK INTER:                  -4.193
REMARK INTRA:                  -0.223
REMARK UNBOUND:                -0.115
REMARK SMILES [NH3+][C@H](Cc1ccc(O)cc1)C(=O)[O-]
REMARK SMILES IDX 3 1 2 2 1 3 11 7 12 8 13 9 4 10 5 11 10 12 6 13 9 14 7 15
REMARK SMILES IDX 8 16
REMARK H PARENT 1 4 1 5 1 6 8 17
REMARK Flexibility Score: inf
ROOT
ATOM      1  C   UNL     1      13.788  -0.512   6.523  1.00  0.00     0.107 C 
ENDROOT
BRANCH   1   2
ATOM      2  C   UNL     1      12.299  -0.856   6.316  1.00  0.00     0.232 C 
BRANCH   2   3
ATOM      3  N   UNL     1      11.875  -0.506   4.954  1.00  0.00    -0.350 N 
ATOM      4  H   UNL     1      12.715  -0.314   4.360  1.00  0.00     0.345 HD
ATOM      5  H   UNL     1      11.287   0.359   4.976  1.00  0.00     0.345 HD
ATOM      6  H   UNL     1      11.325  -1.286   4.525  1.00  0.00     0.345 HD
ENDBRANCH   2   3
BRANCH   2   7
ATOM      7  C   UNL     1      12.037  -2.316   6.584  1.00  0.00     0.099 C 
ATOM      8  O   UNL     1      11.891  -3.125   5.630  1.00  0.00    -0.544 OA
ATOM      9  O   UNL     1      11.980  -2.781   7.892  1.00  0.00    -0.544 OA
ENDBRANCH   2   7
ENDBRANCH   1   2
BRANCH   1  10
ATOM     10  C   UNL     1      13.975   0.546   7.583  1.00  0.00    -0.041 A 
ATOM     11  C   UNL     1      13.207   0.520   8.759  1.00  0.00     0.008 A 
ATOM     12  C   UNL     1      14.886   1.596   7.379  1.00  0.00     0.008 A 
ATOM     13  C   UNL     1      13.362   1.519   9.724  1.00  0.00     0.046 A 
ATOM     14  C   UNL     1      15.040   2.593   8.346  1.00  0.00     0.046 A 
ATOM     15  C   UNL     1      14.280   2.559   9.520  1.00  0.00     0.115 A 
BRANCH  15  16
ATOM     16  O   UNL     1      14.443   3.560  10.475  1.00  0.00    -0.508 OA
ATOM     17  H   UNL     1      14.089   3.454  11.418  1.00  0.00     0.293 HD
ENDBRANCH  15  16
ENDBRANCH   1  10
TORSDOF 5
ENDMDL
MODEL 8
REMARK VINA RESULT:    -3.457     22.064     23.702
REMARK INTER + INTRA:          -4.380
REMARK INTER:                  -4.162
REMARK INTRA:                  -0.218
REMARK UNBOUND:                -0.115
REMARK SMILES [NH3+][C@H](Cc1ccc(O)cc1)C(=O)[O-]
REMARK SMILES IDX 3 1 2 2 1 3 11 7 12 8 13 9 4 10 5 11 10 12 6 13 9 14 7 15
REMARK SMILES IDX 8 16
REMARK H PARENT 1 4 1 5 1 6 8 17
REMARK Flexibility Score: inf
ROOT
ATOM      1  C   UNL     1      13.762  -0.532   6.568  1.00  0.00     0.107 C 
ENDROOT
BRANCH   1   2
ATOM      2  C   UNL     1      12.275  -0.860   6.326  1.00  0.00     0.232 C 
BRANCH   2   3
ATOM      3  N   UNL     1      11.876  -0.468   4.968  1.00  0.00    -0.350 N 
ATOM      4  H   UNL     1      10.889  -0.765   4.790  1.00  0.00     0.345 HD
ATOM      5  H   UNL     1      12.492  -0.940   4.267  1.00  0.00     0.345 HD
ATOM      6  H   UNL     1      11.948   0.569   4.847  1.00  0.00     0.345 HD
ENDBRANCH   2   3
BRANCH   2   7
ATOM      7  C   UNL     1      12.000  -2.325   6.548  1.00  0.00     0.099 C 
ATOM      8  O   UNL     1      11.900  -3.112   5.570  1.00  0.00    -0.544 OA
ATOM      9  O   UNL     1      11.880  -2.820   7.841  1.00  0.00    -0.544 OA
ENDBRANCH   2   7
ENDBRANCH   1   2
BRANCH   1  10
ATOM     10  C   UNL     1      13.935   0.556   7.599  1.00  0.00    -0.041 A 
ATOM     11  C   UNL     1      14.867   1.588   7.396  1.00  0.00     0.008 A 
ATOM     12  C   UNL     1      13.198   0.521   8.794  1.00  0.00     0.008 A 
ATOM     13  C   UNL     1      15.045   2.578   8.367  1.00  0.00     0.046 A 
ATOM     14  C   UNL     1      13.378   1.512   9.763  1.00  0.00     0.046 A 
ATOM     15  C   UNL     1      14.300   2.542   9.554  1.00  0.00     0.115 A 
BRANCH  15  16
ATOM     16  O   UNL     1      14.470   3.523  10.528  1.00  0.00    -0.508 OA
ATOM     17  H   UNL     1      15.299   4.105  10.555  1.00  0.00     0.293 HD
ENDBRANCH  15  16
ENDBRANCH   1  10
TORSDOF 5
ENDMDL
