MODEL 1
REMARK VINA RESULT:    -4.718      0.000      0.000
REMARK INTER + INTRA:          -4.778
REMARK INTER:                  -5.821
REMARK INTRA:                   1.043
REMARK UNBOUND:                 1.043
REMARK SMILES CC1=CC=CC(C)(C)CC1=O
REMARK SMILES IDX 1 1 2 2 3 3 10 4 11 5 9 6 4 8 5 9 6 10 7 11 8 12
REMARK H PARENT
REMARK Flexibility Score: 80.00
ROOT
ATOM      1  C   UNL     1      -0.126  27.001  29.367  1.00  0.00     0.048 C 
ATOM      2  C   UNL     1      -1.415  27.754  29.598  1.00  0.00    -0.008 C 
ATOM      3  C   UNL     1      -1.639  28.247  30.835  1.00  0.00     0.007 C 
ENDROOT
BRANCH   2   4
ATOM      4  C   UNL     1      -2.300  27.956  28.423  1.00  0.00     0.159 C 
ATOM      5  O   UNL     1      -2.102  27.264  27.386  1.00  0.00    -0.295 OA
BRANCH   4   6
ATOM      6  C   UNL     1      -3.434  28.934  28.401  1.00  0.00     0.091 CG0
ATOM      7  G   UNL     1      -4.491  28.667  29.495  1.00  0.00     0.000 G0
ENDBRANCH   4   6
ENDBRANCH   2   4
BRANCH   3   8
ATOM      8  C   UNL     1      -2.780  29.039  31.352  1.00  0.00    -0.003 C 
ATOM      9  C   UNL     1      -3.984  29.243  30.801  1.00  0.00    -0.020 C 
BRANCH   9  10
ATOM     10  C   UNL     1      -4.484  28.670  29.496  1.00  0.00    -0.010 CG0
ATOM     11  C   UNL     1      -4.647  27.142  29.668  1.00  0.00     0.016 C 
ATOM     12  C   UNL     1      -5.870  29.262  29.156  1.00  0.00     0.016 C 
ATOM     13  G   UNL     1      -3.439  28.920  28.385  1.00  0.00     0.000 G0
ENDBRANCH   9  10
ENDBRANCH   3   8
TORSDOF 0
ENDMDL
MODEL 2
REMARK VINA RESULT:    -4.555      1.374      2.356
REMARK INTER + INTRA:          -4.577
REMARK INTER:                  -5.336
REMARK INTRA:                   0.759
REMARK UNBOUND:                 1.043
REMARK SMILES CC1=CC=CC(C)(C)CC1=O
REMARK SMILES IDX 1 1 2 2 3 3 10 4 11 5 9 6 4 8 5 9 6 10 7 11 8 12
REMARK H PARENT
REMARK Flexibility Score: 80.00
ROOT
ATOM      1  C   UNL     1      -0.147  27.001  28.818  1.00  0.00     0.048 C 
ATOM      2  C   UNL     1      -1.425  27.798  28.925  1.00  0.00    -0.008 C 
ATOM      3  C   UNL     1      -1.991  28.231  27.778  1.00  0.00     0.007 C 
ENDROOT
BRANCH   2   4
ATOM      4  C   UNL     1      -1.998  27.979  30.283  1.00  0.00     0.159 C 
ATOM      5  O   UNL     1      -1.523  27.304  31.238  1.00  0.00    -0.295 OA
BRANCH   4   6
ATOM      6  C   UNL     1      -3.110  28.933  30.590  1.00  0.00     0.091 CG0
ATOM      7  G   UNL     1      -4.405  28.635  29.802  1.00  0.00     0.000 G0
ENDBRANCH   4   6
ENDBRANCH   2   4
BRANCH   3   8
ATOM      8  C   UNL     1      -3.239  29.000  27.563  1.00  0.00    -0.003 C 
ATOM      9  C   UNL     1      -4.275  29.178  28.395  1.00  0.00    -0.020 C 
BRANCH   9  10
ATOM     10  C   UNL     1      -4.400  28.639  29.800  1.00  0.00    -0.010 CG0
ATOM     11  C   UNL     1      -5.565  29.377  30.499  1.00  0.00     0.016 C 
ATOM     12  C   UNL     1      -4.747  27.134  29.759  1.00  0.00     0.016 C 
ATOM     13  G   UNL     1      -3.103  28.932  30.587  1.00  0.00     0.000 G0
ENDBRANCH   9  10
ENDBRANCH   3   8
TORSDOF 0
ENDMDL
MODEL 3
REMARK VINA RESULT:    -4.406      1.326      1.894
REMARK INTER + INTRA:          -4.393
REMARK INTER:                  -5.157
REMARK INTRA:                   0.764
REMARK UNBOUND:                 1.043
REMARK SMILES CC1=CC=CC(C)(C)CC1=O
REMARK SMILES IDX 1 1 2 2 3 3 10 4 11 5 9 6 4 8 5 9 6 10 7 11 8 12
REMARK H PARENT
REMARK Flexibility Score: 80.00
ROOT
ATOM      1  C   UNL     1       0.566  25.997  27.950  1.00  0.00     0.048 C 
ATOM      2  C   UNL     1      -0.657  26.550  28.643  1.00  0.00    -0.008 C 
ATOM      3  C   UNL     1      -0.468  27.247  29.784  1.00  0.00     0.007 C 
ENDROOT
BRANCH   2   4
ATOM      4  C   UNL     1      -1.966  26.347  27.971  1.00  0.00     0.159 C 
ATOM      5  O   UNL     1      -1.980  25.913  26.786  1.00  0.00    -0.295 OA
BRANCH   4   6
ATOM      6  C   UNL     1      -3.283  26.616  28.630  1.00  0.00     0.091 CG0
ATOM      7  G   UNL     1      -3.454  28.087  29.072  1.00  0.00     0.000 G0
ENDBRANCH   4   6
ENDBRANCH   2   4
BRANCH   3   8
ATOM      8  C   UNL     1      -1.452  27.924  30.660  1.00  0.00    -0.003 C 
ATOM      9  C   UNL     1      -2.711  28.294  30.388  1.00  0.00    -0.020 C 
BRANCH   9  10
ATOM     10  C   UNL     1      -3.450  28.073  29.089  1.00  0.00    -0.010 CG0
ATOM     11  C   UNL     1      -4.954  28.328  29.339  1.00  0.00     0.016 C 
ATOM     12  C   UNL     1      -2.965  29.087  28.028  1.00  0.00     0.016 C 
ATOM     13  G   UNL     1      -3.279  26.606  28.636  1.00  0.00     0.000 G0
ENDBRANCH   9  10
ENDBRANCH   3   8
TORSDOF 0
ENDMDL
MODEL 4
REMARK VINA RESULT:    -4.214      1.408      3.207
REMARK INTER + INTRA:          -4.156
REMARK INTER:                  -4.907
REMARK INTRA:                   0.751
REMARK UNBOUND:                 1.043
REMARK SMILES CC1=CC=CC(C)(C)CC1=O
REMARK SMILES IDX 1 1 2 2 3 3 10 4 11 5 9 6 4 8 5 9 6 10 7 11 8 12
REMARK H PARENT
REMARK Flexibility Score: 80.00
ROOT
ATOM      1  C   UNL     1      -6.097  30.252  29.401  1.00  0.00     0.048 C 
ATOM      2  C   UNL     1      -4.723  29.640  29.539  1.00  0.00    -0.008 C 
ATOM      3  C   UNL     1      -4.284  29.361  30.785  1.00  0.00     0.007 C 
ENDROOT
BRANCH   2   4
ATOM      4  C   UNL     1      -3.994  29.323  28.284  1.00  0.00     0.159 C 
ATOM      5  O   UNL     1      -4.614  29.395  27.187  1.00  0.00    -0.295 OA
BRANCH   4   6
ATOM      6  C   UNL     1      -2.549  28.933  28.244  1.00  0.00     0.091 CG0
ATOM      7  G   UNL     1      -2.239  27.659  29.060  1.00  0.00     0.000 G0
ENDBRANCH   4   6
ENDBRANCH   2   4
BRANCH   3   8
ATOM      8  C   UNL     1      -3.013  28.743  31.231  1.00  0.00    -0.003 C 
ATOM      9  C   UNL     1      -2.138  28.011  30.528  1.00  0.00    -0.020 C 
BRANCH   9  10
ATOM     10  C   UNL     1      -2.236  27.658  29.062  1.00  0.00    -0.010 CG0
ATOM     11  C   UNL     1      -0.860  27.129  28.599  1.00  0.00     0.016 C 
ATOM     12  C   UNL     1      -3.273  26.530  28.860  1.00  0.00     0.016 C 
ATOM     13  G   UNL     1      -2.565  28.925  28.243  1.00  0.00     0.000 G0
ENDBRANCH   9  10
ENDBRANCH   3   8
TORSDOF 0
ENDMDL
MODEL 5
REMARK VINA RESULT:    -4.086      1.283      2.119
REMARK INTER + INTRA:          -3.998
REMARK INTER:                  -4.751
REMARK INTRA:                   0.752
REMARK UNBOUND:                 1.043
REMARK SMILES CC1=CC=CC(C)(C)CC1=O
REMARK SMILES IDX 1 1 2 2 3 3 10 4 11 5 9 6 4 8 5 9 6 10 7 11 8 12
REMARK H PARENT
REMARK Flexibility Score: 80.00
ROOT
ATOM      1  C   UNL     1      -1.262  26.523  27.815  1.00  0.00     0.048 C 
ATOM      2  C   UNL     1      -2.568  27.061  28.352  1.00  0.00    -0.008 C 
ATOM      3  C   UNL     1      -3.315  26.238  29.118  1.00  0.00     0.007 C 
ENDROOT
BRANCH   2   4
ATOM      4  C   UNL     1      -2.888  28.480  28.056  1.00  0.00     0.159 C 
ATOM      5  O   UNL     1      -2.000  29.206  27.530  1.00  0.00    -0.295 OA
BRANCH   4   6
ATOM      6  C   UNL     1      -4.221  29.102  28.336  1.00  0.00     0.091 CG0
ATOM      7  G   UNL     1      -4.630  29.023  29.824  1.00  0.00     0.000 G0
ENDBRANCH   4   6
ENDBRANCH   2   4
BRANCH   3   8
ATOM      8  C   UNL     1      -4.609  26.484  29.798  1.00  0.00    -0.003 C 
ATOM      9  C   UNL     1      -5.187  27.650  30.114  1.00  0.00    -0.020 C 
BRANCH   9  10
ATOM     10  C   UNL     1      -4.650  29.030  29.815  1.00  0.00    -0.010 CG0
ATOM     11  C   UNL     1      -5.790  30.051  30.027  1.00  0.00     0.016 C 
ATOM     12  C   UNL     1      -3.510  29.376  30.800  1.00  0.00     0.016 C 
ATOM     13  G   UNL     1      -4.205  29.105  28.337  1.00  0.00     0.000 G0
ENDBRANCH   9  10
ENDBRANCH   3   8
TORSDOF 0
ENDMDL
MODEL 6
REMARK VINA RESULT:    -3.896      1.818      3.767
REMARK INTER + INTRA:          -3.763
REMARK INTER:                  -4.528
REMARK INTRA:                   0.764
REMARK UNBOUND:                 1.043
REMARK SMILES CC1=CC=CC(C)(C)CC1=O
REMARK SMILES IDX 1 1 2 2 3 3 10 4 11 5 9 6 4 8 5 9 6 10 7 11 8 12
REMARK H PARENT
REMARK Flexibility Score: 80.00
ROOT
ATOM      1  C   UNL     1      -5.738  29.502  30.301  1.00  0.00     0.048 C 
ATOM      2  C   UNL     1      -4.654  28.933  29.416  1.00  0.00    -0.008 C 
ATOM      3  C   UNL     1      -4.110  29.751  28.490  1.00  0.00     0.007 C 
ENDROOT
BRANCH   2   4
ATOM      4  C   UNL     1      -4.221  27.539  29.687  1.00  0.00     0.159 C 
ATOM      5  O   UNL     1      -4.625  26.971  30.739  1.00  0.00    -0.295 OA
BRANCH   4   6
ATOM      6  C   UNL     1      -3.336  26.756  28.768  1.00  0.00     0.091 CG0
ATOM      7  G   UNL     1      -1.966  27.426  28.524  1.00  0.00     0.000 G0
ENDBRANCH   4   6
ENDBRANCH   2   4
BRANCH   3   8
ATOM      8  C   UNL     1      -3.028  29.493  27.510  1.00  0.00    -0.003 C 
ATOM      9  C   UNL     1      -2.104  28.523  27.509  1.00  0.00    -0.020 C 
BRANCH   9  10
ATOM     10  C   UNL     1      -1.965  27.414  28.525  1.00  0.00    -0.010 CG0
ATOM     11  C   UNL     1      -1.012  26.344  27.947  1.00  0.00     0.016 C 
ATOM     12  C   UNL     1      -1.332  27.966  29.823  1.00  0.00     0.016 C 
ATOM     13  G   UNL     1      -3.341  26.754  28.767  1.00  0.00     0.000 G0
ENDBRANCH   9  10
ENDBRANCH   3   8
TORSDOF 0
ENDMDL
MODEL 7
REMARK VINA RESULT:    -3.746      2.190      3.663
REMARK INTER + INTRA:          -3.579
REMARK INTER:                  -4.333
REMARK INTRA:                   0.754
REMARK UNBOUND:                 1.043
REMARK SMILES CC1=CC=CC(C)(C)CC1=O
REMARK SMILES IDX 1 1 2 2 3 3 10 4 11 5 9 6 4 8 5 9 6 10 7 11 8 12
REMARK H PARENT
REMARK Flexibility Score: 80.00
ROOT
ATOM      1  C   UNL     1      -4.245  32.422  27.589  1.00  0.00     0.048 C 
ATOM      2  C   UNL     1      -4.176  30.955  27.943  1.00  0.00    -0.008 C 
ATOM      3  C   UNL     1      -3.079  30.269  27.556  1.00  0.00     0.007 C 
ENDROOT
BRANCH   2   4
ATOM      4  C   UNL     1      -5.289  30.403  28.755  1.00  0.00     0.159 C 
ATOM      5  O   UNL     1      -6.123  31.200  29.266  1.00  0.00    -0.295 OA
BRANCH   4   6
ATOM      6  C   UNL     1      -5.488  28.938  28.996  1.00  0.00     0.091 CG0
ATOM      7  G   UNL     1      -4.284  28.265  29.691  1.00  0.00     0.000 G0
ENDBRANCH   4   6
ENDBRANCH   2   4
BRANCH   3   8
ATOM      8  C   UNL     1      -2.718  28.849  27.776  1.00  0.00    -0.003 C 
ATOM      9  C   UNL     1      -3.206  27.984  28.676  1.00  0.00    -0.020 C 
BRANCH   9  10
ATOM     10  C   UNL     1      -4.292  28.259  29.689  1.00  0.00    -0.010 CG0
ATOM     11  C   UNL     1      -4.780  26.906  30.255  1.00  0.00     0.016 C 
ATOM     12  C   UNL     1      -3.721  29.088  30.862  1.00  0.00     0.016 C 
ATOM     13  G   UNL     1      -5.487  28.950  28.995  1.00  0.00     0.000 G0
ENDBRANCH   9  10
ENDBRANCH   3   8
TORSDOF 0
ENDMDL
MODEL 8
REMARK VINA RESULT:    -2.687      1.781      3.743
REMARK INTER + INTRA:          -2.272
REMARK INTER:                  -3.029
REMARK INTRA:                   0.757
REMARK UNBOUND:                 1.043
REMARK SMILES CC1=CC=CC(C)(C)CC1=O
REMARK SMILES IDX 1 1 2 2 3 3 10 4 11 5 9 6 4 8 5 9 6 10 7 11 8 12
REMARK H PARENT
REMARK Flexibility Score: 80.00
ROOT
ATOM      1  C   UNL     1      -6.060  29.592  30.458  1.00  0.00     0.048 C 
ATOM      2  C   UNL     1      -4.884  28.682  30.192  1.00  0.00    -0.008 C 
ATOM      3  C   UNL     1      -5.147  27.437  29.743  1.00  0.00     0.007 C 
ENDROOT
BRANCH   2   4
ATOM      4  C   UNL     1      -3.528  29.258  30.376  1.00  0.00     0.159 C 
ATOM      5  O   UNL     1      -3.416  30.500  30.571  1.00  0.00    -0.295 OA
BRANCH   4   6
ATOM      6  C   UNL     1      -2.274  28.440  30.355  1.00  0.00     0.091 CG0
ATOM      7  G   UNL     1      -2.072  27.668  29.032  1.00  0.00     0.000 G0
ENDBRANCH   4   6
ENDBRANCH   2   4
BRANCH   3   8
ATOM      8  C   UNL     1      -4.218  26.342  29.373  1.00  0.00    -0.003 C 
ATOM      9  C   UNL     1      -2.917  26.409  29.061  1.00  0.00    -0.020 C 
BRANCH   9  10
ATOM     10  C   UNL     1      -2.061  27.654  29.040  1.00  0.00    -0.010 CG0
ATOM     11  C   UNL     1      -0.579  27.221  28.977  1.00  0.00     0.016 C 
ATOM     12  C   UNL     1      -2.370  28.485  27.774  1.00  0.00     0.016 C 
ATOM     13  G   UNL     1      -2.274  28.453  30.345  1.00  0.00     0.000 G0
ENDBRANCH   9  10
ENDBRANCH   3   8
TORSDOF 0
ENDMDL
MODEL 9
REMARK VINA RESULT:    -2.684      1.864      2.698
REMARK INTER + INTRA:          -2.269
REMARK INTER:                  -3.289
REMARK INTRA:                   1.021
REMARK UNBOUND:                 1.043
REMARK SMILES CC1=CC=CC(C)(C)CC1=O
REMARK SMILES IDX 1 1 2 2 3 3 10 4 11 5 9 6 4 8 5 9 6 10 7 11 8 12
REMARK H PARENT
REMARK Flexibility Score: 80.00
ROOT
ATOM      1  C   UNL     1      -3.883  26.121  29.416  1.00  0.00     0.048 C 
ATOM      2  C   UNL     1      -4.161  27.602  29.324  1.00  0.00    -0.008 C 
ATOM      3  C   UNL     1      -5.259  28.073  29.954  1.00  0.00     0.007 C 
ENDROOT
BRANCH   2   4
ATOM      4  C   UNL     1      -3.161  28.435  28.609  1.00  0.00     0.159 C 
ATOM      5  O   UNL     1      -2.309  27.864  27.874  1.00  0.00    -0.295 OA
BRANCH   4   6
ATOM      6  C   UNL     1      -3.113  29.929  28.701  1.00  0.00     0.091 CG0
ATOM      7  G   UNL     1      -4.422  30.611  28.245  1.00  0.00     0.000 G0
ENDBRANCH   4   6
ENDBRANCH   2   4
BRANCH   3   8
ATOM      8  C   UNL     1      -5.772  29.459  30.065  1.00  0.00    -0.003 C 
ATOM      9  C   UNL     1      -5.420  30.547  29.366  1.00  0.00    -0.020 C 
BRANCH   9  10
ATOM     10  C   UNL     1      -4.406  30.608  28.249  1.00  0.00    -0.010 CG0
ATOM     11  C   UNL     1      -4.977  29.842  27.034  1.00  0.00     0.016 C 
ATOM     12  C   UNL     1      -4.180  32.077  27.822  1.00  0.00     0.016 C 
ATOM     13  G   UNL     1      -3.102  29.908  28.691  1.00  0.00     0.000 G0
ENDBRANCH   9  10
ENDBRANCH   3   8
TORSDOF 0
ENDMDL
