MODEL 1
REMARK VINA RESULT:    -4.334      0.000      0.000
REMARK INTER + INTRA:          -9.841
REMARK INTER:                  -7.881
REMARK INTRA:                  -1.960
REMARK UNBOUND:                -1.960
REMARK SMILES CCCCCCCCCCCCCC[C@H](C)C(=O)[O-]
REMARK SMILES IDX 9 1 10 2 11 3 12 4 13 5 14 6 15 7 16 8 17 9 18 10 19 11 8 12
REMARK SMILES IDX 7 13 6 14 5 15 4 16 3 17 2 18 1 19
REMARK H PARENT
REMARK Flexibility Score: inf
ROOT
ATOM      1  C   UNL     1      28.298  26.025 -13.045  1.00  0.00     0.000 C 
ENDROOT
BRANCH   1   2
ATOM      2  C   UNL     1      27.622  25.542 -14.335  1.00  0.00     0.000 C 
BRANCH   2   3
ATOM      3  C   UNL     1      26.964  24.172 -14.132  1.00  0.00     0.000 C 
BRANCH   3   4
ATOM      4  C   UNL     1      27.704  23.084 -14.917  1.00  0.00     0.000 C 
BRANCH   4   5
ATOM      5  C   UNL     1      28.573  23.699 -16.025  1.00  0.00     0.001 C 
BRANCH   5   6
ATOM      6  C   UNL     1      28.161  23.244 -17.437  1.00  0.00     0.009 C 
BRANCH   6   7
ATOM      7  C   UNL     1      27.806  24.388 -18.415  1.00  0.00     0.032 C 
ATOM      8  C   UNL     1      26.535  25.143 -18.000  1.00  0.00     0.014 C 
BRANCH   7   9
ATOM      9  C   UNL     1      27.627  23.826 -19.799  1.00  0.00     0.044 C 
ATOM     10  O   UNL     1      28.481  23.032 -20.275  1.00  0.00    -0.550 OA
ATOM     11  O   UNL     1      26.515  24.170 -20.559  1.00  0.00    -0.550 OA
ENDBRANCH   7   9
ENDBRANCH   6   7
ENDBRANCH   5   6
ENDBRANCH   4   5
ENDBRANCH   3   4
ENDBRANCH   2   3
ENDBRANCH   1   2
BRANCH   1  12
ATOM     12  C   UNL     1      29.653  26.708 -13.298  1.00  0.00     0.000 C 
BRANCH  12  13
ATOM     13  C   UNL     1      30.365  26.212 -14.573  1.00  0.00    -0.000 C 
BRANCH  13  14
ATOM     14  C   UNL     1      30.671  27.360 -15.552  1.00  0.00    -0.000 C 
BRANCH  14  15
ATOM     15  C   UNL     1      29.861  27.262 -16.854  1.00  0.00    -0.000 C 
BRANCH  15  16
ATOM     16  C   UNL     1      28.491  27.948 -16.753  1.00  0.00    -0.000 C 
BRANCH  16  17
ATOM     17  C   UNL     1      28.516  29.326 -17.423  1.00  0.00    -0.000 C 
BRANCH  17  18
ATOM     18  C   UNL     1      27.119  29.957 -17.439  1.00  0.00    -0.003 C 
ATOM     19  C   UNL     1      26.576  30.059 -18.861  1.00  0.00     0.004 C 
ENDBRANCH  17  18
ENDBRANCH  16  17
ENDBRANCH  15  16
ENDBRANCH  14  15
ENDBRANCH  13  14
ENDBRANCH  12  13
ENDBRANCH   1  12
TORSDOF 14
ENDMDL
MODEL 2
REMARK VINA RESULT:    -4.142      1.484      2.459
REMARK INTER + INTRA:          -9.492
REMARK INTER:                  -7.890
REMARK INTRA:                  -1.601
REMARK UNBOUND:                -1.960
REMARK SMILES CCCCCCCCCCCCCC[C@H](C)C(=O)[O-]
REMARK SMILES IDX 9 1 10 2 11 3 12 4 13 5 14 6 15 7 16 8 17 9 18 10 19 11 8 12
REMARK SMILES IDX 7 13 6 14 5 15 4 16 3 17 2 18 1 19
REMARK H PARENT
REMARK Flexibility Score: inf
ROOT
ATOM      1  C   UNL     1      27.737  23.229 -14.837  1.00  0.00     0.000 C 
ENDROOT
BRANCH   1   2
ATOM      2  C   UNL     1      29.047  22.659 -15.397  1.00  0.00     0.000 C 
BRANCH   2   3
ATOM      3  C   UNL     1      28.787  21.394 -16.224  1.00  0.00     0.000 C 
BRANCH   3   4
ATOM      4  C   UNL     1      28.778  21.708 -17.724  1.00  0.00     0.000 C 
BRANCH   4   5
ATOM      5  C   UNL     1      29.622  22.955 -18.030  1.00  0.00     0.001 C 
BRANCH   5   6
ATOM      6  C   UNL     1      28.794  24.114 -18.617  1.00  0.00     0.009 C 
BRANCH   6   7
ATOM      7  C   UNL     1      27.432  23.704 -19.223  1.00  0.00     0.032 C 
ATOM      8  C   UNL     1      27.521  23.419 -20.728  1.00  0.00     0.014 C 
BRANCH   7   9
ATOM      9  C   UNL     1      26.425  24.794 -18.976  1.00  0.00     0.044 C 
ATOM     10  O   UNL     1      25.717  25.227 -19.923  1.00  0.00    -0.550 OA
ATOM     11  O   UNL     1      26.262  25.325 -17.701  1.00  0.00    -0.550 OA
ENDBRANCH   7   9
ENDBRANCH   6   7
ENDBRANCH   5   6
ENDBRANCH   4   5
ENDBRANCH   3   4
ENDBRANCH   2   3
ENDBRANCH   1   2
BRANCH   1  12
ATOM     12  C   UNL     1      27.686  24.766 -14.877  1.00  0.00     0.000 C 
BRANCH  12  13
ATOM     13  C   UNL     1      29.046  25.420 -15.199  1.00  0.00    -0.000 C 
BRANCH  13  14
ATOM     14  C   UNL     1      28.941  26.951 -15.316  1.00  0.00    -0.000 C 
BRANCH  14  15
ATOM     15  C   UNL     1      29.435  27.478 -16.672  1.00  0.00    -0.000 C 
BRANCH  15  16
ATOM     16  C   UNL     1      28.848  28.853 -17.024  1.00  0.00    -0.000 C 
BRANCH  16  17
ATOM     17  C   UNL     1      27.406  28.723 -17.526  1.00  0.00    -0.000 C 
BRANCH  17  18
ATOM     18  C   UNL     1      26.798  30.100 -17.819  1.00  0.00    -0.003 C 
ATOM     19  C   UNL     1      26.789  30.391 -19.317  1.00  0.00     0.004 C 
ENDBRANCH  17  18
ENDBRANCH  16  17
ENDBRANCH  15  16
ENDBRANCH  14  15
ENDBRANCH  13  14
ENDBRANCH  12  13
ENDBRANCH   1  12
TORSDOF 14
ENDMDL
MODEL 3
REMARK VINA RESULT:    -4.028      2.938      5.220
REMARK INTER + INTRA:          -9.284
REMARK INTER:                  -7.134
REMARK INTRA:                  -2.151
REMARK UNBOUND:                -1.960
REMARK SMILES CCCCCCCCCCCCCC[C@H](C)C(=O)[O-]
REMARK SMILES IDX 9 1 10 2 11 3 12 4 13 5 14 6 15 7 16 8 17 9 18 10 19 11 8 12
REMARK SMILES IDX 7 13 6 14 5 15 4 16 3 17 2 18 1 19
REMARK H PARENT
REMARK Flexibility Score: inf
ROOT
ATOM      1  C   UNL     1      27.829  26.411 -14.796  1.00  0.00     0.000 C 
ENDROOT
BRANCH   1   2
ATOM      2  C   UNL     1      27.805  26.884 -16.256  1.00  0.00     0.000 C 
BRANCH   2   3
ATOM      3  C   UNL     1      28.945  27.871 -16.534  1.00  0.00     0.000 C 
BRANCH   3   4
ATOM      4  C   UNL     1      30.186  27.144 -17.062  1.00  0.00     0.000 C 
BRANCH   4   5
ATOM      5  C   UNL     1      31.147  26.793 -15.916  1.00  0.00     0.001 C 
BRANCH   5   6
ATOM      6  C   UNL     1      32.332  25.918 -16.369  1.00  0.00     0.009 C 
BRANCH   6   7
ATOM      7  C   UNL     1      32.465  25.740 -17.899  1.00  0.00     0.032 C 
ATOM      8  C   UNL     1      32.216  24.292 -18.345  1.00  0.00     0.014 C 
BRANCH   7   9
ATOM      9  C   UNL     1      33.838  26.172 -18.336  1.00  0.00     0.044 C 
ATOM     10  O   UNL     1      34.833  25.962 -17.593  1.00  0.00    -0.550 OA
ATOM     11  O   UNL     1      34.021  26.795 -19.565  1.00  0.00    -0.550 OA
ENDBRANCH   7   9
ENDBRANCH   6   7
ENDBRANCH   5   6
ENDBRANCH   4   5
ENDBRANCH   3   4
ENDBRANCH   2   3
ENDBRANCH   1   2
BRANCH   1  12
ATOM     12  C   UNL     1      28.026  24.891 -14.662  1.00  0.00     0.000 C 
BRANCH  12  13
ATOM     13  C   UNL     1      27.547  24.096 -15.894  1.00  0.00    -0.000 C 
BRANCH  13  14
ATOM     14  C   UNL     1      28.459  22.895 -16.201  1.00  0.00    -0.000 C 
BRANCH  14  15
ATOM     15  C   UNL     1      28.809  22.782 -17.693  1.00  0.00    -0.000 C 
BRANCH  15  16
ATOM     16  C   UNL     1      28.497  24.066 -18.475  1.00  0.00    -0.000 C 
BRANCH  16  17
ATOM     17  C   UNL     1      28.220  23.758 -19.951  1.00  0.00    -0.000 C 
BRANCH  17  18
ATOM     18  C   UNL     1      26.787  24.143 -20.334  1.00  0.00    -0.003 C 
ATOM     19  C   UNL     1      26.141  25.007 -19.255  1.00  0.00     0.004 C 
ENDBRANCH  17  18
ENDBRANCH  16  17
ENDBRANCH  15  16
ENDBRANCH  14  15
ENDBRANCH  13  14
ENDBRANCH  12  13
ENDBRANCH   1  12
TORSDOF 14
ENDMDL
MODEL 4
REMARK VINA RESULT:    -4.012      1.278      1.943
REMARK INTER + INTRA:          -9.256
REMARK INTER:                  -6.569
REMARK INTRA:                  -2.687
REMARK UNBOUND:                -1.960
REMARK SMILES CCCCCCCCCCCCCC[C@H](C)C(=O)[O-]
REMARK SMILES IDX 9 1 10 2 11 3 12 4 13 5 14 6 15 7 16 8 17 9 18 10 19 11 8 12
REMARK SMILES IDX 7 13 6 14 5 15 4 16 3 17 2 18 1 19
REMARK H PARENT
REMARK Flexibility Score: inf
ROOT
ATOM      1  C   UNL     1      27.868  26.365 -13.457  1.00  0.00     0.000 C 
ENDROOT
BRANCH   1   2
ATOM      2  C   UNL     1      27.087  25.111 -13.873  1.00  0.00     0.000 C 
BRANCH   2   3
ATOM      3  C   UNL     1      27.924  23.845 -13.653  1.00  0.00     0.000 C 
BRANCH   3   4
ATOM      4  C   UNL     1      28.312  23.201 -14.989  1.00  0.00     0.000 C 
BRANCH   4   5
ATOM      5  C   UNL     1      27.673  23.952 -16.167  1.00  0.00     0.001 C 
BRANCH   5   6
ATOM      6  C   UNL     1      28.248  23.531 -17.533  1.00  0.00     0.009 C 
BRANCH   6   7
ATOM      7  C   UNL     1      27.789  24.396 -18.729  1.00  0.00     0.032 C 
ATOM      8  C   UNL     1      26.337  24.872 -18.587  1.00  0.00     0.014 C 
BRANCH   7   9
ATOM      9  C   UNL     1      27.938  23.608 -20.002  1.00  0.00     0.044 C 
ATOM     10  O   UNL     1      28.986  22.944 -20.217  1.00  0.00    -0.550 OA
ATOM     11  O   UNL     1      26.918  23.600 -20.947  1.00  0.00    -0.550 OA
ENDBRANCH   7   9
ENDBRANCH   6   7
ENDBRANCH   5   6
ENDBRANCH   4   5
ENDBRANCH   3   4
ENDBRANCH   2   3
ENDBRANCH   1   2
BRANCH   1  12
ATOM     12  C   UNL     1      28.891  26.092 -12.341  1.00  0.00     0.000 C 
BRANCH  12  13
ATOM     13  C   UNL     1      30.266  26.745 -12.592  1.00  0.00    -0.000 C 
BRANCH  13  14
ATOM     14  C   UNL     1      31.138  25.913 -13.548  1.00  0.00    -0.000 C 
BRANCH  14  15
ATOM     15  C   UNL     1      31.457  26.653 -14.857  1.00  0.00    -0.000 C 
BRANCH  15  16
ATOM     16  C   UNL     1      31.174  25.803 -16.104  1.00  0.00    -0.000 C 
BRANCH  16  17
ATOM     17  C   UNL     1      30.302  26.569 -17.105  1.00  0.00    -0.000 C 
BRANCH  17  18
ATOM     18  C   UNL     1      29.553  27.716 -16.417  1.00  0.00    -0.003 C 
ATOM     19  C   UNL     1      28.080  27.731 -16.817  1.00  0.00     0.004 C 
ENDBRANCH  17  18
ENDBRANCH  16  17
ENDBRANCH  15  16
ENDBRANCH  14  15
ENDBRANCH  13  14
ENDBRANCH  12  13
ENDBRANCH   1  12
TORSDOF 14
ENDMDL
MODEL 5
REMARK VINA RESULT:    -4.011      2.417      3.714
REMARK INTER + INTRA:          -9.255
REMARK INTER:                  -7.386
REMARK INTRA:                  -1.869
REMARK UNBOUND:                -1.960
REMARK SMILES CCCCCCCCCCCCCC[C@H](C)C(=O)[O-]
REMARK SMILES IDX 9 1 10 2 11 3 12 4 13 5 14 6 15 7 16 8 17 9 18 10 19 11 8 12
REMARK SMILES IDX 7 13 6 14 5 15 4 16 3 17 2 18 1 19
REMARK H PARENT
REMARK Flexibility Score: inf
ROOT
ATOM      1  C   UNL     1      26.860  25.676 -17.026  1.00  0.00     0.000 C 
ENDROOT
BRANCH   1   2
ATOM      2  C   UNL     1      26.572  24.498 -17.967  1.00  0.00     0.000 C 
BRANCH   2   3
ATOM      3  C   UNL     1      26.230  24.993 -19.378  1.00  0.00     0.000 C 
BRANCH   3   4
ATOM      4  C   UNL     1      27.073  24.271 -20.435  1.00  0.00     0.000 C 
BRANCH   4   5
ATOM      5  C   UNL     1      27.967  23.202 -19.789  1.00  0.00     0.001 C 
BRANCH   5   6
ATOM      6  C   UNL     1      29.471  23.484 -19.970  1.00  0.00     0.009 C 
BRANCH   6   7
ATOM      7  C   UNL     1      30.403  22.691 -19.026  1.00  0.00     0.032 C 
ATOM      8  C   UNL     1      29.804  22.512 -17.624  1.00  0.00     0.014 C 
BRANCH   7   9
ATOM      9  C   UNL     1      31.727  23.398 -18.920  1.00  0.00     0.044 C 
ATOM     10  O   UNL     1      31.834  24.598 -19.285  1.00  0.00    -0.550 OA
ATOM     11  O   UNL     1      32.839  22.735 -18.411  1.00  0.00    -0.550 OA
ENDBRANCH   7   9
ENDBRANCH   6   7
ENDBRANCH   5   6
ENDBRANCH   4   5
ENDBRANCH   3   4
ENDBRANCH   2   3
ENDBRANCH   1   2
BRANCH   1  12
ATOM     12  C   UNL     1      28.244  25.586 -16.360  1.00  0.00     0.000 C 
BRANCH  12  13
ATOM     13  C   UNL     1      29.343  26.363 -17.113  1.00  0.00    -0.000 C 
BRANCH  13  14
ATOM     14  C   UNL     1      29.611  27.743 -16.486  1.00  0.00    -0.000 C 
BRANCH  14  15
ATOM     15  C   UNL     1      29.231  28.903 -17.421  1.00  0.00    -0.000 C 
BRANCH  15  16
ATOM     16  C   UNL     1      27.863  29.514 -17.081  1.00  0.00    -0.000 C 
BRANCH  16  17
ATOM     17  C   UNL     1      26.876  29.329 -18.238  1.00  0.00    -0.000 C 
BRANCH  17  18
ATOM     18  C   UNL     1      26.525  30.674 -18.884  1.00  0.00    -0.003 C 
ATOM     19  C   UNL     1      27.283  30.872 -20.193  1.00  0.00     0.004 C 
ENDBRANCH  17  18
ENDBRANCH  16  17
ENDBRANCH  15  16
ENDBRANCH  14  15
ENDBRANCH  13  14
ENDBRANCH  12  13
ENDBRANCH   1  12
TORSDOF 14
ENDMDL
MODEL 6
REMARK VINA RESULT:    -3.996      3.177      6.241
REMARK INTER + INTRA:          -9.227
REMARK INTER:                  -6.913
REMARK INTRA:                  -2.314
REMARK UNBOUND:                -1.960
REMARK SMILES CCCCCCCCCCCCCC[C@H](C)C(=O)[O-]
REMARK SMILES IDX 9 1 10 2 11 3 12 4 13 5 14 6 15 7 16 8 17 9 18 10 19 11 8 12
REMARK SMILES IDX 7 13 6 14 5 15 4 16 3 17 2 18 1 19
REMARK H PARENT
REMARK Flexibility Score: inf
ROOT
ATOM      1  C   UNL     1      26.435  25.653 -18.152  1.00  0.00     0.000 C 
ENDROOT
BRANCH   1   2
ATOM      2  C   UNL     1      26.806  25.060 -16.785  1.00  0.00     0.000 C 
BRANCH   2   3
ATOM      3  C   UNL     1      27.892  25.897 -16.099  1.00  0.00     0.000 C 
BRANCH   3   4
ATOM      4  C   UNL     1      27.971  27.302 -16.706  1.00  0.00     0.000 C 
BRANCH   4   5
ATOM      5  C   UNL     1      29.428  27.782 -16.794  1.00  0.00     0.001 C 
BRANCH   5   6
ATOM      6  C   UNL     1      30.449  26.637 -16.660  1.00  0.00     0.009 C 
BRANCH   6   7
ATOM      7  C   UNL     1      31.530  26.848 -15.575  1.00  0.00     0.032 C 
ATOM      8  C   UNL     1      32.877  26.218 -15.957  1.00  0.00     0.014 C 
BRANCH   7   9
ATOM      9  C   UNL     1      31.053  26.265 -14.273  1.00  0.00     0.044 C 
ATOM     10  O   UNL     1      31.522  25.171 -13.861  1.00  0.00    -0.550 OA
ATOM     11  O   UNL     1      30.101  26.932 -13.511  1.00  0.00    -0.550 OA
ENDBRANCH   7   9
ENDBRANCH   6   7
ENDBRANCH   5   6
ENDBRANCH   4   5
ENDBRANCH   3   4
ENDBRANCH   2   3
ENDBRANCH   1   2
BRANCH   1  12
ATOM     12  C   UNL     1      26.008  24.584 -19.172  1.00  0.00     0.000 C 
BRANCH  12  13
ATOM     13  C   UNL     1      27.027  24.378 -20.313  1.00  0.00    -0.000 C 
BRANCH  13  14
ATOM     14  C   UNL     1      27.936  23.161 -20.065  1.00  0.00    -0.000 C 
BRANCH  14  15
ATOM     15  C   UNL     1      29.390  23.559 -19.763  1.00  0.00    -0.000 C 
BRANCH  15  16
ATOM     16  C   UNL     1      29.774  23.335 -18.293  1.00  0.00    -0.000 C 
BRANCH  16  17
ATOM     17  C   UNL     1      29.391  21.923 -17.835  1.00  0.00    -0.000 C 
BRANCH  17  18
ATOM     18  C   UNL     1      28.774  21.948 -16.431  1.00  0.00    -0.003 C 
ATOM     19  C   UNL     1      29.685  22.670 -15.442  1.00  0.00     0.004 C 
ENDBRANCH  17  18
ENDBRANCH  16  17
ENDBRANCH  15  16
ENDBRANCH  14  15
ENDBRANCH  13  14
ENDBRANCH  12  13
ENDBRANCH   1  12
TORSDOF 14
ENDMDL
MODEL 7
REMARK VINA RESULT:    -3.980      1.771      4.417
REMARK INTER + INTRA:          -9.197
REMARK INTER:                  -6.901
REMARK INTRA:                  -2.296
REMARK UNBOUND:                -1.960
REMARK SMILES CCCCCCCCCCCCCC[C@H](C)C(=O)[O-]
REMARK SMILES IDX 9 1 10 2 11 3 12 4 13 5 14 6 15 7 16 8 17 9 18 10 19 11 8 12
REMARK SMILES IDX 7 13 6 14 5 15 4 16 3 17 2 18 1 19
REMARK H PARENT
REMARK Flexibility Score: inf
ROOT
ATOM      1  C   UNL     1      31.804  26.137 -14.087  1.00  0.00     0.000 C 
ENDROOT
BRANCH   1   2
ATOM      2  C   UNL     1      31.487  26.296 -15.580  1.00  0.00     0.000 C 
BRANCH   2   3
ATOM      3  C   UNL     1      30.590  27.515 -15.825  1.00  0.00     0.000 C 
BRANCH   3   4
ATOM      4  C   UNL     1      29.490  27.194 -16.844  1.00  0.00     0.000 C 
BRANCH   4   5
ATOM      5  C   UNL     1      29.232  25.682 -16.915  1.00  0.00     0.001 C 
BRANCH   5   6
ATOM      6  C   UNL     1      27.796  25.335 -17.353  1.00  0.00     0.009 C 
BRANCH   6   7
ATOM      7  C   UNL     1      27.677  24.119 -18.299  1.00  0.00     0.032 C 
ATOM      8  C   UNL     1      29.027  23.709 -18.902  1.00  0.00     0.014 C 
BRANCH   7   9
ATOM      9  C   UNL     1      26.709  24.439 -19.406  1.00  0.00     0.044 C 
ATOM     10  O   UNL     1      25.721  25.188 -19.185  1.00  0.00    -0.550 OA
ATOM     11  O   UNL     1      26.902  23.918 -20.680  1.00  0.00    -0.550 OA
ENDBRANCH   7   9
ENDBRANCH   6   7
ENDBRANCH   5   6
ENDBRANCH   4   5
ENDBRANCH   3   4
ENDBRANCH   2   3
ENDBRANCH   1   2
BRANCH   1  12
ATOM     12  C   UNL     1      30.623  25.571 -13.281  1.00  0.00     0.000 C 
BRANCH  12  13
ATOM     13  C   UNL     1      29.907  26.626 -12.411  1.00  0.00    -0.000 C 
BRANCH  13  14
ATOM     14  C   UNL     1      28.393  26.365 -12.312  1.00  0.00    -0.000 C 
BRANCH  14  15
ATOM     15  C   UNL     1      27.715  26.279 -13.688  1.00  0.00    -0.000 C 
BRANCH  15  16
ATOM     16  C   UNL     1      26.886  24.997 -13.861  1.00  0.00    -0.000 C 
BRANCH  16  17
ATOM     17  C   UNL     1      27.156  24.010 -12.720  1.00  0.00    -0.000 C 
BRANCH  17  18
ATOM     18  C   UNL     1      27.557  22.634 -13.266  1.00  0.00    -0.003 C 
ATOM     19  C   UNL     1      27.934  22.716 -14.742  1.00  0.00     0.004 C 
ENDBRANCH  17  18
ENDBRANCH  16  17
ENDBRANCH  15  16
ENDBRANCH  14  15
ENDBRANCH  13  14
ENDBRANCH  12  13
ENDBRANCH   1  12
TORSDOF 14
ENDMDL
MODEL 8
REMARK VINA RESULT:    -3.957      2.563      5.171
REMARK INTER + INTRA:          -9.155
REMARK INTER:                  -7.212
REMARK INTRA:                  -1.944
REMARK UNBOUND:                -1.960
REMARK SMILES CCCCCCCCCCCCCC[C@H](C)C(=O)[O-]
REMARK SMILES IDX 9 1 10 2 11 3 12 4 13 5 14 6 15 7 16 8 17 9 18 10 19 11 8 12
REMARK SMILES IDX 7 13 6 14 5 15 4 16 3 17 2 18 1 19
REMARK H PARENT
REMARK Flexibility Score: inf
ROOT
ATOM      1  C   UNL     1      32.308  25.686 -16.399  1.00  0.00     0.000 C 
ENDROOT
BRANCH   1   2
ATOM      2  C   UNL     1      31.301  26.766 -15.978  1.00  0.00     0.000 C 
BRANCH   2   3
ATOM      3  C   UNL     1      30.267  27.014 -17.083  1.00  0.00     0.000 C 
BRANCH   3   4
ATOM      4  C   UNL     1      29.330  28.169 -16.711  1.00  0.00     0.000 C 
BRANCH   4   5
ATOM      5  C   UNL     1      27.863  27.713 -16.728  1.00  0.00     0.001 C 
BRANCH   5   6
ATOM      6  C   UNL     1      27.675  26.268 -16.229  1.00  0.00     0.009 C 
BRANCH   6   7
ATOM      7  C   UNL     1      27.206  26.139 -14.762  1.00  0.00     0.032 C 
ATOM      8  C   UNL     1      28.375  26.153 -13.768  1.00  0.00     0.014 C 
BRANCH   7   9
ATOM      9  C   UNL     1      26.421  24.866 -14.597  1.00  0.00     0.044 C 
ATOM     10  O   UNL     1      25.202  24.911 -14.285  1.00  0.00    -0.550 OA
ATOM     11  O   UNL     1      27.031  23.633 -14.796  1.00  0.00    -0.550 OA
ENDBRANCH   7   9
ENDBRANCH   6   7
ENDBRANCH   5   6
ENDBRANCH   4   5
ENDBRANCH   3   4
ENDBRANCH   2   3
ENDBRANCH   1   2
BRANCH   1  12
ATOM     12  C   UNL     1      32.100  25.204 -17.844  1.00  0.00     0.000 C 
BRANCH  12  13
ATOM     13  C   UNL     1      31.728  23.710 -17.949  1.00  0.00    -0.000 C 
BRANCH  13  14
ATOM     14  C   UNL     1      30.636  23.312 -16.939  1.00  0.00    -0.000 C 
BRANCH  14  15
ATOM     15  C   UNL     1      29.231  23.296 -17.560  1.00  0.00    -0.000 C 
BRANCH  15  16
ATOM     16  C   UNL     1      29.203  23.879 -18.981  1.00  0.00    -0.000 C 
BRANCH  16  17
ATOM     17  C   UNL     1      28.213  23.116 -19.868  1.00  0.00    -0.000 C 
BRANCH  17  18
ATOM     18  C   UNL     1      27.168  24.065 -20.468  1.00  0.00    -0.003 C 
ATOM     19  C   UNL     1      26.312  24.703 -19.379  1.00  0.00     0.004 C 
ENDBRANCH  17  18
ENDBRANCH  16  17
ENDBRANCH  15  16
ENDBRANCH  14  15
ENDBRANCH  13  14
ENDBRANCH  12  13
ENDBRANCH   1  12
TORSDOF 14
ENDMDL
MODEL 9
REMARK VINA RESULT:    -3.949      3.410      5.407
REMARK INTER + INTRA:          -9.141
REMARK INTER:                  -7.717
REMARK INTRA:                  -1.424
REMARK UNBOUND:                -1.960
REMARK SMILES CCCCCCCCCCCCCC[C@H](C)C(=O)[O-]
REMARK SMILES IDX 9 1 10 2 11 3 12 4 13 5 14 6 15 7 16 8 17 9 18 10 19 11 8 12
REMARK SMILES IDX 7 13 6 14 5 15 4 16 3 17 2 18 1 19
REMARK H PARENT
REMARK Flexibility Score: inf
ROOT
ATOM      1  C   UNL     1      30.482  27.156 -15.425  1.00  0.00     0.000 C 
ENDROOT
BRANCH   1   2
ATOM      2  C   UNL     1      29.847  27.719 -16.704  1.00  0.00     0.000 C 
BRANCH   2   3
ATOM      3  C   UNL     1      28.331  27.484 -16.716  1.00  0.00     0.000 C 
BRANCH   3   4
ATOM      4  C   UNL     1      27.904  26.586 -15.549  1.00  0.00     0.000 C 
BRANCH   4   5
ATOM      5  C   UNL     1      27.283  25.278 -16.061  1.00  0.00     0.001 C 
BRANCH   5   6
ATOM      6  C   UNL     1      26.855  25.351 -17.538  1.00  0.00     0.009 C 
BRANCH   6   7
ATOM      7  C   UNL     1      27.376  24.199 -18.428  1.00  0.00     0.032 C 
ATOM      8  C   UNL     1      28.908  24.176 -18.522  1.00  0.00     0.014 C 
BRANCH   7   9
ATOM      9  C   UNL     1      26.789  24.327 -19.807  1.00  0.00     0.044 C 
ATOM     10  O   UNL     1      27.231  23.620 -20.751  1.00  0.00    -0.550 OA
ATOM     11  O   UNL     1      25.749  25.218 -20.049  1.00  0.00    -0.550 OA
ENDBRANCH   7   9
ENDBRANCH   6   7
ENDBRANCH   5   6
ENDBRANCH   4   5
ENDBRANCH   3   4
ENDBRANCH   2   3
ENDBRANCH   1   2
BRANCH   1  12
ATOM     12  C   UNL     1      31.773  26.366 -15.695  1.00  0.00     0.000 C 
BRANCH  12  13
ATOM     13  C   UNL     1      32.036  26.107 -17.193  1.00  0.00    -0.000 C 
BRANCH  13  14
ATOM     14  C   UNL     1      33.540  26.067 -17.520  1.00  0.00    -0.000 C 
BRANCH  14  15
ATOM     15  C   UNL     1      34.421  26.078 -16.261  1.00  0.00    -0.000 C 
BRANCH  15  16
ATOM     16  C   UNL     1      35.316  24.835 -16.153  1.00  0.00    -0.000 C 
BRANCH  16  17
ATOM     17  C   UNL     1      36.757  25.158 -16.564  1.00  0.00    -0.000 C 
BRANCH  17  18
ATOM     18  C   UNL     1      37.151  26.573 -16.123  1.00  0.00    -0.003 C 
ATOM     19  C   UNL     1      38.119  26.532 -14.944  1.00  0.00     0.004 C 
ENDBRANCH  17  18
ENDBRANCH  16  17
ENDBRANCH  15  16
ENDBRANCH  14  15
ENDBRANCH  13  14
ENDBRANCH  12  13
ENDBRANCH   1  12
TORSDOF 14
ENDMDL
