MODEL 1
REMARK VINA RESULT:    -3.319      0.000      0.000
REMARK INTER + INTRA:          -4.666
REMARK INTER:                  -4.192
REMARK INTRA:                  -0.474
REMARK UNBOUND:                -0.474
REMARK SMILES COc1cc(O)c2c(=O)c(OC)c(-c3ccc(O)c(O)c3)oc2c1
REMARK SMILES IDX 3 1 4 2 5 3 7 4 23 5 24 6 22 7 13 8 10 9 8 10 9 11 2 12 1 13
REMARK SMILES IDX 6 14 14 16 21 17 15 18 19 19 16 20 17 21 20 22 18 24 11 26
REMARK SMILES IDX 12 27
REMARK H PARENT 6 15 20 23 18 25
REMARK Flexibility Score: inf
ROOT
ATOM      1  C   UNL     1     -21.023  29.712  16.004  1.00  0.00     0.126 A 
ATOM      2  C   UNL     1     -20.998  28.313  16.121  1.00  0.00     0.093 A 
ATOM      3  C   UNL     1     -19.801  27.597  15.985  1.00  0.00     0.134 A 
ATOM      4  C   UNL     1     -18.574  28.300  15.799  1.00  0.00     0.111 A 
ATOM      5  C   UNL     1     -18.620  29.708  15.655  1.00  0.00     0.146 A 
ATOM      6  C   UNL     1     -19.833  30.394  15.755  1.00  0.00     0.094 A 
ATOM      7  O   UNL     1     -17.516  30.404  15.428  1.00  0.00    -0.452 OA
ATOM      8  C   UNL     1     -16.311  29.858  15.338  1.00  0.00     0.180 A 
ATOM      9  C   UNL     1     -16.142  28.476  15.546  1.00  0.00     0.210 A 
ATOM     10  C   UNL     1     -17.295  27.692  15.794  1.00  0.00     0.239 A 
ATOM     11  O   UNL     1     -17.171  26.468  16.056  1.00  0.00    -0.285 OA
ENDROOT
BRANCH   1  12
ATOM     12  O   UNL     1     -22.206  30.457  16.120  1.00  0.00    -0.496 OA
ATOM     13  C   UNL     1     -23.514  29.895  16.125  1.00  0.00     0.278 C 
ENDBRANCH   1  12
BRANCH   3  14
ATOM     14  O   UNL     1     -19.903  26.203  16.011  1.00  0.00    -0.507 OA
ATOM     15  H   UNL     1     -20.238  25.669  16.799  1.00  0.00     0.293 HD
ENDBRANCH   3  14
BRANCH   8  16
ATOM     16  C   UNL     1     -15.167  30.752  15.046  1.00  0.00     0.025 A 
ATOM     17  C   UNL     1     -14.803  30.995  13.712  1.00  0.00     0.062 A 
ATOM     18  C   UNL     1     -14.398  31.316  16.079  1.00  0.00     0.016 A 
ATOM     19  C   UNL     1     -13.708  31.819  13.411  1.00  0.00     0.158 A 
ATOM     20  C   UNL     1     -13.307  32.138  15.780  1.00  0.00     0.051 A 
ATOM     21  C   UNL     1     -12.961  32.394  14.447  1.00  0.00     0.157 A 
BRANCH  19  22
ATOM     22  O   UNL     1     -13.357  32.071  12.086  1.00  0.00    -0.504 OA
ATOM     23  H   UNL     1     -12.590  31.582  11.639  1.00  0.00     0.293 HD
ENDBRANCH  19  22
BRANCH  21  24
ATOM     24  O   UNL     1     -11.875  33.213  14.145  1.00  0.00    -0.504 OA
ATOM     25  H   UNL     1     -11.980  34.043  13.572  1.00  0.00     0.293 HD
ENDBRANCH  21  24
ENDBRANCH   8  16
BRANCH   9  26
ATOM     26  O   UNL     1     -14.833  27.955  15.532  1.00  0.00    -0.490 OA
ATOM     27  C   UNL     1     -14.173  27.343  14.429  1.00  0.00     0.278 C 
ENDBRANCH   9  26
TORSDOF 6
ENDMDL
MODEL 2
REMARK VINA RESULT:    -3.007      1.350      2.026
REMARK INTER + INTRA:          -4.272
REMARK INTER:                  -3.807
REMARK INTRA:                  -0.465
REMARK UNBOUND:                -0.474
REMARK SMILES COc1cc(O)c2c(=O)c(OC)c(-c3ccc(O)c(O)c3)oc2c1
REMARK SMILES IDX 3 1 4 2 5 3 7 4 23 5 24 6 22 7 13 8 10 9 8 10 9 11 2 12 1 13
REMARK SMILES IDX 6 14 14 16 21 17 15 18 19 19 16 20 17 21 20 22 18 24 11 26
REMARK SMILES IDX 12 27
REMARK H PARENT 6 15 20 23 18 25
REMARK Flexibility Score: inf
ROOT
ATOM      1  C   UNL     1     -19.719  28.921  15.867  1.00  0.00     0.126 A 
ATOM      2  C   UNL     1     -19.365  27.567  15.972  1.00  0.00     0.093 A 
ATOM      3  C   UNL     1     -18.050  27.142  15.737  1.00  0.00     0.134 A 
ATOM      4  C   UNL     1     -17.036  28.106  15.460  1.00  0.00     0.111 A 
ATOM      5  C   UNL     1     -17.415  29.464  15.329  1.00  0.00     0.146 A 
ATOM      6  C   UNL     1     -18.741  29.855  15.529  1.00  0.00     0.094 A 
ATOM      7  O   UNL     1     -16.522  30.392  15.020  1.00  0.00    -0.452 OA
ATOM      8  C   UNL     1     -15.234  30.136  14.832  1.00  0.00     0.180 A 
ATOM      9  C   UNL     1     -14.737  28.832  15.017  1.00  0.00     0.210 A 
ATOM     10  C   UNL     1     -15.656  27.808  15.350  1.00  0.00     0.239 A 
ATOM     11  O   UNL     1     -15.233  26.648  15.592  1.00  0.00    -0.285 OA
ENDROOT
BRANCH   1  12
ATOM     12  O   UNL     1     -21.029  29.376  16.080  1.00  0.00    -0.496 OA
ATOM     13  C   UNL     1     -21.727  30.260  15.209  1.00  0.00     0.278 C 
ENDBRANCH   1  12
BRANCH   3  14
ATOM     14  O   UNL     1     -17.827  25.763  15.762  1.00  0.00    -0.507 OA
ATOM     15  H   UNL     1     -18.220  25.132  16.445  1.00  0.00     0.293 HD
ENDBRANCH   3  14
BRANCH   8  16
ATOM     16  C   UNL     1     -14.353  31.265  14.456  1.00  0.00     0.025 A 
ATOM     17  C   UNL     1     -13.803  32.079  15.459  1.00  0.00     0.062 A 
ATOM     18  C   UNL     1     -14.101  31.578  13.108  1.00  0.00     0.016 A 
ATOM     19  C   UNL     1     -12.985  33.168  15.126  1.00  0.00     0.158 A 
ATOM     20  C   UNL     1     -13.285  32.663  12.774  1.00  0.00     0.051 A 
ATOM     21  C   UNL     1     -12.723  33.459  13.781  1.00  0.00     0.157 A 
BRANCH  19  22
ATOM     22  O   UNL     1     -12.430  33.966  16.125  1.00  0.00    -0.504 OA
ATOM     23  H   UNL     1     -11.789  34.720  15.906  1.00  0.00     0.293 HD
ENDBRANCH  19  22
BRANCH  21  24
ATOM     24  O   UNL     1     -11.909  34.540  13.454  1.00  0.00    -0.504 OA
ATOM     25  H   UNL     1     -10.897  34.472  13.485  1.00  0.00     0.293 HD
ENDBRANCH  21  24
ENDBRANCH   8  16
BRANCH   9  26
ATOM     26  O   UNL     1     -13.348  28.625  14.896  1.00  0.00    -0.490 OA
ATOM     27  C   UNL     1     -12.681  27.913  13.859  1.00  0.00     0.278 C 
ENDBRANCH   9  26
TORSDOF 6
ENDMDL
MODEL 3
REMARK VINA RESULT:    -2.453      3.385      5.350
REMARK INTER + INTRA:          -3.572
REMARK INTER:                  -4.610
REMARK INTRA:                   1.038
REMARK UNBOUND:                -0.474
REMARK SMILES COc1cc(O)c2c(=O)c(OC)c(-c3ccc(O)c(O)c3)oc2c1
REMARK SMILES IDX 3 1 4 2 5 3 7 4 23 5 24 6 22 7 13 8 10 9 8 10 9 11 2 12 1 13
REMARK SMILES IDX 6 14 14 16 21 17 15 18 19 19 16 20 17 21 20 22 18 24 11 26
REMARK SMILES IDX 12 27
REMARK H PARENT 6 15 20 23 18 25
REMARK Flexibility Score: inf
ROOT
ATOM      1  C   UNL     1     -16.641  29.766  15.396  1.00  0.00     0.126 A 
ATOM      2  C   UNL     1     -15.793  28.744  15.850  1.00  0.00     0.093 A 
ATOM      3  C   UNL     1     -14.693  28.324  15.091  1.00  0.00     0.134 A 
ATOM      4  C   UNL     1     -14.381  28.993  13.870  1.00  0.00     0.111 A 
ATOM      5  C   UNL     1     -15.262  30.001  13.411  1.00  0.00     0.146 A 
ATOM      6  C   UNL     1     -16.374  30.373  14.169  1.00  0.00     0.094 A 
ATOM      7  O   UNL     1     -15.048  30.618  12.258  1.00  0.00    -0.452 OA
ATOM      8  C   UNL     1     -14.012  30.360  11.471  1.00  0.00     0.180 A 
ATOM      9  C   UNL     1     -13.032  29.432  11.871  1.00  0.00     0.210 A 
ATOM     10  C   UNL     1     -13.218  28.751  13.098  1.00  0.00     0.239 A 
ATOM     11  O   UNL     1     -12.326  27.970  13.518  1.00  0.00    -0.285 OA
ENDROOT
BRANCH   1  12
ATOM     12  O   UNL     1     -17.758  30.198  16.124  1.00  0.00    -0.496 OA
ATOM     13  C   UNL     1     -19.107  29.872  15.801  1.00  0.00     0.278 C 
ENDBRANCH   1  12
BRANCH   3  14
ATOM     14  O   UNL     1     -13.977  27.229  15.583  1.00  0.00    -0.507 OA
ATOM     15  H   UNL     1     -13.363  26.651  15.028  1.00  0.00     0.293 HD
ENDBRANCH   3  14
BRANCH   8  16
ATOM     16  C   UNL     1     -13.915  31.099  10.192  1.00  0.00     0.025 A 
ATOM     17  C   UNL     1     -15.082  31.372   9.460  1.00  0.00     0.062 A 
ATOM     18  C   UNL     1     -12.670  31.483   9.662  1.00  0.00     0.016 A 
ATOM     19  C   UNL     1     -15.013  32.049   8.233  1.00  0.00     0.158 A 
ATOM     20  C   UNL     1     -12.600  32.158   8.440  1.00  0.00     0.051 A 
ATOM     21  C   UNL     1     -13.770  32.446   7.724  1.00  0.00     0.157 A 
BRANCH  19  22
ATOM     22  O   UNL     1     -16.173  32.331   7.516  1.00  0.00    -0.504 OA
ATOM     23  H   UNL     1     -17.070  32.432   7.977  1.00  0.00     0.293 HD
ENDBRANCH  19  22
BRANCH  21  24
ATOM     24  O   UNL     1     -13.704  33.120   6.507  1.00  0.00    -0.504 OA
ATOM     25  H   UNL     1     -14.541  33.359   5.987  1.00  0.00     0.293 HD
ENDBRANCH  21  24
ENDBRANCH   8  16
BRANCH   9  26
ATOM     26  O   UNL     1     -11.902  29.258  11.047  1.00  0.00    -0.490 OA
ATOM     27  C   UNL     1     -11.875  28.657   9.756  1.00  0.00     0.278 C 
ENDBRANCH   9  26
TORSDOF 6
ENDMDL
MODEL 4
REMARK VINA RESULT:    -1.875      3.816      6.568
REMARK INTER + INTRA:          -2.842
REMARK INTER:                  -2.791
REMARK INTRA:                  -0.050
REMARK UNBOUND:                -0.474
REMARK SMILES COc1cc(O)c2c(=O)c(OC)c(-c3ccc(O)c(O)c3)oc2c1
REMARK SMILES IDX 3 1 4 2 5 3 7 4 23 5 24 6 22 7 13 8 10 9 8 10 9 11 2 12 1 13
REMARK SMILES IDX 6 14 14 16 21 17 15 18 19 19 16 20 17 21 20 22 18 24 11 26
REMARK SMILES IDX 12 27
REMARK H PARENT 6 15 20 23 18 25
REMARK Flexibility Score: inf
ROOT
ATOM      1  C   UNL     1     -14.906  27.337  14.134  1.00  0.00     0.126 A 
ATOM      2  C   UNL     1     -14.082  27.753  15.192  1.00  0.00     0.093 A 
ATOM      3  C   UNL     1     -13.221  28.849  15.050  1.00  0.00     0.134 A 
ATOM      4  C   UNL     1     -13.232  29.604  13.840  1.00  0.00     0.111 A 
ATOM      5  C   UNL     1     -14.047  29.155  12.774  1.00  0.00     0.146 A 
ATOM      6  C   UNL     1     -14.866  28.034  12.928  1.00  0.00     0.094 A 
ATOM      7  O   UNL     1     -14.054  29.788  11.610  1.00  0.00    -0.452 OA
ATOM      8  C   UNL     1     -13.334  30.874  11.363  1.00  0.00     0.180 A 
ATOM      9  C   UNL     1     -12.551  31.452  12.380  1.00  0.00     0.210 A 
ATOM     10  C   UNL     1     -12.514  30.809  13.641  1.00  0.00     0.239 A 
ATOM     11  O   UNL     1     -11.882  31.339  14.591  1.00  0.00    -0.285 OA
ENDROOT
BRANCH   1  12
ATOM     12  O   UNL     1     -15.767  26.235  14.239  1.00  0.00    -0.496 OA
ATOM     13  C   UNL     1     -16.832  26.131  15.178  1.00  0.00     0.278 C 
ENDBRANCH   1  12
BRANCH   3  14
ATOM     14  O   UNL     1     -12.367  29.114  16.125  1.00  0.00    -0.507 OA
ATOM     15  H   UNL     1     -12.507  28.773  17.064  1.00  0.00     0.293 HD
ENDBRANCH   3  14
BRANCH   8  16
ATOM     16  C   UNL     1     -13.411  31.460  10.005  1.00  0.00     0.025 A 
ATOM     17  C   UNL     1     -14.667  31.721   9.434  1.00  0.00     0.062 A 
ATOM     18  C   UNL     1     -12.251  31.706   9.248  1.00  0.00     0.016 A 
ATOM     19  C   UNL     1     -14.766  32.253   8.140  1.00  0.00     0.158 A 
ATOM     20  C   UNL     1     -12.349  32.237   7.959  1.00  0.00     0.051 A 
ATOM     21  C   UNL     1     -13.604  32.515   7.402  1.00  0.00     0.157 A 
BRANCH  19  22
ATOM     22  O   UNL     1     -16.013  32.525   7.581  1.00  0.00    -0.504 OA
ATOM     23  H   UNL     1     -16.253  32.218   6.646  1.00  0.00     0.293 HD
ENDBRANCH  19  22
BRANCH  21  24
ATOM     24  O   UNL     1     -13.705  33.046   6.118  1.00  0.00    -0.504 OA
ATOM     25  H   UNL     1     -14.443  33.695   5.869  1.00  0.00     0.293 HD
ENDBRANCH  21  24
ENDBRANCH   8  16
BRANCH   9  26
ATOM     26  O   UNL     1     -11.875  32.656  12.098  1.00  0.00    -0.490 OA
ATOM     27  C   UNL     1     -12.054  33.906  12.757  1.00  0.00     0.278 C 
ENDBRANCH   9  26
TORSDOF 6
ENDMDL
MODEL 5
REMARK VINA RESULT:    -1.777      2.286      4.449
REMARK INTER + INTRA:          -2.719
REMARK INTER:                  -3.649
REMARK INTRA:                   0.931
REMARK UNBOUND:                -0.474
REMARK SMILES COc1cc(O)c2c(=O)c(OC)c(-c3ccc(O)c(O)c3)oc2c1
REMARK SMILES IDX 3 1 4 2 5 3 7 4 23 5 24 6 22 7 13 8 10 9 8 10 9 11 2 12 1 13
REMARK SMILES IDX 6 14 14 16 21 17 15 18 19 19 16 20 17 21 20 22 18 24 11 26
REMARK SMILES IDX 12 27
REMARK H PARENT 6 15 20 23 18 25
REMARK Flexibility Score: inf
ROOT
ATOM      1  C   UNL     1     -18.795  24.127  15.213  1.00  0.00     0.126 A 
ATOM      2  C   UNL     1     -20.156  24.358  15.470  1.00  0.00     0.093 A 
ATOM      3  C   UNL     1     -20.627  25.641  15.776  1.00  0.00     0.134 A 
ATOM      4  C   UNL     1     -19.728  26.748  15.754  1.00  0.00     0.111 A 
ATOM      5  C   UNL     1     -18.354  26.495  15.523  1.00  0.00     0.146 A 
ATOM      6  C   UNL     1     -17.904  25.199  15.260  1.00  0.00     0.094 A 
ATOM      7  O   UNL     1     -17.468  27.479  15.545  1.00  0.00    -0.452 OA
ATOM      8  C   UNL     1     -17.789  28.748  15.761  1.00  0.00     0.180 A 
ATOM      9  C   UNL     1     -19.137  29.121  15.923  1.00  0.00     0.210 A 
ATOM     10  C   UNL     1     -20.118  28.101  15.905  1.00  0.00     0.239 A 
ATOM     11  O   UNL     1     -21.336  28.408  15.974  1.00  0.00    -0.285 OA
ENDROOT
BRANCH   1  12
ATOM     12  O   UNL     1     -18.289  22.853  14.919  1.00  0.00    -0.496 OA
ATOM     13  C   UNL     1     -17.613  22.513  13.713  1.00  0.00     0.278 C 
ENDBRANCH   1  12
BRANCH   3  14
ATOM     14  O   UNL     1     -21.978  25.743  16.120  1.00  0.00    -0.507 OA
ATOM     15  H   UNL     1     -22.652  24.999  16.016  1.00  0.00     0.293 HD
ENDBRANCH   3  14
BRANCH   8  16
ATOM     16  C   UNL     1     -16.691  29.742  15.794  1.00  0.00     0.025 A 
ATOM     17  C   UNL     1     -15.367  29.318  15.600  1.00  0.00     0.062 A 
ATOM     18  C   UNL     1     -16.941  31.097  16.075  1.00  0.00     0.016 A 
ATOM     19  C   UNL     1     -14.309  30.237  15.651  1.00  0.00     0.158 A 
ATOM     20  C   UNL     1     -15.888  32.015  16.125  1.00  0.00     0.051 A 
ATOM     21  C   UNL     1     -14.570  31.589  15.911  1.00  0.00     0.157 A 
BRANCH  19  22
ATOM     22  O   UNL     1     -12.997  29.816  15.445  1.00  0.00    -0.504 OA
ATOM     23  H   UNL     1     -12.470  30.103  14.628  1.00  0.00     0.293 HD
ENDBRANCH  19  22
BRANCH  21  24
ATOM     24  O   UNL     1     -13.517  32.500  15.958  1.00  0.00    -0.504 OA
ATOM     25  H   UNL     1     -12.952  32.614  16.792  1.00  0.00     0.293 HD
ENDBRANCH  21  24
ENDBRANCH   8  16
BRANCH   9  26
ATOM     26  O   UNL     1     -19.438  30.491  16.059  1.00  0.00    -0.490 OA
ATOM     27  C   UNL     1     -20.685  31.119  15.784  1.00  0.00     0.278 C 
ENDBRANCH   9  26
TORSDOF 6
ENDMDL
MODEL 6
REMARK VINA RESULT:    -1.269      4.153      7.815
REMARK INTER + INTRA:          -2.077
REMARK INTER:                  -2.326
REMARK INTRA:                   0.249
REMARK UNBOUND:                -0.474
REMARK SMILES COc1cc(O)c2c(=O)c(OC)c(-c3ccc(O)c(O)c3)oc2c1
REMARK SMILES IDX 3 1 4 2 5 3 7 4 23 5 24 6 22 7 13 8 10 9 8 10 9 11 2 12 1 13
REMARK SMILES IDX 6 14 14 16 21 17 15 18 19 19 16 20 17 21 20 22 18 24 11 26
REMARK SMILES IDX 12 27
REMARK H PARENT 6 15 20 23 18 25
REMARK Flexibility Score: inf
ROOT
ATOM      1  C   UNL     1     -16.425  32.723   7.538  1.00  0.00     0.126 A 
ATOM      2  C   UNL     1     -15.141  32.992   7.039  1.00  0.00     0.093 A 
ATOM      3  C   UNL     1     -13.994  32.590   7.737  1.00  0.00     0.134 A 
ATOM      4  C   UNL     1     -14.128  31.829   8.936  1.00  0.00     0.111 A 
ATOM      5  C   UNL     1     -15.429  31.591   9.441  1.00  0.00     0.146 A 
ATOM      6  C   UNL     1     -16.554  32.038   8.746  1.00  0.00     0.094 A 
ATOM      7  O   UNL     1     -15.607  30.935  10.578  1.00  0.00    -0.452 OA
ATOM      8  C   UNL     1     -14.612  30.447  11.306  1.00  0.00     0.180 A 
ATOM      9  C   UNL     1     -13.283  30.558  10.854  1.00  0.00     0.210 A 
ATOM     10  C   UNL     1     -13.045  31.249   9.642  1.00  0.00     0.239 A 
ATOM     11  O   UNL     1     -11.879  31.303   9.175  1.00  0.00    -0.285 OA
ENDROOT
BRANCH   1  12
ATOM     12  O   UNL     1     -17.592  33.125   6.872  1.00  0.00    -0.496 OA
ATOM     13  C   UNL     1     -17.642  34.144   5.879  1.00  0.00     0.278 C 
ENDBRANCH   1  12
BRANCH   3  14
ATOM     14  O   UNL     1     -12.767  33.001   7.209  1.00  0.00    -0.507 OA
ATOM     15  H   UNL     1     -12.663  33.649   6.442  1.00  0.00     0.293 HD
ENDBRANCH   3  14
BRANCH   8  16
ATOM     16  C   UNL     1     -14.953  29.766  12.576  1.00  0.00     0.025 A 
ATOM     17  C   UNL     1     -14.667  28.400  12.727  1.00  0.00     0.062 A 
ATOM     18  C   UNL     1     -15.615  30.446  13.615  1.00  0.00     0.016 A 
ATOM     19  C   UNL     1     -15.004  27.727  13.911  1.00  0.00     0.158 A 
ATOM     20  C   UNL     1     -15.950  29.777  14.795  1.00  0.00     0.051 A 
ATOM     21  C   UNL     1     -15.643  28.418  14.949  1.00  0.00     0.157 A 
BRANCH  19  22
ATOM     22  O   UNL     1     -14.706  26.375  14.065  1.00  0.00    -0.504 OA
ATOM     23  H   UNL     1     -15.048  25.843  14.856  1.00  0.00     0.293 HD
ENDBRANCH  19  22
BRANCH  21  24
ATOM     24  O   UNL     1     -15.974  27.748  16.125  1.00  0.00    -0.504 OA
ATOM     25  H   UNL     1     -15.504  26.893  16.398  1.00  0.00     0.293 HD
ENDBRANCH  21  24
ENDBRANCH   8  16
BRANCH   9  26
ATOM     26  O   UNL     1     -12.267  29.944  11.614  1.00  0.00    -0.490 OA
ATOM     27  C   UNL     1     -11.879  30.279  12.943  1.00  0.00     0.278 C 
ENDBRANCH   9  26
TORSDOF 6
ENDMDL
MODEL 7
REMARK VINA RESULT:    -0.898      4.102      6.546
REMARK INTER + INTRA:          -1.609
REMARK INTER:                  -1.454
REMARK INTRA:                  -0.154
REMARK UNBOUND:                -0.474
REMARK SMILES COc1cc(O)c2c(=O)c(OC)c(-c3ccc(O)c(O)c3)oc2c1
REMARK SMILES IDX 3 1 4 2 5 3 7 4 23 5 24 6 22 7 13 8 10 9 8 10 9 11 2 12 1 13
REMARK SMILES IDX 6 14 14 16 21 17 15 18 19 19 16 20 17 21 20 22 18 24 11 26
REMARK SMILES IDX 12 27
REMARK H PARENT 6 15 20 23 18 25
REMARK Flexibility Score: inf
ROOT
ATOM      1  C   UNL     1     -15.665  29.192  15.042  1.00  0.00     0.126 A 
ATOM      2  C   UNL     1     -14.380  28.627  15.087  1.00  0.00     0.093 A 
ATOM      3  C   UNL     1     -13.522  28.692  13.982  1.00  0.00     0.134 A 
ATOM      4  C   UNL     1     -13.926  29.406  12.815  1.00  0.00     0.111 A 
ATOM      5  C   UNL     1     -15.234  29.945  12.774  1.00  0.00     0.146 A 
ATOM      6  C   UNL     1     -16.085  29.831  13.876  1.00  0.00     0.094 A 
ATOM      7  O   UNL     1     -15.679  30.571  11.695  1.00  0.00    -0.452 OA
ATOM      8  C   UNL     1     -14.949  30.756  10.603  1.00  0.00     0.180 A 
ATOM      9  C   UNL     1     -13.607  30.332  10.567  1.00  0.00     0.210 A 
ATOM     10  C   UNL     1     -13.089  29.659  11.700  1.00  0.00     0.239 A 
ATOM     11  O   UNL     1     -11.875  29.331  11.728  1.00  0.00    -0.285 OA
ENDROOT
BRANCH   1  12
ATOM     12  O   UNL     1     -16.554  29.130  16.125  1.00  0.00    -0.496 OA
ATOM     13  C   UNL     1     -17.971  29.069  16.002  1.00  0.00     0.278 C 
ENDBRANCH   1  12
BRANCH   3  14
ATOM     14  O   UNL     1     -12.309  28.006  14.093  1.00  0.00    -0.507 OA
ATOM     15  H   UNL     1     -11.496  28.185  13.522  1.00  0.00     0.293 HD
ENDBRANCH   3  14
BRANCH   8  16
ATOM     16  C   UNL     1     -15.584  31.443   9.455  1.00  0.00     0.025 A 
ATOM     17  C   UNL     1     -16.561  30.774   8.702  1.00  0.00     0.062 A 
ATOM     18  C   UNL     1     -15.185  32.735   9.065  1.00  0.00     0.016 A 
ATOM     19  C   UNL     1     -17.160  31.395   7.596  1.00  0.00     0.158 A 
ATOM     20  C   UNL     1     -15.781  33.355   7.963  1.00  0.00     0.051 A 
ATOM     21  C   UNL     1     -16.771  32.689   7.227  1.00  0.00     0.157 A 
BRANCH  19  22
ATOM     22  O   UNL     1     -18.139  30.733   6.858  1.00  0.00    -0.504 OA
ATOM     23  H   UNL     1     -18.999  31.195   6.584  1.00  0.00     0.293 HD
ENDBRANCH  19  22
BRANCH  21  24
ATOM     24  O   UNL     1     -17.368  33.305   6.130  1.00  0.00    -0.504 OA
ATOM     25  H   UNL     1     -17.317  34.308   5.991  1.00  0.00     0.293 HD
ENDBRANCH  21  24
ENDBRANCH   8  16
BRANCH   9  26
ATOM     26  O   UNL     1     -12.843  30.631   9.421  1.00  0.00    -0.490 OA
ATOM     27  C   UNL     1     -11.985  31.753   9.240  1.00  0.00     0.278 C 
ENDBRANCH   9  26
TORSDOF 6
ENDMDL
