MODEL 1
REMARK VINA RESULT:    -3.475      0.000      0.000
REMARK INTER + INTRA:          -3.906
REMARK INTER:                  -3.780
REMARK INTRA:                  -0.126
REMARK UNBOUND:                -0.126
REMARK SMILES Cc1ccc(C(C)C)cc1O
REMARK SMILES IDX 1 1 2 2 10 3 9 4 5 5 4 6 3 7 11 8 6 10 7 11 8 12
REMARK H PARENT 11 9
REMARK Flexibility Score: inf
ROOT
ATOM      1  C   UNL     1     -25.081  57.292  45.845  1.00  0.00     0.048 C 
ATOM      2  C   UNL     1     -25.446  56.025  45.124  1.00  0.00    -0.009 A 
ATOM      3  C   UNL     1     -26.451  55.164  45.618  1.00  0.00     0.118 A 
ATOM      4  C   UNL     1     -26.768  53.991  44.924  1.00  0.00     0.050 A 
ATOM      5  C   UNL     1     -26.100  53.652  43.734  1.00  0.00    -0.042 A 
ATOM      6  C   UNL     1     -25.101  54.514  43.249  1.00  0.00     0.004 A 
ATOM      7  C   UNL     1     -24.779  55.686  43.935  1.00  0.00     0.007 A 
ENDROOT
BRANCH   3   8
ATOM      8  O   UNL     1     -27.151  55.444  46.794  1.00  0.00    -0.508 OA
ATOM      9  H   UNL     1     -28.114  55.755  46.801  1.00  0.00     0.293 HD
ENDBRANCH   3   8
BRANCH   5  10
ATOM     10  C   UNL     1     -26.461  52.377  42.998  1.00  0.00     0.013 C 
ATOM     11  C   UNL     1     -26.151  51.140  43.850  1.00  0.00     0.012 C 
ATOM     12  C   UNL     1     -25.752  52.302  41.640  1.00  0.00     0.012 C 
ENDBRANCH   5  10
TORSDOF 2
ENDMDL
MODEL 2
REMARK VINA RESULT:    -3.409      8.784     10.328
REMARK INTER + INTRA:          -3.834
REMARK INTER:                  -3.722
REMARK INTRA:                  -0.112
REMARK UNBOUND:                -0.126
REMARK SMILES Cc1ccc(C(C)C)cc1O
REMARK SMILES IDX 1 1 2 2 10 3 9 4 5 5 4 6 3 7 11 8 6 10 7 11 8 12
REMARK H PARENT 11 9
REMARK Flexibility Score: inf
ROOT
ATOM      1  C   UNL     1     -28.134  56.116  32.134  1.00  0.00     0.048 C 
ATOM      2  C   UNL     1     -27.852  56.610  33.525  1.00  0.00    -0.009 A 
ATOM      3  C   UNL     1     -27.563  55.712  34.577  1.00  0.00     0.118 A 
ATOM      4  C   UNL     1     -27.305  56.204  35.861  1.00  0.00     0.050 A 
ATOM      5  C   UNL     1     -27.329  57.583  36.126  1.00  0.00    -0.042 A 
ATOM      6  C   UNL     1     -27.617  58.470  35.074  1.00  0.00     0.004 A 
ATOM      7  C   UNL     1     -27.875  57.989  33.790  1.00  0.00     0.007 A 
ENDROOT
BRANCH   3   8
ATOM      8  O   UNL     1     -27.524  54.330  34.378  1.00  0.00    -0.508 OA
ATOM      9  H   UNL     1     -26.661  53.804  34.329  1.00  0.00     0.293 HD
ENDBRANCH   3   8
BRANCH   5  10
ATOM     10  C   UNL     1     -27.045  58.094  37.526  1.00  0.00     0.013 C 
ATOM     11  C   UNL     1     -26.428  56.995  38.400  1.00  0.00     0.012 C 
ATOM     12  C   UNL     1     -28.310  58.667  38.173  1.00  0.00     0.012 C 
ENDBRANCH   5  10
TORSDOF 2
ENDMDL
MODEL 3
REMARK VINA RESULT:    -3.277      2.333      4.938
REMARK INTER + INTRA:          -3.690
REMARK INTER:                  -3.565
REMARK INTRA:                  -0.126
REMARK UNBOUND:                -0.126
REMARK SMILES Cc1ccc(C(C)C)cc1O
REMARK SMILES IDX 1 1 2 2 10 3 9 4 5 5 4 6 3 7 11 8 6 10 7 11 8 12
REMARK H PARENT 11 9
REMARK Flexibility Score: inf
ROOT
ATOM      1  C   UNL     1     -25.996  49.577  42.603  1.00  0.00     0.048 C 
ATOM      2  C   UNL     1     -26.034  50.980  43.140  1.00  0.00    -0.009 A 
ATOM      3  C   UNL     1     -26.070  52.095  42.273  1.00  0.00     0.118 A 
ATOM      4  C   UNL     1     -26.106  53.390  42.804  1.00  0.00     0.050 A 
ATOM      5  C   UNL     1     -26.107  53.602  44.193  1.00  0.00    -0.042 A 
ATOM      6  C   UNL     1     -26.071  52.487  45.048  1.00  0.00     0.004 A 
ATOM      7  C   UNL     1     -26.036  51.193  44.528  1.00  0.00     0.007 A 
ENDROOT
BRANCH   3   8
ATOM      8  O   UNL     1     -26.072  51.951  40.884  1.00  0.00    -0.508 OA
ATOM      9  H   UNL     1     -25.634  51.171  40.410  1.00  0.00     0.293 HD
ENDBRANCH   3   8
BRANCH   5  10
ATOM     10  C   UNL     1     -26.147  55.013  44.746  1.00  0.00     0.013 C 
ATOM     11  C   UNL     1     -24.853  55.771  44.421  1.00  0.00     0.012 C 
ATOM     12  C   UNL     1     -26.420  55.010  46.254  1.00  0.00     0.012 C 
ENDBRANCH   5  10
TORSDOF 2
ENDMDL
MODEL 4
REMARK VINA RESULT:    -3.246      5.263      7.367
REMARK INTER + INTRA:          -3.657
REMARK INTER:                  -3.532
REMARK INTRA:                  -0.125
REMARK UNBOUND:                -0.126
REMARK SMILES Cc1ccc(C(C)C)cc1O
REMARK SMILES IDX 1 1 2 2 10 3 9 4 5 5 4 6 3 7 11 8 6 10 7 11 8 12
REMARK H PARENT 11 9
REMARK Flexibility Score: inf
ROOT
ATOM      1  C   UNL     1     -25.338  50.018  42.924  1.00  0.00     0.048 C 
ATOM      2  C   UNL     1     -26.335  49.319  42.043  1.00  0.00    -0.009 A 
ATOM      3  C   UNL     1     -26.761  49.890  40.823  1.00  0.00     0.118 A 
ATOM      4  C   UNL     1     -27.690  49.215  40.024  1.00  0.00     0.050 A 
ATOM      5  C   UNL     1     -28.211  47.970  40.417  1.00  0.00    -0.042 A 
ATOM      6  C   UNL     1     -27.782  47.409  41.632  1.00  0.00     0.004 A 
ATOM      7  C   UNL     1     -26.855  48.075  42.434  1.00  0.00     0.007 A 
ENDROOT
BRANCH   3   8
ATOM      8  O   UNL     1     -26.280  51.124  40.377  1.00  0.00    -0.508 OA
ATOM      9  H   UNL     1     -26.590  52.008  40.761  1.00  0.00     0.293 HD
ENDBRANCH   3   8
BRANCH   5  10
ATOM     10  C   UNL     1     -29.217  47.255  39.535  1.00  0.00     0.013 C 
ATOM     11  C   UNL     1     -30.050  46.255  40.346  1.00  0.00     0.012 C 
ATOM     12  C   UNL     1     -28.526  46.566  38.353  1.00  0.00     0.012 C 
ENDBRANCH   5  10
TORSDOF 2
ENDMDL
MODEL 5
REMARK VINA RESULT:    -3.185      1.808      2.534
REMARK INTER + INTRA:          -3.590
REMARK INTER:                  -3.472
REMARK INTRA:                  -0.118
REMARK UNBOUND:                -0.126
REMARK SMILES Cc1ccc(C(C)C)cc1O
REMARK SMILES IDX 1 1 2 2 10 3 9 4 5 5 4 6 3 7 11 8 6 10 7 11 8 12
REMARK H PARENT 11 9
REMARK Flexibility Score: inf
ROOT
ATOM      1  C   UNL     1     -25.799  55.951  45.314  1.00  0.00     0.048 C 
ATOM      2  C   UNL     1     -25.955  54.690  44.511  1.00  0.00    -0.009 A 
ATOM      3  C   UNL     1     -25.311  54.531  43.264  1.00  0.00     0.118 A 
ATOM      4  C   UNL     1     -25.475  53.344  42.540  1.00  0.00     0.050 A 
ATOM      5  C   UNL     1     -26.274  52.300  43.036  1.00  0.00    -0.042 A 
ATOM      6  C   UNL     1     -26.911  52.466  44.278  1.00  0.00     0.004 A 
ATOM      7  C   UNL     1     -26.753  53.646  45.006  1.00  0.00     0.007 A 
ENDROOT
BRANCH   3   8
ATOM      8  O   UNL     1     -24.503  55.531  42.717  1.00  0.00    -0.508 OA
ATOM      9  H   UNL     1     -24.042  55.439  41.821  1.00  0.00     0.293 HD
ENDBRANCH   3   8
BRANCH   5  10
ATOM     10  C   UNL     1     -26.437  51.023  42.235  1.00  0.00     0.013 C 
ATOM     11  C   UNL     1     -25.994  49.800  43.049  1.00  0.00     0.012 C 
ATOM     12  C   UNL     1     -25.682  51.102  40.904  1.00  0.00     0.012 C 
ENDBRANCH   5  10
TORSDOF 2
ENDMDL
MODEL 6
REMARK VINA RESULT:    -3.159     10.938     12.140
REMARK INTER + INTRA:          -3.562
REMARK INTER:                  -3.437
REMARK INTRA:                  -0.126
REMARK UNBOUND:                -0.126
REMARK SMILES Cc1ccc(C(C)C)cc1O
REMARK SMILES IDX 1 1 2 2 10 3 9 4 5 5 4 6 3 7 11 8 6 10 7 11 8 12
REMARK H PARENT 11 9
REMARK Flexibility Score: inf
ROOT
ATOM      1  C   UNL     1     -27.527  52.885  34.003  1.00  0.00     0.048 C 
ATOM      2  C   UNL     1     -28.073  51.490  33.885  1.00  0.00    -0.009 A 
ATOM      3  C   UNL     1     -29.330  51.243  33.289  1.00  0.00     0.118 A 
ATOM      4  C   UNL     1     -29.811  49.932  33.194  1.00  0.00     0.050 A 
ATOM      5  C   UNL     1     -29.060  48.849  33.683  1.00  0.00    -0.042 A 
ATOM      6  C   UNL     1     -27.811  49.103  34.274  1.00  0.00     0.004 A 
ATOM      7  C   UNL     1     -27.324  50.407  34.373  1.00  0.00     0.007 A 
ENDROOT
BRANCH   3   8
ATOM      8  O   UNL     1     -30.124  52.275  32.784  1.00  0.00    -0.508 OA
ATOM      9  H   UNL     1     -30.893  52.683  33.301  1.00  0.00     0.293 HD
ENDBRANCH   3   8
BRANCH   5  10
ATOM     10  C   UNL     1     -29.601  47.437  33.568  1.00  0.00     0.013 C 
ATOM     11  C   UNL     1     -28.911  46.499  34.567  1.00  0.00     0.012 C 
ATOM     12  C   UNL     1     -29.471  46.909  32.136  1.00  0.00     0.012 C 
ENDBRANCH   5  10
TORSDOF 2
ENDMDL
MODEL 7
REMARK VINA RESULT:    -3.158      2.259      4.698
REMARK INTER + INTRA:          -3.561
REMARK INTER:                  -3.435
REMARK INTRA:                  -0.127
REMARK UNBOUND:                -0.126
REMARK SMILES Cc1ccc(C(C)C)cc1O
REMARK SMILES IDX 1 1 2 2 10 3 9 4 5 5 4 6 3 7 11 8 6 10 7 11 8 12
REMARK H PARENT 11 9
REMARK Flexibility Score: inf
ROOT
ATOM      1  C   UNL     1     -25.821  50.608  40.978  1.00  0.00     0.048 C 
ATOM      2  C   UNL     1     -25.964  51.536  42.152  1.00  0.00    -0.009 A 
ATOM      3  C   UNL     1     -26.198  51.039  43.454  1.00  0.00     0.118 A 
ATOM      4  C   UNL     1     -26.327  51.929  44.526  1.00  0.00     0.050 A 
ATOM      5  C   UNL     1     -26.227  53.317  44.330  1.00  0.00    -0.042 A 
ATOM      6  C   UNL     1     -25.995  53.803  43.032  1.00  0.00     0.004 A 
ATOM      7  C   UNL     1     -25.864  52.923  41.957  1.00  0.00     0.007 A 
ENDROOT
BRANCH   3   8
ATOM      8  O   UNL     1     -26.306  49.671  43.714  1.00  0.00    -0.508 OA
ATOM      9  H   UNL     1     -26.429  49.295  44.646  1.00  0.00     0.293 HD
ENDBRANCH   3   8
BRANCH   5  10
ATOM     10  C   UNL     1     -26.369  54.263  45.507  1.00  0.00     0.013 C 
ATOM     11  C   UNL     1     -25.969  55.692  45.119  1.00  0.00     0.012 C 
ATOM     12  C   UNL     1     -25.559  53.773  46.713  1.00  0.00     0.012 C 
ENDBRANCH   5  10
TORSDOF 2
ENDMDL
MODEL 8
REMARK VINA RESULT:    -3.143      1.706      2.130
REMARK INTER + INTRA:          -3.544
REMARK INTER:                  -3.419
REMARK INTRA:                  -0.125
REMARK UNBOUND:                -0.126
REMARK SMILES Cc1ccc(C(C)C)cc1O
REMARK SMILES IDX 1 1 2 2 10 3 9 4 5 5 4 6 3 7 11 8 6 10 7 11 8 12
REMARK H PARENT 11 9
REMARK Flexibility Score: inf
ROOT
ATOM      1  C   UNL     1     -25.026  54.361  48.455  1.00  0.00     0.048 C 
ATOM      2  C   UNL     1     -25.403  53.950  47.059  1.00  0.00    -0.009 A 
ATOM      3  C   UNL     1     -26.423  54.620  46.348  1.00  0.00     0.118 A 
ATOM      4  C   UNL     1     -26.751  54.213  45.050  1.00  0.00     0.050 A 
ATOM      5  C   UNL     1     -26.078  53.143  44.436  1.00  0.00    -0.042 A 
ATOM      6  C   UNL     1     -25.064  52.481  45.150  1.00  0.00     0.004 A 
ATOM      7  C   UNL     1     -24.730  52.881  46.445  1.00  0.00     0.007 A 
ENDROOT
BRANCH   3   8
ATOM      8  O   UNL     1     -27.129  55.690  46.902  1.00  0.00    -0.508 OA
ATOM      9  H   UNL     1     -26.698  56.385  47.500  1.00  0.00     0.293 HD
ENDBRANCH   3   8
BRANCH   5  10
ATOM     10  C   UNL     1     -26.448  52.720  43.028  1.00  0.00     0.013 C 
ATOM     11  C   UNL     1     -26.240  51.213  42.831  1.00  0.00     0.012 C 
ATOM     12  C   UNL     1     -25.668  53.525  41.983  1.00  0.00     0.012 C 
ENDBRANCH   5  10
TORSDOF 2
ENDMDL
MODEL 9
REMARK VINA RESULT:    -3.055      1.685      4.268
REMARK INTER + INTRA:          -3.449
REMARK INTER:                  -3.333
REMARK INTRA:                  -0.116
REMARK UNBOUND:                -0.126
REMARK SMILES Cc1ccc(C(C)C)cc1O
REMARK SMILES IDX 1 1 2 2 10 3 9 4 5 5 4 6 3 7 11 8 6 10 7 11 8 12
REMARK H PARENT 11 9
REMARK Flexibility Score: inf
ROOT
ATOM      1  C   UNL     1     -25.928  52.941  42.110  1.00  0.00     0.048 C 
ATOM      2  C   UNL     1     -25.882  53.780  43.357  1.00  0.00    -0.009 A 
ATOM      3  C   UNL     1     -26.631  53.430  44.503  1.00  0.00     0.118 A 
ATOM      4  C   UNL     1     -26.566  54.232  45.648  1.00  0.00     0.050 A 
ATOM      5  C   UNL     1     -25.764  55.385  45.680  1.00  0.00    -0.042 A 
ATOM      6  C   UNL     1     -25.022  55.725  44.536  1.00  0.00     0.004 A 
ATOM      7  C   UNL     1     -25.080  54.932  43.390  1.00  0.00     0.007 A 
ENDROOT
BRANCH   3   8
ATOM      8  O   UNL     1     -27.446  52.297  44.535  1.00  0.00    -0.508 OA
ATOM      9  H   UNL     1     -28.055  52.034  43.770  1.00  0.00     0.293 HD
ENDBRANCH   3   8
BRANCH   5  10
ATOM     10  C   UNL     1     -25.709  56.238  46.933  1.00  0.00     0.013 C 
ATOM     11  C   UNL     1     -24.280  56.316  47.485  1.00  0.00     0.012 C 
ATOM     12  C   UNL     1     -26.684  55.723  47.997  1.00  0.00     0.012 C 
ENDBRANCH   5  10
TORSDOF 2
ENDMDL
