MODEL 1
REMARK VINA RESULT:    -3.714      0.000      0.000
REMARK INTER + INTRA:          -4.858
REMARK INTER:                  -4.583
REMARK INTRA:                  -0.275
REMARK UNBOUND:                -0.275
REMARK SMILES CCCCC=CC(C)=O
REMARK SMILES IDX 4 1 3 2 2 3 1 4 5 5 6 6 7 7 9 8 8 9
REMARK H PARENT
REMARK Flexibility Score: inf
ROOT
ATOM      1  C   UNL     1      27.057  44.444 142.785  1.00  0.00     0.027 C 
ENDROOT
BRANCH   1   2
ATOM      2  C   UNL     1      28.434  43.776 142.937  1.00  0.00     0.004 C 
BRANCH   2   3
ATOM      3  C   UNL     1      28.797  43.533 144.409  1.00  0.00    -0.003 C 
ATOM      4  C   UNL     1      29.465  42.173 144.593  1.00  0.00     0.004 C 
ENDBRANCH   2   3
ENDBRANCH   1   2
BRANCH   1   5
ATOM      5  C   UNL     1      25.991  43.752 143.597  1.00  0.00    -0.023 C 
ATOM      6  C   UNL     1      24.665  43.859 143.412  1.00  0.00     0.042 C 
BRANCH   6   7
ATOM      7  C   UNL     1      23.984  44.633 142.348  1.00  0.00     0.152 C 
ATOM      8  O   UNL     1      23.734  45.860 142.479  1.00  0.00    -0.295 OA
ATOM      9  C   UNL     1      23.651  43.959 141.056  1.00  0.00     0.093 C 
ENDBRANCH   6   7
ENDBRANCH   1   5
TORSDOF 4
ENDMDL
MODEL 2
REMARK VINA RESULT:    -3.567     13.423     14.414
REMARK INTER + INTRA:          -4.677
REMARK INTER:                  -4.146
REMARK INTRA:                  -0.531
REMARK UNBOUND:                -0.275
REMARK SMILES CCCCC=CC(C)=O
REMARK SMILES IDX 4 1 3 2 2 3 1 4 5 5 6 6 7 7 9 8 8 9
REMARK H PARENT
REMARK Flexibility Score: inf
ROOT
ATOM      1  C   UNL     1      26.846  31.079 137.909  1.00  0.00     0.027 C 
ENDROOT
BRANCH   1   2
ATOM      2  C   UNL     1      27.279  30.712 139.338  1.00  0.00     0.004 C 
BRANCH   2   3
ATOM      3  C   UNL     1      27.840  29.286 139.422  1.00  0.00    -0.003 C 
ATOM      4  C   UNL     1      29.180  29.264 140.153  1.00  0.00     0.004 C 
ENDBRANCH   2   3
ENDBRANCH   1   2
BRANCH   1   5
ATOM      5  C   UNL     1      27.780  30.521 136.865  1.00  0.00    -0.023 C 
ATOM      6  C   UNL     1      28.878  31.127 136.384  1.00  0.00     0.042 C 
BRANCH   6   7
ATOM      7  C   UNL     1      29.421  32.435 136.814  1.00  0.00     0.152 C 
ATOM      8  O   UNL     1      29.068  33.512 136.264  1.00  0.00    -0.295 OA
ATOM      9  C   UNL     1      30.356  32.489 137.980  1.00  0.00     0.093 C 
ENDBRANCH   6   7
ENDBRANCH   1   5
TORSDOF 4
ENDMDL
MODEL 3
REMARK VINA RESULT:    -3.550     14.263     14.695
REMARK INTER + INTRA:          -4.655
REMARK INTER:                  -4.251
REMARK INTRA:                  -0.404
REMARK UNBOUND:                -0.275
REMARK SMILES CCCCC=CC(C)=O
REMARK SMILES IDX 4 1 3 2 2 3 1 4 5 5 6 6 7 7 9 8 8 9
REMARK H PARENT
REMARK Flexibility Score: inf
ROOT
ATOM      1  C   UNL     1      27.726  29.437 139.184  1.00  0.00     0.027 C 
ENDROOT
BRANCH   1   2
ATOM      2  C   UNL     1      28.357  30.631 138.448  1.00  0.00     0.004 C 
BRANCH   2   3
ATOM      3  C   UNL     1      27.994  30.645 136.956  1.00  0.00    -0.003 C 
ATOM      4  C   UNL     1      28.750  31.746 136.217  1.00  0.00     0.004 C 
ENDBRANCH   2   3
ENDBRANCH   1   2
BRANCH   1   5
ATOM      5  C   UNL     1      26.871  29.866 140.348  1.00  0.00    -0.023 C 
ATOM      6  C   UNL     1      25.546  30.085 140.315  1.00  0.00     0.042 C 
BRANCH   6   7
ATOM      7  C   UNL     1      24.652  29.901 139.150  1.00  0.00     0.152 C 
ATOM      8  O   UNL     1      24.107  28.792 138.902  1.00  0.00    -0.295 OA
ATOM      9  C   UNL     1      24.326  31.077 138.286  1.00  0.00     0.093 C 
ENDBRANCH   6   7
ENDBRANCH   1   5
TORSDOF 4
ENDMDL
MODEL 4
REMARK VINA RESULT:    -3.523      2.282      3.497
REMARK INTER + INTRA:          -4.622
REMARK INTER:                  -4.339
REMARK INTRA:                  -0.283
REMARK UNBOUND:                -0.275
REMARK SMILES CCCCC=CC(C)=O
REMARK SMILES IDX 4 1 3 2 2 3 1 4 5 5 6 6 7 7 9 8 8 9
REMARK H PARENT
REMARK Flexibility Score: inf
ROOT
ATOM      1  C   UNL     1      29.298  42.053 143.572  1.00  0.00     0.027 C 
ENDROOT
BRANCH   1   2
ATOM      2  C   UNL     1      30.786  41.863 143.236  1.00  0.00     0.004 C 
BRANCH   2   3
ATOM      3  C   UNL     1      31.203  42.664 141.994  1.00  0.00    -0.003 C 
ATOM      4  C   UNL     1      32.697  42.977 142.018  1.00  0.00     0.004 C 
ENDBRANCH   2   3
ENDBRANCH   1   2
BRANCH   1   5
ATOM      5  C   UNL     1      29.066  43.200 144.522  1.00  0.00    -0.023 C 
ATOM      6  C   UNL     1      28.075  44.104 144.440  1.00  0.00     0.042 C 
BRANCH   6   7
ATOM      7  C   UNL     1      26.986  44.128 143.437  1.00  0.00     0.152 C 
ATOM      8  O   UNL     1      25.858  43.621 143.673  1.00  0.00    -0.295 OA
ATOM      9  C   UNL     1      27.205  44.837 142.139  1.00  0.00     0.093 C 
ENDBRANCH   6   7
ENDBRANCH   1   5
TORSDOF 4
ENDMDL
MODEL 5
REMARK VINA RESULT:    -3.507     13.611     14.311
REMARK INTER + INTRA:          -4.602
REMARK INTER:                  -4.070
REMARK INTRA:                  -0.533
REMARK UNBOUND:                -0.275
REMARK SMILES CCCCC=CC(C)=O
REMARK SMILES IDX 4 1 3 2 2 3 1 4 5 5 6 6 7 7 9 8 8 9
REMARK H PARENT
REMARK Flexibility Score: inf
ROOT
ATOM      1  C   UNL     1      27.220  29.998 140.216  1.00  0.00     0.027 C 
ENDROOT
BRANCH   1   2
ATOM      2  C   UNL     1      28.327  29.006 139.826  1.00  0.00     0.004 C 
BRANCH   2   3
ATOM      3  C   UNL     1      29.713  29.478 140.288  1.00  0.00    -0.003 C 
ATOM      4  C   UNL     1      29.819  31.000 140.243  1.00  0.00     0.004 C 
ENDBRANCH   2   3
ENDBRANCH   1   2
BRANCH   1   5
ATOM      5  C   UNL     1      26.112  30.052 139.196  1.00  0.00    -0.023 C 
ATOM      6  C   UNL     1      26.143  30.722 138.031  1.00  0.00     0.042 C 
BRANCH   6   7
ATOM      7  C   UNL     1      27.284  31.497 137.492  1.00  0.00     0.152 C 
ATOM      8  O   UNL     1      27.505  32.684 137.849  1.00  0.00    -0.295 OA
ATOM      9  C   UNL     1      28.242  30.831 136.557  1.00  0.00     0.093 C 
ENDBRANCH   6   7
ENDBRANCH   1   5
TORSDOF 4
ENDMDL
MODEL 6
REMARK VINA RESULT:    -3.498      1.418      1.988
REMARK INTER + INTRA:          -4.592
REMARK INTER:                  -4.258
REMARK INTRA:                  -0.333
REMARK UNBOUND:                -0.275
REMARK SMILES CCCCC=CC(C)=O
REMARK SMILES IDX 4 1 3 2 2 3 1 4 5 5 6 6 7 7 9 8 8 9
REMARK H PARENT
REMARK Flexibility Score: inf
ROOT
ATOM      1  C   UNL     1      27.877  44.139 144.316  1.00  0.00     0.027 C 
ENDROOT
BRANCH   1   2
ATOM      2  C   UNL     1      29.192  43.345 144.370  1.00  0.00     0.004 C 
BRANCH   2   3
ATOM      3  C   UNL     1      28.990  41.869 144.001  1.00  0.00    -0.003 C 
ATOM      4  C   UNL     1      30.218  41.038 144.365  1.00  0.00     0.004 C 
ENDBRANCH   2   3
ENDBRANCH   1   2
BRANCH   1   5
ATOM      5  C   UNL     1      27.385  44.339 142.905  1.00  0.00    -0.023 C 
ATOM      6  C   UNL     1      26.160  44.034 142.445  1.00  0.00     0.042 C 
BRANCH   6   7
ATOM      7  C   UNL     1      25.034  43.489 143.236  1.00  0.00     0.152 C 
ATOM      8  O   UNL     1      24.097  44.224 143.647  1.00  0.00    -0.295 OA
ATOM      9  C   UNL     1      24.965  42.018 143.492  1.00  0.00     0.093 C 
ENDBRANCH   6   7
ENDBRANCH   1   5
TORSDOF 4
ENDMDL
MODEL 7
REMARK VINA RESULT:    -3.474     13.665     14.634
REMARK INTER + INTRA:          -4.562
REMARK INTER:                  -4.032
REMARK INTRA:                  -0.530
REMARK UNBOUND:                -0.275
REMARK SMILES CCCCC=CC(C)=O
REMARK SMILES IDX 4 1 3 2 2 3 1 4 5 5 6 6 7 7 9 8 8 9
REMARK H PARENT
REMARK Flexibility Score: inf
ROOT
ATOM      1  C   UNL     1      28.198  30.673 136.551  1.00  0.00     0.027 C 
ENDROOT
BRANCH   1   2
ATOM      2  C   UNL     1      28.942  31.929 136.069  1.00  0.00     0.004 C 
BRANCH   2   3
ATOM      3  C   UNL     1      30.123  32.285 136.983  1.00  0.00    -0.003 C 
ATOM      4  C   UNL     1      29.850  33.572 137.758  1.00  0.00     0.004 C 
ENDBRANCH   2   3
ENDBRANCH   1   2
BRANCH   1   5
ATOM      5  C   UNL     1      27.174  30.983 137.613  1.00  0.00    -0.023 C 
ATOM      6  C   UNL     1      27.192  30.538 138.880  1.00  0.00     0.042 C 
BRANCH   6   7
ATOM      7  C   UNL     1      28.240  29.698 139.504  1.00  0.00     0.152 C 
ATOM      8  O   UNL     1      28.152  28.442 139.533  1.00  0.00    -0.295 OA
ATOM      9  C   UNL     1      29.471  30.351 140.046  1.00  0.00     0.093 C 
ENDBRANCH   6   7
ENDBRANCH   1   5
TORSDOF 4
ENDMDL
MODEL 8
REMARK VINA RESULT:    -3.467     14.088     14.649
REMARK INTER + INTRA:          -4.553
REMARK INTER:                  -4.146
REMARK INTRA:                  -0.407
REMARK UNBOUND:                -0.275
REMARK SMILES CCCCC=CC(C)=O
REMARK SMILES IDX 4 1 3 2 2 3 1 4 5 5 6 6 7 7 9 8 8 9
REMARK H PARENT
REMARK Flexibility Score: inf
ROOT
ATOM      1  C   UNL     1      27.265  30.374 137.754  1.00  0.00     0.027 C 
ENDROOT
BRANCH   1   2
ATOM      2  C   UNL     1      28.405  30.495 138.779  1.00  0.00     0.004 C 
BRANCH   2   3
ATOM      3  C   UNL     1      28.541  29.231 139.640  1.00  0.00    -0.003 C 
ATOM      4  C   UNL     1      29.674  29.375 140.653  1.00  0.00     0.004 C 
ENDBRANCH   2   3
ENDBRANCH   1   2
BRANCH   1   5
ATOM      5  C   UNL     1      26.153  31.358 138.014  1.00  0.00    -0.023 C 
ATOM      6  C   UNL     1      25.018  31.107 138.687  1.00  0.00     0.042 C 
BRANCH   6   7
ATOM      7  C   UNL     1      24.653  29.835 139.353  1.00  0.00     0.152 C 
ATOM      8  O   UNL     1      24.015  28.932 138.750  1.00  0.00    -0.295 OA
ATOM      9  C   UNL     1      25.117  29.584 140.752  1.00  0.00     0.093 C 
ENDBRANCH   6   7
ENDBRANCH   1   5
TORSDOF 4
ENDMDL
MODEL 9
REMARK VINA RESULT:    -3.462      2.599      5.043
REMARK INTER + INTRA:          -4.547
REMARK INTER:                  -4.244
REMARK INTRA:                  -0.302
REMARK UNBOUND:                -0.275
REMARK SMILES CCCCC=CC(C)=O
REMARK SMILES IDX 4 1 3 2 2 3 1 4 5 5 6 6 7 7 9 8 8 9
REMARK H PARENT
REMARK Flexibility Score: inf
ROOT
ATOM      1  C   UNL     1      26.985  44.112 143.141  1.00  0.00     0.027 C 
ENDROOT
BRANCH   1   2
ATOM      2  C   UNL     1      25.862  43.070 143.273  1.00  0.00     0.004 C 
BRANCH   2   3
ATOM      3  C   UNL     1      24.515  43.717 143.628  1.00  0.00    -0.003 C 
ATOM      4  C   UNL     1      24.098  44.735 142.569  1.00  0.00     0.004 C 
ENDBRANCH   2   3
ENDBRANCH   1   2
BRANCH   1   5
ATOM      5  C   UNL     1      27.930  44.089 144.315  1.00  0.00    -0.023 C 
ATOM      6  C   UNL     1      28.991  43.276 144.459  1.00  0.00     0.042 C 
BRANCH   6   7
ATOM      7  C   UNL     1      29.475  42.280 143.477  1.00  0.00     0.152 C 
ATOM      8  O   UNL     1      29.047  41.095 143.469  1.00  0.00    -0.295 OA
ATOM      9  C   UNL     1      30.441  42.708 142.419  1.00  0.00     0.093 C 
ENDBRANCH   6   7
ENDBRANCH   1   5
TORSDOF 4
ENDMDL
