MODEL 1
REMARK VINA RESULT:    -1.593      0.000      0.000
REMARK INTER + INTRA:          -1.986
REMARK INTER:                  -1.733
REMARK INTRA:                  -0.252
REMARK UNBOUND:                -0.252
REMARK SMILES O=C([O-])c1ccccc1O
REMARK SMILES IDX 4 1 9 2 5 3 8 4 6 5 7 6 2 7 1 8 3 9 10 10
REMARK H PARENT 10 11
REMARK Flexibility Score: inf
ROOT
ATOM      1  C   UNL     1      -4.780  -9.618   5.517  1.00  0.00     0.039 A 
ATOM      2  C   UNL     1      -5.965  -9.012   5.024  1.00  0.00     0.124 A 
ATOM      3  C   UNL     1      -4.771 -10.125   6.830  1.00  0.00     0.014 A 
ATOM      4  C   UNL     1      -7.114  -8.984   5.826  1.00  0.00     0.047 A 
ATOM      5  C   UNL     1      -5.918 -10.071   7.623  1.00  0.00     0.001 A 
ATOM      6  C   UNL     1      -7.090  -9.510   7.118  1.00  0.00     0.004 A 
ENDROOT
BRANCH   1   7
ATOM      7  C   UNL     1      -3.557  -9.773   4.696  1.00  0.00     0.075 C 
ATOM      8  O   UNL     1      -2.420  -9.528   5.178  1.00  0.00    -0.545 OA
ATOM      9  O   UNL     1      -3.661 -10.124   3.355  1.00  0.00    -0.545 OA
ENDBRANCH   1   7
BRANCH   2  10
ATOM     10  O   UNL     1      -6.035  -8.399   3.771  1.00  0.00    -0.507 OA
ATOM     11  H   UNL     1      -5.227  -8.216   3.193  1.00  0.00     0.293 HD
ENDBRANCH   2  10
TORSDOF 2
ENDMDL
MODEL 2
REMARK VINA RESULT:    -1.373      2.176      3.594
REMARK INTER + INTRA:          -1.746
REMARK INTER:                  -1.525
REMARK INTRA:                  -0.221
REMARK UNBOUND:                -0.252
REMARK SMILES O=C([O-])c1ccccc1O
REMARK SMILES IDX 4 1 9 2 5 3 8 4 6 5 7 6 2 7 1 8 3 9 10 10
REMARK H PARENT 10 11
REMARK Flexibility Score: inf
ROOT
ATOM      1  C   UNL     1      -5.760  -9.796   5.698  1.00  0.00     0.039 A 
ATOM      2  C   UNL     1      -4.582  -9.977   4.926  1.00  0.00     0.124 A 
ATOM      3  C   UNL     1      -6.999  -9.709   5.036  1.00  0.00     0.014 A 
ATOM      4  C   UNL     1      -4.681 -10.125   3.536  1.00  0.00     0.047 A 
ATOM      5  C   UNL     1      -7.078  -9.839   3.649  1.00  0.00     0.001 A 
ATOM      6  C   UNL     1      -5.921 -10.056   2.901  1.00  0.00     0.004 A 
ENDROOT
BRANCH   1   7
ATOM      7  C   UNL     1      -5.748  -9.729   7.177  1.00  0.00     0.075 C 
ATOM      8  O   UNL     1      -4.717 -10.041   7.830  1.00  0.00    -0.545 OA
ATOM      9  O   UNL     1      -6.905  -9.386   7.866  1.00  0.00    -0.545 OA
ENDBRANCH   1   7
BRANCH   2  10
ATOM     10  O   UNL     1      -3.304  -9.979   5.489  1.00  0.00    -0.507 OA
ATOM     11  H   UNL     1      -2.525  -9.458   5.109  1.00  0.00     0.293 HD
ENDBRANCH   2  10
TORSDOF 2
ENDMDL
MODEL 3
REMARK VINA RESULT:    -1.183     21.744     22.808
REMARK INTER + INTRA:          -1.539
REMARK INTER:                  -1.328
REMARK INTRA:                  -0.212
REMARK UNBOUND:                -0.252
REMARK SMILES O=C([O-])c1ccccc1O
REMARK SMILES IDX 4 1 9 2 5 3 8 4 6 5 7 6 2 7 1 8 3 9 10 10
REMARK H PARENT 10 11
REMARK Flexibility Score: inf
ROOT
ATOM      1  C   UNL     1      10.795   1.293  17.871  1.00  0.00     0.039 A 
ATOM      2  C   UNL     1       9.874   0.216  17.796  1.00  0.00     0.124 A 
ATOM      3  C   UNL     1      11.612   1.567  16.759  1.00  0.00     0.014 A 
ATOM      4  C   UNL     1       9.752  -0.509  16.604  1.00  0.00     0.047 A 
ATOM      5  C   UNL     1      11.493   0.822  15.585  1.00  0.00     0.001 A 
ATOM      6  C   UNL     1      10.557  -0.209  15.504  1.00  0.00     0.004 A 
ENDROOT
BRANCH   1   7
ATOM      7  C   UNL     1      10.913   2.166  19.061  1.00  0.00     0.075 C 
ATOM      8  O   UNL     1      10.306   1.890  20.129  1.00  0.00    -0.545 OA
ATOM      9  O   UNL     1      11.645   3.346  18.987  1.00  0.00    -0.545 OA
ENDBRANCH   1   7
BRANCH   2  10
ATOM     10  O   UNL     1       9.093  -0.186  18.883  1.00  0.00    -0.507 OA
ATOM     11  H   UNL     1       8.294  -0.800  18.799  1.00  0.00     0.293 HD
ENDBRANCH   2  10
TORSDOF 2
ENDMDL
MODEL 4
REMARK VINA RESULT:    -1.031     21.216     22.180
REMARK INTER + INTRA:          -1.374
REMARK INTER:                  -1.155
REMARK INTRA:                  -0.219
REMARK UNBOUND:                -0.252
REMARK SMILES O=C([O-])c1ccccc1O
REMARK SMILES IDX 4 1 9 2 5 3 8 4 6 5 7 6 2 7 1 8 3 9 10 10
REMARK H PARENT 10 11
REMARK Flexibility Score: inf
ROOT
ATOM      1  C   UNL     1      10.841   0.870  16.974  1.00  0.00     0.039 A 
ATOM      2  C   UNL     1       9.924  -0.126  17.400  1.00  0.00     0.124 A 
ATOM      3  C   UNL     1      11.165   1.918  17.856  1.00  0.00     0.014 A 
ATOM      4  C   UNL     1       9.409  -0.081  18.702  1.00  0.00     0.047 A 
ATOM      5  C   UNL     1      10.627   1.958  19.143  1.00  0.00     0.001 A 
ATOM      6  C   UNL     1       9.758   0.955  19.569  1.00  0.00     0.004 A 
ENDROOT
BRANCH   1   7
ATOM      7  C   UNL     1      11.503   0.838  15.650  1.00  0.00     0.075 C 
ATOM      8  O   UNL     1      12.499   1.569  15.406  1.00  0.00    -0.545 OA
ATOM      9  O   UNL     1      10.983   0.046  14.633  1.00  0.00    -0.545 OA
ENDBRANCH   1   7
BRANCH   2  10
ATOM     10  O   UNL     1       9.474  -1.147  16.559  1.00  0.00    -0.507 OA
ATOM     11  H   UNL     1       9.697  -1.199  15.575  1.00  0.00     0.293 HD
ENDBRANCH   2  10
TORSDOF 2
ENDMDL
MODEL 5
REMARK VINA RESULT:    -0.552     21.411     22.514
REMARK INTER + INTRA:          -0.853
REMARK INTER:                  -0.715
REMARK INTRA:                  -0.139
REMARK UNBOUND:                -0.252
REMARK SMILES O=C([O-])c1ccccc1O
REMARK SMILES IDX 4 1 9 2 5 3 8 4 6 5 7 6 2 7 1 8 3 9 10 10
REMARK H PARENT 10 11
REMARK Flexibility Score: inf
ROOT
ATOM      1  C   UNL     1      10.276   0.298  17.781  1.00  0.00     0.039 A 
ATOM      2  C   UNL     1      11.110   1.441  17.669  1.00  0.00     0.124 A 
ATOM      3  C   UNL     1      10.034  -0.482  16.635  1.00  0.00     0.014 A 
ATOM      4  C   UNL     1      11.721   1.735  16.442  1.00  0.00     0.047 A 
ATOM      5  C   UNL     1      10.634  -0.163  15.416  1.00  0.00     0.001 A 
ATOM      6  C   UNL     1      11.484   0.938  15.322  1.00  0.00     0.004 A 
ENDROOT
BRANCH   1   7
ATOM      7  C   UNL     1       9.674  -0.133  19.063  1.00  0.00     0.075 C 
ATOM      8  O   UNL     1       8.700   0.490  19.562  1.00  0.00    -0.545 OA
ATOM      9  O   UNL     1      10.227  -1.195  19.768  1.00  0.00    -0.545 OA
ENDBRANCH   1   7
BRANCH   2  10
ATOM     10  O   UNL     1      11.328   2.324  18.729  1.00  0.00    -0.507 OA
ATOM     11  H   UNL     1      10.654   2.491  19.464  1.00  0.00     0.293 HD
ENDBRANCH   2  10
TORSDOF 2
ENDMDL
MODEL 6
REMARK VINA RESULT:     0.023     21.082     22.170
REMARK INTER + INTRA:          -0.228
REMARK INTER:                   0.021
REMARK INTRA:                  -0.249
REMARK UNBOUND:                -0.252
REMARK SMILES O=C([O-])c1ccccc1O
REMARK SMILES IDX 4 1 9 2 5 3 8 4 6 5 7 6 2 7 1 8 3 9 10 10
REMARK H PARENT 10 11
REMARK Flexibility Score: inf
ROOT
ATOM      1  C   UNL     1      10.439   0.413  17.670  1.00  0.00     0.039 A 
ATOM      2  C   UNL     1      10.050  -0.221  16.460  1.00  0.00     0.124 A 
ATOM      3  C   UNL     1      11.500   1.337  17.643  1.00  0.00     0.014 A 
ATOM      4  C   UNL     1      10.686   0.128  15.261  1.00  0.00     0.047 A 
ATOM      5  C   UNL     1      12.136   1.657  16.443  1.00  0.00     0.001 A 
ATOM      6  C   UNL     1      11.723   1.061  15.252  1.00  0.00     0.004 A 
ENDROOT
BRANCH   1   7
ATOM      7  C   UNL     1       9.752   0.171  18.959  1.00  0.00     0.075 C 
ATOM      8  O   UNL     1       9.449   1.127  19.720  1.00  0.00    -0.545 OA
ATOM      9  O   UNL     1       9.495  -1.130  19.376  1.00  0.00    -0.545 OA
ENDBRANCH   1   7
BRANCH   2  10
ATOM     10  O   UNL     1       9.073  -1.218  16.410  1.00  0.00    -0.507 OA
ATOM     11  H   UNL     1       8.782  -1.671  15.556  1.00  0.00     0.293 HD
ENDBRANCH   2  10
TORSDOF 2
ENDMDL
MODEL 7
REMARK VINA RESULT:     0.428     21.511     22.498
REMARK INTER + INTRA:           0.213
REMARK INTER:                   0.453
REMARK INTRA:                  -0.240
REMARK UNBOUND:                -0.252
REMARK SMILES O=C([O-])c1ccccc1O
REMARK SMILES IDX 4 1 9 2 5 3 8 4 6 5 7 6 2 7 1 8 3 9 10 10
REMARK H PARENT 10 11
REMARK Flexibility Score: inf
ROOT
ATOM      1  C   UNL     1      10.757   0.718  17.118  1.00  0.00     0.039 A 
ATOM      2  C   UNL     1      10.905   1.859  17.949  1.00  0.00     0.124 A 
ATOM      3  C   UNL     1      10.091  -0.413  17.627  1.00  0.00     0.014 A 
ATOM      4  C   UNL     1      10.336   1.861  19.230  1.00  0.00     0.047 A 
ATOM      5  C   UNL     1       9.548  -0.402  18.912  1.00  0.00     0.001 A 
ATOM      6  C   UNL     1       9.662   0.737  19.709  1.00  0.00     0.004 A 
ENDROOT
BRANCH   1   7
ATOM      7  C   UNL     1      11.244   0.675  15.720  1.00  0.00     0.075 C 
ATOM      8  O   UNL     1      10.697  -0.072  14.867  1.00  0.00    -0.545 OA
ATOM      9  O   UNL     1      12.363   1.413  15.352  1.00  0.00    -0.545 OA
ENDBRANCH   1   7
BRANCH   2  10
ATOM     10  O   UNL     1      11.632   2.987  17.561  1.00  0.00    -0.507 OA
ATOM     11  H   UNL     1      12.100   3.601  18.213  1.00  0.00     0.293 HD
ENDBRANCH   2  10
TORSDOF 2
ENDMDL
MODEL 8
REMARK VINA RESULT:     0.478     22.329     23.356
REMARK INTER + INTRA:           0.267
REMARK INTER:                   0.505
REMARK INTRA:                  -0.238
REMARK UNBOUND:                -0.252
REMARK SMILES O=C([O-])c1ccccc1O
REMARK SMILES IDX 4 1 9 2 5 3 8 4 6 5 7 6 2 7 1 8 3 9 10 10
REMARK H PARENT 10 11
REMARK Flexibility Score: inf
ROOT
ATOM      1  C   UNL     1      10.769   1.699  18.598  1.00  0.00     0.039 A 
ATOM      2  C   UNL     1      11.070   1.166  17.317  1.00  0.00     0.124 A 
ATOM      3  C   UNL     1       9.810   1.049  19.397  1.00  0.00     0.014 A 
ATOM      4  C   UNL     1      10.456  -0.022  16.900  1.00  0.00     0.047 A 
ATOM      5  C   UNL     1       9.192  -0.123  18.957  1.00  0.00     0.001 A 
ATOM      6  C   UNL     1       9.523  -0.663  17.715  1.00  0.00     0.004 A 
ENDROOT
BRANCH   1   7
ATOM      7  C   UNL     1      11.447   2.895  19.149  1.00  0.00     0.075 C 
ATOM      8  O   UNL     1      11.874   3.803  18.389  1.00  0.00    -0.545 OA
ATOM      9  O   UNL     1      11.681   2.993  20.515  1.00  0.00    -0.545 OA
ENDBRANCH   1   7
BRANCH   2  10
ATOM     10  O   UNL     1      11.937   1.797  16.422  1.00  0.00    -0.507 OA
ATOM     11  H   UNL     1      11.623   2.351  15.637  1.00  0.00     0.293 HD
ENDBRANCH   2  10
TORSDOF 2
ENDMDL
