MODEL 1
REMARK VINA RESULT:    -4.338      0.000      0.000
REMARK INTER + INTRA:          -6.097
REMARK INTER:                  -5.860
REMARK INTRA:                  -0.237
REMARK UNBOUND:                -0.237
REMARK SMILES CCCCCCC=CC(=O)[O-]
REMARK SMILES IDX 5 1 6 2 7 3 8 4 9 5 10 6 11 7 4 8 3 9 2 10 1 11
REMARK H PARENT
REMARK Flexibility Score: inf
ROOT
ATOM      1  C   UNL     1      -1.654  20.293  29.752  1.00  0.00     0.004 C 
ENDROOT
BRANCH   1   2
ATOM      2  C   UNL     1      -0.477  20.283  30.739  1.00  0.00     0.027 C 
BRANCH   2   3
ATOM      3  C   UNL     1      -0.546  21.418  31.727  1.00  0.00    -0.025 C 
ATOM      4  C   UNL     1       0.216  21.558  32.825  1.00  0.00     0.020 C 
BRANCH   4   5
ATOM      5  C   UNL     1       1.238  20.610  33.316  1.00  0.00     0.064 C 
ATOM      6  O   UNL     1       1.088  19.954  34.379  1.00  0.00    -0.545 OA
ATOM      7  O   UNL     1       2.414  20.459  32.592  1.00  0.00    -0.545 OA
ENDBRANCH   4   5
ENDBRANCH   2   3
ENDBRANCH   1   2
BRANCH   1   8
ATOM      8  C   UNL     1      -1.549  19.162  28.714  1.00  0.00     0.000 C 
BRANCH   8   9
ATOM      9  C   UNL     1      -2.675  19.228  27.662  1.00  0.00    -0.000 C 
BRANCH   9  10
ATOM     10  C   UNL     1      -2.705  20.548  26.873  1.00  0.00    -0.003 C 
ATOM     11  C   UNL     1      -1.391  20.843  26.152  1.00  0.00     0.004 C 
ENDBRANCH   9  10
ENDBRANCH   8   9
ENDBRANCH   1   8
TORSDOF 6
ENDMDL
MODEL 2
REMARK VINA RESULT:    -4.294      4.604      6.421
REMARK INTER + INTRA:          -6.038
REMARK INTER:                  -5.901
REMARK INTRA:                  -0.137
REMARK UNBOUND:                -0.237
REMARK SMILES CCCCCCC=CC(=O)[O-]
REMARK SMILES IDX 5 1 6 2 7 3 8 4 9 5 10 6 11 7 4 8 3 9 2 10 1 11
REMARK H PARENT
REMARK Flexibility Score: inf
ROOT
ATOM      1  C   UNL     1       3.216  19.910  33.405  1.00  0.00     0.004 C 
ENDROOT
BRANCH   1   2
ATOM      2  C   UNL     1       4.097  18.795  32.821  1.00  0.00     0.027 C 
BRANCH   2   3
ATOM      3  C   UNL     1       4.471  17.760  33.850  1.00  0.00    -0.025 C 
ATOM      4  C   UNL     1       5.575  16.993  33.834  1.00  0.00     0.020 C 
BRANCH   4   5
ATOM      5  C   UNL     1       6.619  16.970  32.788  1.00  0.00     0.064 C 
ATOM      6  O   UNL     1       6.837  15.952  32.081  1.00  0.00    -0.545 OA
ATOM      7  O   UNL     1       7.400  18.102  32.597  1.00  0.00    -0.545 OA
ENDBRANCH   4   5
ENDBRANCH   2   3
ENDBRANCH   1   2
BRANCH   1   8
ATOM      8  C   UNL     1       2.037  20.260  32.481  1.00  0.00     0.000 C 
BRANCH   8   9
ATOM      9  C   UNL     1       0.782  20.688  33.271  1.00  0.00    -0.000 C 
BRANCH   9  10
ATOM     10  C   UNL     1      -0.156  21.615  32.481  1.00  0.00    -0.003 C 
ATOM     11  C   UNL     1      -0.485  22.907  33.225  1.00  0.00     0.004 C 
ENDBRANCH   9  10
ENDBRANCH   8   9
ENDBRANCH   1   8
TORSDOF 6
ENDMDL
MODEL 3
REMARK VINA RESULT:    -4.257     17.775     18.347
REMARK INTER + INTRA:          -5.988
REMARK INTER:                  -5.819
REMARK INTRA:                  -0.169
REMARK UNBOUND:                -0.237
REMARK SMILES CCCCCCC=CC(=O)[O-]
REMARK SMILES IDX 5 1 6 2 7 3 8 4 9 5 10 6 11 7 4 8 3 9 2 10 1 11
REMARK H PARENT
REMARK Flexibility Score: inf
ROOT
ATOM      1  C   UNL     1       5.331   9.709  15.568  1.00  0.00     0.004 C 
ENDROOT
BRANCH   1   2
ATOM      2  C   UNL     1       6.051  10.627  16.569  1.00  0.00     0.027 C 
BRANCH   2   3
ATOM      3  C   UNL     1       6.918  11.652  15.886  1.00  0.00    -0.025 C 
ATOM      4  C   UNL     1       8.067  12.160  16.365  1.00  0.00     0.020 C 
BRANCH   4   5
ATOM      5  C   UNL     1       8.687  11.858  17.672  1.00  0.00     0.064 C 
ATOM      6  O   UNL     1       8.801  12.727  18.576  1.00  0.00    -0.545 OA
ATOM      7  O   UNL     1       9.184  10.582  17.899  1.00  0.00    -0.545 OA
ENDBRANCH   4   5
ENDBRANCH   2   3
ENDBRANCH   1   2
BRANCH   1   8
ATOM      8  C   UNL     1       3.869  10.131  15.343  1.00  0.00     0.000 C 
BRANCH   8   9
ATOM      9  C   UNL     1       2.899   9.415  16.306  1.00  0.00    -0.000 C 
BRANCH   9  10
ATOM     10  C   UNL     1       1.792   8.624  15.590  1.00  0.00    -0.003 C 
ATOM     11  C   UNL     1       0.447   8.692  16.310  1.00  0.00     0.004 C 
ENDBRANCH   9  10
ENDBRANCH   8   9
ENDBRANCH   1   8
TORSDOF 6
ENDMDL
MODEL 4
REMARK VINA RESULT:    -4.208      3.644      5.220
REMARK INTER + INTRA:          -5.921
REMARK INTER:                  -5.558
REMARK INTRA:                  -0.364
REMARK UNBOUND:                -0.237
REMARK SMILES CCCCCCC=CC(=O)[O-]
REMARK SMILES IDX 5 1 6 2 7 3 8 4 9 5 10 6 11 7 4 8 3 9 2 10 1 11
REMARK H PARENT
REMARK Flexibility Score: inf
ROOT
ATOM      1  C   UNL     1      -0.106  20.833  32.098  1.00  0.00     0.004 C 
ENDROOT
BRANCH   1   2
ATOM      2  C   UNL     1       1.015  20.386  33.049  1.00  0.00     0.027 C 
BRANCH   2   3
ATOM      3  C   UNL     1       2.249  19.936  32.311  1.00  0.00    -0.025 C 
ATOM      4  C   UNL     1       3.395  19.514  32.871  1.00  0.00     0.020 C 
BRANCH   4   5
ATOM      5  C   UNL     1       3.698  19.448  34.316  1.00  0.00     0.064 C 
ATOM      6  O   UNL     1       4.259  20.396  34.927  1.00  0.00    -0.545 OA
ATOM      7  O   UNL     1       3.378  18.293  35.017  1.00  0.00    -0.545 OA
ENDBRANCH   4   5
ENDBRANCH   2   3
ENDBRANCH   1   2
BRANCH   1   8
ATOM      8  C   UNL     1      -0.693  22.198  32.497  1.00  0.00     0.000 C 
BRANCH   8   9
ATOM      9  C   UNL     1       0.077  22.846  33.666  1.00  0.00    -0.000 C 
BRANCH   9  10
ATOM     10  C   UNL     1      -0.829  23.580  34.669  1.00  0.00    -0.003 C 
ATOM     11  C   UNL     1      -1.934  24.391  33.995  1.00  0.00     0.004 C 
ENDBRANCH   9  10
ENDBRANCH   8   9
ENDBRANCH   1   8
TORSDOF 6
ENDMDL
MODEL 5
REMARK VINA RESULT:    -4.188      3.498      6.400
REMARK INTER + INTRA:          -5.894
REMARK INTER:                  -5.678
REMARK INTRA:                  -0.216
REMARK UNBOUND:                -0.237
REMARK SMILES CCCCCCC=CC(=O)[O-]
REMARK SMILES IDX 5 1 6 2 7 3 8 4 9 5 10 6 11 7 4 8 3 9 2 10 1 11
REMARK H PARENT
REMARK Flexibility Score: inf
ROOT
ATOM      1  C   UNL     1      -0.510  20.513  31.261  1.00  0.00     0.004 C 
ENDROOT
BRANCH   1   2
ATOM      2  C   UNL     1      -1.250  20.713  29.929  1.00  0.00     0.027 C 
BRANCH   2   3
ATOM      3  C   UNL     1      -1.532  19.410  29.228  1.00  0.00    -0.025 C 
ATOM      4  C   UNL     1      -1.889  19.267  27.940  1.00  0.00     0.020 C 
BRANCH   4   5
ATOM      5  C   UNL     1      -2.124  20.352  26.964  1.00  0.00     0.064 C 
ATOM      6  O   UNL     1      -1.240  20.723  26.149  1.00  0.00    -0.545 OA
ATOM      7  O   UNL     1      -3.353  20.999  26.964  1.00  0.00    -0.545 OA
ENDBRANCH   4   5
ENDBRANCH   2   3
ENDBRANCH   1   2
BRANCH   1   8
ATOM      8  C   UNL     1      -0.550  21.775  32.141  1.00  0.00     0.000 C 
BRANCH   8   9
ATOM      9  C   UNL     1       0.512  21.741  33.259  1.00  0.00    -0.000 C 
BRANCH   9  10
ATOM     10  C   UNL     1       0.148  22.602  34.481  1.00  0.00    -0.003 C 
ATOM     11  C   UNL     1      -0.964  23.608  34.192  1.00  0.00     0.004 C 
ENDBRANCH   9  10
ENDBRANCH   8   9
ENDBRANCH   1   8
TORSDOF 6
ENDMDL
MODEL 6
REMARK VINA RESULT:    -4.167      4.349      5.794
REMARK INTER + INTRA:          -5.865
REMARK INTER:                  -5.585
REMARK INTRA:                  -0.281
REMARK UNBOUND:                -0.237
REMARK SMILES CCCCCCC=CC(=O)[O-]
REMARK SMILES IDX 5 1 6 2 7 3 8 4 9 5 10 6 11 7 4 8 3 9 2 10 1 11
REMARK H PARENT
REMARK Flexibility Score: inf
ROOT
ATOM      1  C   UNL     1       1.819  19.930  32.232  1.00  0.00     0.004 C 
ENDROOT
BRANCH   1   2
ATOM      2  C   UNL     1       3.217  19.689  32.821  1.00  0.00     0.027 C 
BRANCH   2   3
ATOM      3  C   UNL     1       3.216  18.626  33.888  1.00  0.00    -0.025 C 
ATOM      4  C   UNL     1       4.218  17.770  34.153  1.00  0.00     0.020 C 
BRANCH   4   5
ATOM      5  C   UNL     1       5.501  17.663  33.427  1.00  0.00     0.064 C 
ATOM      6  O   UNL     1       5.672  16.843  32.488  1.00  0.00    -0.545 OA
ATOM      7  O   UNL     1       6.558  18.476  33.811  1.00  0.00    -0.545 OA
ENDBRANCH   4   5
ENDBRANCH   2   3
ENDBRANCH   1   2
BRANCH   1   8
ATOM      8  C   UNL     1       0.918  20.730  33.189  1.00  0.00     0.000 C 
BRANCH   8   9
ATOM      9  C   UNL     1      -0.145  21.557  32.436  1.00  0.00    -0.000 C 
BRANCH   9  10
ATOM     10  C   UNL     1      -0.543  22.855  33.159  1.00  0.00    -0.003 C 
ATOM     11  C   UNL     1      -0.019  22.925  34.591  1.00  0.00     0.004 C 
ENDBRANCH   9  10
ENDBRANCH   8   9
ENDBRANCH   1   8
TORSDOF 6
ENDMDL
MODEL 7
REMARK VINA RESULT:    -4.104     15.119     17.005
REMARK INTER + INTRA:          -5.780
REMARK INTER:                  -5.505
REMARK INTRA:                  -0.276
REMARK UNBOUND:                -0.237
REMARK SMILES CCCCCCC=CC(=O)[O-]
REMARK SMILES IDX 5 1 6 2 7 3 8 4 9 5 10 6 11 7 4 8 3 9 2 10 1 11
REMARK H PARENT
REMARK Flexibility Score: inf
ROOT
ATOM      1  C   UNL     1       0.521   9.345  17.156  1.00  0.00     0.004 C 
ENDROOT
BRANCH   1   2
ATOM      2  C   UNL     1      -0.909   9.604  17.657  1.00  0.00     0.027 C 
BRANCH   2   3
ATOM      3  C   UNL     1      -0.987  10.792  18.580  1.00  0.00    -0.025 C 
ATOM      4  C   UNL     1      -1.544  10.808  19.803  1.00  0.00     0.020 C 
BRANCH   4   5
ATOM      5  C   UNL     1      -2.231   9.685  20.473  1.00  0.00     0.064 C 
ATOM      6  O   UNL     1      -3.392   9.321  20.149  1.00  0.00    -0.545 OA
ATOM      7  O   UNL     1      -1.586   9.027  21.511  1.00  0.00    -0.545 OA
ENDBRANCH   4   5
ENDBRANCH   2   3
ENDBRANCH   1   2
BRANCH   1   8
ATOM      8  C   UNL     1       0.550   8.361  15.973  1.00  0.00     0.000 C 
BRANCH   8   9
ATOM      9  C   UNL     1       1.843   8.487  15.140  1.00  0.00    -0.000 C 
BRANCH   9  10
ATOM     10  C   UNL     1       2.934   9.330  15.821  1.00  0.00    -0.003 C 
ATOM     11  C   UNL     1       4.071   9.712  14.876  1.00  0.00     0.004 C 
ENDBRANCH   9  10
ENDBRANCH   8   9
ENDBRANCH   1   8
TORSDOF 6
ENDMDL
MODEL 8
REMARK VINA RESULT:    -4.022      4.341      6.614
REMARK INTER + INTRA:          -5.671
REMARK INTER:                  -5.360
REMARK INTRA:                  -0.310
REMARK UNBOUND:                -0.237
REMARK SMILES CCCCCCC=CC(=O)[O-]
REMARK SMILES IDX 5 1 6 2 7 3 8 4 9 5 10 6 11 7 4 8 3 9 2 10 1 11
REMARK H PARENT
REMARK Flexibility Score: inf
ROOT
ATOM      1  C   UNL     1       3.644  19.476  32.794  1.00  0.00     0.004 C 
ENDROOT
BRANCH   1   2
ATOM      2  C   UNL     1       2.304  20.162  32.488  1.00  0.00     0.027 C 
BRANCH   2   3
ATOM      3  C   UNL     1       1.366  20.142  33.667  1.00  0.00    -0.025 C 
ATOM      4  C   UNL     1       0.260  20.891  33.810  1.00  0.00     0.020 C 
BRANCH   4   5
ATOM      5  C   UNL     1      -0.237  21.919  32.871  1.00  0.00     0.064 C 
ATOM      6  O   UNL     1      -0.296  23.137  33.181  1.00  0.00    -0.545 OA
ATOM      7  O   UNL     1      -0.676  21.522  31.615  1.00  0.00    -0.545 OA
ENDBRANCH   4   5
ENDBRANCH   2   3
ENDBRANCH   1   2
BRANCH   1   8
ATOM      8  C   UNL     1       3.536  18.495  33.975  1.00  0.00     0.000 C 
BRANCH   8   9
ATOM      9  C   UNL     1       4.784  17.597  34.105  1.00  0.00    -0.000 C 
BRANCH   9  10
ATOM     10  C   UNL     1       5.758  17.722  32.922  1.00  0.00    -0.003 C 
ATOM     11  C   UNL     1       6.462  16.409  32.586  1.00  0.00     0.004 C 
ENDBRANCH   9  10
ENDBRANCH   8   9
ENDBRANCH   1   8
TORSDOF 6
ENDMDL
MODEL 9
REMARK VINA RESULT:    -3.874      4.680      7.491
REMARK INTER + INTRA:          -5.470
REMARK INTER:                  -5.072
REMARK INTRA:                  -0.398
REMARK UNBOUND:                -0.237
REMARK SMILES CCCCCCC=CC(=O)[O-]
REMARK SMILES IDX 5 1 6 2 7 3 8 4 9 5 10 6 11 7 4 8 3 9 2 10 1 11
REMARK H PARENT
REMARK Flexibility Score: inf
ROOT
ATOM      1  C   UNL     1       4.090  17.217  34.424  1.00  0.00     0.004 C 
ENDROOT
BRANCH   1   2
ATOM      2  C   UNL     1       3.300  18.533  34.342  1.00  0.00     0.027 C 
BRANCH   2   3
ATOM      3  C   UNL     1       3.382  19.168  32.978  1.00  0.00    -0.025 C 
ATOM      4  C   UNL     1       2.566  20.123  32.501  1.00  0.00     0.020 C 
BRANCH   4   5
ATOM      5  C   UNL     1       1.397  20.710  33.190  1.00  0.00     0.064 C 
ATOM      6  O   UNL     1       0.218  20.506  32.801  1.00  0.00    -0.545 OA
ATOM      7  O   UNL     1       1.611  21.534  34.287  1.00  0.00    -0.545 OA
ENDBRANCH   4   5
ENDBRANCH   2   3
ENDBRANCH   1   2
BRANCH   1   8
ATOM      8  C   UNL     1       5.486  17.418  35.039  1.00  0.00     0.000 C 
BRANCH   8   9
ATOM      9  C   UNL     1       6.610  16.893  34.121  1.00  0.00    -0.000 C 
BRANCH   9  10
ATOM     10  C   UNL     1       6.144  16.595  32.686  1.00  0.00    -0.003 C 
ATOM     11  C   UNL     1       7.199  15.869  31.854  1.00  0.00     0.004 C 
ENDBRANCH   9  10
ENDBRANCH   8   9
ENDBRANCH   1   8
TORSDOF 6
ENDMDL
