MODEL 1
REMARK VINA RESULT:    -6.003      0.000      0.000
REMARK INTER + INTRA:          -6.178
REMARK INTER:                  -6.178
REMARK INTRA:                   0.000
REMARK UNBOUND:                 0.000
REMARK SMILES O=c1ccc2ccc(O)cc2o1
REMARK SMILES IDX 6 1 7 2 8 3 10 4 11 5 5 6 4 7 3 8 2 9 1 10 12 11 9 12
REMARK H PARENT 9 13
REMARK Flexibility Score: inf
ROOT
ATOM      1  C   UNL     1      74.793  44.530  -2.938  1.00  0.00     0.016 A 
ATOM      2  C   UNL     1      74.247  45.021  -1.749  1.00  0.00     0.047 A 
ATOM      3  C   UNL     1      73.407  44.211  -0.968  1.00  0.00     0.119 A 
ATOM      4  C   UNL     1      73.114  42.906  -1.383  1.00  0.00     0.094 A 
ATOM      5  C   UNL     1      73.655  42.407  -2.572  1.00  0.00     0.142 A 
ATOM      6  C   UNL     1      74.501  43.223  -3.355  1.00  0.00     0.018 A 
ATOM      7  C   UNL     1      75.028  42.697  -4.539  1.00  0.00     0.019 A 
ATOM      8  C   UNL     1      74.706  41.391  -4.908  1.00  0.00     0.094 A 
ATOM      9  C   UNL     1      73.862  40.640  -4.083  1.00  0.00     0.336 A 
ATOM     10  O   UNL     1      73.560  39.460  -4.399  1.00  0.00    -0.246 OA
ATOM     11  O   UNL     1      73.375  41.166  -2.961  1.00  0.00    -0.423 OA
ENDROOT
BRANCH   3  12
ATOM     12  O   UNL     1      72.859  44.694   0.218  1.00  0.00    -0.508 OA
ATOM     13  H   UNL     1      71.986  44.332   0.584  1.00  0.00     0.293 HD
ENDBRANCH   3  12
TORSDOF 1
ENDMDL
MODEL 2
REMARK VINA RESULT:    -5.497      1.615      4.715
REMARK INTER + INTRA:          -5.658
REMARK INTER:                  -5.658
REMARK INTRA:                   0.000
REMARK UNBOUND:                 0.000
REMARK SMILES O=c1ccc2ccc(O)cc2o1
REMARK SMILES IDX 6 1 7 2 8 3 10 4 11 5 5 6 4 7 3 8 2 9 1 10 12 11 9 12
REMARK H PARENT 9 13
REMARK Flexibility Score: inf
ROOT
ATOM      1  C   UNL     1      72.807  41.001  -2.726  1.00  0.00     0.016 A 
ATOM      2  C   UNL     1      73.252  40.157  -3.748  1.00  0.00     0.047 A 
ATOM      3  C   UNL     1      74.268  40.575  -4.620  1.00  0.00     0.119 A 
ATOM      4  C   UNL     1      74.841  41.844  -4.467  1.00  0.00     0.094 A 
ATOM      5  C   UNL     1      74.402  42.696  -3.448  1.00  0.00     0.142 A 
ATOM      6  C   UNL     1      73.379  42.272  -2.571  1.00  0.00     0.018 A 
ATOM      7  C   UNL     1      72.961  43.145  -1.561  1.00  0.00     0.019 A 
ATOM      8  C   UNL     1      73.562  44.398  -1.449  1.00  0.00     0.094 A 
ATOM      9  C   UNL     1      74.570  44.750  -2.353  1.00  0.00     0.336 A 
ATOM     10  O   UNL     1      75.125  45.877  -2.269  1.00  0.00    -0.246 OA
ATOM     11  O   UNL     1      74.949  43.900  -3.305  1.00  0.00    -0.423 OA
ENDROOT
BRANCH   3  12
ATOM     12  O   UNL     1      74.716  39.739  -5.641  1.00  0.00    -0.508 OA
ATOM     13  H   UNL     1      75.281  38.921  -5.444  1.00  0.00     0.293 HD
ENDBRANCH   3  12
TORSDOF 1
ENDMDL
MODEL 3
REMARK VINA RESULT:    -5.469      0.813      4.223
REMARK INTER + INTRA:          -5.629
REMARK INTER:                  -5.629
REMARK INTRA:                   0.000
REMARK UNBOUND:                 0.000
REMARK SMILES O=c1ccc2ccc(O)cc2o1
REMARK SMILES IDX 6 1 7 2 8 3 10 4 11 5 5 6 4 7 3 8 2 9 1 10 12 11 9 12
REMARK H PARENT 9 13
REMARK Flexibility Score: inf
ROOT
ATOM      1  C   UNL     1      75.065  42.541  -4.464  1.00  0.00     0.016 A 
ATOM      2  C   UNL     1      74.694  41.249  -4.849  1.00  0.00     0.047 A 
ATOM      3  C   UNL     1      73.724  40.544  -4.120  1.00  0.00     0.119 A 
ATOM      4  C   UNL     1      73.125  41.136  -3.002  1.00  0.00     0.094 A 
ATOM      5  C   UNL     1      73.489  42.427  -2.608  1.00  0.00     0.142 A 
ATOM      6  C   UNL     1      74.466  43.136  -3.344  1.00  0.00     0.018 A 
ATOM      7  C   UNL     1      74.810  44.425  -2.927  1.00  0.00     0.019 A 
ATOM      8  C   UNL     1      74.184  44.971  -1.807  1.00  0.00     0.094 A 
ATOM      9  C   UNL     1      73.226  44.212  -1.127  1.00  0.00     0.336 A 
ATOM     10  O   UNL     1      72.650  44.687  -0.114  1.00  0.00    -0.246 OA
ATOM     11  O   UNL     1      72.917  42.986  -1.546  1.00  0.00    -0.423 OA
ENDROOT
BRANCH   3  12
ATOM     12  O   UNL     1      73.351  39.256  -4.499  1.00  0.00    -0.508 OA
ATOM     13  H   UNL     1      73.518  38.911  -5.437  1.00  0.00     0.293 HD
ENDBRANCH   3  12
TORSDOF 1
ENDMDL
MODEL 4
REMARK VINA RESULT:    -4.997     10.817     12.617
REMARK INTER + INTRA:          -5.143
REMARK INTER:                  -5.143
REMARK INTRA:                   0.000
REMARK UNBOUND:                 0.000
REMARK SMILES O=c1ccc2ccc(O)cc2o1
REMARK SMILES IDX 6 1 7 2 8 3 10 4 11 5 5 6 4 7 3 8 2 9 1 10 12 11 9 12
REMARK H PARENT 9 13
REMARK Flexibility Score: inf
ROOT
ATOM      1  C   UNL     1      70.984  50.024   9.179  1.00  0.00     0.016 A 
ATOM      2  C   UNL     1      69.609  49.974   8.928  1.00  0.00     0.047 A 
ATOM      3  C   UNL     1      69.124  49.362   7.762  1.00  0.00     0.119 A 
ATOM      4  C   UNL     1      70.020  48.800   6.844  1.00  0.00     0.094 A 
ATOM      5  C   UNL     1      71.397  48.847   7.086  1.00  0.00     0.142 A 
ATOM      6  C   UNL     1      71.883  49.462   8.261  1.00  0.00     0.018 A 
ATOM      7  C   UNL     1      73.265  49.493   8.476  1.00  0.00     0.019 A 
ATOM      8  C   UNL     1      74.116  48.919   7.531  1.00  0.00     0.094 A 
ATOM      9  C   UNL     1      73.563  48.327   6.391  1.00  0.00     0.336 A 
ATOM     10  O   UNL     1      74.315  47.804   5.527  1.00  0.00    -0.246 OA
ATOM     11  O   UNL     1      72.244  48.311   6.212  1.00  0.00    -0.423 OA
ENDROOT
BRANCH   3  12
ATOM     12  O   UNL     1      67.756  49.309   7.507  1.00  0.00    -0.508 OA
ATOM     13  H   UNL     1      67.292  50.021   6.953  1.00  0.00     0.293 HD
ENDBRANCH   3  12
TORSDOF 1
ENDMDL
MODEL 5
REMARK VINA RESULT:    -4.886     12.080     13.794
REMARK INTER + INTRA:          -5.029
REMARK INTER:                  -5.029
REMARK INTRA:                   0.000
REMARK UNBOUND:                 0.000
REMARK SMILES O=c1ccc2ccc(O)cc2o1
REMARK SMILES IDX 6 1 7 2 8 3 10 4 11 5 5 6 4 7 3 8 2 9 1 10 12 11 9 12
REMARK H PARENT 9 13
REMARK Flexibility Score: inf
ROOT
ATOM      1  C   UNL     1      67.478  49.996   9.153  1.00  0.00     0.016 A 
ATOM      2  C   UNL     1      66.251  49.485   8.719  1.00  0.00     0.047 A 
ATOM      3  C   UNL     1      66.196  48.616   7.618  1.00  0.00     0.119 A 
ATOM      4  C   UNL     1      67.375  48.260   6.951  1.00  0.00     0.094 A 
ATOM      5  C   UNL     1      68.606  48.767   7.378  1.00  0.00     0.142 A 
ATOM      6  C   UNL     1      68.659  49.641   8.487  1.00  0.00     0.018 A 
ATOM      7  C   UNL     1      69.904  50.132   8.891  1.00  0.00     0.019 A 
ATOM      8  C   UNL     1      71.050  49.747   8.194  1.00  0.00     0.094 A 
ATOM      9  C   UNL     1      70.922  48.878   7.106  1.00  0.00     0.336 A 
ATOM     10  O   UNL     1      71.943  48.520   6.464  1.00  0.00    -0.246 OA
ATOM     11  O   UNL     1      69.724  48.426   6.742  1.00  0.00    -0.423 OA
ENDROOT
BRANCH   3  12
ATOM     12  O   UNL     1      64.978  48.103   7.180  1.00  0.00    -0.508 OA
ATOM     13  H   UNL     1      64.390  48.615   6.532  1.00  0.00     0.293 HD
ENDBRANCH   3  12
TORSDOF 1
ENDMDL
MODEL 6
REMARK VINA RESULT:    -4.823     12.670     13.708
REMARK INTER + INTRA:          -4.964
REMARK INTER:                  -4.964
REMARK INTRA:                   0.000
REMARK UNBOUND:                 0.000
REMARK SMILES O=c1ccc2ccc(O)cc2o1
REMARK SMILES IDX 6 1 7 2 8 3 10 4 11 5 5 6 4 7 3 8 2 9 1 10 12 11 9 12
REMARK H PARENT 9 13
REMARK Flexibility Score: inf
ROOT
ATOM      1  C   UNL     1      68.764  47.792   9.275  1.00  0.00     0.016 A 
ATOM      2  C   UNL     1      67.721  47.676   8.352  1.00  0.00     0.047 A 
ATOM      3  C   UNL     1      67.830  48.264   7.082  1.00  0.00     0.119 A 
ATOM      4  C   UNL     1      68.989  48.970   6.737  1.00  0.00     0.094 A 
ATOM      5  C   UNL     1      70.038  49.092   7.655  1.00  0.00     0.142 A 
ATOM      6  C   UNL     1      69.926  48.499   8.932  1.00  0.00     0.018 A 
ATOM      7  C   UNL     1      70.990  48.638   9.828  1.00  0.00     0.019 A 
ATOM      8  C   UNL     1      72.124  49.351   9.437  1.00  0.00     0.094 A 
ATOM      9  C   UNL     1      72.165  49.911   8.156  1.00  0.00     0.336 A 
ATOM     10  O   UNL     1      73.179  50.558   7.786  1.00  0.00    -0.246 OA
ATOM     11  O   UNL     1      71.137  49.763   7.323  1.00  0.00    -0.423 OA
ENDROOT
BRANCH   3  12
ATOM     12  O   UNL     1      66.794  48.151   6.157  1.00  0.00    -0.508 OA
ATOM     13  H   UNL     1      66.513  48.936   5.580  1.00  0.00     0.293 HD
ENDBRANCH   3  12
TORSDOF 1
ENDMDL
MODEL 7
REMARK VINA RESULT:    -4.686     10.713     12.866
REMARK INTER + INTRA:          -4.823
REMARK INTER:                  -4.823
REMARK INTRA:                   0.000
REMARK UNBOUND:                 0.000
REMARK SMILES O=c1ccc2ccc(O)cc2o1
REMARK SMILES IDX 6 1 7 2 8 3 10 4 11 5 5 6 4 7 3 8 2 9 1 10 12 11 9 12
REMARK H PARENT 9 13
REMARK Flexibility Score: inf
ROOT
ATOM      1  C   UNL     1      73.114  49.652   8.322  1.00  0.00     0.016 A 
ATOM      2  C   UNL     1      73.986  49.013   7.436  1.00  0.00     0.047 A 
ATOM      3  C   UNL     1      73.482  48.213   6.399  1.00  0.00     0.119 A 
ATOM      4  C   UNL     1      72.099  48.052   6.252  1.00  0.00     0.094 A 
ATOM      5  C   UNL     1      71.218  48.686   7.135  1.00  0.00     0.142 A 
ATOM      6  C   UNL     1      71.728  49.492   8.177  1.00  0.00     0.018 A 
ATOM      7  C   UNL     1      70.824  50.114   9.044  1.00  0.00     0.019 A 
ATOM      8  C   UNL     1      69.455  49.923   8.855  1.00  0.00     0.094 A 
ATOM      9  C   UNL     1      69.022  49.111   7.801  1.00  0.00     0.336 A 
ATOM     10  O   UNL     1      67.791  48.926   7.615  1.00  0.00    -0.246 OA
ATOM     11  O   UNL     1      69.905  48.531   6.991  1.00  0.00    -0.423 OA
ENDROOT
BRANCH   3  12
ATOM     12  O   UNL     1      74.345  47.574   5.512  1.00  0.00    -0.508 OA
ATOM     13  H   UNL     1      74.484  46.570   5.539  1.00  0.00     0.293 HD
ENDBRANCH   3  12
TORSDOF 1
ENDMDL
MODEL 8
REMARK VINA RESULT:    -3.475      1.619      4.816
REMARK INTER + INTRA:          -3.577
REMARK INTER:                  -3.577
REMARK INTRA:                   0.000
REMARK UNBOUND:                 0.000
REMARK SMILES O=c1ccc2ccc(O)cc2o1
REMARK SMILES IDX 6 1 7 2 8 3 10 4 11 5 5 6 4 7 3 8 2 9 1 10 12 11 9 12
REMARK H PARENT 9 13
REMARK Flexibility Score: inf
ROOT
ATOM      1  C   UNL     1      74.751  40.209  -5.621  1.00  0.00     0.016 A 
ATOM      2  C   UNL     1      73.987  39.099  -5.990  1.00  0.00     0.047 A 
ATOM      3  C   UNL     1      72.852  38.741  -5.245  1.00  0.00     0.119 A 
ATOM      4  C   UNL     1      72.484  39.499  -4.127  1.00  0.00     0.094 A 
ATOM      5  C   UNL     1      73.244  40.611  -3.750  1.00  0.00     0.142 A 
ATOM      6  C   UNL     1      74.385  40.970  -4.502  1.00  0.00     0.018 A 
ATOM      7  C   UNL     1      75.125  42.087  -4.100  1.00  0.00     0.019 A 
ATOM      8  C   UNL     1      74.717  42.810  -2.979  1.00  0.00     0.094 A 
ATOM      9  C   UNL     1      73.577  42.397  -2.283  1.00  0.00     0.336 A 
ATOM     10  O   UNL     1      73.193  43.036  -1.269  1.00  0.00    -0.246 OA
ATOM     11  O   UNL     1      72.891  41.329  -2.687  1.00  0.00    -0.423 OA
ENDROOT
BRANCH   3  12
ATOM     12  O   UNL     1      72.086  37.636  -5.608  1.00  0.00    -0.508 OA
ATOM     13  H   UNL     1      72.473  36.883  -6.165  1.00  0.00     0.293 HD
ENDBRANCH   3  12
TORSDOF 1
ENDMDL
