MODEL 1
REMARK VINA RESULT:    -4.470      0.000      0.000
REMARK INTER + INTRA:          -5.163
REMARK INTER:                  -5.123
REMARK INTRA:                  -0.040
REMARK UNBOUND:                -0.040
REMARK SMILES CC(C)[C@@H]([NH3+])C(=O)[O-]
REMARK SMILES IDX 4 1 5 2 6 6 7 7 8 8 2 9 1 10 3 11
REMARK H PARENT 5 3 5 4 5 5
REMARK Flexibility Score: inf
ROOT
ATOM      1  C   UNL     1     149.107 166.697 151.377  1.00  0.00     0.230 C 
ENDROOT
BRANCH   1   2
ATOM      2  N   UNL     1     149.980 167.880 151.313  1.00  0.00    -0.350 N 
ATOM      3  H   UNL     1     150.065 168.211 150.324  1.00  0.00     0.345 HD
ATOM      4  H   UNL     1     149.566 168.664 151.865  1.00  0.00     0.345 HD
ATOM      5  H   UNL     1     150.934 167.656 151.680  1.00  0.00     0.345 HD
ENDBRANCH   1   2
BRANCH   1   6
ATOM      6  C   UNL     1     148.184 166.819 152.566  1.00  0.00     0.099 C 
ATOM      7  O   UNL     1     147.779 167.950 152.945  1.00  0.00    -0.544 OA
ATOM      8  O   UNL     1     147.769 165.679 153.242  1.00  0.00    -0.544 OA
ENDBRANCH   1   6
BRANCH   1   9
ATOM      9  C   UNL     1     148.296 166.502 150.061  1.00  0.00     0.047 C 
ATOM     10  C   UNL     1     149.036 167.072 148.840  1.00  0.00     0.014 C 
ATOM     11  C   UNL     1     147.987 165.014 149.811  1.00  0.00     0.014 C 
ENDBRANCH   1   9
TORSDOF 3
ENDMDL
MODEL 2
REMARK VINA RESULT:    -4.434      1.466      2.072
REMARK INTER + INTRA:          -5.122
REMARK INTER:                  -5.147
REMARK INTRA:                   0.024
REMARK UNBOUND:                -0.040
REMARK SMILES CC(C)[C@@H]([NH3+])C(=O)[O-]
REMARK SMILES IDX 4 1 5 2 6 6 7 7 8 8 2 9 1 10 3 11
REMARK H PARENT 5 3 5 4 5 5
REMARK Flexibility Score: inf
ROOT
ATOM      1  C   UNL     1     148.492 167.406 151.790  1.00  0.00     0.230 C 
ENDROOT
BRANCH   1   2
ATOM      2  N   UNL     1     147.107 167.868 151.603  1.00  0.00    -0.350 N 
ATOM      3  H   UNL     1     147.066 168.912 151.660  1.00  0.00     0.345 HD
ATOM      4  H   UNL     1     146.763 167.598 150.654  1.00  0.00     0.345 HD
ATOM      5  H   UNL     1     146.479 167.461 152.334  1.00  0.00     0.345 HD
ENDBRANCH   1   2
BRANCH   1   6
ATOM      6  C   UNL     1     148.600 166.660 153.098  1.00  0.00     0.099 C 
ATOM      7  O   UNL     1     147.762 165.767 153.394  1.00  0.00    -0.544 OA
ATOM      8  O   UNL     1     149.632 166.952 153.981  1.00  0.00    -0.544 OA
ENDBRANCH   1   6
BRANCH   1   9
ATOM      9  C   UNL     1     148.974 166.518 150.603  1.00  0.00     0.047 C 
ATOM     10  C   UNL     1     147.849 165.617 150.066  1.00  0.00     0.014 C 
ATOM     11  C   UNL     1     149.522 167.378 149.450  1.00  0.00     0.014 C 
ENDBRANCH   1   9
TORSDOF 3
ENDMDL
MODEL 3
REMARK VINA RESULT:    -4.420      1.675      2.007
REMARK INTER + INTRA:          -5.106
REMARK INTER:                  -5.055
REMARK INTRA:                  -0.051
REMARK UNBOUND:                -0.040
REMARK SMILES CC(C)[C@@H]([NH3+])C(=O)[O-]
REMARK SMILES IDX 4 1 5 2 6 6 7 7 8 8 2 9 1 10 3 11
REMARK H PARENT 5 3 5 4 5 5
REMARK Flexibility Score: inf
ROOT
ATOM      1  C   UNL     1     148.728 167.705 151.969  1.00  0.00     0.230 C 
ENDROOT
BRANCH   1   2
ATOM      2  N   UNL     1     147.329 167.937 151.579  1.00  0.00    -0.350 N 
ATOM      3  H   UNL     1     146.686 167.417 152.220  1.00  0.00     0.345 HD
ATOM      4  H   UNL     1     147.094 168.951 151.664  1.00  0.00     0.345 HD
ATOM      5  H   UNL     1     147.161 167.618 150.596  1.00  0.00     0.345 HD
ENDBRANCH   1   2
BRANCH   1   6
ATOM      6  C   UNL     1     148.767 167.004 153.306  1.00  0.00     0.099 C 
ATOM      7  O   UNL     1     149.506 167.435 154.230  1.00  0.00    -0.544 OA
ATOM      8  O   UNL     1     147.979 165.881 153.524  1.00  0.00    -0.544 OA
ENDBRANCH   1   6
BRANCH   1   9
ATOM      9  C   UNL     1     149.504 166.889 150.891  1.00  0.00     0.047 C 
ATOM     10  C   UNL     1     149.153 167.343 149.465  1.00  0.00     0.014 C 
ATOM     11  C   UNL     1     151.026 167.002 151.094  1.00  0.00     0.014 C 
ENDBRANCH   1   9
TORSDOF 3
ENDMDL
MODEL 4
REMARK VINA RESULT:    -4.357      1.662      2.377
REMARK INTER + INTRA:          -5.034
REMARK INTER:                  -5.019
REMARK INTRA:                  -0.015
REMARK UNBOUND:                -0.040
REMARK SMILES CC(C)[C@@H]([NH3+])C(=O)[O-]
REMARK SMILES IDX 4 1 5 2 6 6 7 7 8 8 2 9 1 10 3 11
REMARK H PARENT 5 3 5 4 5 5
REMARK Flexibility Score: inf
ROOT
ATOM      1  C   UNL     1     147.809 166.313 150.324  1.00  0.00     0.230 C 
ENDROOT
BRANCH   1   2
ATOM      2  N   UNL     1     148.040 164.978 149.750  1.00  0.00    -0.350 N 
ATOM      3  H   UNL     1     148.559 164.379 150.433  1.00  0.00     0.345 HD
ATOM      4  H   UNL     1     147.128 164.506 149.558  1.00  0.00     0.345 HD
ATOM      5  H   UNL     1     148.595 165.046 148.866  1.00  0.00     0.345 HD
ENDBRANCH   1   2
BRANCH   1   6
ATOM      6  C   UNL     1     147.678 166.200 151.823  1.00  0.00     0.099 C 
ATOM      7  O   UNL     1     147.625 165.069 152.375  1.00  0.00    -0.544 OA
ATOM      8  O   UNL     1     147.624 167.347 152.604  1.00  0.00    -0.544 OA
ENDBRANCH   1   6
BRANCH   1   9
ATOM      9  C   UNL     1     148.940 167.315 149.938  1.00  0.00     0.047 C 
ATOM     10  C   UNL     1     150.278 166.953 150.603  1.00  0.00     0.014 C 
ATOM     11  C   UNL     1     149.136 167.375 148.413  1.00  0.00     0.014 C 
ENDBRANCH   1   9
TORSDOF 3
ENDMDL
MODEL 5
REMARK VINA RESULT:    -4.123     21.602     22.468
REMARK INTER + INTRA:          -4.765
REMARK INTER:                  -4.934
REMARK INTRA:                   0.169
REMARK UNBOUND:                -0.040
REMARK SMILES CC(C)[C@@H]([NH3+])C(=O)[O-]
REMARK SMILES IDX 4 1 5 2 6 6 7 7 8 8 2 9 1 10 3 11
REMARK H PARENT 5 3 5 4 5 5
REMARK Flexibility Score: inf
ROOT
ATOM      1  C   UNL     1     147.985 148.744 164.936  1.00  0.00     0.230 C 
ENDROOT
BRANCH   1   2
ATOM      2  N   UNL     1     148.048 150.076 165.558  1.00  0.00    -0.350 N 
ATOM      3  H   UNL     1     149.025 150.280 165.873  1.00  0.00     0.345 HD
ATOM      4  H   UNL     1     147.788 150.811 164.863  1.00  0.00     0.345 HD
ATOM      5  H   UNL     1     147.406 150.129 166.383  1.00  0.00     0.345 HD
ENDBRANCH   1   2
BRANCH   1   6
ATOM      6  C   UNL     1     147.732 148.893 163.455  1.00  0.00     0.099 C 
ATOM      7  O   UNL     1     147.625 147.875 162.721  1.00  0.00    -0.544 OA
ATOM      8  O   UNL     1     147.607 150.158 162.896  1.00  0.00    -0.544 OA
ENDBRANCH   1   6
BRANCH   1   9
ATOM      9  C   UNL     1     149.282 147.919 165.198  1.00  0.00     0.047 C 
ATOM     10  C   UNL     1     150.355 148.181 164.128  1.00  0.00     0.014 C 
ATOM     11  C   UNL     1     149.870 148.230 166.586  1.00  0.00     0.014 C 
ENDBRANCH   1   9
TORSDOF 3
ENDMDL
MODEL 6
REMARK VINA RESULT:    -4.098     21.516     22.246
REMARK INTER + INTRA:          -4.736
REMARK INTER:                  -4.708
REMARK INTRA:                  -0.028
REMARK UNBOUND:                -0.040
REMARK SMILES CC(C)[C@@H]([NH3+])C(=O)[O-]
REMARK SMILES IDX 4 1 5 2 6 6 7 7 8 8 2 9 1 10 3 11
REMARK H PARENT 5 3 5 4 5 5
REMARK Flexibility Score: inf
ROOT
ATOM      1  C   UNL     1     164.854 166.024 166.718  1.00  0.00     0.230 C 
ENDROOT
BRANCH   1   2
ATOM      2  N   UNL     1     163.875 167.096 166.957  1.00  0.00    -0.350 N 
ATOM      3  H   UNL     1     163.315 167.271 166.091  1.00  0.00     0.345 HD
ATOM      4  H   UNL     1     163.205 166.811 167.706  1.00  0.00     0.345 HD
ATOM      5  H   UNL     1     164.358 167.982 167.236  1.00  0.00     0.345 HD
ENDBRANCH   1   2
BRANCH   1   6
ATOM      6  C   UNL     1     164.206 164.685 166.978  1.00  0.00     0.099 C 
ATOM      7  O   UNL     1     164.909 163.645 167.075  1.00  0.00    -0.544 OA
ATOM      8  O   UNL     1     162.827 164.597 167.119  1.00  0.00    -0.544 OA
ENDBRANCH   1   6
BRANCH   1   9
ATOM      9  C   UNL     1     165.444 166.086 165.276  1.00  0.00     0.047 C 
ATOM     10  C   UNL     1     165.196 167.451 164.614  1.00  0.00     0.014 C 
ATOM     11  C   UNL     1     166.956 165.795 165.279  1.00  0.00     0.014 C 
ENDBRANCH   1   9
TORSDOF 3
ENDMDL
MODEL 7
REMARK VINA RESULT:    -3.919     20.861     21.573
REMARK INTER + INTRA:          -4.532
REMARK INTER:                  -4.469
REMARK INTRA:                  -0.063
REMARK UNBOUND:                -0.040
REMARK SMILES CC(C)[C@@H]([NH3+])C(=O)[O-]
REMARK SMILES IDX 4 1 5 2 6 6 7 7 8 8 2 9 1 10 3 11
REMARK H PARENT 5 3 5 4 5 5
REMARK Flexibility Score: inf
ROOT
ATOM      1  C   UNL     1     165.427 166.647 163.459  1.00  0.00     0.230 C 
ENDROOT
BRANCH   1   2
ATOM      2  N   UNL     1     164.138 167.312 163.707  1.00  0.00    -0.350 N 
ATOM      3  H   UNL     1     163.440 167.025 162.982  1.00  0.00     0.345 HD
ATOM      4  H   UNL     1     163.754 167.022 164.634  1.00  0.00     0.345 HD
ATOM      5  H   UNL     1     164.247 168.353 163.681  1.00  0.00     0.345 HD
ENDBRANCH   1   2
BRANCH   1   6
ATOM      6  C   UNL     1     166.096 167.278 162.263  1.00  0.00     0.099 C 
ATOM      7  O   UNL     1     167.125 167.991 162.410  1.00  0.00    -0.544 OA
ATOM      8  O   UNL     1     165.584 167.068 160.989  1.00  0.00    -0.544 OA
ENDBRANCH   1   6
BRANCH   1   9
ATOM      9  C   UNL     1     166.357 166.700 164.709  1.00  0.00     0.047 C 
ATOM     10  C   UNL     1     165.669 167.372 165.909  1.00  0.00     0.014 C 
ATOM     11  C   UNL     1     166.820 165.290 165.120  1.00  0.00     0.014 C 
ENDBRANCH   1   9
TORSDOF 3
ENDMDL
MODEL 8
REMARK VINA RESULT:    -3.915     21.329     21.965
REMARK INTER + INTRA:          -4.527
REMARK INTER:                  -4.468
REMARK INTRA:                  -0.059
REMARK UNBOUND:                -0.040
REMARK SMILES CC(C)[C@@H]([NH3+])C(=O)[O-]
REMARK SMILES IDX 4 1 5 2 6 6 7 7 8 8 2 9 1 10 3 11
REMARK H PARENT 5 3 5 4 5 5
REMARK Flexibility Score: inf
ROOT
ATOM      1  C   UNL     1     165.370 166.011 165.464  1.00  0.00     0.230 C 
ENDROOT
BRANCH   1   2
ATOM      2  N   UNL     1     166.783 165.712 165.743  1.00  0.00    -0.350 N 
ATOM      3  H   UNL     1     167.285 165.484 164.854  1.00  0.00     0.345 HD
ATOM      4  H   UNL     1     167.254 166.548 166.156  1.00  0.00     0.345 HD
ATOM      5  H   UNL     1     166.867 164.901 166.399  1.00  0.00     0.345 HD
ENDBRANCH   1   2
BRANCH   1   6
ATOM      6  C   UNL     1     164.633 166.213 166.766  1.00  0.00     0.099 C 
ATOM      7  O   UNL     1     164.242 167.362 167.106  1.00  0.00    -0.544 OA
ATOM      8  O   UNL     1     164.374 165.128 167.593  1.00  0.00    -0.544 OA
ENDBRANCH   1   6
BRANCH   1   9
ATOM      9  C   UNL     1     165.211 167.255 164.537  1.00  0.00     0.047 C 
ATOM     10  C   UNL     1     166.499 167.555 163.753  1.00  0.00     0.014 C 
ATOM     11  C   UNL     1     164.051 167.065 163.543  1.00  0.00     0.014 C 
ENDBRANCH   1   9
TORSDOF 3
ENDMDL
MODEL 9
REMARK VINA RESULT:    -3.857      1.787      2.345
REMARK INTER + INTRA:          -4.461
REMARK INTER:                  -4.679
REMARK INTRA:                   0.218
REMARK UNBOUND:                -0.040
REMARK SMILES CC(C)[C@@H]([NH3+])C(=O)[O-]
REMARK SMILES IDX 4 1 5 2 6 6 7 7 8 8 2 9 1 10 3 11
REMARK H PARENT 5 3 5 4 5 5
REMARK Flexibility Score: inf
ROOT
ATOM      1  C   UNL     1     149.473 166.989 152.753  1.00  0.00     0.230 C 
ENDROOT
BRANCH   1   2
ATOM      2  N   UNL     1     149.384 167.901 153.904  1.00  0.00    -0.350 N 
ATOM      3  H   UNL     1     148.799 167.473 154.658  1.00  0.00     0.345 HD
ATOM      4  H   UNL     1     150.334 168.065 154.308  1.00  0.00     0.345 HD
ATOM      5  H   UNL     1     148.960 168.815 153.620  1.00  0.00     0.345 HD
ENDBRANCH   1   2
BRANCH   1   6
ATOM      6  C   UNL     1     148.083 166.679 152.250  1.00  0.00     0.099 C 
ATOM      7  O   UNL     1     147.247 167.604 152.077  1.00  0.00    -0.544 OA
ATOM      8  O   UNL     1     147.724 165.367 151.968  1.00  0.00    -0.544 OA
ENDBRANCH   1   6
BRANCH   1   9
ATOM      9  C   UNL     1     150.358 167.577 151.612  1.00  0.00     0.047 C 
ATOM     10  C   UNL     1     151.794 167.031 151.661  1.00  0.00     0.014 C 
ATOM     11  C   UNL     1     149.754 167.279 150.228  1.00  0.00     0.014 C 
ENDBRANCH   1   9
TORSDOF 3
ENDMDL
