MODEL 1
REMARK VINA RESULT:    -5.490      0.000      0.000
REMARK INTER + INTRA:          -8.270
REMARK INTER:                  -7.737
REMARK INTRA:                  -0.534
REMARK UNBOUND:                -0.534
REMARK SMILES OC[C@@H]1O[C@@H](O[C@@H]2OC=C[C@@H]3[C@H](O)[C@@H]4O[C@]4(CO)[C@@H]23)[C@H](O)[C@H](O)[C@H]1O
REMARK SMILES IDX 6 1 7 2 10 3 9 4 11 5 8 6 19 7 12 8 16 9 14 10 15 11 13 12
REMARK SMILES IDX 17 14 18 15 5 17 20 18 4 19 22 20 3 21 24 22 21 23 23 25
REMARK SMILES IDX 2 27 1 28 25 30
REMARK H PARENT 13 13 18 16 21 24 23 26 1 29 25 31
REMARK Flexibility Score: inf
ROOT
ATOM      1  O   UNL     1       9.112  16.662 165.549  1.00  0.00    -0.310 OA
ENDROOT
BRANCH   1   2
ATOM      2  C   UNL     1      10.222  17.210 164.860  1.00  0.00     0.315 C 
ATOM      3  C   UNL     1      11.106  18.308 162.316  1.00  0.00     0.018 C 
ATOM      4  C   UNL     1      10.312  19.032 163.119  1.00  0.00     0.186 C 
ATOM      5  C   UNL     1      11.631  17.007 162.846  1.00  0.00     0.059 C 
ATOM      6  O   UNL     1       9.868  18.518 164.361  1.00  0.00    -0.472 OA
ATOM      7  C   UNL     1      10.550  16.318 163.655  1.00  0.00     0.105 C 
ATOM      8  C   UNL     1      12.110  15.934 161.873  1.00  0.00     0.154 C 
ATOM      9  C   UNL     1      11.114  14.914 163.848  1.00  0.00     0.130 C 
ATOM     10  C   UNL     1      12.059  14.655 162.726  1.00  0.00     0.183 C 
ATOM     11  O   UNL     1      10.797  14.023 162.800  1.00  0.00    -0.360 OA
BRANCH   8  12
ATOM     12  O   UNL     1      11.250  15.812 160.768  1.00  0.00    -0.390 OA
ATOM     13  H   UNL     1      10.895  16.720 160.583  1.00  0.00     0.211 HD
ENDBRANCH   8  12
BRANCH   9  14
ATOM     14  C   UNL     1      11.442  14.260 165.193  1.00  0.00     0.195 C 
BRANCH  14  15
ATOM     15  O   UNL     1      12.408  15.016 165.873  1.00  0.00    -0.393 OA
ATOM     16  H   UNL     1      12.848  15.603 165.205  1.00  0.00     0.210 HD
ENDBRANCH  14  15
ENDBRANCH   9  14
ENDBRANCH   1   2
BRANCH   1  17
ATOM     17  C   UNL     1       8.524  17.584 166.460  1.00  0.00     0.286 C 
ATOM     18  C   UNL     1       7.165  18.129 165.956  1.00  0.00     0.202 C 
ATOM     19  O   UNL     1       8.368  16.973 167.732  1.00  0.00    -0.341 OA
ATOM     20  C   UNL     1       6.146  16.979 165.888  1.00  0.00     0.179 C 
ATOM     21  C   UNL     1       7.526  15.830 167.679  1.00  0.00     0.178 C 
ATOM     22  C   UNL     1       6.091  16.225 167.233  1.00  0.00     0.177 C 
BRANCH  18  23
ATOM     23  O   UNL     1       6.704  19.125 166.835  1.00  0.00    -0.385 OA
ATOM     24  H   UNL     1       7.034  19.993 166.483  1.00  0.00     0.211 HD
ENDBRANCH  18  23
BRANCH  20  25
ATOM     25  O   UNL     1       4.875  17.448 165.507  1.00  0.00    -0.387 OA
ATOM     26  H   UNL     1       4.941  17.801 164.582  1.00  0.00     0.211 HD
ENDBRANCH  20  25
BRANCH  21  27
ATOM     27  C   UNL     1       7.519  15.187 169.075  1.00  0.00     0.191 C 
BRANCH  27  28
ATOM     28  O   UNL     1       6.520  15.742 169.888  1.00  0.00    -0.394 OA
ATOM     29  H   UNL     1       6.399  15.122 170.654  1.00  0.00     0.210 HD
ENDBRANCH  27  28
ENDBRANCH  21  27
BRANCH  22  30
ATOM     30  O   UNL     1       5.253  15.101 167.127  1.00  0.00    -0.387 OA
ATOM     31  H   UNL     1       4.742  15.024 167.975  1.00  0.00     0.211 HD
ENDBRANCH  22  30
ENDBRANCH   1  17
TORSDOF 10
ENDMDL
MODEL 2
REMARK VINA RESULT:    -5.118      1.602      6.704
REMARK INTER + INTRA:          -7.746
REMARK INTER:                  -6.423
REMARK INTRA:                  -1.323
REMARK UNBOUND:                -0.534
REMARK SMILES OC[C@@H]1O[C@@H](O[C@@H]2OC=C[C@@H]3[C@H](O)[C@@H]4O[C@]4(CO)[C@@H]23)[C@H](O)[C@H](O)[C@H]1O
REMARK SMILES IDX 6 1 7 2 10 3 9 4 11 5 8 6 19 7 12 8 16 9 14 10 15 11 13 12
REMARK SMILES IDX 17 14 18 15 5 17 20 18 4 19 22 20 3 21 24 22 21 23 23 25
REMARK SMILES IDX 2 27 1 28 25 30
REMARK H PARENT 13 13 18 16 21 24 23 26 1 29 25 31
REMARK Flexibility Score: inf
ROOT
ATOM      1  O   UNL     1       9.580  15.841 165.360  1.00  0.00    -0.310 OA
ENDROOT
BRANCH   1   2
ATOM      2  C   UNL     1       9.206  16.274 166.657  1.00  0.00     0.315 C 
ATOM      3  C   UNL     1       7.187  16.019 168.734  1.00  0.00     0.018 C 
ATOM      4  C   UNL     1       8.056  15.020 168.518  1.00  0.00     0.186 C 
ATOM      5  C   UNL     1       7.398  17.300 167.984  1.00  0.00     0.059 C 
ATOM      6  O   UNL     1       9.045  15.121 167.511  1.00  0.00    -0.472 OA
ATOM      7  C   UNL     1       7.851  16.990 166.571  1.00  0.00     0.105 C 
ATOM      8  C   UNL     1       6.233  18.268 167.799  1.00  0.00     0.154 C 
ATOM      9  C   UNL     1       7.718  18.337 165.870  1.00  0.00     0.130 C 
ATOM     10  C   UNL     1       6.690  19.125 166.606  1.00  0.00     0.183 C 
ATOM     11  O   UNL     1       6.436  18.575 165.329  1.00  0.00    -0.360 OA
BRANCH   8  12
ATOM     12  O   UNL     1       5.042  17.593 167.481  1.00  0.00    -0.390 OA
ATOM     13  H   UNL     1       4.407  17.775 168.221  1.00  0.00     0.211 HD
ENDBRANCH   8  12
BRANCH   9  14
ATOM     14  C   UNL     1       8.862  19.125 165.224  1.00  0.00     0.195 C 
BRANCH  14  15
ATOM     15  O   UNL     1       9.225  18.535 164.004  1.00  0.00    -0.393 OA
ATOM     16  H   UNL     1       8.879  17.605 164.012  1.00  0.00     0.210 HD
ENDBRANCH  14  15
ENDBRANCH   9  14
ENDBRANCH   1   2
BRANCH   1  17
ATOM     17  C   UNL     1      10.976  15.977 165.120  1.00  0.00     0.286 C 
ATOM     18  C   UNL     1      11.734  14.634 165.252  1.00  0.00     0.202 C 
ATOM     19  O   UNL     1      11.191  16.539 163.833  1.00  0.00    -0.341 OA
ATOM     20  C   UNL     1      11.264  13.669 164.151  1.00  0.00     0.179 C 
ATOM     21  C   UNL     1      10.656  15.726 162.797  1.00  0.00     0.178 C 
ATOM     22  C   UNL     1      11.361  14.342 162.766  1.00  0.00     0.177 C 
BRANCH  18  23
ATOM     23  O   UNL     1      13.116  14.862 165.131  1.00  0.00    -0.385 OA
ATOM     24  H   UNL     1      13.259  15.836 165.257  1.00  0.00     0.211 HD
ENDBRANCH  18  23
BRANCH  20  25
ATOM     25  O   UNL     1      11.986  12.462 164.190  1.00  0.00    -0.387 OA
ATOM     26  H   UNL     1      12.757  12.584 164.802  1.00  0.00     0.211 HD
ENDBRANCH  20  25
BRANCH  21  27
ATOM     27  C   UNL     1      10.842  16.477 161.468  1.00  0.00     0.191 C 
BRANCH  27  28
ATOM     28  O   UNL     1      10.156  15.842 160.423  1.00  0.00    -0.394 OA
ATOM     29  H   UNL     1      10.654  15.007 160.222  1.00  0.00     0.210 HD
ENDBRANCH  27  28
ENDBRANCH  21  27
BRANCH  22  30
ATOM     30  O   UNL     1      10.814  13.504 161.778  1.00  0.00    -0.387 OA
ATOM     31  H   UNL     1      11.460  12.768 161.614  1.00  0.00     0.211 HD
ENDBRANCH  22  30
ENDBRANCH   1  17
TORSDOF 10
ENDMDL
MODEL 3
REMARK VINA RESULT:    -4.628      1.098      1.184
REMARK INTER + INTRA:          -7.055
REMARK INTER:                  -6.676
REMARK INTRA:                  -0.379
REMARK UNBOUND:                -0.534
REMARK SMILES OC[C@@H]1O[C@@H](O[C@@H]2OC=C[C@@H]3[C@H](O)[C@@H]4O[C@]4(CO)[C@@H]23)[C@H](O)[C@H](O)[C@H]1O
REMARK SMILES IDX 6 1 7 2 10 3 9 4 11 5 8 6 19 7 12 8 16 9 14 10 15 11 13 12
REMARK SMILES IDX 17 14 18 15 5 17 20 18 4 19 22 20 3 21 24 22 21 23 23 25
REMARK SMILES IDX 2 27 1 28 25 30
REMARK H PARENT 13 13 18 16 21 24 23 26 1 29 25 31
REMARK Flexibility Score: inf
ROOT
ATOM      1  O   UNL     1       9.446  16.099 165.365  1.00  0.00    -0.310 OA
ENDROOT
BRANCH   1   2
ATOM      2  C   UNL     1      10.526  16.422 164.505  1.00  0.00     0.315 C 
ATOM      3  C   UNL     1      11.250  17.007 161.751  1.00  0.00     0.018 C 
ATOM      4  C   UNL     1      10.596  17.924 162.482  1.00  0.00     0.186 C 
ATOM      5  C   UNL     1      11.716  15.765 162.449  1.00  0.00     0.059 C 
ATOM      6  O   UNL     1      10.231  17.660 163.824  1.00  0.00    -0.472 OA
ATOM      7  C   UNL     1      10.665  15.320 163.446  1.00  0.00     0.105 C 
ATOM      8  C   UNL     1      12.014  14.509 161.635  1.00  0.00     0.154 C 
ATOM      9  C   UNL     1      11.131  13.919 163.827  1.00  0.00     0.130 C 
ATOM     10  C   UNL     1      11.942  13.394 162.692  1.00  0.00     0.183 C 
ATOM     11  O   UNL     1      10.646  12.905 162.973  1.00  0.00    -0.360 OA
BRANCH   8  12
ATOM     12  O   UNL     1      11.047  14.294 160.639  1.00  0.00    -0.390 OA
ATOM     13  H   UNL     1      11.531  14.268 159.773  1.00  0.00     0.211 HD
ENDBRANCH   8  12
BRANCH   9  14
ATOM     14  C   UNL     1      11.531  13.462 165.232  1.00  0.00     0.195 C 
BRANCH  14  15
ATOM     15  O   UNL     1      11.227  12.103 165.401  1.00  0.00    -0.393 OA
ATOM     16  H   UNL     1      10.992  11.970 166.356  1.00  0.00     0.210 HD
ENDBRANCH  14  15
ENDBRANCH   9  14
ENDBRANCH   1   2
BRANCH   1  17
ATOM     17  C   UNL     1       9.220  17.093 166.357  1.00  0.00     0.286 C 
ATOM     18  C   UNL     1       8.119  18.100 165.948  1.00  0.00     0.202 C 
ATOM     19  O   UNL     1       8.888  16.475 167.592  1.00  0.00    -0.341 OA
ATOM     20  C   UNL     1       6.769  17.371 165.846  1.00  0.00     0.179 C 
ATOM     21  C   UNL     1       7.707  15.690 167.498  1.00  0.00     0.178 C 
ATOM     22  C   UNL     1       6.484  16.579 167.140  1.00  0.00     0.177 C 
BRANCH  18  23
ATOM     23  O   UNL     1       8.038  19.124 166.909  1.00  0.00    -0.385 OA
ATOM     24  H   UNL     1       8.326  18.729 167.773  1.00  0.00     0.211 HD
ENDBRANCH  18  23
BRANCH  20  25
ATOM     25  O   UNL     1       5.726  18.268 165.551  1.00  0.00    -0.387 OA
ATOM     26  H   UNL     1       6.046  19.187 165.746  1.00  0.00     0.211 HD
ENDBRANCH  20  25
BRANCH  21  27
ATOM     27  C   UNL     1       7.505  14.983 168.848  1.00  0.00     0.191 C 
BRANCH  27  28
ATOM     28  O   UNL     1       6.558  15.650 169.638  1.00  0.00    -0.394 OA
ATOM     29  H   UNL     1       6.700  16.622 169.491  1.00  0.00     0.210 HD
ENDBRANCH  27  28
ENDBRANCH  21  27
BRANCH  22  30
ATOM     30  O   UNL     1       5.313  15.814 166.994  1.00  0.00    -0.387 OA
ATOM     31  H   UNL     1       4.538  16.425 167.102  1.00  0.00     0.211 HD
ENDBRANCH  22  30
ENDBRANCH   1  17
TORSDOF 10
ENDMDL
MODEL 4
REMARK VINA RESULT:    -4.413      1.852      6.753
REMARK INTER + INTRA:          -6.752
REMARK INTER:                  -6.105
REMARK INTRA:                  -0.647
REMARK UNBOUND:                -0.534
REMARK SMILES OC[C@@H]1O[C@@H](O[C@@H]2OC=C[C@@H]3[C@H](O)[C@@H]4O[C@]4(CO)[C@@H]23)[C@H](O)[C@H](O)[C@H]1O
REMARK SMILES IDX 6 1 7 2 10 3 9 4 11 5 8 6 19 7 12 8 16 9 14 10 15 11 13 12
REMARK SMILES IDX 17 14 18 15 5 17 20 18 4 19 22 20 3 21 24 22 21 23 23 25
REMARK SMILES IDX 2 27 1 28 25 30
REMARK H PARENT 13 13 18 16 21 24 23 26 1 29 25 31
REMARK Flexibility Score: inf
ROOT
ATOM      1  O   UNL     1      10.943  16.321 163.604  1.00  0.00    -0.310 OA
ENDROOT
BRANCH   1   2
ATOM      2  C   UNL     1      10.900  16.325 165.021  1.00  0.00     0.315 C 
ATOM      3  C   UNL     1       9.787  14.982 167.346  1.00  0.00     0.018 C 
ATOM      4  C   UNL     1      10.773  14.401 166.645  1.00  0.00     0.186 C 
ATOM      5  C   UNL     1       9.406  16.384 166.981  1.00  0.00     0.059 C 
ATOM      6  O   UNL     1      11.328  15.035 165.508  1.00  0.00    -0.472 OA
ATOM      7  C   UNL     1       9.451  16.544 165.474  1.00  0.00     0.105 C 
ATOM      8  C   UNL     1       8.032  16.920 167.373  1.00  0.00     0.154 C 
ATOM      9  C   UNL     1       8.754  17.883 165.255  1.00  0.00     0.130 C 
ATOM     10  C   UNL     1       7.844  18.108 166.414  1.00  0.00     0.183 C 
ATOM     11  O   UNL     1       7.351  17.781 165.130  1.00  0.00    -0.360 OA
BRANCH   8  12
ATOM     12  O   UNL     1       7.023  15.965 167.162  1.00  0.00    -0.390 OA
ATOM     13  H   UNL     1       7.218  15.533 166.291  1.00  0.00     0.211 HD
ENDBRANCH   8  12
BRANCH   9  14
ATOM     14  C   UNL     1       9.384  19.125 164.619  1.00  0.00     0.195 C 
BRANCH  14  15
ATOM     15  O   UNL     1       9.875  18.816 163.342  1.00  0.00    -0.393 OA
ATOM     16  H   UNL     1       9.562  17.901 163.119  1.00  0.00     0.210 HD
ENDBRANCH  14  15
ENDBRANCH   9  14
ENDBRANCH   1   2
BRANCH   1  17
ATOM     17  C   UNL     1      10.783  15.018 163.055  1.00  0.00     0.286 C 
ATOM     18  C   UNL     1       9.863  15.007 161.811  1.00  0.00     0.202 C 
ATOM     19  O   UNL     1      12.054  14.472 162.732  1.00  0.00    -0.341 OA
ATOM     20  C   UNL     1      10.526  15.805 160.675  1.00  0.00     0.179 C 
ATOM     21  C   UNL     1      12.747  15.258 161.772  1.00  0.00     0.178 C 
ATOM     22  C   UNL     1      11.964  15.302 160.430  1.00  0.00     0.177 C 
BRANCH  18  23
ATOM     23  O   UNL     1       9.646  13.680 161.399  1.00  0.00    -0.385 OA
ATOM     24  H   UNL     1      10.224  13.106 161.966  1.00  0.00     0.211 HD
ENDBRANCH  18  23
BRANCH  20  25
ATOM     25  O   UNL     1       9.755  15.754 159.500  1.00  0.00    -0.387 OA
ATOM     26  H   UNL     1       9.967  14.907 159.028  1.00  0.00     0.211 HD
ENDBRANCH  20  25
BRANCH  21  27
ATOM     27  C   UNL     1      14.143  14.643 161.582  1.00  0.00     0.191 C 
BRANCH  27  28
ATOM     28  O   UNL     1      14.999  14.986 162.639  1.00  0.00    -0.394 OA
ATOM     29  H   UNL     1      15.781  15.445 162.234  1.00  0.00     0.210 HD
ENDBRANCH  27  28
ENDBRANCH  21  27
BRANCH  22  30
ATOM     30  O   UNL     1      12.609  16.114 159.481  1.00  0.00    -0.387 OA
ATOM     31  H   UNL     1      12.814  16.983 159.917  1.00  0.00     0.211 HD
ENDBRANCH  22  30
ENDBRANCH   1  17
TORSDOF 10
ENDMDL
MODEL 5
REMARK VINA RESULT:    -3.528      1.495      2.179
REMARK INTER + INTRA:          -5.505
REMARK INTER:                  -4.968
REMARK INTRA:                  -0.537
REMARK UNBOUND:                -0.534
REMARK SMILES OC[C@@H]1O[C@@H](O[C@@H]2OC=C[C@@H]3[C@H](O)[C@@H]4O[C@]4(CO)[C@@H]23)[C@H](O)[C@H](O)[C@H]1O
REMARK SMILES IDX 6 1 7 2 10 3 9 4 11 5 8 6 19 7 12 8 16 9 14 10 15 11 13 12
REMARK SMILES IDX 17 14 18 15 5 17 20 18 4 19 22 20 3 21 24 22 21 23 23 25
REMARK SMILES IDX 2 27 1 28 25 30
REMARK H PARENT 13 13 18 16 21 24 23 26 1 29 25 31
REMARK Flexibility Score: inf
ROOT
ATOM      1  O   UNL     1       9.408  15.968 164.762  1.00  0.00    -0.310 OA
ENDROOT
BRANCH   1   2
ATOM      2  C   UNL     1      10.700  15.566 164.342  1.00  0.00     0.315 C 
ATOM      3  C   UNL     1      13.184  16.494 163.150  1.00  0.00     0.018 C 
ATOM      4  C   UNL     1      12.892  16.809 164.421  1.00  0.00     0.186 C 
ATOM      5  C   UNL     1      12.273  15.536 162.443  1.00  0.00     0.059 C 
ATOM      6  O   UNL     1      11.688  16.370 165.021  1.00  0.00    -0.472 OA
ATOM      7  C   UNL     1      10.837  15.823 162.835  1.00  0.00     0.105 C 
ATOM      8  C   UNL     1      12.244  15.507 160.917  1.00  0.00     0.154 C 
ATOM      9  C   UNL     1      10.040  15.005 161.824  1.00  0.00     0.130 C 
ATOM     10  C   UNL     1      10.895  14.833 160.616  1.00  0.00     0.183 C 
ATOM     11  O   UNL     1       9.771  15.691 160.621  1.00  0.00    -0.360 OA
BRANCH   8  12
ATOM     12  O   UNL     1      12.270  16.802 160.372  1.00  0.00    -0.390 OA
ATOM     13  H   UNL     1      12.613  16.714 159.446  1.00  0.00     0.211 HD
ENDBRANCH   8  12
BRANCH   9  14
ATOM     14  C   UNL     1       9.078  13.861 162.159  1.00  0.00     0.195 C 
BRANCH  14  15
ATOM     15  O   UNL     1       9.765  12.638 162.157  1.00  0.00    -0.393 OA
ATOM     16  H   UNL     1      10.184  12.536 161.263  1.00  0.00     0.210 HD
ENDBRANCH  14  15
ENDBRANCH   9  14
ENDBRANCH   1   2
BRANCH   1  17
ATOM     17  C   UNL     1       9.448  16.972 165.770  1.00  0.00     0.286 C 
ATOM     18  C   UNL     1       8.431  18.110 165.514  1.00  0.00     0.202 C 
ATOM     19  O   UNL     1       9.220  16.385 167.043  1.00  0.00    -0.341 OA
ATOM     20  C   UNL     1       7.001  17.552 165.609  1.00  0.00     0.179 C 
ATOM     21  C   UNL     1       7.950  15.751 167.122  1.00  0.00     0.178 C 
ATOM     22  C   UNL     1       6.807  16.786 166.934  1.00  0.00     0.177 C 
BRANCH  18  23
ATOM     23  O   UNL     1       8.612  19.125 166.471  1.00  0.00    -0.385 OA
ATOM     24  H   UNL     1       7.706  19.411 166.760  1.00  0.00     0.211 HD
ENDBRANCH  18  23
BRANCH  20  25
ATOM     25  O   UNL     1       6.045  18.572 165.458  1.00  0.00    -0.387 OA
ATOM     26  H   UNL     1       6.070  18.881 164.515  1.00  0.00     0.211 HD
ENDBRANCH  20  25
BRANCH  21  27
ATOM     27  C   UNL     1       7.856  15.058 168.491  1.00  0.00     0.191 C 
BRANCH  27  28
ATOM     28  O   UNL     1       7.022  15.769 169.366  1.00  0.00    -0.394 OA
ATOM     29  H   UNL     1       7.492  15.805 170.241  1.00  0.00     0.210 HD
ENDBRANCH  27  28
ENDBRANCH  21  27
BRANCH  22  30
ATOM     30  O   UNL     1       5.543  16.171 166.961  1.00  0.00    -0.387 OA
ATOM     31  H   UNL     1       5.683  15.196 167.092  1.00  0.00     0.211 HD
ENDBRANCH  22  30
ENDBRANCH   1  17
TORSDOF 10
ENDMDL
MODEL 6
REMARK VINA RESULT:    -3.420      3.990      6.269
REMARK INTER + INTRA:          -5.354
REMARK INTER:                  -5.051
REMARK INTRA:                  -0.303
REMARK UNBOUND:                -0.534
REMARK SMILES OC[C@@H]1O[C@@H](O[C@@H]2OC=C[C@@H]3[C@H](O)[C@@H]4O[C@]4(CO)[C@@H]23)[C@H](O)[C@H](O)[C@H]1O
REMARK SMILES IDX 6 1 7 2 10 3 9 4 11 5 8 6 19 7 12 8 16 9 14 10 15 11 13 12
REMARK SMILES IDX 17 14 18 15 5 17 20 18 4 19 22 20 3 21 24 22 21 23 23 25
REMARK SMILES IDX 2 27 1 28 25 30
REMARK H PARENT 13 13 18 16 21 24 23 26 1 29 25 31
REMARK Flexibility Score: inf
ROOT
ATOM      1  O   UNL     1      11.519  12.517 163.751  1.00  0.00    -0.310 OA
ENDROOT
BRANCH   1   2
ATOM      2  C   UNL     1      12.107  13.481 164.606  1.00  0.00     0.315 C 
ATOM      3  C   UNL     1      11.846  16.188 165.634  1.00  0.00     0.018 C 
ATOM      4  C   UNL     1      11.025  15.222 166.075  1.00  0.00     0.186 C 
ATOM      5  C   UNL     1      12.973  15.787 164.732  1.00  0.00     0.059 C 
ATOM      6  O   UNL     1      11.133  13.898 165.587  1.00  0.00    -0.472 OA
ATOM      7  C   UNL     1      12.497  14.712 163.776  1.00  0.00     0.105 C 
ATOM      8  C   UNL     1      13.625  16.829 163.828  1.00  0.00     0.154 C 
ATOM      9  C   UNL     1      13.627  14.643 162.754  1.00  0.00     0.130 C 
ATOM     10  C   UNL     1      14.312  15.966 162.756  1.00  0.00     0.183 C 
ATOM     11  O   UNL     1      13.485  15.554 161.685  1.00  0.00    -0.360 OA
BRANCH   8  12
ATOM     12  O   UNL     1      12.670  17.671 163.233  1.00  0.00    -0.390 OA
ATOM     13  H   UNL     1      11.841  17.586 163.772  1.00  0.00     0.211 HD
ENDBRANCH   8  12
BRANCH   9  14
ATOM     14  C   UNL     1      14.495  13.416 162.462  1.00  0.00     0.195 C 
BRANCH  14  15
ATOM     15  O   UNL     1      15.255  13.084 163.593  1.00  0.00    -0.393 OA
ATOM     16  H   UNL     1      14.806  13.488 164.380  1.00  0.00     0.210 HD
ENDBRANCH  14  15
ENDBRANCH   9  14
ENDBRANCH   1   2
BRANCH   1  17
ATOM     17  C   UNL     1      10.188  12.855 163.378  1.00  0.00     0.286 C 
ATOM     18  C   UNL     1      10.139  13.914 162.250  1.00  0.00     0.202 C 
ATOM     19  O   UNL     1       9.484  11.685 162.986  1.00  0.00    -0.341 OA
ATOM     20  C   UNL     1      10.741  13.321 160.964  1.00  0.00     0.179 C 
ATOM     21  C   UNL     1      10.090  11.044 161.872  1.00  0.00     0.178 C 
ATOM     22  C   UNL     1      10.071  11.973 160.626  1.00  0.00     0.177 C 
BRANCH  18  23
ATOM     23  O   UNL     1       8.805  14.295 162.022  1.00  0.00    -0.385 OA
ATOM     24  H   UNL     1       8.441  14.602 162.893  1.00  0.00     0.211 HD
ENDBRANCH  18  23
BRANCH  20  25
ATOM     25  O   UNL     1      10.645  14.228 159.893  1.00  0.00    -0.387 OA
ATOM     26  H   UNL     1      11.121  13.837 159.115  1.00  0.00     0.211 HD
ENDBRANCH  20  25
BRANCH  21  27
ATOM     27  C   UNL     1       9.320   9.740 161.606  1.00  0.00     0.191 C 
BRANCH  27  28
ATOM     28  O   UNL     1      10.138   8.780 160.993  1.00  0.00    -0.394 OA
ATOM     29  H   UNL     1      10.247   8.040 161.647  1.00  0.00     0.210 HD
ENDBRANCH  27  28
ENDBRANCH  21  27
BRANCH  22  30
ATOM     30  O   UNL     1      10.709  11.375 159.525  1.00  0.00    -0.387 OA
ATOM     31  H   UNL     1      10.254  10.511 159.345  1.00  0.00     0.211 HD
ENDBRANCH  22  30
ENDBRANCH   1  17
TORSDOF 10
ENDMDL
MODEL 7
REMARK VINA RESULT:    -3.151      1.751      6.854
REMARK INTER + INTRA:          -4.974
REMARK INTER:                  -4.350
REMARK INTRA:                  -0.624
REMARK UNBOUND:                -0.534
REMARK SMILES OC[C@@H]1O[C@@H](O[C@@H]2OC=C[C@@H]3[C@H](O)[C@@H]4O[C@]4(CO)[C@@H]23)[C@H](O)[C@H](O)[C@H]1O
REMARK SMILES IDX 6 1 7 2 10 3 9 4 11 5 8 6 19 7 12 8 16 9 14 10 15 11 13 12
REMARK SMILES IDX 17 14 18 15 5 17 20 18 4 19 22 20 3 21 24 22 21 23 23 25
REMARK SMILES IDX 2 27 1 28 25 30
REMARK H PARENT 13 13 18 16 21 24 23 26 1 29 25 31
REMARK Flexibility Score: inf
ROOT
ATOM      1  O   UNL     1      10.555  16.711 163.770  1.00  0.00    -0.310 OA
ENDROOT
BRANCH   1   2
ATOM      2  C   UNL     1      10.628  16.514 165.171  1.00  0.00     0.315 C 
ATOM      3  C   UNL     1       9.874  14.732 167.341  1.00  0.00     0.018 C 
ATOM      4  C   UNL     1      10.861  14.384 166.500  1.00  0.00     0.186 C 
ATOM      5  C   UNL     1       9.302  16.111 167.211  1.00  0.00     0.059 C 
ATOM      6  O   UNL     1      11.243  15.235 165.436  1.00  0.00    -0.472 OA
ATOM      7  C   UNL     1       9.205  16.481 165.744  1.00  0.00     0.105 C 
ATOM      8  C   UNL     1       7.911  16.407 167.764  1.00  0.00     0.154 C 
ATOM      9  C   UNL     1       8.339  17.737 165.769  1.00  0.00     0.130 C 
ATOM     10  C   UNL     1       7.508  17.682 167.004  1.00  0.00     0.183 C 
ATOM     11  O   UNL     1       6.953  17.475 165.720  1.00  0.00    -0.360 OA
BRANCH   8  12
ATOM     12  O   UNL     1       7.008  15.369 167.481  1.00  0.00    -0.390 OA
ATOM     13  H   UNL     1       7.549  14.547 167.355  1.00  0.00     0.211 HD
ENDBRANCH   8  12
BRANCH   9  14
ATOM     14  C   UNL     1       8.765  19.125 165.283  1.00  0.00     0.195 C 
BRANCH  14  15
ATOM     15  O   UNL     1       9.221  19.053 163.958  1.00  0.00    -0.393 OA
ATOM     16  H   UNL     1       9.238  18.094 163.704  1.00  0.00     0.210 HD
ENDBRANCH  14  15
ENDBRANCH   9  14
ENDBRANCH   1   2
BRANCH   1  17
ATOM     17  C   UNL     1      11.732  16.282 163.095  1.00  0.00     0.286 C 
ATOM     18  C   UNL     1      11.618  14.832 162.566  1.00  0.00     0.202 C 
ATOM     19  O   UNL     1      12.029  17.173 162.029  1.00  0.00    -0.341 OA
ATOM     20  C   UNL     1      10.529  14.765 161.482  1.00  0.00     0.179 C 
ATOM     21  C   UNL     1      10.981  17.227 161.069  1.00  0.00     0.178 C 
ATOM     22  C   UNL     1      10.776  15.839 160.402  1.00  0.00     0.177 C 
BRANCH  18  23
ATOM     23  O   UNL     1      12.853  14.430 162.028  1.00  0.00    -0.385 OA
ATOM     24  H   UNL     1      13.544  15.030 162.415  1.00  0.00     0.211 HD
ENDBRANCH  18  23
BRANCH  20  25
ATOM     25  O   UNL     1      10.447  13.478 160.922  1.00  0.00    -0.387 OA
ATOM     26  H   UNL     1      10.903  12.845 161.536  1.00  0.00     0.211 HD
ENDBRANCH  20  25
BRANCH  21  27
ATOM     27  C   UNL     1      11.354  18.296 160.028  1.00  0.00     0.191 C 
BRANCH  27  28
ATOM     28  O   UNL     1      11.621  17.720 158.778  1.00  0.00    -0.394 OA
ATOM     29  H   UNL     1      12.609  17.662 158.697  1.00  0.00     0.210 HD
ENDBRANCH  27  28
ENDBRANCH  21  27
BRANCH  22  30
ATOM     30  O   UNL     1       9.712  15.858 159.482  1.00  0.00    -0.387 OA
ATOM     31  H   UNL     1       9.965  16.469 158.741  1.00  0.00     0.211 HD
ENDBRANCH  22  30
ENDBRANCH   1  17
TORSDOF 10
ENDMDL
MODEL 8
REMARK VINA RESULT:    -3.117      3.000      6.146
REMARK INTER + INTRA:          -4.926
REMARK INTER:                  -4.756
REMARK INTRA:                  -0.170
REMARK UNBOUND:                -0.534
REMARK SMILES OC[C@@H]1O[C@@H](O[C@@H]2OC=C[C@@H]3[C@H](O)[C@@H]4O[C@]4(CO)[C@@H]23)[C@H](O)[C@H](O)[C@H]1O
REMARK SMILES IDX 6 1 7 2 10 3 9 4 11 5 8 6 19 7 12 8 16 9 14 10 15 11 13 12
REMARK SMILES IDX 17 14 18 15 5 17 20 18 4 19 22 20 3 21 24 22 21 23 23 25
REMARK SMILES IDX 2 27 1 28 25 30
REMARK H PARENT 13 13 18 16 21 24 23 26 1 29 25 31
REMARK Flexibility Score: inf
ROOT
ATOM      1  O   UNL     1       9.985  14.768 161.614  1.00  0.00    -0.310 OA
ENDROOT
BRANCH   1   2
ATOM      2  C   UNL     1       9.969  16.123 161.200  1.00  0.00     0.315 C 
ATOM      3  C   UNL     1      11.602  18.281 160.137  1.00  0.00     0.018 C 
ATOM      4  C   UNL     1      11.229  17.267 159.340  1.00  0.00     0.186 C 
ATOM      5  C   UNL     1      11.023  18.329 161.518  1.00  0.00     0.059 C 
ATOM      6  O   UNL     1      10.436  16.205 159.836  1.00  0.00    -0.472 OA
ATOM      7  C   UNL     1      10.937  16.924 162.080  1.00  0.00     0.105 C 
ATOM      8  C   UNL     1      11.735  19.125 162.608  1.00  0.00     0.154 C 
ATOM      9  C   UNL     1      10.639  17.167 163.556  1.00  0.00     0.130 C 
ATOM     10  C   UNL     1      11.162  18.519 163.901  1.00  0.00     0.183 C 
ATOM     11  O   UNL     1      11.793  17.337 164.351  1.00  0.00    -0.360 OA
BRANCH   8  12
ATOM     12  O   UNL     1      13.127  18.937 162.563  1.00  0.00    -0.390 OA
ATOM     13  H   UNL     1      13.315  18.402 161.749  1.00  0.00     0.211 HD
ENDBRANCH   8  12
BRANCH   9  14
ATOM     14  C   UNL     1       9.387  16.699 164.303  1.00  0.00     0.195 C 
BRANCH  14  15
ATOM     15  O   UNL     1       9.733  16.247 165.585  1.00  0.00    -0.393 OA
ATOM     16  H   UNL     1      10.724  16.228 165.634  1.00  0.00     0.210 HD
ENDBRANCH  14  15
ENDBRANCH   9  14
ENDBRANCH   1   2
BRANCH   1  17
ATOM     17  C   UNL     1      11.157  14.081 161.189  1.00  0.00     0.286 C 
ATOM     18  C   UNL     1      12.373  14.361 162.104  1.00  0.00     0.202 C 
ATOM     19  O   UNL     1      10.901  12.685 161.124  1.00  0.00    -0.341 OA
ATOM     20  C   UNL     1      12.102  13.791 163.507  1.00  0.00     0.179 C 
ATOM     21  C   UNL     1      10.526  12.150 162.386  1.00  0.00     0.178 C 
ATOM     22  C   UNL     1      11.679  12.310 163.415  1.00  0.00     0.177 C 
BRANCH  18  23
ATOM     23  O   UNL     1      13.521  13.759 161.557  1.00  0.00    -0.385 OA
ATOM     24  H   UNL     1      14.086  14.492 161.198  1.00  0.00     0.211 HD
ENDBRANCH  18  23
BRANCH  20  25
ATOM     25  O   UNL     1      13.217  13.958 164.348  1.00  0.00    -0.387 OA
ATOM     26  H   UNL     1      14.035  13.778 163.816  1.00  0.00     0.211 HD
ENDBRANCH  20  25
BRANCH  21  27
ATOM     27  C   UNL     1      10.165  10.670 162.179  1.00  0.00     0.191 C 
BRANCH  27  28
ATOM     28  O   UNL     1       9.775  10.420 160.855  1.00  0.00    -0.394 OA
ATOM     29  H   UNL     1       9.028   9.768 160.897  1.00  0.00     0.210 HD
ENDBRANCH  27  28
ENDBRANCH  21  27
BRANCH  22  30
ATOM     30  O   UNL     1      11.310  11.830 164.684  1.00  0.00    -0.387 OA
ATOM     31  H   UNL     1      11.631  12.483 165.360  1.00  0.00     0.211 HD
ENDBRANCH  22  30
ENDBRANCH   1  17
TORSDOF 10
ENDMDL
