MODEL 1
REMARK VINA RESULT:    -3.659      0.000      0.000
REMARK INTER + INTRA:          -5.871
REMARK INTER:                  -5.370
REMARK INTRA:                  -0.502
REMARK UNBOUND:                -0.502
REMARK SMILES O=C([O-])CCCCCCCC(=O)[O-]
REMARK SMILES IDX 7 1 6 2 5 3 4 4 2 5 1 6 3 7 8 8 9 9 10 10 11 11 12 12 13 13
REMARK H PARENT
REMARK Flexibility Score: inf
ROOT
ATOM      1  C   UNL     1      12.898  42.157  17.933  1.00  0.00     0.000 C 
ENDROOT
BRANCH   1   2
ATOM      2  C   UNL     1      12.343  43.514  18.403  1.00  0.00     0.000 C 
BRANCH   2   3
ATOM      3  C   UNL     1      13.379  44.655  18.473  1.00  0.00     0.006 C 
BRANCH   3   4
ATOM      4  C   UNL     1      14.819  44.232  18.141  1.00  0.00     0.053 C 
BRANCH   4   5
ATOM      5  C   UNL     1      15.627  43.975  19.377  1.00  0.00     0.041 C 
ATOM      6  O   UNL     1      16.884  44.051  19.338  1.00  0.00    -0.550 OA
ATOM      7  O   UNL     1      14.992  43.685  20.577  1.00  0.00    -0.550 OA
ENDBRANCH   4   5
ENDBRANCH   3   4
ENDBRANCH   2   3
ENDBRANCH   1   2
BRANCH   1   8
ATOM      8  C   UNL     1      11.896  41.008  18.104  1.00  0.00     0.000 C 
BRANCH   8   9
ATOM      9  C   UNL     1      11.971  40.419  19.517  1.00  0.00     0.006 C 
BRANCH   9  10
ATOM     10  C   UNL     1      13.395  40.507  20.075  1.00  0.00     0.053 C 
BRANCH  10  11
ATOM     11  C   UNL     1      13.366  40.609  21.568  1.00  0.00     0.041 C 
ATOM     12  O   UNL     1      12.267  40.616  22.181  1.00  0.00    -0.550 OA
ATOM     13  O   UNL     1      14.552  40.743  22.277  1.00  0.00    -0.550 OA
ENDBRANCH  10  11
ENDBRANCH   9  10
ENDBRANCH   8   9
ENDBRANCH   1   8
TORSDOF 8
ENDMDL
MODEL 2
REMARK VINA RESULT:    -3.570      0.172      4.343
REMARK INTER + INTRA:          -5.742
REMARK INTER:                  -5.324
REMARK INTRA:                  -0.418
REMARK UNBOUND:                -0.502
REMARK SMILES O=C([O-])CCCCCCCC(=O)[O-]
REMARK SMILES IDX 7 1 6 2 5 3 4 4 2 5 1 6 3 7 8 8 9 9 10 10 11 11 12 12 13 13
REMARK H PARENT
REMARK Flexibility Score: inf
ROOT
ATOM      1  C   UNL     1      13.047  42.336  17.876  1.00  0.00     0.000 C 
ENDROOT
BRANCH   1   2
ATOM      2  C   UNL     1      12.046  41.177  18.034  1.00  0.00     0.000 C 
BRANCH   2   3
ATOM      3  C   UNL     1      12.051  40.494  19.418  1.00  0.00     0.006 C 
BRANCH   3   4
ATOM      4  C   UNL     1      13.427  40.443  20.100  1.00  0.00     0.053 C 
BRANCH   4   5
ATOM      5  C   UNL     1      13.323  40.620  21.585  1.00  0.00     0.041 C 
ATOM      6  O   UNL     1      12.195  40.626  22.145  1.00  0.00    -0.550 OA
ATOM      7  O   UNL     1      14.474  40.743  22.353  1.00  0.00    -0.550 OA
ENDBRANCH   4   5
ENDBRANCH   3   4
ENDBRANCH   2   3
ENDBRANCH   1   2
BRANCH   1   8
ATOM      8  C   UNL     1      12.395  43.716  18.031  1.00  0.00     0.000 C 
BRANCH   8   9
ATOM      9  C   UNL     1      13.433  44.774  18.424  1.00  0.00     0.006 C 
BRANCH   9  10
ATOM     10  C   UNL     1      14.853  44.297  18.102  1.00  0.00     0.053 C 
BRANCH  10  11
ATOM     11  C   UNL     1      15.606  44.010  19.363  1.00  0.00     0.041 C 
ATOM     12  O   UNL     1      16.865  44.060  19.374  1.00  0.00    -0.550 OA
ATOM     13  O   UNL     1      14.921  43.642  20.513  1.00  0.00    -0.550 OA
ENDBRANCH  10  11
ENDBRANCH   9  10
ENDBRANCH   8   9
ENDBRANCH   1   8
TORSDOF 8
ENDMDL
MODEL 3
REMARK VINA RESULT:    -2.799      2.272      3.195
REMARK INTER + INTRA:          -4.610
REMARK INTER:                  -4.864
REMARK INTRA:                   0.254
REMARK UNBOUND:                -0.502
REMARK SMILES O=C([O-])CCCCCCCC(=O)[O-]
REMARK SMILES IDX 7 1 6 2 5 3 4 4 2 5 1 6 3 7 8 8 9 9 10 10 11 11 12 12 13 13
REMARK H PARENT
REMARK Flexibility Score: inf
ROOT
ATOM      1  C   UNL     1      15.136  43.312  21.218  1.00  0.00     0.000 C 
ENDROOT
BRANCH   1   2
ATOM      2  C   UNL     1      15.454  44.174  19.983  1.00  0.00     0.000 C 
BRANCH   2   3
ATOM      3  C   UNL     1      15.709  43.384  18.683  1.00  0.00     0.006 C 
BRANCH   3   4
ATOM      4  C   UNL     1      14.443  43.055  17.876  1.00  0.00     0.053 C 
BRANCH   4   5
ATOM      5  C   UNL     1      13.388  44.107  18.033  1.00  0.00     0.041 C 
ATOM      6  O   UNL     1      12.209  43.782  18.332  1.00  0.00    -0.550 OA
ATOM      7  O   UNL     1      13.715  45.449  17.882  1.00  0.00    -0.550 OA
ENDBRANCH   4   5
ENDBRANCH   3   4
ENDBRANCH   2   3
ENDBRANCH   1   2
BRANCH   1   8
ATOM      8  C   UNL     1      13.814  42.543  21.089  1.00  0.00     0.000 C 
BRANCH   8   9
ATOM      9  C   UNL     1      13.933  41.139  21.691  1.00  0.00     0.006 C 
BRANCH   9  10
ATOM     10  C   UNL     1      12.552  40.512  21.903  1.00  0.00     0.053 C 
BRANCH  10  11
ATOM     11  C   UNL     1      12.088  39.833  20.653  1.00  0.00     0.041 C 
ATOM     12  O   UNL     1      11.886  38.589  20.645  1.00  0.00    -0.550 OA
ATOM     13  O   UNL     1      11.925  40.565  19.484  1.00  0.00    -0.550 OA
ENDBRANCH  10  11
ENDBRANCH   9  10
ENDBRANCH   8   9
ENDBRANCH   1   8
TORSDOF 8
ENDMDL
MODEL 4
REMARK VINA RESULT:    -2.334      2.243      5.187
REMARK INTER + INTRA:          -3.927
REMARK INTER:                  -3.871
REMARK INTRA:                  -0.056
REMARK UNBOUND:                -0.502
REMARK SMILES O=C([O-])CCCCCCCC(=O)[O-]
REMARK SMILES IDX 7 1 6 2 5 3 4 4 2 5 1 6 3 7 8 8 9 9 10 10 11 11 12 12 13 13
REMARK H PARENT
REMARK Flexibility Score: inf
ROOT
ATOM      1  C   UNL     1      15.098  43.425  21.532  1.00  0.00     0.000 C 
ENDROOT
BRANCH   1   2
ATOM      2  C   UNL     1      14.513  42.014  21.332  1.00  0.00     0.000 C 
BRANCH   2   3
ATOM      3  C   UNL     1      12.976  41.926  21.424  1.00  0.00     0.006 C 
BRANCH   3   4
ATOM      4  C   UNL     1      12.434  40.519  21.725  1.00  0.00     0.053 C 
BRANCH   4   5
ATOM      5  C   UNL     1      12.058  39.784  20.474  1.00  0.00     0.041 C 
ATOM      6  O   UNL     1      11.875  38.538  20.503  1.00  0.00    -0.550 OA
ATOM      7  O   UNL     1      11.876  40.479  19.286  1.00  0.00    -0.550 OA
ENDBRANCH   4   5
ENDBRANCH   3   4
ENDBRANCH   2   3
ENDBRANCH   1   2
BRANCH   1   8
ATOM      8  C   UNL     1      15.369  44.154  20.210  1.00  0.00     0.000 C 
BRANCH   8   9
ATOM      9  C   UNL     1      15.747  43.162  19.103  1.00  0.00     0.006 C 
BRANCH   9  10
ATOM     10  C   UNL     1      14.725  43.195  17.962  1.00  0.00     0.053 C 
BRANCH  10  11
ATOM     11  C   UNL     1      13.683  44.236  18.224  1.00  0.00     0.041 C 
ATOM     12  O   UNL     1      13.886  45.434  17.893  1.00  0.00    -0.550 OA
ATOM     13  O   UNL     1      12.506  43.891  18.875  1.00  0.00    -0.550 OA
ENDBRANCH  10  11
ENDBRANCH   9  10
ENDBRANCH   8   9
ENDBRANCH   1   8
TORSDOF 8
ENDMDL
MODEL 5
REMARK VINA RESULT:    -2.184      1.293      4.316
REMARK INTER + INTRA:          -3.707
REMARK INTER:                  -3.152
REMARK INTRA:                  -0.556
REMARK UNBOUND:                -0.502
REMARK SMILES O=C([O-])CCCCCCCC(=O)[O-]
REMARK SMILES IDX 7 1 6 2 5 3 4 4 2 5 1 6 3 7 8 8 9 9 10 10 11 11 12 12 13 13
REMARK H PARENT
REMARK Flexibility Score: inf
ROOT
ATOM      1  C   UNL     1      12.725  40.751  18.712  1.00  0.00     0.000 C 
ENDROOT
BRANCH   1   2
ATOM      2  C   UNL     1      11.875  39.923  19.693  1.00  0.00     0.000 C 
BRANCH   2   3
ATOM      3  C   UNL     1      12.380  39.917  21.151  1.00  0.00     0.006 C 
BRANCH   3   4
ATOM      4  C   UNL     1      12.691  41.309  21.725  1.00  0.00     0.053 C 
BRANCH   4   5
ATOM      5  C   UNL     1      14.164  41.534  21.883  1.00  0.00     0.041 C 
ATOM      6  O   UNL     1      14.859  40.728  22.557  1.00  0.00    -0.550 OA
ATOM      7  O   UNL     1      14.775  42.613  21.258  1.00  0.00    -0.550 OA
ENDBRANCH   4   5
ENDBRANCH   3   4
ENDBRANCH   2   3
ENDBRANCH   1   2
BRANCH   1   8
ATOM      8  C   UNL     1      11.985  41.980  18.168  1.00  0.00     0.000 C 
BRANCH   8   9
ATOM      9  C   UNL     1      12.726  43.272  18.529  1.00  0.00     0.006 C 
BRANCH   9  10
ATOM     10  C   UNL     1      14.117  43.306  17.889  1.00  0.00     0.053 C 
BRANCH  10  11
ATOM     11  C   UNL     1      14.851  44.544  18.299  1.00  0.00     0.041 C 
ATOM     12  O   UNL     1      14.362  45.679  18.058  1.00  0.00    -0.550 OA
ATOM     13  O   UNL     1      16.097  44.445  18.903  1.00  0.00    -0.550 OA
ENDBRANCH  10  11
ENDBRANCH   9  10
ENDBRANCH   8   9
ENDBRANCH   1   8
TORSDOF 8
ENDMDL
MODEL 6
REMARK VINA RESULT:    -1.818      2.137      3.179
REMARK INTER + INTRA:          -3.171
REMARK INTER:                  -3.186
REMARK INTRA:                   0.016
REMARK UNBOUND:                -0.502
REMARK SMILES O=C([O-])CCCCCCCC(=O)[O-]
REMARK SMILES IDX 7 1 6 2 5 3 4 4 2 5 1 6 3 7 8 8 9 9 10 10 11 11 12 12 13 13
REMARK H PARENT
REMARK Flexibility Score: inf
ROOT
ATOM      1  C   UNL     1      15.783  44.304  20.204  1.00  0.00     0.000 C 
ENDROOT
BRANCH   1   2
ATOM      2  C   UNL     1      15.425  44.945  18.851  1.00  0.00     0.000 C 
BRANCH   2   3
ATOM      3  C   UNL     1      13.927  44.897  18.481  1.00  0.00     0.006 C 
BRANCH   3   4
ATOM      4  C   UNL     1      13.461  43.564  17.875  1.00  0.00     0.053 C 
BRANCH   4   5
ATOM      5  C   UNL     1      12.394  42.914  18.703  1.00  0.00     0.041 C 
ATOM      6  O   UNL     1      11.986  41.758  18.415  1.00  0.00    -0.550 OA
ATOM      7  O   UNL     1      11.875  43.571  19.811  1.00  0.00    -0.550 OA
ENDBRANCH   4   5
ENDBRANCH   3   4
ENDBRANCH   2   3
ENDBRANCH   1   2
BRANCH   1   8
ATOM      8  C   UNL     1      15.509  42.794  20.243  1.00  0.00     0.000 C 
BRANCH   8   9
ATOM      9  C   UNL     1      14.416  42.461  21.265  1.00  0.00     0.006 C 
BRANCH   9  10
ATOM     10  C   UNL     1      14.218  40.946  21.385  1.00  0.00     0.053 C 
BRANCH  10  11
ATOM     11  C   UNL     1      12.764  40.616  21.500  1.00  0.00     0.041 C 
ATOM     12  O   UNL     1      12.002  41.343  22.190  1.00  0.00    -0.550 OA
ATOM     13  O   UNL     1      12.259  39.479  20.882  1.00  0.00    -0.550 OA
ENDBRANCH  10  11
ENDBRANCH   9  10
ENDBRANCH   8   9
ENDBRANCH   1   8
TORSDOF 8
ENDMDL
MODEL 7
REMARK VINA RESULT:    -1.636     13.719     14.974
REMARK INTER + INTRA:          -2.904
REMARK INTER:                  -2.743
REMARK INTRA:                  -0.160
REMARK UNBOUND:                -0.502
REMARK SMILES O=C([O-])CCCCCCCC(=O)[O-]
REMARK SMILES IDX 7 1 6 2 5 3 4 4 2 5 1 6 3 7 8 8 9 9 10 10 11 11 12 12 13 13
REMARK H PARENT
REMARK Flexibility Score: inf
ROOT
ATOM      1  C   UNL     1      12.731  47.460  32.947  1.00  0.00     0.000 C 
ENDROOT
BRANCH   1   2
ATOM      2  C   UNL     1      11.889  46.411  32.197  1.00  0.00     0.000 C 
BRANCH   2   3
ATOM      3  C   UNL     1      12.607  45.718  31.020  1.00  0.00     0.006 C 
BRANCH   3   4
ATOM      4  C   UNL     1      11.875  45.827  29.673  1.00  0.00     0.053 C 
BRANCH   4   5
ATOM      5  C   UNL     1      12.830  45.913  28.521  1.00  0.00     0.041 C 
ATOM      6  O   UNL     1      14.061  45.716  28.703  1.00  0.00    -0.550 OA
ATOM      7  O   UNL     1      12.358  46.178  27.242  1.00  0.00    -0.550 OA
ENDBRANCH   4   5
ENDBRANCH   3   4
ENDBRANCH   2   3
ENDBRANCH   1   2
BRANCH   1   8
ATOM      8  C   UNL     1      11.876  48.469  33.725  1.00  0.00     0.000 C 
BRANCH   8   9
ATOM      9  C   UNL     1      12.618  48.975  34.968  1.00  0.00     0.006 C 
BRANCH   9  10
ATOM     10  C   UNL     1      11.971  48.441  36.250  1.00  0.00     0.053 C 
BRANCH  10  11
ATOM     11  C   UNL     1      12.628  49.037  37.454  1.00  0.00     0.041 C 
ATOM     12  O   UNL     1      12.114  50.034  38.028  1.00  0.00    -0.550 OA
ATOM     13  O   UNL     1      13.832  48.521  37.916  1.00  0.00    -0.550 OA
ENDBRANCH  10  11
ENDBRANCH   9  10
ENDBRANCH   8   9
ENDBRANCH   1   8
TORSDOF 8
ENDMDL
MODEL 8
REMARK VINA RESULT:    -1.392     11.407     12.741
REMARK INTER + INTRA:          -2.544
REMARK INTER:                  -2.282
REMARK INTRA:                  -0.262
REMARK UNBOUND:                -0.502
REMARK SMILES O=C([O-])CCCCCCCC(=O)[O-]
REMARK SMILES IDX 7 1 6 2 5 3 4 4 2 5 1 6 3 7 8 8 9 9 10 10 11 11 12 12 13 13
REMARK H PARENT
REMARK Flexibility Score: inf
ROOT
ATOM      1  C   UNL     1      23.481  36.985  19.946  1.00  0.00     0.000 C 
ENDROOT
BRANCH   1   2
ATOM      2  C   UNL     1      22.560  36.972  21.180  1.00  0.00     0.000 C 
BRANCH   2   3
ATOM      3  C   UNL     1      22.441  38.320  21.920  1.00  0.00     0.006 C 
BRANCH   3   4
ATOM      4  C   UNL     1      22.438  38.208  23.453  1.00  0.00     0.053 C 
BRANCH   4   5
ATOM      5  C   UNL     1      23.575  38.963  24.073  1.00  0.00     0.041 C 
ATOM      6  O   UNL     1      23.954  40.056  23.577  1.00  0.00    -0.550 OA
ATOM      7  O   UNL     1      24.193  38.475  25.217  1.00  0.00    -0.550 OA
ENDBRANCH   4   5
ENDBRANCH   3   4
ENDBRANCH   2   3
ENDBRANCH   1   2
BRANCH   1   8
ATOM      8  C   UNL     1      23.666  35.595  19.322  1.00  0.00     0.000 C 
BRANCH   8   9
ATOM      9  C   UNL     1      24.393  35.690  17.975  1.00  0.00     0.006 C 
BRANCH   9  10
ATOM     10  C   UNL     1      25.707  34.903  18.003  1.00  0.00     0.053 C 
BRANCH  10  11
ATOM     11  C   UNL     1      26.875  35.831  17.899  1.00  0.00     0.041 C 
ATOM     12  O   UNL     1      28.048  35.373  17.876  1.00  0.00    -0.550 OA
ATOM     13  O   UNL     1      26.672  37.205  17.876  1.00  0.00    -0.550 OA
ENDBRANCH  10  11
ENDBRANCH   9  10
ENDBRANCH   8   9
ENDBRANCH   1   8
TORSDOF 8
ENDMDL
MODEL 9
REMARK VINA RESULT:    -1.289      2.011      3.470
REMARK INTER + INTRA:          -2.394
REMARK INTER:                  -2.436
REMARK INTRA:                   0.043
REMARK UNBOUND:                -0.502
REMARK SMILES O=C([O-])CCCCCCCC(=O)[O-]
REMARK SMILES IDX 7 1 6 2 5 3 4 4 2 5 1 6 3 7 8 8 9 9 10 10 11 11 12 12 13 13
REMARK H PARENT
REMARK Flexibility Score: inf
ROOT
ATOM      1  C   UNL     1      12.922  39.879  20.064  1.00  0.00     0.000 C 
ENDROOT
BRANCH   1   2
ATOM      2  C   UNL     1      11.954  40.353  18.965  1.00  0.00     0.000 C 
BRANCH   2   3
ATOM      3  C   UNL     1      12.569  41.306  17.919  1.00  0.00     0.006 C 
BRANCH   3   4
ATOM      4  C   UNL     1      12.290  42.797  18.170  1.00  0.00     0.053 C 
BRANCH   4   5
ATOM      5  C   UNL     1      13.516  43.637  17.980  1.00  0.00     0.041 C 
ATOM      6  O   UNL     1      14.647  43.093  17.875  1.00  0.00    -0.550 OA
ATOM      7  O   UNL     1      13.406  45.018  17.886  1.00  0.00    -0.550 OA
ENDBRANCH   4   5
ENDBRANCH   3   4
ENDBRANCH   2   3
ENDBRANCH   1   2
BRANCH   1   8
ATOM      8  C   UNL     1      13.040  40.873  21.227  1.00  0.00     0.000 C 
BRANCH   8   9
ATOM      9  C   UNL     1      14.383  41.612  21.185  1.00  0.00     0.006 C 
BRANCH   9  10
ATOM     10  C   UNL     1      14.179  43.110  20.941  1.00  0.00     0.053 C 
BRANCH  10  11
ATOM     11  C   UNL     1      15.424  43.869  21.275  1.00  0.00     0.041 C 
ATOM     12  O   UNL     1      16.290  44.089  20.388  1.00  0.00    -0.550 OA
ATOM     13  O   UNL     1      15.651  44.292  22.578  1.00  0.00    -0.550 OA
ENDBRANCH  10  11
ENDBRANCH   9  10
ENDBRANCH   8   9
ENDBRANCH   1   8
TORSDOF 8
ENDMDL
