MODEL 1
REMARK VINA RESULT:    -5.496      0.000      0.000
REMARK INTER + INTRA:          -6.039
REMARK INTER:                  -5.817
REMARK INTRA:                  -0.222
REMARK UNBOUND:                -0.222
REMARK SMILES C=C(C)[C@@H]1CC[C@H](C)[C@]12CC=C(C)CC2
REMARK SMILES IDX 8 1 7 2 6 3 5 4 4 5 9 6 15 7 14 8 12 9 11 10 10 11 13 12
REMARK SMILES IDX 2 13 1 14 3 15
REMARK H PARENT
REMARK Flexibility Score: inf
ROOT
ATOM      1  C   UNL     1      29.740   6.667  30.683  1.00  0.00     0.008 C 
ATOM      2  C   UNL     1      30.879   7.703  30.666  1.00  0.00    -0.007 C 
ATOM      3  C   UNL     1      30.692   8.765  29.577  1.00  0.00     0.004 C 
ATOM      4  C   UNL     1      31.330  10.045  30.111  1.00  0.00     0.009 C 
ATOM      5  C   UNL     1      31.968   9.681  31.463  1.00  0.00     0.021 C 
ATOM      6  C   UNL     1      31.138   8.469  31.997  1.00  0.00    -0.017 C 
ATOM      7  C   UNL     1      31.973   7.563  32.981  1.00  0.00     0.012 C 
ATOM      8  C   UNL     1      31.446   7.509  34.427  1.00  0.00     0.031 C 
ATOM      9  C   UNL     1      30.878   8.834  34.866  1.00  0.00    -0.077 C 
ATOM     10  C   UNL     1      30.043   9.482  34.040  1.00  0.00    -0.027 C 
ATOM     11  C   UNL     1      29.797   8.936  32.662  1.00  0.00     0.035 C 
ATOM     12  C   UNL     1      31.189   9.367  36.232  1.00  0.00     0.039 C 
ENDROOT
BRANCH   5  13
ATOM     13  C   UNL     1      32.165  10.868  32.413  1.00  0.00    -0.077 C 
ATOM     14  C   UNL     1      33.125  10.814  33.352  1.00  0.00     0.008 C 
ATOM     15  C   UNL     1      31.384  12.145  32.266  1.00  0.00     0.039 C 
ENDBRANCH   5  13
TORSDOF 1
ENDMDL
MODEL 2
REMARK VINA RESULT:    -5.160      1.175      3.632
REMARK INTER + INTRA:          -5.683
REMARK INTER:                  -5.392
REMARK INTRA:                  -0.291
REMARK UNBOUND:                -0.222
REMARK SMILES C=C(C)[C@@H]1CC[C@H](C)[C@]12CC=C(C)CC2
REMARK SMILES IDX 8 1 7 2 6 3 5 4 4 5 9 6 15 7 14 8 12 9 11 10 10 11 13 12
REMARK SMILES IDX 2 13 1 14 3 15
REMARK H PARENT
REMARK Flexibility Score: inf
ROOT
ATOM      1  C   UNL     1      31.197   7.795  35.162  1.00  0.00     0.008 C 
ATOM      2  C   UNL     1      31.234   7.468  33.658  1.00  0.00    -0.007 C 
ATOM      3  C   UNL     1      30.001   6.685  33.194  1.00  0.00     0.004 C 
ATOM      4  C   UNL     1      29.756   7.088  31.743  1.00  0.00     0.009 C 
ATOM      5  C   UNL     1      30.913   8.025  31.351  1.00  0.00     0.021 C 
ATOM      6  C   UNL     1      31.384   8.679  32.690  1.00  0.00    -0.017 C 
ATOM      7  C   UNL     1      32.893   9.134  32.632  1.00  0.00     0.012 C 
ATOM      8  C   UNL     1      33.125  10.651  32.760  1.00  0.00     0.031 C 
ATOM      9  C   UNL     1      32.037  11.444  32.084  1.00  0.00    -0.077 C 
ATOM     10  C   UNL     1      30.758  11.100  32.303  1.00  0.00    -0.027 C 
ATOM     11  C   UNL     1      30.453   9.869  33.110  1.00  0.00     0.035 C 
ATOM     12  C   UNL     1      32.388  12.636  31.247  1.00  0.00     0.039 C 
ENDROOT
BRANCH   5  13
ATOM     13  C   UNL     1      30.599   8.967  30.183  1.00  0.00    -0.077 C 
ATOM     14  C   UNL     1      31.583   9.332  29.343  1.00  0.00     0.008 C 
ATOM     15  C   UNL     1      29.199   9.421  29.878  1.00  0.00     0.039 C 
ENDBRANCH   5  13
TORSDOF 1
ENDMDL
MODEL 3
REMARK VINA RESULT:    -5.088      1.471      2.945
REMARK INTER + INTRA:          -5.607
REMARK INTER:                  -5.319
REMARK INTRA:                  -0.288
REMARK UNBOUND:                -0.222
REMARK SMILES C=C(C)[C@@H]1CC[C@H](C)[C@]12CC=C(C)CC2
REMARK SMILES IDX 8 1 7 2 6 3 5 4 4 5 9 6 15 7 14 8 12 9 11 10 10 11 13 12
REMARK SMILES IDX 2 13 1 14 3 15
REMARK H PARENT
REMARK Flexibility Score: inf
ROOT
ATOM      1  C   UNL     1      31.629   9.759  30.601  1.00  0.00     0.008 C 
ATOM      2  C   UNL     1      32.173  10.135  31.992  1.00  0.00    -0.007 C 
ATOM      3  C   UNL     1      32.224  11.650  32.216  1.00  0.00     0.004 C 
ATOM      4  C   UNL     1      32.006  11.872  33.710  1.00  0.00     0.009 C 
ATOM      5  C   UNL     1      31.931  10.474  34.350  1.00  0.00     0.021 C 
ATOM      6  C   UNL     1      31.423   9.528  33.215  1.00  0.00    -0.017 C 
ATOM      7  C   UNL     1      31.879   8.035  33.436  1.00  0.00     0.012 C 
ATOM      8  C   UNL     1      30.737   7.028  33.664  1.00  0.00     0.031 C 
ATOM      9  C   UNL     1      29.608   7.632  34.459  1.00  0.00    -0.077 C 
ATOM     10  C   UNL     1      29.158   8.849  34.116  1.00  0.00    -0.027 C 
ATOM     11  C   UNL     1      29.868   9.621  33.039  1.00  0.00     0.035 C 
ATOM     12  C   UNL     1      28.961   6.845  35.558  1.00  0.00     0.039 C 
ENDROOT
BRANCH   5  13
ATOM     13  C   UNL     1      31.184  10.428  35.688  1.00  0.00    -0.077 C 
ATOM     14  C   UNL     1      31.570   9.554  36.633  1.00  0.00     0.008 C 
ATOM     15  C   UNL     1      30.090  11.403  36.025  1.00  0.00     0.039 C 
ENDBRANCH   5  13
TORSDOF 1
ENDMDL
MODEL 4
REMARK VINA RESULT:    -5.070      1.277      4.263
REMARK INTER + INTRA:          -5.588
REMARK INTER:                  -5.300
REMARK INTRA:                  -0.288
REMARK UNBOUND:                -0.222
REMARK SMILES C=C(C)[C@@H]1CC[C@H](C)[C@]12CC=C(C)CC2
REMARK SMILES IDX 8 1 7 2 6 3 5 4 4 5 9 6 15 7 14 8 12 9 11 10 10 11 13 12
REMARK SMILES IDX 2 13 1 14 3 15
REMARK H PARENT
REMARK Flexibility Score: inf
ROOT
ATOM      1  C   UNL     1      30.820   6.442  36.565  1.00  0.00     0.008 C 
ATOM      2  C   UNL     1      30.519   7.916  36.238  1.00  0.00    -0.007 C 
ATOM      3  C   UNL     1      31.373   8.888  37.058  1.00  0.00     0.004 C 
ATOM      4  C   UNL     1      31.579  10.123  36.185  1.00  0.00     0.009 C 
ATOM      5  C   UNL     1      30.755   9.891  34.905  1.00  0.00     0.021 C 
ATOM      6  C   UNL     1      30.669   8.339  34.747  1.00  0.00    -0.017 C 
ATOM      7  C   UNL     1      29.393   7.894  33.933  1.00  0.00     0.012 C 
ATOM      8  C   UNL     1      29.683   7.194  32.592  1.00  0.00     0.031 C 
ATOM      9  C   UNL     1      30.891   7.777  31.906  1.00  0.00    -0.077 C 
ATOM     10  C   UNL     1      32.003   7.984  32.627  1.00  0.00    -0.027 C 
ATOM     11  C   UNL     1      31.975   7.750  34.111  1.00  0.00     0.035 C 
ATOM     12  C   UNL     1      30.859   8.042  30.431  1.00  0.00     0.039 C 
ENDROOT
BRANCH   5  13
ATOM     13  C   UNL     1      31.232  10.695  33.689  1.00  0.00    -0.077 C 
ATOM     14  C   UNL     1      30.338  11.104  32.774  1.00  0.00     0.008 C 
ATOM     15  C   UNL     1      32.662  11.134  33.534  1.00  0.00     0.039 C 
ENDBRANCH   5  13
TORSDOF 1
ENDMDL
MODEL 5
REMARK VINA RESULT:    -5.047      3.813      6.776
REMARK INTER + INTRA:          -5.564
REMARK INTER:                  -5.275
REMARK INTRA:                  -0.289
REMARK UNBOUND:                -0.222
REMARK SMILES C=C(C)[C@@H]1CC[C@H](C)[C@]12CC=C(C)CC2
REMARK SMILES IDX 8 1 7 2 6 3 5 4 4 5 9 6 15 7 14 8 12 9 11 10 10 11 13 12
REMARK SMILES IDX 2 13 1 14 3 15
REMARK H PARENT
REMARK Flexibility Score: inf
ROOT
ATOM      1  C   UNL     1      30.500  12.601  24.597  1.00  0.00     0.008 C 
ATOM      2  C   UNL     1      31.403  11.589  25.327  1.00  0.00    -0.007 C 
ATOM      3  C   UNL     1      32.385  12.264  26.290  1.00  0.00     0.004 C 
ATOM      4  C   UNL     1      32.619  11.275  27.428  1.00  0.00     0.009 C 
ATOM      5  C   UNL     1      31.846   9.996  27.059  1.00  0.00     0.021 C 
ATOM      6  C   UNL     1      30.678  10.474  26.137  1.00  0.00    -0.017 C 
ATOM      7  C   UNL     1      30.187   9.337  25.161  1.00  0.00     0.012 C 
ATOM      8  C   UNL     1      28.735   8.871  25.377  1.00  0.00     0.031 C 
ATOM      9  C   UNL     1      28.356   8.875  26.835  1.00  0.00    -0.077 C 
ATOM     10  C   UNL     1      28.666   9.949  27.578  1.00  0.00    -0.027 C 
ATOM     11  C   UNL     1      29.484  11.054  26.972  1.00  0.00     0.035 C 
ATOM     12  C   UNL     1      27.582   7.728  27.411  1.00  0.00     0.039 C 
ENDROOT
BRANCH   5  13
ATOM     13  C   UNL     1      31.478   9.109  28.254  1.00  0.00    -0.077 C 
ATOM     14  C   UNL     1      31.404   7.777  28.093  1.00  0.00     0.008 C 
ATOM     15  C   UNL     1      31.294   9.670  29.637  1.00  0.00     0.039 C 
ENDBRANCH   5  13
TORSDOF 1
ENDMDL
MODEL 6
REMARK VINA RESULT:    -5.038      1.763      5.049
REMARK INTER + INTRA:          -5.554
REMARK INTER:                  -5.267
REMARK INTRA:                  -0.287
REMARK UNBOUND:                -0.222
REMARK SMILES C=C(C)[C@@H]1CC[C@H](C)[C@]12CC=C(C)CC2
REMARK SMILES IDX 8 1 7 2 6 3 5 4 4 5 9 6 15 7 14 8 12 9 11 10 10 11 13 12
REMARK SMILES IDX 2 13 1 14 3 15
REMARK H PARENT
REMARK Flexibility Score: inf
ROOT
ATOM      1  C   UNL     1      32.436  11.486  33.515  1.00  0.00     0.008 C 
ATOM      2  C   UNL     1      32.468  10.284  32.553  1.00  0.00    -0.007 C 
ATOM      3  C   UNL     1      31.850   9.023  33.165  1.00  0.00     0.004 C 
ATOM      4  C   UNL     1      31.246   8.234  32.006  1.00  0.00     0.009 C 
ATOM      5  C   UNL     1      31.612   9.001  30.722  1.00  0.00     0.021 C 
ATOM      6  C   UNL     1      31.788  10.489  31.167  1.00  0.00    -0.017 C 
ATOM      7  C   UNL     1      32.754  11.287  30.209  1.00  0.00     0.012 C 
ATOM      8  C   UNL     1      32.099  12.450  29.442  1.00  0.00     0.031 C 
ATOM      9  C   UNL     1      30.681  12.132  29.044  1.00  0.00    -0.077 C 
ATOM     10  C   UNL     1      29.860  11.597  29.960  1.00  0.00    -0.027 C 
ATOM     11  C   UNL     1      30.406  11.217  31.308  1.00  0.00     0.035 C 
ATOM     12  C   UNL     1      30.191  12.484  27.672  1.00  0.00     0.039 C 
ENDROOT
BRANCH   5  13
ATOM     13  C   UNL     1      30.681   8.731  29.534  1.00  0.00    -0.077 C 
ATOM     14  C   UNL     1      31.170   8.780  28.284  1.00  0.00     0.008 C 
ATOM     15  C   UNL     1      29.250   8.307  29.722  1.00  0.00     0.039 C 
ENDBRANCH   5  13
TORSDOF 1
ENDMDL
MODEL 7
REMARK VINA RESULT:    -5.019      1.736      4.879
REMARK INTER + INTRA:          -5.535
REMARK INTER:                  -5.275
REMARK INTRA:                  -0.260
REMARK UNBOUND:                -0.222
REMARK SMILES C=C(C)[C@@H]1CC[C@H](C)[C@]12CC=C(C)CC2
REMARK SMILES IDX 8 1 7 2 6 3 5 4 4 5 9 6 15 7 14 8 12 9 11 10 10 11 13 12
REMARK SMILES IDX 2 13 1 14 3 15
REMARK H PARENT
REMARK Flexibility Score: inf
ROOT
ATOM      1  C   UNL     1      32.569  12.640  31.258  1.00  0.00     0.008 C 
ATOM      2  C   UNL     1      32.741  11.118  31.416  1.00  0.00    -0.007 C 
ATOM      3  C   UNL     1      32.857  10.687  32.882  1.00  0.00     0.004 C 
ATOM      4  C   UNL     1      32.259   9.285  32.966  1.00  0.00     0.009 C 
ATOM      5  C   UNL     1      31.894   8.881  31.526  1.00  0.00     0.021 C 
ATOM      6  C   UNL     1      31.637  10.227  30.774  1.00  0.00    -0.017 C 
ATOM      7  C   UNL     1      31.888  10.099  29.222  1.00  0.00     0.012 C 
ATOM      8  C   UNL     1      30.645  10.314  28.338  1.00  0.00     0.031 C 
ATOM      9  C   UNL     1      29.398   9.767  28.982  1.00  0.00    -0.077 C 
ATOM     10  C   UNL     1      29.163  10.048  30.273  1.00  0.00    -0.027 C 
ATOM     11  C   UNL     1      30.203  10.788  31.068  1.00  0.00     0.035 C 
ATOM     12  C   UNL     1      28.411   8.991  28.164  1.00  0.00     0.039 C 
ENDROOT
BRANCH   5  13
ATOM     13  C   UNL     1      30.808   7.803  31.425  1.00  0.00    -0.077 C 
ATOM     14  C   UNL     1      30.787   6.982  30.361  1.00  0.00     0.008 C 
ATOM     15  C   UNL     1      29.818   7.562  32.531  1.00  0.00     0.039 C 
ENDBRANCH   5  13
TORSDOF 1
ENDMDL
MODEL 8
REMARK VINA RESULT:    -4.955      2.008      4.386
REMARK INTER + INTRA:          -5.467
REMARK INTER:                  -5.192
REMARK INTRA:                  -0.275
REMARK UNBOUND:                -0.222
REMARK SMILES C=C(C)[C@@H]1CC[C@H](C)[C@]12CC=C(C)CC2
REMARK SMILES IDX 8 1 7 2 6 3 5 4 4 5 9 6 15 7 14 8 12 9 11 10 10 11 13 12
REMARK SMILES IDX 2 13 1 14 3 15
REMARK H PARENT
REMARK Flexibility Score: inf
ROOT
ATOM      1  C   UNL     1      32.199  11.781  33.003  1.00  0.00     0.008 C 
ATOM      2  C   UNL     1      31.469  10.431  33.132  1.00  0.00    -0.007 C 
ATOM      3  C   UNL     1      32.317   9.254  32.637  1.00  0.00     0.004 C 
ATOM      4  C   UNL     1      31.900   8.045  33.470  1.00  0.00     0.009 C 
ATOM      5  C   UNL     1      30.743   8.515  34.370  1.00  0.00     0.021 C 
ATOM      6  C   UNL     1      30.963  10.051  34.554  1.00  0.00    -0.017 C 
ATOM      7  C   UNL     1      29.617  10.812  34.865  1.00  0.00     0.012 C 
ATOM      8  C   UNL     1      29.550  11.484  36.249  1.00  0.00     0.031 C 
ATOM      9  C   UNL     1      30.255  10.670  37.302  1.00  0.00    -0.077 C 
ATOM     10  C   UNL     1      31.475  10.182  37.029  1.00  0.00    -0.027 C 
ATOM     11  C   UNL     1      32.045  10.351  35.648  1.00  0.00     0.035 C 
ATOM     12  C   UNL     1      29.628  10.484  38.650  1.00  0.00     0.039 C 
ENDROOT
BRANCH   5  13
ATOM     13  C   UNL     1      30.545   7.677  35.639  1.00  0.00    -0.077 C 
ATOM     14  C   UNL     1      29.317   7.561  36.171  1.00  0.00     0.008 C 
ATOM     15  C   UNL     1      31.667   6.890  36.258  1.00  0.00     0.039 C 
ENDBRANCH   5  13
TORSDOF 1
ENDMDL
MODEL 9
REMARK VINA RESULT:    -4.942      2.638      6.129
REMARK INTER + INTRA:          -5.453
REMARK INTER:                  -5.165
REMARK INTRA:                  -0.288
REMARK UNBOUND:                -0.222
REMARK SMILES C=C(C)[C@@H]1CC[C@H](C)[C@]12CC=C(C)CC2
REMARK SMILES IDX 8 1 7 2 6 3 5 4 4 5 9 6 15 7 14 8 12 9 11 10 10 11 13 12
REMARK SMILES IDX 2 13 1 14 3 15
REMARK H PARENT
REMARK Flexibility Score: inf
ROOT
ATOM      1  C   UNL     1      32.483  12.146  31.500  1.00  0.00     0.008 C 
ATOM      2  C   UNL     1      32.345  10.835  30.704  1.00  0.00    -0.007 C 
ATOM      3  C   UNL     1      31.639   9.733  31.500  1.00  0.00     0.004 C 
ATOM      4  C   UNL     1      30.900   8.871  30.480  1.00  0.00     0.009 C 
ATOM      5  C   UNL     1      31.270   9.427  29.093  1.00  0.00     0.021 C 
ATOM      6  C   UNL     1      31.616  10.932  29.331  1.00  0.00    -0.017 C 
ATOM      7  C   UNL     1      32.603  11.497  28.239  1.00  0.00     0.012 C 
ATOM      8  C   UNL     1      32.027  12.616  27.352  1.00  0.00     0.031 C 
ATOM      9  C   UNL     1      30.565  12.400  27.056  1.00  0.00    -0.077 C 
ATOM     10  C   UNL     1      29.745  12.074  28.067  1.00  0.00    -0.027 C 
ATOM     11  C   UNL     1      30.322  11.813  29.430  1.00  0.00     0.035 C 
ATOM     12  C   UNL     1      30.040  12.624  25.670  1.00  0.00     0.039 C 
ENDROOT
BRANCH   5  13
ATOM     13  C   UNL     1      30.255   9.107  27.989  1.00  0.00    -0.077 C 
ATOM     14  C   UNL     1      30.684   8.920  26.729  1.00  0.00     0.008 C 
ATOM     15  C   UNL     1      28.797   8.891  28.284  1.00  0.00     0.039 C 
ENDBRANCH   5  13
TORSDOF 1
ENDMDL
