MODEL 1
REMARK VINA RESULT:    -3.875      0.000      0.000
REMARK INTER + INTRA:          -5.188
REMARK INTER:                  -5.460
REMARK INTRA:                   0.272
REMARK UNBOUND:                 0.272
REMARK SMILES CC1=CCC(=C(C)C)C(=O)CC(C)=CCC1
REMARK SMILES IDX 12 1 14 2 13 3 15 4 16 5 2 6 1 7 3 8 11 10 9 11 10 12 5 13
REMARK SMILES IDX 6 14 7 15 8 16 4 17
REMARK H PARENT
REMARK Flexibility Score: 60.00
ROOT
ATOM      1  C   UNL     1      59.842  65.963  34.174  1.00  0.00    -0.070 C 
ATOM      2  C   UNL     1      59.868  65.757  32.839  1.00  0.00    -0.027 C 
ATOM      3  C   UNL     1      59.995  64.763  35.076  1.00  0.00     0.039 C 
ENDROOT
BRANCH   2   4
ATOM      4  C   UNL     1      59.638  66.812  31.778  1.00  0.00     0.032 C 
BRANCH   4   5
ATOM      5  C   UNL     1      60.839  67.745  31.519  1.00  0.00     0.034 C 
BRANCH   5   6
ATOM      6  C   UNL     1      60.485  69.218  31.623  1.00  0.00    -0.077 C 
ATOM      7  C   UNL     1      59.561  69.792  30.579  1.00  0.00     0.039 C 
ATOM      8  C   UNL     1      60.998  70.063  32.550  1.00  0.00    -0.023 CG0
ATOM      9  G   UNL     1      61.923  69.711  33.698  1.00  0.00     0.000 G0
ENDBRANCH   5   6
ENDBRANCH   4   5
ENDBRANCH   2   4
BRANCH   1  10
ATOM     10  C   UNL     1      59.577  67.315  34.803  1.00  0.00     0.111 C 
BRANCH  10  11
ATOM     11  C   UNL     1      60.852  67.977  35.257  1.00  0.00     0.163 C 
ATOM     12  O   UNL     1      61.660  67.298  35.948  1.00  0.00    -0.294 OA
BRANCH  11  13
ATOM     13  C   UNL     1      61.157  69.410  34.971  1.00  0.00    -0.002 C 
ATOM     14  C   UNL     1      60.689  70.402  35.788  1.00  0.00    -0.069 C 
ATOM     15  C   UNL     1      60.846  71.866  35.440  1.00  0.00     0.039 C 
ATOM     16  C   UNL     1      59.986  70.079  37.089  1.00  0.00     0.039 C 
BRANCH  13  17
ATOM     17  C   UNL     1      61.920  69.717  33.692  1.00  0.00     0.066 CG0
ATOM     18  G   UNL     1      60.998  70.068  32.541  1.00  0.00     0.000 G0
ENDBRANCH  13  17
ENDBRANCH  11  13
ENDBRANCH  10  11
ENDBRANCH   1  10
TORSDOF 0
ENDMDL
MODEL 2
REMARK VINA RESULT:    -3.864     18.124     20.003
REMARK INTER + INTRA:          -5.173
REMARK INTER:                  -5.370
REMARK INTRA:                   0.197
REMARK UNBOUND:                 0.272
REMARK SMILES CC1=CCC(=C(C)C)C(=O)CC(C)=CCC1
REMARK SMILES IDX 12 1 14 2 13 3 15 4 16 5 2 6 1 7 3 8 11 10 9 11 10 12 5 13
REMARK SMILES IDX 6 14 7 15 8 16 4 17
REMARK H PARENT
REMARK Flexibility Score: 60.00
ROOT
ATOM      1  C   UNL     1      43.248  58.966  28.525  1.00  0.00    -0.070 C 
ATOM      2  C   UNL     1      43.644  60.223  28.822  1.00  0.00    -0.027 C 
ATOM      3  C   UNL     1      43.025  58.621  27.073  1.00  0.00     0.039 C 
ENDROOT
BRANCH   2   4
ATOM      4  C   UNL     1      43.826  60.786  30.216  1.00  0.00     0.032 C 
BRANCH   4   5
ATOM      5  C   UNL     1      45.165  60.423  30.891  1.00  0.00     0.034 C 
BRANCH   5   6
ATOM      6  C   UNL     1      45.003  59.961  32.328  1.00  0.00    -0.077 C 
ATOM      7  C   UNL     1      44.591  60.988  33.352  1.00  0.00     0.039 C 
ATOM      8  C   UNL     1      45.271  58.706  32.762  1.00  0.00    -0.023 CG0
ATOM      9  G   UNL     1      45.679  57.513  31.918  1.00  0.00     0.000 G0
ENDBRANCH   5   6
ENDBRANCH   4   5
ENDBRANCH   2   4
BRANCH   1  10
ATOM     10  C   UNL     1      42.932  57.922  29.576  1.00  0.00     0.111 C 
BRANCH  10  11
ATOM     11  C   UNL     1      44.138  57.084  29.909  1.00  0.00     0.163 C 
ATOM     12  O   UNL     1      44.817  56.616  28.954  1.00  0.00    -0.294 OA
BRANCH  11  13
ATOM     13  C   UNL     1      44.516  56.743  31.312  1.00  0.00    -0.002 C 
ATOM     14  C   UNL     1      43.772  55.859  32.042  1.00  0.00    -0.069 C 
ATOM     15  C   UNL     1      44.034  55.613  33.512  1.00  0.00     0.039 C 
ATOM     16  C   UNL     1      42.641  55.077  31.410  1.00  0.00     0.039 C 
BRANCH  13  17
ATOM     17  C   UNL     1      45.695  57.491  31.916  1.00  0.00     0.066 CG0
ATOM     18  G   UNL     1      45.258  58.673  32.758  1.00  0.00     0.000 G0
ENDBRANCH  13  17
ENDBRANCH  11  13
ENDBRANCH  10  11
ENDBRANCH   1  10
TORSDOF 0
ENDMDL
MODEL 3
REMARK VINA RESULT:    -3.863     18.056     19.674
REMARK INTER + INTRA:          -5.171
REMARK INTER:                  -5.393
REMARK INTRA:                   0.222
REMARK UNBOUND:                 0.272
REMARK SMILES CC1=CCC(=C(C)C)C(=O)CC(C)=CCC1
REMARK SMILES IDX 12 1 14 2 13 3 15 4 16 5 2 6 1 7 3 8 11 10 9 11 10 12 5 13
REMARK SMILES IDX 6 14 7 15 8 16 4 17
REMARK H PARENT
REMARK Flexibility Score: 60.00
ROOT
ATOM      1  C   UNL     1      44.577  55.113  27.786  1.00  0.00    -0.070 C 
ATOM      2  C   UNL     1      44.298  56.072  26.876  1.00  0.00    -0.027 C 
ATOM      3  C   UNL     1      44.836  53.716  27.280  1.00  0.00     0.039 C 
ENDROOT
BRANCH   2   4
ATOM      4  C   UNL     1      43.918  57.504  27.190  1.00  0.00     0.032 C 
BRANCH   4   5
ATOM      5  C   UNL     1      45.108  58.442  27.478  1.00  0.00     0.034 C 
BRANCH   5   6
ATOM      6  C   UNL     1      44.889  59.330  28.690  1.00  0.00    -0.077 C 
ATOM      7  C   UNL     1      43.864  60.430  28.578  1.00  0.00     0.039 C 
ATOM      8  C   UNL     1      45.601  59.242  29.840  1.00  0.00    -0.023 CG0
ATOM      9  G   UNL     1      46.660  58.213  30.185  1.00  0.00     0.000 G0
ENDBRANCH   5   6
ENDBRANCH   4   5
ENDBRANCH   2   4
BRANCH   1  10
ATOM     10  C   UNL     1      44.551  55.351  29.281  1.00  0.00     0.111 C 
BRANCH  10  11
ATOM     11  C   UNL     1      45.901  55.765  29.803  1.00  0.00     0.163 C 
ATOM     12  O   UNL     1      46.905  55.085  29.456  1.00  0.00    -0.294 OA
BRANCH  11  13
ATOM     13  C   UNL     1      46.080  56.903  30.753  1.00  0.00    -0.002 C 
ATOM     14  C   UNL     1      45.654  56.807  32.048  1.00  0.00    -0.069 C 
ATOM     15  C   UNL     1      45.676  57.991  32.989  1.00  0.00     0.039 C 
ATOM     16  C   UNL     1      45.135  55.499  32.608  1.00  0.00     0.039 C 
BRANCH  13  17
ATOM     17  C   UNL     1      46.662  58.191  30.193  1.00  0.00     0.066 CG0
ATOM     18  G   UNL     1      45.590  59.205  29.846  1.00  0.00     0.000 G0
ENDBRANCH  13  17
ENDBRANCH  11  13
ENDBRANCH  10  11
ENDBRANCH   1  10
TORSDOF 0
ENDMDL
MODEL 4
REMARK VINA RESULT:    -3.827     18.292     19.959
REMARK INTER + INTRA:          -5.121
REMARK INTER:                  -5.288
REMARK INTRA:                   0.166
REMARK UNBOUND:                 0.272
REMARK SMILES CC1=CCC(=C(C)C)C(=O)CC(C)=CCC1
REMARK SMILES IDX 12 1 14 2 13 3 15 4 16 5 2 6 1 7 3 8 11 10 9 11 10 12 5 13
REMARK SMILES IDX 6 14 7 15 8 16 4 17
REMARK H PARENT
REMARK Flexibility Score: 60.00
ROOT
ATOM      1  C   UNL     1      45.318  55.683  33.279  1.00  0.00    -0.070 C 
ATOM      2  C   UNL     1      44.839  54.768  32.409  1.00  0.00    -0.027 C 
ATOM      3  C   UNL     1      45.302  55.337  34.747  1.00  0.00     0.039 C 
ENDROOT
BRANCH   2   4
ATOM      4  C   UNL     1      44.683  54.965  30.916  1.00  0.00     0.032 C 
BRANCH   4   5
ATOM      5  C   UNL     1      43.290  55.455  30.469  1.00  0.00     0.034 C 
BRANCH   5   6
ATOM      6  C   UNL     1      43.351  56.639  29.520  1.00  0.00    -0.077 C 
ATOM      7  C   UNL     1      43.636  56.359  28.066  1.00  0.00     0.039 C 
ATOM      8  C   UNL     1      43.233  57.933  29.905  1.00  0.00    -0.023 CG0
ATOM      9  G   UNL     1      42.929  58.450  31.297  1.00  0.00     0.000 G0
ENDBRANCH   5   6
ENDBRANCH   4   5
ENDBRANCH   2   4
BRANCH   1  10
ATOM     10  C   UNL     1      45.783  57.064  32.864  1.00  0.00     0.111 C 
BRANCH  10  11
ATOM     11  C   UNL     1      44.722  58.105  33.106  1.00  0.00     0.163 C 
ATOM     12  O   UNL     1      44.247  58.209  34.270  1.00  0.00    -0.294 OA
BRANCH  11  13
ATOM     13  C   UNL     1      44.177  58.965  32.014  1.00  0.00    -0.002 C 
ATOM     14  C   UNL     1      44.730  60.185  31.742  1.00  0.00    -0.069 C 
ATOM     15  C   UNL     1      44.106  61.145  30.753  1.00  0.00     0.039 C 
ATOM     16  C   UNL     1      46.002  60.639  32.425  1.00  0.00     0.039 C 
BRANCH  13  17
ATOM     17  C   UNL     1      42.935  58.467  31.291  1.00  0.00     0.066 CG0
ATOM     18  G   UNL     1      43.244  57.957  29.897  1.00  0.00     0.000 G0
ENDBRANCH  13  17
ENDBRANCH  11  13
ENDBRANCH  10  11
ENDBRANCH   1  10
TORSDOF 0
ENDMDL
MODEL 5
REMARK VINA RESULT:    -3.786     18.986     20.677
REMARK INTER + INTRA:          -5.063
REMARK INTER:                  -5.190
REMARK INTRA:                   0.127
REMARK UNBOUND:                 0.272
REMARK SMILES CC1=CCC(=C(C)C)C(=O)CC(C)=CCC1
REMARK SMILES IDX 12 1 14 2 13 3 15 4 16 5 2 6 1 7 3 8 11 10 9 11 10 12 5 13
REMARK SMILES IDX 6 14 7 15 8 16 4 17
REMARK H PARENT
REMARK Flexibility Score: 60.00
ROOT
ATOM      1  C   UNL     1      43.340  54.559  29.747  1.00  0.00    -0.070 C 
ATOM      2  C   UNL     1      43.700  54.230  31.007  1.00  0.00    -0.027 C 
ATOM      3  C   UNL     1      43.488  53.509  28.674  1.00  0.00     0.039 C 
ENDROOT
BRANCH   2   4
ATOM      4  C   UNL     1      43.716  55.169  32.195  1.00  0.00     0.032 C 
BRANCH   4   5
ATOM      5  C   UNL     1      44.959  56.078  32.285  1.00  0.00     0.034 C 
BRANCH   5   6
ATOM      6  C   UNL     1      44.620  57.523  32.607  1.00  0.00    -0.077 C 
ATOM      7  C   UNL     1      44.059  57.824  33.973  1.00  0.00     0.039 C 
ATOM      8  C   UNL     1      44.724  58.546  31.724  1.00  0.00    -0.023 CG0
ATOM      9  G   UNL     1      45.274  58.485  30.313  1.00  0.00     0.000 G0
ENDBRANCH   5   6
ENDBRANCH   4   5
ENDBRANCH   2   4
BRANCH   1  10
ATOM     10  C   UNL     1      42.886  55.948  29.346  1.00  0.00     0.111 C 
BRANCH  10  11
ATOM     11  C   UNL     1      44.033  56.784  28.842  1.00  0.00     0.163 C 
ATOM     12  O   UNL     1      44.882  56.235  28.089  1.00  0.00    -0.294 OA
BRANCH  11  13
ATOM     13  C   UNL     1      44.226  58.207  29.249  1.00  0.00    -0.002 C 
ATOM     14  C   UNL     1      43.535  59.212  28.631  1.00  0.00    -0.069 C 
ATOM     15  C   UNL     1      43.823  60.671  28.909  1.00  0.00     0.039 C 
ATOM     16  C   UNL     1      42.439  58.910  27.631  1.00  0.00     0.039 C 
BRANCH  13  17
ATOM     17  C   UNL     1      45.287  58.492  30.301  1.00  0.00     0.066 CG0
ATOM     18  G   UNL     1      44.707  58.558  31.700  1.00  0.00     0.000 G0
ENDBRANCH  13  17
ENDBRANCH  11  13
ENDBRANCH  10  11
ENDBRANCH   1  10
TORSDOF 0
ENDMDL
MODEL 6
REMARK VINA RESULT:    -3.770     18.320     20.374
REMARK INTER + INTRA:          -5.041
REMARK INTER:                  -5.241
REMARK INTRA:                   0.200
REMARK UNBOUND:                 0.272
REMARK SMILES CC1=CCC(=C(C)C)C(=O)CC(C)=CCC1
REMARK SMILES IDX 12 1 14 2 13 3 15 4 16 5 2 6 1 7 3 8 11 10 9 11 10 12 5 13
REMARK SMILES IDX 6 14 7 15 8 16 4 17
REMARK H PARENT
REMARK Flexibility Score: 60.00
ROOT
ATOM      1  C   UNL     1      44.729  59.902  36.881  1.00  0.00    -0.070 C 
ATOM      2  C   UNL     1      44.137  59.497  38.026  1.00  0.00    -0.027 C 
ATOM      3  C   UNL     1      44.568  61.347  36.477  1.00  0.00     0.039 C 
ENDROOT
BRANCH   2   4
ATOM      4  C   UNL     1      44.103  58.076  38.547  1.00  0.00     0.032 C 
BRANCH   4   5
ATOM      5  C   UNL     1      43.148  57.131  37.789  1.00  0.00     0.034 C 
BRANCH   5   6
ATOM      6  C   UNL     1      43.810  55.834  37.358  1.00  0.00    -0.077 C 
ATOM      7  C   UNL     1      44.349  54.929  38.436  1.00  0.00     0.039 C 
ATOM      8  C   UNL     1      44.009  55.470  36.067  1.00  0.00    -0.023 CG0
ATOM      9  G   UNL     1      43.542  56.206  34.827  1.00  0.00     0.000 G0
ENDBRANCH   5   6
ENDBRANCH   4   5
ENDBRANCH   2   4
BRANCH   1  10
ATOM     10  C   UNL     1      45.461  58.963  35.944  1.00  0.00     0.111 C 
BRANCH  10  11
ATOM     11  C   UNL     1      44.597  58.548  34.783  1.00  0.00     0.163 C 
ATOM     12  O   UNL     1      43.824  59.409  34.281  1.00  0.00    -0.294 OA
BRANCH  11  13
ATOM     13  C   UNL     1      44.581  57.152  34.254  1.00  0.00    -0.002 C 
ATOM     14  C   UNL     1      45.419  56.778  33.241  1.00  0.00    -0.069 C 
ATOM     15  C   UNL     1      45.318  55.422  32.578  1.00  0.00     0.039 C 
ATOM     16  C   UNL     1      46.496  57.710  32.730  1.00  0.00     0.039 C 
BRANCH  13  17
ATOM     17  C   UNL     1      43.534  56.206  34.821  1.00  0.00     0.066 CG0
ATOM     18  G   UNL     1      44.022  55.484  36.062  1.00  0.00     0.000 G0
ENDBRANCH  13  17
ENDBRANCH  11  13
ENDBRANCH  10  11
ENDBRANCH   1  10
TORSDOF 0
ENDMDL
MODEL 7
REMARK VINA RESULT:    -3.765     18.554     20.019
REMARK INTER + INTRA:          -5.033
REMARK INTER:                  -5.728
REMARK INTRA:                   0.696
REMARK UNBOUND:                 0.272
REMARK SMILES CC1=CCC(=C(C)C)C(=O)CC(C)=CCC1
REMARK SMILES IDX 12 1 14 2 13 3 15 4 16 5 2 6 1 7 3 8 11 10 9 11 10 12 5 13
REMARK SMILES IDX 6 14 7 15 8 16 4 17
REMARK H PARENT
REMARK Flexibility Score: 60.00
ROOT
ATOM      1  C   UNL     1      42.547  56.378  30.142  1.00  0.00    -0.070 C 
ATOM      2  C   UNL     1      42.351  56.640  28.831  1.00  0.00    -0.027 C 
ATOM      3  C   UNL     1      42.898  54.965  30.534  1.00  0.00     0.039 C 
ENDROOT
BRANCH   2   4
ATOM      4  C   UNL     1      41.901  57.965  28.253  1.00  0.00     0.032 C 
BRANCH   4   5
ATOM      5  C   UNL     1      42.890  58.607  27.257  1.00  0.00     0.034 C 
BRANCH   5   6
ATOM      6  C   UNL     1      44.318  58.642  27.773  1.00  0.00    -0.077 C 
ATOM      7  C   UNL     1      45.379  57.957  26.949  1.00  0.00     0.039 C 
ATOM      8  C   UNL     1      44.689  59.187  28.957  1.00  0.00    -0.023 CG0
ATOM      9  G   UNL     1      43.807  59.938  29.935  1.00  0.00     0.000 G0
ENDBRANCH   5   6
ENDBRANCH   4   5
ENDBRANCH   2   4
BRANCH   1  10
ATOM     10  C   UNL     1      42.344  57.406  31.236  1.00  0.00     0.111 C 
BRANCH  10  11
ATOM     11  C   UNL     1      43.643  58.047  31.647  1.00  0.00     0.163 C 
ATOM     12  O   UNL     1      44.471  57.349  32.293  1.00  0.00    -0.294 OA
BRANCH  11  13
ATOM     13  C   UNL     1      43.952  59.481  31.370  1.00  0.00    -0.002 C 
ATOM     14  C   UNL     1      44.266  60.338  32.388  1.00  0.00    -0.069 C 
ATOM     15  C   UNL     1      44.429  61.826  32.161  1.00  0.00     0.039 C 
ATOM     16  C   UNL     1      44.467  59.837  33.802  1.00  0.00     0.039 C 
BRANCH  13  17
ATOM     17  C   UNL     1      43.808  59.959  29.933  1.00  0.00     0.066 CG0
ATOM     18  G   UNL     1      44.697  59.188  28.978  1.00  0.00     0.000 G0
ENDBRANCH  13  17
ENDBRANCH  11  13
ENDBRANCH  10  11
ENDBRANCH   1  10
TORSDOF 0
ENDMDL
MODEL 8
REMARK VINA RESULT:    -3.732      1.889      2.907
REMARK INTER + INTRA:          -4.987
REMARK INTER:                  -5.542
REMARK INTRA:                   0.555
REMARK UNBOUND:                 0.272
REMARK SMILES CC1=CCC(=C(C)C)C(=O)CC(C)=CCC1
REMARK SMILES IDX 12 1 14 2 13 3 15 4 16 5 2 6 1 7 3 8 11 10 9 11 10 12 5 13
REMARK SMILES IDX 6 14 7 15 8 16 4 17
REMARK H PARENT
REMARK Flexibility Score: 60.00
ROOT
ATOM      1  C   UNL     1      60.795  68.350  31.911  1.00  0.00    -0.070 C 
ATOM      2  C   UNL     1      60.282  69.184  30.981  1.00  0.00    -0.027 C 
ATOM      3  C   UNL     1      60.597  66.867  31.715  1.00  0.00     0.039 C 
ENDROOT
BRANCH   2   4
ATOM      4  C   UNL     1      60.293  70.697  31.049  1.00  0.00     0.032 C 
BRANCH   4   5
ATOM      5  C   UNL     1      58.911  71.345  31.276  1.00  0.00     0.034 C 
BRANCH   5   6
ATOM      6  C   UNL     1      58.023  70.546  32.214  1.00  0.00    -0.077 C 
ATOM      7  C   UNL     1      56.818  69.859  31.624  1.00  0.00     0.039 C 
ATOM      8  C   UNL     1      58.205  70.467  33.555  1.00  0.00    -0.023 CG0
ATOM      9  G   UNL     1      59.346  71.055  34.360  1.00  0.00     0.000 G0
ENDBRANCH   5   6
ENDBRANCH   4   5
ENDBRANCH   2   4
BRANCH   1  10
ATOM     10  C   UNL     1      61.475  68.830  33.177  1.00  0.00     0.111 C 
BRANCH  10  11
ATOM     11  C   UNL     1      60.549  68.769  34.364  1.00  0.00     0.163 C 
ATOM     12  O   UNL     1      60.070  67.647  34.685  1.00  0.00    -0.294 OA
BRANCH  11  13
ATOM     13  C   UNL     1      60.139  69.986  35.124  1.00  0.00    -0.002 C 
ATOM     14  C   UNL     1      60.391  70.093  36.463  1.00  0.00    -0.069 C 
ATOM     15  C   UNL     1      59.850  71.238  37.292  1.00  0.00     0.039 C 
ATOM     16  C   UNL     1      61.230  69.062  37.188  1.00  0.00     0.039 C 
BRANCH  13  17
ATOM     17  C   UNL     1      59.350  71.045  34.369  1.00  0.00     0.066 CG0
ATOM     18  G   UNL     1      58.216  70.449  33.558  1.00  0.00     0.000 G0
ENDBRANCH  13  17
ENDBRANCH  11  13
ENDBRANCH  10  11
ENDBRANCH   1  10
TORSDOF 0
ENDMDL
MODEL 9
REMARK VINA RESULT:    -3.718     19.877     20.892
REMARK INTER + INTRA:          -4.967
REMARK INTER:                  -5.303
REMARK INTRA:                   0.336
REMARK UNBOUND:                 0.272
REMARK SMILES CC1=CCC(=C(C)C)C(=O)CC(C)=CCC1
REMARK SMILES IDX 12 1 14 2 13 3 15 4 16 5 2 6 1 7 3 8 11 10 9 11 10 12 5 13
REMARK SMILES IDX 6 14 7 15 8 16 4 17
REMARK H PARENT
REMARK Flexibility Score: 60.00
ROOT
ATOM      1  C   UNL     1      45.168  55.634  29.376  1.00  0.00    -0.070 C 
ATOM      2  C   UNL     1      45.255  56.524  28.363  1.00  0.00    -0.027 C 
ATOM      3  C   UNL     1      46.431  55.296  30.129  1.00  0.00     0.039 C 
ENDROOT
BRANCH   2   4
ATOM      4  C   UNL     1      44.127  56.918  27.433  1.00  0.00     0.032 C 
BRANCH   4   5
ATOM      5  C   UNL     1      42.826  57.352  28.141  1.00  0.00     0.034 C 
BRANCH   5   6
ATOM      6  C   UNL     1      43.008  58.570  29.029  1.00  0.00    -0.077 C 
ATOM      7  C   UNL     1      43.502  59.840  28.385  1.00  0.00     0.039 C 
ATOM      8  C   UNL     1      42.821  58.571  30.371  1.00  0.00    -0.023 CG0
ATOM      9  G   UNL     1      42.313  57.426  31.226  1.00  0.00     0.000 G0
ENDBRANCH   5   6
ENDBRANCH   4   5
ENDBRANCH   2   4
BRANCH   1  10
ATOM     10  C   UNL     1      43.892  54.897  29.729  1.00  0.00     0.111 C 
BRANCH  10  11
ATOM     11  C   UNL     1      43.477  55.154  31.154  1.00  0.00     0.163 C 
ATOM     12  O   UNL     1      43.120  54.168  31.855  1.00  0.00    -0.294 OA
BRANCH  11  13
ATOM     13  C   UNL     1      43.417  56.527  31.736  1.00  0.00    -0.002 C 
ATOM     14  C   UNL     1      44.278  56.904  32.729  1.00  0.00    -0.069 C 
ATOM     15  C   UNL     1      44.141  58.229  33.448  1.00  0.00     0.039 C 
ATOM     16  C   UNL     1      45.418  56.007  33.160  1.00  0.00     0.039 C 
BRANCH  13  17
ATOM     17  C   UNL     1      42.304  57.441  31.248  1.00  0.00     0.066 CG0
ATOM     18  G   UNL     1      42.824  58.564  30.372  1.00  0.00     0.000 G0
ENDBRANCH  13  17
ENDBRANCH  11  13
ENDBRANCH  10  11
ENDBRANCH   1  10
TORSDOF 0
ENDMDL
