MODEL 1
REMARK VINA RESULT:    -4.011      0.000      0.000
REMARK INTER + INTRA:          -7.048
REMARK INTER:                  -6.355
REMARK INTRA:                  -0.693
REMARK UNBOUND:                -0.693
REMARK SMILES CCCCCCCCCCCC(=O)[O-]
REMARK SMILES IDX 7 1 8 2 9 3 10 4 11 5 12 6 13 7 14 8 6 9 5 10 4 11 3 12 2 13
REMARK SMILES IDX 1 14
REMARK H PARENT
REMARK Flexibility Score: inf
ROOT
ATOM      1  C   UNL     1     -31.632 -21.485 -33.815  1.00  0.00     0.000 C 
ENDROOT
BRANCH   1   2
ATOM      2  C   UNL     1     -30.263 -20.907 -34.210  1.00  0.00     0.000 C 
BRANCH   2   3
ATOM      3  C   UNL     1     -29.352 -20.666 -32.994  1.00  0.00     0.000 C 
BRANCH   3   4
ATOM      4  C   UNL     1     -29.433 -19.222 -32.474  1.00  0.00     0.006 C 
BRANCH   4   5
ATOM      5  C   UNL     1     -29.587 -19.148 -30.949  1.00  0.00     0.053 C 
BRANCH   5   6
ATOM      6  C   UNL     1     -30.854 -19.819 -30.521  1.00  0.00     0.041 C 
ATOM      7  O   UNL     1     -31.966 -19.391 -30.927  1.00  0.00    -0.550 OA
ATOM      8  O   UNL     1     -30.804 -20.948 -29.712  1.00  0.00    -0.550 OA
ENDBRANCH   5   6
ENDBRANCH   4   5
ENDBRANCH   3   4
ENDBRANCH   2   3
ENDBRANCH   1   2
BRANCH   1   9
ATOM      9  C   UNL     1     -32.253 -22.350 -34.923  1.00  0.00     0.000 C 
BRANCH   9  10
ATOM     10  C   UNL     1     -31.408 -22.295 -36.201  1.00  0.00    -0.000 C 
BRANCH  10  11
ATOM     11  C   UNL     1     -32.276 -21.975 -37.424  1.00  0.00    -0.000 C 
BRANCH  11  12
ATOM     12  C   UNL     1     -32.129 -23.054 -38.502  1.00  0.00    -0.000 C 
BRANCH  12  13
ATOM     13  C   UNL     1     -31.468 -24.315 -37.932  1.00  0.00    -0.003 C 
ATOM     14  C   UNL     1     -32.249 -25.568 -38.317  1.00  0.00     0.004 C 
ENDBRANCH  12  13
ENDBRANCH  11  12
ENDBRANCH  10  11
ENDBRANCH   9  10
ENDBRANCH   1   9
TORSDOF 10
ENDMDL
MODEL 2
REMARK VINA RESULT:    -3.926      0.900      1.694
REMARK INTER + INTRA:          -6.915
REMARK INTER:                  -6.291
REMARK INTRA:                  -0.624
REMARK UNBOUND:                -0.693
REMARK SMILES CCCCCCCCCCCC(=O)[O-]
REMARK SMILES IDX 7 1 8 2 9 3 10 4 11 5 12 6 13 7 14 8 6 9 5 10 4 11 3 12 2 13
REMARK SMILES IDX 1 14
REMARK H PARENT
REMARK Flexibility Score: inf
ROOT
ATOM      1  C   UNL     1     -29.960 -20.650 -33.626  1.00  0.00     0.000 C 
ENDROOT
BRANCH   1   2
ATOM      2  C   UNL     1     -29.581 -19.234 -33.160  1.00  0.00     0.000 C 
BRANCH   2   3
ATOM      3  C   UNL     1     -28.531 -19.244 -32.036  1.00  0.00     0.000 C 
BRANCH   3   4
ATOM      4  C   UNL     1     -29.129 -18.877 -30.668  1.00  0.00     0.006 C 
BRANCH   4   5
ATOM      5  C   UNL     1     -30.663 -18.875 -30.672  1.00  0.00     0.053 C 
BRANCH   5   6
ATOM      6  C   UNL     1     -31.188 -20.037 -29.890  1.00  0.00     0.041 C 
ATOM      7  O   UNL     1     -32.047 -19.856 -28.987  1.00  0.00    -0.550 OA
ATOM      8  O   UNL     1     -30.766 -21.326 -30.191  1.00  0.00    -0.550 OA
ENDBRANCH   5   6
ENDBRANCH   4   5
ENDBRANCH   3   4
ENDBRANCH   2   3
ENDBRANCH   1   2
BRANCH   1   9
ATOM      9  C   UNL     1     -31.467 -20.809 -33.873  1.00  0.00     0.000 C 
BRANCH   9  10
ATOM     10  C   UNL     1     -31.809 -22.250 -34.273  1.00  0.00    -0.000 C 
BRANCH  10  11
ATOM     11  C   UNL     1     -32.554 -22.290 -35.612  1.00  0.00    -0.000 C 
BRANCH  11  12
ATOM     12  C   UNL     1     -31.574 -22.260 -36.790  1.00  0.00    -0.000 C 
BRANCH  12  13
ATOM     13  C   UNL     1     -32.145 -23.007 -38.000  1.00  0.00    -0.003 C 
ATOM     14  C   UNL     1     -31.791 -24.491 -37.949  1.00  0.00     0.004 C 
ENDBRANCH  12  13
ENDBRANCH  11  12
ENDBRANCH  10  11
ENDBRANCH   9  10
ENDBRANCH   1   9
TORSDOF 10
ENDMDL
MODEL 3
REMARK VINA RESULT:    -3.912      1.412      2.253
REMARK INTER + INTRA:          -6.892
REMARK INTER:                  -6.123
REMARK INTRA:                  -0.769
REMARK UNBOUND:                -0.693
REMARK SMILES CCCCCCCCCCCC(=O)[O-]
REMARK SMILES IDX 7 1 8 2 9 3 10 4 11 5 12 6 13 7 14 8 6 9 5 10 4 11 3 12 2 13
REMARK SMILES IDX 1 14
REMARK H PARENT
REMARK Flexibility Score: inf
ROOT
ATOM      1  C   UNL     1     -30.010 -20.703 -33.795  1.00  0.00     0.000 C 
ENDROOT
BRANCH   1   2
ATOM      2  C   UNL     1     -29.651 -19.337 -33.189  1.00  0.00     0.000 C 
BRANCH   2   3
ATOM      3  C   UNL     1     -28.814 -19.463 -31.904  1.00  0.00     0.000 C 
BRANCH   3   4
ATOM      4  C   UNL     1     -29.557 -18.943 -30.663  1.00  0.00     0.006 C 
BRANCH   4   5
ATOM      5  C   UNL     1     -30.591 -19.942 -30.127  1.00  0.00     0.053 C 
BRANCH   5   6
ATOM      6  C   UNL     1     -31.939 -19.301 -30.042  1.00  0.00     0.041 C 
ATOM      7  O   UNL     1     -32.506 -18.875 -31.082  1.00  0.00    -0.550 OA
ATOM      8  O   UNL     1     -32.594 -19.218 -28.819  1.00  0.00    -0.550 OA
ENDBRANCH   5   6
ENDBRANCH   4   5
ENDBRANCH   3   4
ENDBRANCH   2   3
ENDBRANCH   1   2
BRANCH   1   9
ATOM      9  C   UNL     1     -31.456 -21.126 -33.491  1.00  0.00     0.000 C 
BRANCH   9  10
ATOM     10  C   UNL     1     -31.911 -22.245 -34.435  1.00  0.00    -0.000 C 
BRANCH  10  11
ATOM     11  C   UNL     1     -31.297 -22.075 -35.829  1.00  0.00    -0.000 C 
BRANCH  11  12
ATOM     12  C   UNL     1     -32.135 -22.794 -36.892  1.00  0.00    -0.000 C 
BRANCH  12  13
ATOM     13  C   UNL     1     -33.585 -22.298 -36.878  1.00  0.00    -0.003 C 
ATOM     14  C   UNL     1     -33.761 -21.084 -37.784  1.00  0.00     0.004 C 
ENDBRANCH  12  13
ENDBRANCH  11  12
ENDBRANCH  10  11
ENDBRANCH   9  10
ENDBRANCH   1   9
TORSDOF 10
ENDMDL
MODEL 4
REMARK VINA RESULT:    -3.880      0.866      1.343
REMARK INTER + INTRA:          -6.841
REMARK INTER:                  -6.184
REMARK INTRA:                  -0.657
REMARK UNBOUND:                -0.693
REMARK SMILES CCCCCCCCCCCC(=O)[O-]
REMARK SMILES IDX 7 1 8 2 9 3 10 4 11 5 12 6 13 7 14 8 6 9 5 10 4 11 3 12 2 13
REMARK SMILES IDX 1 14
REMARK H PARENT
REMARK Flexibility Score: inf
ROOT
ATOM      1  C   UNL     1     -31.406 -21.250 -33.522  1.00  0.00     0.000 C 
ENDROOT
BRANCH   1   2
ATOM      2  C   UNL     1     -29.973 -20.779 -33.821  1.00  0.00     0.000 C 
BRANCH   2   3
ATOM      3  C   UNL     1     -29.716 -19.336 -33.354  1.00  0.00     0.000 C 
BRANCH   3   4
ATOM      4  C   UNL     1     -30.720 -18.876 -32.284  1.00  0.00     0.006 C 
BRANCH   4   5
ATOM      5  C   UNL     1     -30.148 -18.950 -30.862  1.00  0.00     0.053 C 
BRANCH   5   6
ATOM      6  C   UNL     1     -31.028 -19.787 -29.989  1.00  0.00     0.041 C 
ATOM      7  O   UNL     1     -30.739 -20.993 -29.768  1.00  0.00    -0.550 OA
ATOM      8  O   UNL     1     -32.142 -19.223 -29.379  1.00  0.00    -0.550 OA
ENDBRANCH   5   6
ENDBRANCH   4   5
ENDBRANCH   3   4
ENDBRANCH   2   3
ENDBRANCH   1   2
BRANCH   1   9
ATOM      9  C   UNL     1     -31.946 -22.219 -34.584  1.00  0.00     0.000 C 
BRANCH   9  10
ATOM     10  C   UNL     1     -32.978 -21.528 -35.483  1.00  0.00    -0.000 C 
BRANCH  10  11
ATOM     11  C   UNL     1     -33.251 -22.353 -36.746  1.00  0.00    -0.000 C 
BRANCH  11  12
ATOM     12  C   UNL     1     -32.160 -22.126 -37.799  1.00  0.00    -0.000 C 
BRANCH  12  13
ATOM     13  C   UNL     1     -32.038 -23.335 -38.734  1.00  0.00    -0.003 C 
ATOM     14  C   UNL     1     -31.684 -24.600 -37.957  1.00  0.00     0.004 C 
ENDBRANCH  12  13
ENDBRANCH  11  12
ENDBRANCH  10  11
ENDBRANCH   9  10
ENDBRANCH   1   9
TORSDOF 10
ENDMDL
MODEL 5
REMARK VINA RESULT:    -3.816      1.674      2.361
REMARK INTER + INTRA:          -6.740
REMARK INTER:                  -6.301
REMARK INTRA:                  -0.438
REMARK UNBOUND:                -0.693
REMARK SMILES CCCCCCCCCCCC(=O)[O-]
REMARK SMILES IDX 7 1 8 2 9 3 10 4 11 5 12 6 13 7 14 8 6 9 5 10 4 11 3 12 2 13
REMARK SMILES IDX 1 14
REMARK H PARENT
REMARK Flexibility Score: inf
ROOT
ATOM      1  C   UNL     1     -32.454 -22.966 -35.093  1.00  0.00     0.000 C 
ENDROOT
BRANCH   1   2
ATOM      2  C   UNL     1     -31.560 -21.718 -35.008  1.00  0.00     0.000 C 
BRANCH   2   3
ATOM      3  C   UNL     1     -31.392 -21.210 -33.565  1.00  0.00     0.000 C 
BRANCH   3   4
ATOM      4  C   UNL     1     -30.004 -20.600 -33.313  1.00  0.00     0.006 C 
BRANCH   4   5
ATOM      5  C   UNL     1     -30.074 -19.222 -32.641  1.00  0.00     0.053 C 
BRANCH   5   6
ATOM      6  C   UNL     1     -28.968 -19.072 -31.645  1.00  0.00     0.041 C 
ATOM      7  O   UNL     1     -29.208 -19.166 -30.413  1.00  0.00    -0.550 OA
ATOM      8  O   UNL     1     -27.663 -18.875 -32.079  1.00  0.00    -0.550 OA
ENDBRANCH   5   6
ENDBRANCH   4   5
ENDBRANCH   3   4
ENDBRANCH   2   3
ENDBRANCH   1   2
BRANCH   1   9
ATOM      9  C   UNL     1     -32.998 -23.210 -36.509  1.00  0.00     0.000 C 
BRANCH   9  10
ATOM     10  C   UNL     1     -31.998 -22.736 -37.571  1.00  0.00    -0.000 C 
BRANCH  10  11
ATOM     11  C   UNL     1     -31.705 -23.845 -38.588  1.00  0.00    -0.000 C 
BRANCH  11  12
ATOM     12  C   UNL     1     -31.984 -25.228 -37.991  1.00  0.00    -0.000 C 
BRANCH  12  13
ATOM     13  C   UNL     1     -32.672 -26.140 -39.013  1.00  0.00    -0.003 C 
ATOM     14  C   UNL     1     -32.996 -27.502 -38.406  1.00  0.00     0.004 C 
ENDBRANCH  12  13
ENDBRANCH  11  12
ENDBRANCH  10  11
ENDBRANCH   9  10
ENDBRANCH   1   9
TORSDOF 10
ENDMDL
MODEL 6
REMARK VINA RESULT:    -3.774      3.366      7.058
REMARK INTER + INTRA:          -6.673
REMARK INTER:                  -5.942
REMARK INTRA:                  -0.731
REMARK UNBOUND:                -0.693
REMARK SMILES CCCCCCCCCCCC(=O)[O-]
REMARK SMILES IDX 7 1 8 2 9 3 10 4 11 5 12 6 13 7 14 8 6 9 5 10 4 11 3 12 2 13
REMARK SMILES IDX 1 14
REMARK H PARENT
REMARK Flexibility Score: inf
ROOT
ATOM      1  C   UNL     1     -29.702 -20.592 -33.648  1.00  0.00     0.000 C 
ENDROOT
BRANCH   1   2
ATOM      2  C   UNL     1     -31.130 -21.127 -33.453  1.00  0.00     0.000 C 
BRANCH   2   3
ATOM      3  C   UNL     1     -31.875 -21.317 -34.786  1.00  0.00     0.000 C 
BRANCH   3   4
ATOM      4  C   UNL     1     -32.097 -22.799 -35.131  1.00  0.00     0.006 C 
BRANCH   4   5
ATOM      5  C   UNL     1     -32.978 -22.994 -36.372  1.00  0.00     0.053 C 
BRANCH   5   6
ATOM      6  C   UNL     1     -32.130 -23.227 -37.581  1.00  0.00     0.041 C 
ATOM      7  O   UNL     1     -31.487 -24.302 -37.707  1.00  0.00    -0.550 OA
ATOM      8  O   UNL     1     -32.087 -22.277 -38.594  1.00  0.00    -0.550 OA
ENDBRANCH   5   6
ENDBRANCH   4   5
ENDBRANCH   3   4
ENDBRANCH   2   3
ENDBRANCH   1   2
BRANCH   1   9
ATOM      9  C   UNL     1     -29.527 -19.161 -33.116  1.00  0.00     0.000 C 
BRANCH   9  10
ATOM     10  C   UNL     1     -28.449 -19.108 -32.027  1.00  0.00    -0.000 C 
BRANCH  10  11
ATOM     11  C   UNL     1     -29.078 -19.084 -30.628  1.00  0.00    -0.000 C 
BRANCH  11  12
ATOM     12  C   UNL     1     -30.593 -18.875 -30.709  1.00  0.00    -0.000 C 
BRANCH  12  13
ATOM     13  C   UNL     1     -31.331 -19.815 -29.747  1.00  0.00    -0.003 C 
ATOM     14  C   UNL     1     -30.759 -21.228 -29.812  1.00  0.00     0.004 C 
ENDBRANCH  12  13
ENDBRANCH  11  12
ENDBRANCH  10  11
ENDBRANCH   9  10
ENDBRANCH   1   9
TORSDOF 10
ENDMDL
MODEL 7
REMARK VINA RESULT:    -3.618      3.432      6.943
REMARK INTER + INTRA:          -6.427
REMARK INTER:                  -5.656
REMARK INTRA:                  -0.771
REMARK UNBOUND:                -0.693
REMARK SMILES CCCCCCCCCCCC(=O)[O-]
REMARK SMILES IDX 7 1 8 2 9 3 10 4 11 5 12 6 13 7 14 8 6 9 5 10 4 11 3 12 2 13
REMARK SMILES IDX 1 14
REMARK H PARENT
REMARK Flexibility Score: inf
ROOT
ATOM      1  C   UNL     1     -30.980 -20.976 -33.434  1.00  0.00     0.000 C 
ENDROOT
BRANCH   1   2
ATOM      2  C   UNL     1     -31.797 -21.893 -34.359  1.00  0.00     0.000 C 
BRANCH   2   3
ATOM      3  C   UNL     1     -32.872 -21.126 -35.149  1.00  0.00     0.000 C 
BRANCH   3   4
ATOM      4  C   UNL     1     -33.578 -22.008 -36.193  1.00  0.00     0.006 C 
BRANCH   4   5
ATOM      5  C   UNL     1     -32.906 -23.376 -36.365  1.00  0.00     0.053 C 
BRANCH   5   6
ATOM      6  C   UNL     1     -32.076 -23.396 -37.609  1.00  0.00     0.041 C 
ATOM      7  O   UNL     1     -32.093 -22.415 -38.398  1.00  0.00    -0.550 OA
ATOM      8  O   UNL     1     -31.244 -24.477 -37.874  1.00  0.00    -0.550 OA
ENDBRANCH   5   6
ENDBRANCH   4   5
ENDBRANCH   3   4
ENDBRANCH   2   3
ENDBRANCH   1   2
BRANCH   1   9
ATOM      9  C   UNL     1     -31.736 -19.696 -33.048  1.00  0.00     0.000 C 
BRANCH   9  10
ATOM     10  C   UNL     1     -31.787 -19.526 -31.525  1.00  0.00    -0.000 C 
BRANCH  10  11
ATOM     11  C   UNL     1     -30.491 -20.019 -30.871  1.00  0.00    -0.000 C 
BRANCH  11  12
ATOM     12  C   UNL     1     -29.485 -18.875 -30.707  1.00  0.00    -0.000 C 
BRANCH  12  13
ATOM     13  C   UNL     1     -28.138 -19.231 -31.346  1.00  0.00    -0.003 C 
ATOM     14  C   UNL     1     -28.123 -18.883 -32.831  1.00  0.00     0.004 C 
ENDBRANCH  12  13
ENDBRANCH  11  12
ENDBRANCH  10  11
ENDBRANCH   9  10
ENDBRANCH   1   9
TORSDOF 10
ENDMDL
MODEL 8
REMARK VINA RESULT:    -3.417      3.538      7.050
REMARK INTER + INTRA:          -6.108
REMARK INTER:                  -5.484
REMARK INTRA:                  -0.624
REMARK UNBOUND:                -0.693
REMARK SMILES CCCCCCCCCCCC(=O)[O-]
REMARK SMILES IDX 7 1 8 2 9 3 10 4 11 5 12 6 13 7 14 8 6 9 5 10 4 11 3 12 2 13
REMARK SMILES IDX 1 14
REMARK H PARENT
REMARK Flexibility Score: inf
ROOT
ATOM      1  C   UNL     1     -32.239 -22.267 -35.102  1.00  0.00     0.000 C 
ENDROOT
BRANCH   1   2
ATOM      2  C   UNL     1     -33.422 -21.554 -35.777  1.00  0.00     0.000 C 
BRANCH   2   3
ATOM      3  C   UNL     1     -33.605 -21.976 -37.245  1.00  0.00     0.000 C 
BRANCH   3   4
ATOM      4  C   UNL     1     -32.313 -21.829 -38.066  1.00  0.00     0.006 C 
BRANCH   4   5
ATOM      5  C   UNL     1     -32.155 -22.928 -39.125  1.00  0.00     0.053 C 
BRANCH   5   6
ATOM      6  C   UNL     1     -31.814 -24.232 -38.475  1.00  0.00     0.041 C 
ATOM      7  O   UNL     1     -32.225 -25.314 -38.971  1.00  0.00    -0.550 OA
ATOM      8  O   UNL     1     -31.002 -24.256 -37.347  1.00  0.00    -0.550 OA
ENDBRANCH   5   6
ENDBRANCH   4   5
ENDBRANCH   3   4
ENDBRANCH   2   3
ENDBRANCH   1   2
BRANCH   1   9
ATOM      9  C   UNL     1     -31.674 -21.480 -33.909  1.00  0.00     0.000 C 
BRANCH   9  10
ATOM     10  C   UNL     1     -30.218 -21.070 -34.162  1.00  0.00    -0.000 C 
BRANCH  10  11
ATOM     11  C   UNL     1     -29.671 -20.232 -33.001  1.00  0.00    -0.000 C 
BRANCH  11  12
ATOM     12  C   UNL     1     -30.792 -19.450 -32.309  1.00  0.00    -0.000 C 
BRANCH  12  13
ATOM     13  C   UNL     1     -30.633 -19.493 -30.784  1.00  0.00    -0.003 C 
ATOM     14  C   UNL     1     -30.797 -20.914 -30.254  1.00  0.00     0.004 C 
ENDBRANCH  12  13
ENDBRANCH  11  12
ENDBRANCH  10  11
ENDBRANCH   9  10
ENDBRANCH   1   9
TORSDOF 10
ENDMDL
