MODEL 1
REMARK VINA RESULT:    -2.854      0.000      0.000
REMARK INTER + INTRA:          -4.588
REMARK INTER:                  -4.022
REMARK INTRA:                  -0.566
REMARK UNBOUND:                -0.566
REMARK SMILES C=CCCCCCCC(=O)[O-]
REMARK SMILES IDX 6 1 7 2 8 3 9 4 10 5 11 6 5 7 4 8 3 9 2 10 1 11
REMARK H PARENT
REMARK Flexibility Score: inf
ROOT
ATOM      1  C   UNL     1      41.541 -37.127  -2.433  1.00  0.00     0.000 C 
ENDROOT
BRANCH   1   2
ATOM      2  C   UNL     1      42.528 -36.820  -3.574  1.00  0.00     0.006 C 
BRANCH   2   3
ATOM      3  C   UNL     1      42.308 -37.729  -4.791  1.00  0.00     0.053 C 
BRANCH   3   4
ATOM      4  C   UNL     1      42.373 -39.178  -4.420  1.00  0.00     0.041 C 
ATOM      5  O   UNL     1      41.348 -39.902  -4.511  1.00  0.00    -0.550 OA
ATOM      6  O   UNL     1      43.559 -39.722  -3.940  1.00  0.00    -0.550 OA
ENDBRANCH   3   4
ENDBRANCH   2   3
ENDBRANCH   1   2
BRANCH   1   7
ATOM      7  C   UNL     1      40.616 -35.942  -2.114  1.00  0.00     0.000 C 
BRANCH   7   8
ATOM      8  C   UNL     1      39.127 -36.301  -2.253  1.00  0.00     0.004 C 
BRANCH   8   9
ATOM      9  C   UNL     1      38.869 -37.250  -3.432  1.00  0.00     0.027 C 
BRANCH   9  10
ATOM     10  C   UNL     1      38.092 -38.474  -3.028  1.00  0.00    -0.035 C 
ATOM     11  C   UNL     1      37.663 -39.365  -3.926  1.00  0.00     0.004 C 
ENDBRANCH   9  10
ENDBRANCH   8   9
ENDBRANCH   7   8
ENDBRANCH   1   7
TORSDOF 7
ENDMDL
MODEL 2
REMARK VINA RESULT:    -2.823      2.292      4.040
REMARK INTER + INTRA:          -4.544
REMARK INTER:                  -3.902
REMARK INTRA:                  -0.642
REMARK UNBOUND:                -0.566
REMARK SMILES C=CCCCCCCC(=O)[O-]
REMARK SMILES IDX 6 1 7 2 8 3 9 4 10 5 11 6 5 7 4 8 3 9 2 10 1 11
REMARK H PARENT
REMARK Flexibility Score: inf
ROOT
ATOM      1  C   UNL     1      40.065 -36.913  -1.685  1.00  0.00     0.000 C 
ENDROOT
BRANCH   1   2
ATOM      2  C   UNL     1      38.765 -36.772  -2.496  1.00  0.00     0.006 C 
BRANCH   2   3
ATOM      3  C   UNL     1      38.711 -37.748  -3.679  1.00  0.00     0.053 C 
BRANCH   3   4
ATOM      4  C   UNL     1      37.754 -38.872  -3.428  1.00  0.00     0.041 C 
ATOM      5  O   UNL     1      37.434 -39.652  -4.363  1.00  0.00    -0.550 OA
ATOM      6  O   UNL     1      37.187 -39.036  -2.170  1.00  0.00    -0.550 OA
ENDBRANCH   3   4
ENDBRANCH   2   3
ENDBRANCH   1   2
BRANCH   1   7
ATOM      7  C   UNL     1      41.237 -36.136  -2.304  1.00  0.00     0.000 C 
BRANCH   7   8
ATOM      8  C   UNL     1      42.353 -37.061  -2.821  1.00  0.00     0.004 C 
BRANCH   8   9
ATOM      9  C   UNL     1      42.402 -37.102  -4.355  1.00  0.00     0.027 C 
BRANCH   9  10
ATOM     10  C   UNL     1      42.503 -38.506  -4.890  1.00  0.00    -0.035 C 
ATOM     11  C   UNL     1      41.781 -39.508  -4.380  1.00  0.00     0.004 C 
ENDBRANCH   9  10
ENDBRANCH   8   9
ENDBRANCH   7   8
ENDBRANCH   1   7
TORSDOF 7
ENDMDL
MODEL 3
REMARK VINA RESULT:    -2.765     16.761     18.088
REMARK INTER + INTRA:          -4.463
REMARK INTER:                  -4.133
REMARK INTRA:                  -0.330
REMARK UNBOUND:                -0.566
REMARK SMILES C=CCCCCCCC(=O)[O-]
REMARK SMILES IDX 6 1 7 2 8 3 9 4 10 5 11 6 5 7 4 8 3 9 2 10 1 11
REMARK H PARENT
REMARK Flexibility Score: inf
ROOT
ATOM      1  C   UNL     1      44.149 -40.402  12.501  1.00  0.00     0.000 C 
ENDROOT
BRANCH   1   2
ATOM      2  C   UNL     1      44.230 -39.602  13.813  1.00  0.00     0.006 C 
BRANCH   2   3
ATOM      3  C   UNL     1      43.860 -38.126  13.616  1.00  0.00     0.053 C 
BRANCH   3   4
ATOM      4  C   UNL     1      42.384 -37.944  13.434  1.00  0.00     0.041 C 
ATOM      5  O   UNL     1      41.947 -37.100  12.609  1.00  0.00    -0.550 OA
ATOM      6  O   UNL     1      41.491 -38.682  14.202  1.00  0.00    -0.550 OA
ENDBRANCH   3   4
ENDBRANCH   2   3
ENDBRANCH   1   2
BRANCH   1   7
ATOM      7  C   UNL     1      45.527 -40.866  12.003  1.00  0.00     0.000 C 
BRANCH   7   8
ATOM      8  C   UNL     1      46.685 -40.232  12.794  1.00  0.00     0.004 C 
BRANCH   8   9
ATOM      9  C   UNL     1      47.653 -41.289  13.346  1.00  0.00     0.027 C 
BRANCH   9  10
ATOM     10  C   UNL     1      49.025 -40.730  13.610  1.00  0.00    -0.035 C 
ATOM     11  C   UNL     1      49.487 -39.658  12.958  1.00  0.00     0.004 C 
ENDBRANCH   9  10
ENDBRANCH   8   9
ENDBRANCH   7   8
ENDBRANCH   1   7
TORSDOF 7
ENDMDL
MODEL 4
REMARK VINA RESULT:    -2.765     15.866     17.044
REMARK INTER + INTRA:          -4.463
REMARK INTER:                  -4.121
REMARK INTRA:                  -0.341
REMARK UNBOUND:                -0.566
REMARK SMILES C=CCCCCCCC(=O)[O-]
REMARK SMILES IDX 6 1 7 2 8 3 9 4 10 5 11 6 5 7 4 8 3 9 2 10 1 11
REMARK H PARENT
REMARK Flexibility Score: inf
ROOT
ATOM      1  C   UNL     1      33.919 -38.158  12.760  1.00  0.00     0.000 C 
ENDROOT
BRANCH   1   2
ATOM      2  C   UNL     1      33.987 -37.031  11.714  1.00  0.00     0.006 C 
BRANCH   2   3
ATOM      3  C   UNL     1      34.345 -37.557  10.318  1.00  0.00     0.053 C 
BRANCH   3   4
ATOM      4  C   UNL     1      33.788 -36.684   9.236  1.00  0.00     0.041 C 
ATOM      5  O   UNL     1      34.342 -36.644   8.106  1.00  0.00    -0.550 OA
ATOM      6  O   UNL     1      32.678 -35.887   9.486  1.00  0.00    -0.550 OA
ENDBRANCH   3   4
ENDBRANCH   2   3
ENDBRANCH   1   2
BRANCH   1   7
ATOM      7  C   UNL     1      35.116 -38.145  13.724  1.00  0.00     0.000 C 
BRANCH   7   8
ATOM      8  C   UNL     1      35.545 -39.558  14.153  1.00  0.00     0.004 C 
BRANCH   8   9
ATOM      9  C   UNL     1      35.236 -40.607  13.074  1.00  0.00     0.027 C 
BRANCH   9  10
ATOM     10  C   UNL     1      35.804 -41.960  13.408  1.00  0.00    -0.035 C 
ATOM     11  C   UNL     1      36.655 -42.137  14.423  1.00  0.00     0.004 C 
ENDBRANCH   9  10
ENDBRANCH   8   9
ENDBRANCH   7   8
ENDBRANCH   1   7
TORSDOF 7
ENDMDL
MODEL 5
REMARK VINA RESULT:    -2.755     15.373     16.679
REMARK INTER + INTRA:          -4.448
REMARK INTER:                  -4.199
REMARK INTRA:                  -0.249
REMARK UNBOUND:                -0.566
REMARK SMILES C=CCCCCCCC(=O)[O-]
REMARK SMILES IDX 6 1 7 2 8 3 9 4 10 5 11 6 5 7 4 8 3 9 2 10 1 11
REMARK H PARENT
REMARK Flexibility Score: inf
ROOT
ATOM      1  C   UNL     1      34.374 -37.789  10.861  1.00  0.00     0.000 C 
ENDROOT
BRANCH   1   2
ATOM      2  C   UNL     1      33.999 -36.959   9.620  1.00  0.00     0.006 C 
BRANCH   2   3
ATOM      3  C   UNL     1      32.604 -36.332   9.743  1.00  0.00     0.053 C 
BRANCH   3   4
ATOM      4  C   UNL     1      31.919 -36.237   8.414  1.00  0.00     0.041 C 
ATOM      5  O   UNL     1      30.662 -36.233   8.349  1.00  0.00    -0.550 OA
ATOM      6  O   UNL     1      32.669 -36.188   7.245  1.00  0.00    -0.550 OA
ENDBRANCH   3   4
ENDBRANCH   2   3
ENDBRANCH   1   2
BRANCH   1   7
ATOM      7  C   UNL     1      34.206 -37.004  12.171  1.00  0.00     0.000 C 
BRANCH   7   8
ATOM      8  C   UNL     1      34.789 -37.749  13.385  1.00  0.00     0.004 C 
BRANCH   8   9
ATOM      9  C   UNL     1      34.975 -39.248  13.106  1.00  0.00     0.027 C 
BRANCH   9  10
ATOM     10  C   UNL     1      35.765 -39.940  14.185  1.00  0.00    -0.035 C 
ATOM     11  C   UNL     1      35.849 -41.273  14.252  1.00  0.00     0.004 C 
ENDBRANCH   9  10
ENDBRANCH   8   9
ENDBRANCH   7   8
ENDBRANCH   1   7
TORSDOF 7
ENDMDL
MODEL 6
REMARK VINA RESULT:    -2.750     15.317     16.518
REMARK INTER + INTRA:          -4.442
REMARK INTER:                  -3.727
REMARK INTRA:                  -0.715
REMARK UNBOUND:                -0.566
REMARK SMILES C=CCCCCCCC(=O)[O-]
REMARK SMILES IDX 6 1 7 2 8 3 9 4 10 5 11 6 5 7 4 8 3 9 2 10 1 11
REMARK H PARENT
REMARK Flexibility Score: inf
ROOT
ATOM      1  C   UNL     1      32.829 -37.195  11.743  1.00  0.00     0.000 C 
ENDROOT
BRANCH   1   2
ATOM      2  C   UNL     1      34.313 -37.268  12.145  1.00  0.00     0.006 C 
BRANCH   2   3
ATOM      3  C   UNL     1      34.756 -38.702  12.464  1.00  0.00     0.053 C 
BRANCH   3   4
ATOM      4  C   UNL     1      35.189 -38.844  13.891  1.00  0.00     0.041 C 
ATOM      5  O   UNL     1      34.855 -37.980  14.743  1.00  0.00    -0.550 OA
ATOM      6  O   UNL     1      35.992 -39.913  14.272  1.00  0.00    -0.550 OA
ENDBRANCH   3   4
ENDBRANCH   2   3
ENDBRANCH   1   2
BRANCH   1   7
ATOM      7  C   UNL     1      32.610 -37.436  10.240  1.00  0.00     0.000 C 
BRANCH   7   8
ATOM      8  C   UNL     1      33.307 -36.381   9.365  1.00  0.00     0.004 C 
BRANCH   8   9
ATOM      9  C   UNL     1      34.289 -37.015   8.369  1.00  0.00     0.027 C 
BRANCH   9  10
ATOM     10  C   UNL     1      34.441 -38.498   8.576  1.00  0.00    -0.035 C 
ATOM     11  C   UNL     1      35.637 -39.063   8.769  1.00  0.00     0.004 C 
ENDBRANCH   9  10
ENDBRANCH   8   9
ENDBRANCH   7   8
ENDBRANCH   1   7
TORSDOF 7
ENDMDL
MODEL 7
REMARK VINA RESULT:    -2.719      2.393      4.745
REMARK INTER + INTRA:          -4.398
REMARK INTER:                  -3.928
REMARK INTRA:                  -0.470
REMARK UNBOUND:                -0.566
REMARK SMILES C=CCCCCCCC(=O)[O-]
REMARK SMILES IDX 6 1 7 2 8 3 9 4 10 5 11 6 5 7 4 8 3 9 2 10 1 11
REMARK H PARENT
REMARK Flexibility Score: inf
ROOT
ATOM      1  C   UNL     1      38.574 -37.352  -3.555  1.00  0.00     0.000 C 
ENDROOT
BRANCH   1   2
ATOM      2  C   UNL     1      38.415 -38.869  -3.350  1.00  0.00     0.006 C 
BRANCH   2   3
ATOM      3  C   UNL     1      36.943 -39.289  -3.250  1.00  0.00     0.053 C 
BRANCH   3   4
ATOM      4  C   UNL     1      36.618 -40.404  -4.197  1.00  0.00     0.041 C 
ATOM      5  O   UNL     1      37.416 -40.699  -5.125  1.00  0.00    -0.550 OA
ATOM      6  O   UNL     1      35.419 -41.095  -4.075  1.00  0.00    -0.550 OA
ENDBRANCH   3   4
ENDBRANCH   2   3
ENDBRANCH   1   2
BRANCH   1   7
ATOM      7  C   UNL     1      39.461 -36.699  -2.483  1.00  0.00     0.000 C 
BRANCH   7   8
ATOM      8  C   UNL     1      40.815 -37.411  -2.322  1.00  0.00     0.004 C 
BRANCH   8   9
ATOM      9  C   UNL     1      41.991 -36.512  -2.730  1.00  0.00     0.027 C 
BRANCH   9  10
ATOM     10  C   UNL     1      42.626 -36.946  -4.024  1.00  0.00    -0.035 C 
ATOM     11  C   UNL     1      42.133 -37.957  -4.746  1.00  0.00     0.004 C 
ENDBRANCH   9  10
ENDBRANCH   8   9
ENDBRANCH   7   8
ENDBRANCH   1   7
TORSDOF 7
ENDMDL
MODEL 8
REMARK VINA RESULT:    -2.683     16.434     17.661
REMARK INTER + INTRA:          -4.347
REMARK INTER:                  -4.005
REMARK INTRA:                  -0.342
REMARK UNBOUND:                -0.566
REMARK SMILES C=CCCCCCCC(=O)[O-]
REMARK SMILES IDX 6 1 7 2 8 3 9 4 10 5 11 6 5 7 4 8 3 9 2 10 1 11
REMARK H PARENT
REMARK Flexibility Score: inf
ROOT
ATOM      1  C   UNL     1      34.209 -38.212  12.376  1.00  0.00     0.000 C 
ENDROOT
BRANCH   1   2
ATOM      2  C   UNL     1      33.964 -37.052  11.393  1.00  0.00     0.006 C 
BRANCH   2   3
ATOM      3  C   UNL     1      32.470 -36.757  11.206  1.00  0.00     0.053 C 
BRANCH   3   4
ATOM      4  C   UNL     1      32.183 -36.177   9.856  1.00  0.00     0.041 C 
ATOM      5  O   UNL     1      30.995 -35.982   9.489  1.00  0.00    -0.550 OA
ATOM      6  O   UNL     1      33.228 -35.885   8.987  1.00  0.00    -0.550 OA
ENDBRANCH   3   4
ENDBRANCH   2   3
ENDBRANCH   1   2
BRANCH   1   7
ATOM      7  C   UNL     1      34.869 -37.749  13.685  1.00  0.00     0.000 C 
BRANCH   7   8
ATOM      8  C   UNL     1      34.915 -38.860  14.747  1.00  0.00     0.004 C 
BRANCH   8   9
ATOM      9  C   UNL     1      35.895 -39.980  14.368  1.00  0.00     0.027 C 
BRANCH   9  10
ATOM     10  C   UNL     1      35.266 -41.346  14.445  1.00  0.00    -0.035 C 
ATOM     11  C   UNL     1      34.205 -41.676  13.703  1.00  0.00     0.004 C 
ENDBRANCH   9  10
ENDBRANCH   8   9
ENDBRANCH   7   8
ENDBRANCH   1   7
TORSDOF 7
ENDMDL
MODEL 9
REMARK VINA RESULT:    -2.675      1.639      3.577
REMARK INTER + INTRA:          -4.336
REMARK INTER:                  -3.502
REMARK INTRA:                  -0.834
REMARK UNBOUND:                -0.566
REMARK SMILES C=CCCCCCCC(=O)[O-]
REMARK SMILES IDX 6 1 7 2 8 3 9 4 10 5 11 6 5 7 4 8 3 9 2 10 1 11
REMARK H PARENT
REMARK Flexibility Score: inf
ROOT
ATOM      1  C   UNL     1      38.502 -36.361  -2.533  1.00  0.00     0.000 C 
ENDROOT
BRANCH   1   2
ATOM      2  C   UNL     1      38.090 -37.842  -2.451  1.00  0.00     0.006 C 
BRANCH   2   3
ATOM      3  C   UNL     1      38.572 -38.646  -3.666  1.00  0.00     0.053 C 
BRANCH   3   4
ATOM      4  C   UNL     1      39.404 -39.822  -3.259  1.00  0.00     0.041 C 
ATOM      5  O   UNL     1      39.856 -39.903  -2.087  1.00  0.00    -0.550 OA
ATOM      6  O   UNL     1      39.711 -40.813  -4.184  1.00  0.00    -0.550 OA
ENDBRANCH   3   4
ENDBRANCH   2   3
ENDBRANCH   1   2
BRANCH   1   7
ATOM      7  C   UNL     1      39.222 -35.876  -1.265  1.00  0.00     0.000 C 
BRANCH   7   8
ATOM      8  C   UNL     1      40.684 -36.350  -1.198  1.00  0.00     0.004 C 
BRANCH   8   9
ATOM      9  C   UNL     1      41.452 -36.038  -2.491  1.00  0.00     0.027 C 
BRANCH   9  10
ATOM     10  C   UNL     1      42.117 -37.256  -3.074  1.00  0.00    -0.035 C 
ATOM     11  C   UNL     1      42.262 -37.417  -4.393  1.00  0.00     0.004 C 
ENDBRANCH   9  10
ENDBRANCH   8   9
ENDBRANCH   7   8
ENDBRANCH   1   7
TORSDOF 7
ENDMDL
