MODEL 1
REMARK VINA RESULT:    -4.248      0.000      0.000
REMARK INTER + INTRA:          -4.843
REMARK INTER:                  -4.620
REMARK INTRA:                  -0.223
REMARK UNBOUND:                -0.223
REMARK SMILES C=C(C)[C@@H]1CC[C@@H](C)[C@H](O)C1
REMARK SMILES IDX 8 1 7 2 6 3 5 4 4 5 11 6 9 7 10 8 2 10 1 11 3 12
REMARK H PARENT 10 9
REMARK Flexibility Score: inf
ROOT
ATOM      1  C   UNL     1     -38.915  21.476   8.125  1.00  0.00     0.010 C 
ATOM      2  C   UNL     1     -39.054  22.816   7.387  1.00  0.00     0.015 C 
ATOM      3  C   UNL     1     -40.125  22.721   6.263  1.00  0.00     0.006 C 
ATOM      4  C   UNL     1     -39.604  23.097   4.867  1.00  0.00     0.008 C 
ATOM      5  C   UNL     1     -38.781  24.408   4.835  1.00  0.00     0.017 C 
ATOM      6  C   UNL     1     -37.844  24.590   6.058  1.00  0.00     0.040 C 
ATOM      7  C   UNL     1     -37.678  23.300   6.877  1.00  0.00     0.117 C 
ENDROOT
BRANCH   7   8
ATOM      8  O   UNL     1     -36.835  23.550   7.973  1.00  0.00    -0.393 OA
ATOM      9  H   UNL     1     -36.916  22.772   8.585  1.00  0.00     0.210 HD
ENDBRANCH   7   8
BRANCH   5  10
ATOM     10  C   UNL     1     -39.668  25.625   4.608  1.00  0.00    -0.077 C 
ATOM     11  C   UNL     1     -40.117  25.876   3.370  1.00  0.00     0.008 C 
ATOM     12  C   UNL     1     -40.087  26.529   5.742  1.00  0.00     0.039 C 
ENDBRANCH   5  10
TORSDOF 2
ENDMDL
MODEL 2
REMARK VINA RESULT:    -3.405      1.856      4.241
REMARK INTER + INTRA:          -3.926
REMARK INTER:                  -3.707
REMARK INTRA:                  -0.220
REMARK UNBOUND:                -0.223
REMARK SMILES C=C(C)[C@@H]1CC[C@@H](C)[C@H](O)C1
REMARK SMILES IDX 8 1 7 2 6 3 5 4 4 5 11 6 9 7 10 8 2 10 1 11 3 12
REMARK H PARENT 10 9
REMARK Flexibility Score: inf
ROOT
ATOM      1  C   UNL     1     -40.110  25.887   3.237  1.00  0.00     0.010 C 
ATOM      2  C   UNL     1     -39.377  25.368   4.482  1.00  0.00     0.015 C 
ATOM      3  C   UNL     1     -39.141  23.834   4.386  1.00  0.00     0.006 C 
ATOM      4  C   UNL     1     -39.717  23.035   5.565  1.00  0.00     0.008 C 
ATOM      5  C   UNL     1     -39.380  23.632   6.954  1.00  0.00     0.017 C 
ATOM      6  C   UNL     1     -39.437  25.182   7.000  1.00  0.00     0.040 C 
ATOM      7  C   UNL     1     -40.125  25.789   5.768  1.00  0.00     0.117 C 
ENDROOT
BRANCH   7   8
ATOM      8  O   UNL     1     -40.119  27.190   5.874  1.00  0.00    -0.393 OA
ATOM      9  H   UNL     1     -41.065  27.490   5.822  1.00  0.00     0.210 HD
ENDBRANCH   7   8
BRANCH   5  10
ATOM     10  C   UNL     1     -38.063  23.092   7.497  1.00  0.00    -0.077 C 
ATOM     11  C   UNL     1     -38.059  21.904   8.119  1.00  0.00     0.008 C 
ATOM     12  C   UNL     1     -36.762  23.834   7.316  1.00  0.00     0.039 C 
ENDBRANCH   5  10
TORSDOF 2
ENDMDL
MODEL 3
REMARK VINA RESULT:    -2.475      1.484      2.318
REMARK INTER + INTRA:          -2.915
REMARK INTER:                  -2.693
REMARK INTRA:                  -0.222
REMARK UNBOUND:                -0.223
REMARK SMILES C=C(C)[C@@H]1CC[C@@H](C)[C@H](O)C1
REMARK SMILES IDX 8 1 7 2 6 3 5 4 4 5 11 6 9 7 10 8 2 10 1 11 3 12
REMARK H PARENT 10 9
REMARK Flexibility Score: inf
ROOT
ATOM      1  C   UNL     1     -36.838  22.969   8.125  1.00  0.00     0.010 C 
ATOM      2  C   UNL     1     -37.742  23.446   6.979  1.00  0.00     0.015 C 
ATOM      3  C   UNL     1     -37.537  24.964   6.708  1.00  0.00     0.006 C 
ATOM      4  C   UNL     1     -38.825  25.797   6.796  1.00  0.00     0.008 C 
ATOM      5  C   UNL     1     -40.024  25.184   6.032  1.00  0.00     0.017 C 
ATOM      6  C   UNL     1     -40.120  23.640   6.153  1.00  0.00     0.040 C 
ATOM      7  C   UNL     1     -39.216  23.072   7.257  1.00  0.00     0.117 C 
ENDROOT
BRANCH   7   8
ATOM      8  O   UNL     1     -39.344  21.673   7.290  1.00  0.00    -0.393 OA
ATOM      9  H   UNL     1     -40.197  21.448   6.833  1.00  0.00     0.210 HD
ENDBRANCH   7   8
BRANCH   5  10
ATOM     10  C   UNL     1     -40.066  25.648   4.582  1.00  0.00    -0.077 C 
ATOM     11  C   UNL     1     -40.089  24.726   3.608  1.00  0.00     0.008 C 
ATOM     12  C   UNL     1     -40.125  27.111   4.214  1.00  0.00     0.039 C 
ENDBRANCH   5  10
TORSDOF 2
ENDMDL
MODEL 4
REMARK VINA RESULT:    -1.806      1.369      2.494
REMARK INTER + INTRA:          -2.187
REMARK INTER:                  -1.982
REMARK INTRA:                  -0.205
REMARK UNBOUND:                -0.223
REMARK SMILES C=C(C)[C@@H]1CC[C@@H](C)[C@H](O)C1
REMARK SMILES IDX 8 1 7 2 6 3 5 4 4 5 11 6 9 7 10 8 2 10 1 11 3 12
REMARK H PARENT 10 9
REMARK Flexibility Score: inf
ROOT
ATOM      1  C   UNL     1     -36.092  23.369   8.114  1.00  0.00     0.010 C 
ATOM      2  C   UNL     1     -37.152  23.502   7.010  1.00  0.00     0.015 C 
ATOM      3  C   UNL     1     -37.273  24.978   6.533  1.00  0.00     0.006 C 
ATOM      4  C   UNL     1     -38.691  25.559   6.642  1.00  0.00     0.008 C 
ATOM      5  C   UNL     1     -39.796  24.630   6.080  1.00  0.00     0.017 C 
ATOM      6  C   UNL     1     -39.574  23.128   6.402  1.00  0.00     0.040 C 
ATOM      7  C   UNL     1     -38.499  22.902   7.475  1.00  0.00     0.117 C 
ENDROOT
BRANCH   7   8
ATOM      8  O   UNL     1     -38.343  21.522   7.694  1.00  0.00    -0.393 OA
ATOM      9  H   UNL     1     -39.224  21.098   7.514  1.00  0.00     0.210 HD
ENDBRANCH   7   8
BRANCH   5  10
ATOM     10  C   UNL     1     -40.032  24.868   4.595  1.00  0.00    -0.077 C 
ATOM     11  C   UNL     1     -40.125  26.129   4.149  1.00  0.00     0.008 C 
ATOM     12  C   UNL     1     -40.123  23.729   3.609  1.00  0.00     0.039 C 
ENDBRANCH   5  10
TORSDOF 2
ENDMDL
