MODEL 1
REMARK VINA RESULT:    -2.063      0.000      0.000
REMARK INTER + INTRA:          -2.063
REMARK INTER:                  -2.063
REMARK INTRA:                   0.000
REMARK UNBOUND:                 0.000
REMARK SMILES CC(=O)[O-]
REMARK SMILES IDX 1 1 2 2 3 3 4 4
REMARK H PARENT
REMARK Flexibility Score: inf
ROOT
ATOM      1  C   UNL     1      89.381  82.512  19.660  1.00  0.00     0.063 C 
ATOM      2  C   UNL     1      89.330  81.458  18.608  1.00  0.00     0.038 C 
ATOM      3  O   UNL     1      90.392  81.054  18.067  1.00  0.00    -0.550 OA
ATOM      4  O   UNL     1      88.115  80.881  18.258  1.00  0.00    -0.550 OA
ENDROOT
TORSDOF 0
ENDMDL
MODEL 2
REMARK VINA RESULT:    -2.040      0.249      1.629
REMARK INTER + INTRA:          -2.040
REMARK INTER:                  -2.040
REMARK INTRA:                   0.000
REMARK UNBOUND:                 0.000
REMARK SMILES CC(=O)[O-]
REMARK SMILES IDX 1 1 2 2 3 3 4 4
REMARK H PARENT
REMARK Flexibility Score: inf
ROOT
ATOM      1  C   UNL     1      89.309  82.342  19.724  1.00  0.00     0.063 C 
ATOM      2  C   UNL     1      89.114  81.318  18.658  1.00  0.00     0.038 C 
ATOM      3  O   UNL     1      87.961  80.876  18.411  1.00  0.00    -0.550 OA
ATOM      4  O   UNL     1      90.195  80.888  17.898  1.00  0.00    -0.550 OA
ENDROOT
TORSDOF 0
ENDMDL
MODEL 3
REMARK VINA RESULT:    -1.989     17.791     18.186
REMARK INTER + INTRA:          -1.989
REMARK INTER:                  -1.989
REMARK INTRA:                   0.000
REMARK UNBOUND:                 0.000
REMARK SMILES CC(=O)[O-]
REMARK SMILES IDX 1 1 2 2 3 3 4 4
REMARK H PARENT
REMARK Flexibility Score: inf
ROOT
ATOM      1  C   UNL     1      98.978  96.329  10.744  1.00  0.00     0.063 C 
ATOM      2  C   UNL     1      98.902  95.073  11.543  1.00  0.00     0.038 C 
ATOM      3  O   UNL     1      99.364  93.999  11.077  1.00  0.00    -0.550 OA
ATOM      4  O   UNL     1      98.368  95.094  12.826  1.00  0.00    -0.550 OA
ENDROOT
TORSDOF 0
ENDMDL
MODEL 4
REMARK VINA RESULT:    -1.957     17.940     18.389
REMARK INTER + INTRA:          -1.957
REMARK INTER:                  -1.957
REMARK INTRA:                   0.000
REMARK UNBOUND:                 0.000
REMARK SMILES CC(=O)[O-]
REMARK SMILES IDX 1 1 2 2 3 3 4 4
REMARK H PARENT
REMARK Flexibility Score: inf
ROOT
ATOM      1  C   UNL     1      99.449  94.000  11.076  1.00  0.00     0.063 C 
ATOM      2  C   UNL     1      98.860  95.294  11.523  1.00  0.00     0.038 C 
ATOM      3  O   UNL     1      98.342  95.390  12.666  1.00  0.00    -0.550 OA
ATOM      4  O   UNL     1      98.928  96.411  10.701  1.00  0.00    -0.550 OA
ENDROOT
TORSDOF 0
ENDMDL
MODEL 5
REMARK VINA RESULT:    -1.950      1.395      2.199
REMARK INTER + INTRA:          -1.950
REMARK INTER:                  -1.950
REMARK INTRA:                   0.000
REMARK UNBOUND:                 0.000
REMARK SMILES CC(=O)[O-]
REMARK SMILES IDX 1 1 2 2 3 3 4 4
REMARK H PARENT
REMARK Flexibility Score: inf
ROOT
ATOM      1  C   UNL     1      90.170  80.877  17.917  1.00  0.00     0.063 C 
ATOM      2  C   UNL     1      89.126  81.471  18.800  1.00  0.00     0.038 C 
ATOM      3  O   UNL     1      87.924  81.116  18.683  1.00  0.00    -0.550 OA
ATOM      4  O   UNL     1      89.484  82.379  19.789  1.00  0.00    -0.550 OA
ENDROOT
TORSDOF 0
ENDMDL
MODEL 6
REMARK VINA RESULT:    -1.934     17.905     18.327
REMARK INTER + INTRA:          -1.934
REMARK INTER:                  -1.934
REMARK INTRA:                   0.000
REMARK UNBOUND:                 0.000
REMARK SMILES CC(=O)[O-]
REMARK SMILES IDX 1 1 2 2 3 3 4 4
REMARK H PARENT
REMARK Flexibility Score: inf
ROOT
ATOM      1  C   UNL     1      99.661  94.022  11.029  1.00  0.00     0.063 C 
ATOM      2  C   UNL     1      98.935  95.243  11.479  1.00  0.00     0.038 C 
ATOM      3  O   UNL     1      98.821  96.230  10.706  1.00  0.00    -0.550 OA
ATOM      4  O   UNL     1      98.336  95.275  12.732  1.00  0.00    -0.550 OA
ENDROOT
TORSDOF 0
ENDMDL
MODEL 7
REMARK VINA RESULT:    -1.852     18.829     19.275
REMARK INTER + INTRA:          -1.852
REMARK INTER:                  -1.852
REMARK INTRA:                   0.000
REMARK UNBOUND:                 0.000
REMARK SMILES CC(=O)[O-]
REMARK SMILES IDX 1 1 2 2 3 3 4 4
REMARK H PARENT
REMARK Flexibility Score: inf
ROOT
ATOM      1  C   UNL     1      98.990  94.365  11.306  1.00  0.00     0.063 C 
ATOM      2  C   UNL     1      99.720  95.554  10.783  1.00  0.00     0.038 C 
ATOM      3  O   UNL     1      99.132  96.664  10.689  1.00  0.00    -0.550 OA
ATOM      4  O   UNL     1     101.064  95.456  10.448  1.00  0.00    -0.550 OA
ENDROOT
TORSDOF 0
ENDMDL
MODEL 8
REMARK VINA RESULT:    -1.833      1.867      2.015
REMARK INTER + INTRA:          -1.833
REMARK INTER:                  -1.833
REMARK INTRA:                   0.000
REMARK UNBOUND:                 0.000
REMARK SMILES CC(=O)[O-]
REMARK SMILES IDX 1 1 2 2 3 3 4 4
REMARK H PARENT
REMARK Flexibility Score: inf
ROOT
ATOM      1  C   UNL     1      87.998  81.704  20.125  1.00  0.00     0.063 C 
ATOM      2  C   UNL     1      89.167  82.319  19.435  1.00  0.00     0.038 C 
ATOM      3  O   UNL     1      89.944  81.604  18.750  1.00  0.00    -0.550 OA
ATOM      4  O   UNL     1      89.374  83.692  19.504  1.00  0.00    -0.550 OA
ENDROOT
TORSDOF 0
ENDMDL
MODEL 9
REMARK VINA RESULT:    -1.719     23.306     23.716
REMARK INTER + INTRA:          -1.719
REMARK INTER:                  -1.719
REMARK INTRA:                   0.000
REMARK UNBOUND:                 0.000
REMARK SMILES CC(=O)[O-]
REMARK SMILES IDX 1 1 2 2 3 3 4 4
REMARK H PARENT
REMARK Flexibility Score: inf
ROOT
ATOM      1  C   UNL     1     102.254 101.125   9.959  1.00  0.00     0.063 C 
ATOM      2  C   UNL     1     101.425  99.930  10.286  1.00  0.00     0.038 C 
ATOM      3  O   UNL     1     100.282 100.075  10.793  1.00  0.00    -0.550 OA
ATOM      4  O   UNL     1     101.889  98.656   9.982  1.00  0.00    -0.550 OA
ENDROOT
TORSDOF 0
ENDMDL
