MODEL 1
REMARK VINA RESULT:    -3.521      0.000      0.000
REMARK INTER + INTRA:          -5.186
REMARK INTER:                  -4.961
REMARK INTRA:                  -0.225
REMARK UNBOUND:                -0.225
REMARK SMILES CCCCCCCCC(=O)[O-]
REMARK SMILES IDX 6 1 7 2 8 3 9 4 10 5 11 6 5 7 4 8 3 9 2 10 1 11
REMARK H PARENT
REMARK Flexibility Score: inf
ROOT
ATOM      1  C   UNL     1      -3.983 -70.643 -12.779  1.00  0.00     0.000 C 
ENDROOT
BRANCH   1   2
ATOM      2  C   UNL     1      -3.668 -72.091 -12.366  1.00  0.00     0.006 C 
BRANCH   2   3
ATOM      3  C   UNL     1      -4.928 -72.954 -12.224  1.00  0.00     0.053 C 
BRANCH   3   4
ATOM      4  C   UNL     1      -4.589 -74.273 -11.605  1.00  0.00     0.041 C 
ATOM      5  O   UNL     1      -3.466 -74.448 -11.062  1.00  0.00    -0.550 OA
ATOM      6  O   UNL     1      -5.531 -75.293 -11.584  1.00  0.00    -0.550 OA
ENDBRANCH   3   4
ENDBRANCH   2   3
ENDBRANCH   1   2
BRANCH   1   7
ATOM      7  C   UNL     1      -4.925 -69.939 -11.786  1.00  0.00     0.000 C 
BRANCH   7   8
ATOM      8  C   UNL     1      -4.237 -69.623 -10.447  1.00  0.00    -0.000 C 
BRANCH   8   9
ATOM      9  C   UNL     1      -5.135 -68.814  -9.495  1.00  0.00    -0.000 C 
BRANCH   9  10
ATOM     10  C   UNL     1      -4.555 -68.723  -8.074  1.00  0.00    -0.003 C 
ATOM     11  C   UNL     1      -4.769 -67.351  -7.437  1.00  0.00     0.004 C 
ENDBRANCH   9  10
ENDBRANCH   8   9
ENDBRANCH   7   8
ENDBRANCH   1   7
TORSDOF 7
ENDMDL
MODEL 2
REMARK VINA RESULT:    -3.509      1.750      2.281
REMARK INTER + INTRA:          -5.170
REMARK INTER:                  -4.827
REMARK INTRA:                  -0.343
REMARK UNBOUND:                -0.225
REMARK SMILES CCCCCCCCC(=O)[O-]
REMARK SMILES IDX 6 1 7 2 8 3 9 4 10 5 11 6 5 7 4 8 3 9 2 10 1 11
REMARK H PARENT
REMARK Flexibility Score: inf
ROOT
ATOM      1  C   UNL     1      -4.160 -70.652 -12.337  1.00  0.00     0.000 C 
ENDROOT
BRANCH   1   2
ATOM      2  C   UNL     1      -3.792 -72.146 -12.344  1.00  0.00     0.006 C 
BRANCH   2   3
ATOM      3  C   UNL     1      -5.014 -73.058 -12.172  1.00  0.00     0.053 C 
BRANCH   3   4
ATOM      4  C   UNL     1      -4.607 -74.367 -11.573  1.00  0.00     0.041 C 
ATOM      5  O   UNL     1      -3.483 -74.487 -11.017  1.00  0.00    -0.550 OA
ATOM      6  O   UNL     1      -5.487 -75.441 -11.587  1.00  0.00    -0.550 OA
ENDBRANCH   3   4
ENDBRANCH   2   3
ENDBRANCH   1   2
BRANCH   1   7
ATOM      7  C   UNL     1      -4.321 -70.092 -10.913  1.00  0.00     0.000 C 
BRANCH   7   8
ATOM      8  C   UNL     1      -5.661 -69.364 -10.714  1.00  0.00    -0.000 C 
BRANCH   8   9
ATOM      9  C   UNL     1      -6.871 -70.307 -10.821  1.00  0.00    -0.000 C 
BRANCH   9  10
ATOM     10  C   UNL     1      -7.928 -70.033  -9.739  1.00  0.00    -0.003 C 
ATOM     11  C   UNL     1      -8.344 -71.296  -8.987  1.00  0.00     0.004 C 
ENDBRANCH   9  10
ENDBRANCH   8   9
ENDBRANCH   7   8
ENDBRANCH   1   7
TORSDOF 7
ENDMDL
MODEL 3
REMARK VINA RESULT:    -3.466      7.727      9.064
REMARK INTER + INTRA:          -5.108
REMARK INTER:                  -4.684
REMARK INTRA:                  -0.424
REMARK UNBOUND:                -0.225
REMARK SMILES CCCCCCCCC(=O)[O-]
REMARK SMILES IDX 6 1 7 2 8 3 9 4 10 5 11 6 5 7 4 8 3 9 2 10 1 11
REMARK H PARENT
REMARK Flexibility Score: inf
ROOT
ATOM      1  C   UNL     1     -11.772 -73.402  -9.050  1.00  0.00     0.000 C 
ENDROOT
BRANCH   1   2
ATOM      2  C   UNL     1     -10.649 -73.041 -10.037  1.00  0.00     0.006 C 
BRANCH   2   3
ATOM      3  C   UNL     1      -9.253 -73.133  -9.406  1.00  0.00     0.053 C 
BRANCH   3   4
ATOM      4  C   UNL     1      -8.734 -71.765  -9.089  1.00  0.00     0.041 C 
ATOM      5  O   UNL     1      -7.692 -71.337  -9.652  1.00  0.00    -0.550 OA
ATOM      6  O   UNL     1      -9.428 -70.946  -8.209  1.00  0.00    -0.550 OA
ENDBRANCH   3   4
ENDBRANCH   2   3
ENDBRANCH   1   2
BRANCH   1   7
ATOM      7  C   UNL     1     -13.172 -73.099  -9.614  1.00  0.00     0.000 C 
BRANCH   7   8
ATOM      8  C   UNL     1     -14.110 -74.315  -9.544  1.00  0.00    -0.000 C 
BRANCH   8   9
ATOM      9  C   UNL     1     -13.546 -75.544 -10.278  1.00  0.00    -0.000 C 
BRANCH   9  10
ATOM     10  C   UNL     1     -13.748 -76.846  -9.488  1.00  0.00    -0.003 C 
ATOM     11  C   UNL     1     -13.454 -76.683  -7.997  1.00  0.00     0.004 C 
ENDBRANCH   9  10
ENDBRANCH   8   9
ENDBRANCH   7   8
ENDBRANCH   1   7
TORSDOF 7
ENDMDL
MODEL 4
REMARK VINA RESULT:    -3.407     13.856     14.956
REMARK INTER + INTRA:          -5.025
REMARK INTER:                  -4.802
REMARK INTRA:                  -0.223
REMARK UNBOUND:                -0.225
REMARK SMILES CCCCCCCCC(=O)[O-]
REMARK SMILES IDX 6 1 7 2 8 3 9 4 10 5 11 6 5 7 4 8 3 9 2 10 1 11
REMARK H PARENT
REMARK Flexibility Score: inf
ROOT
ATOM      1  C   UNL     1      -7.930 -65.401   2.794  1.00  0.00     0.000 C 
ENDROOT
BRANCH   1   2
ATOM      2  C   UNL     1      -9.120 -65.453   1.821  1.00  0.00     0.006 C 
BRANCH   2   3
ATOM      3  C   UNL     1      -8.715 -65.143   0.374  1.00  0.00     0.053 C 
BRANCH   3   4
ATOM      4  C   UNL     1      -9.171 -63.771  -0.012  1.00  0.00     0.041 C 
ATOM      5  O   UNL     1      -8.654 -63.187  -1.001  1.00  0.00    -0.550 OA
ATOM      6  O   UNL     1     -10.200 -63.158   0.690  1.00  0.00    -0.550 OA
ENDBRANCH   3   4
ENDBRANCH   2   3
ENDBRANCH   1   2
BRANCH   1   7
ATOM      7  C   UNL     1      -6.595 -65.128   2.079  1.00  0.00     0.000 C 
BRANCH   7   8
ATOM      8  C   UNL     1      -5.384 -65.273   3.016  1.00  0.00    -0.000 C 
BRANCH   8   9
ATOM      9  C   UNL     1      -4.511 -66.492   2.674  1.00  0.00    -0.000 C 
BRANCH   9  10
ATOM     10  C   UNL     1      -3.041 -66.114   2.434  1.00  0.00    -0.003 C 
ATOM     11  C   UNL     1      -2.212 -66.122   3.719  1.00  0.00     0.004 C 
ENDBRANCH   9  10
ENDBRANCH   8   9
ENDBRANCH   7   8
ENDBRANCH   1   7
TORSDOF 7
ENDMDL
MODEL 5
REMARK VINA RESULT:    -3.401     10.000     12.907
REMARK INTER + INTRA:          -5.018
REMARK INTER:                  -4.617
REMARK INTRA:                  -0.401
REMARK UNBOUND:                -0.225
REMARK SMILES CCCCCCCCC(=O)[O-]
REMARK SMILES IDX 6 1 7 2 8 3 9 4 10 5 11 6 5 7 4 8 3 9 2 10 1 11
REMARK H PARENT
REMARK Flexibility Score: inf
ROOT
ATOM      1  C   UNL     1      -7.180 -64.107  -2.118  1.00  0.00     0.000 C 
ENDROOT
BRANCH   1   2
ATOM      2  C   UNL     1      -8.281 -64.852  -1.346  1.00  0.00     0.006 C 
BRANCH   2   3
ATOM      3  C   UNL     1      -8.159 -64.679   0.174  1.00  0.00     0.053 C 
BRANCH   3   4
ATOM      4  C   UNL     1      -9.391 -64.031   0.725  1.00  0.00     0.041 C 
ATOM      5  O   UNL     1     -10.125 -63.331  -0.021  1.00  0.00    -0.550 OA
ATOM      6  O   UNL     1      -9.753 -64.240   2.049  1.00  0.00    -0.550 OA
ENDBRANCH   3   4
ENDBRANCH   2   3
ENDBRANCH   1   2
BRANCH   1   7
ATOM      7  C   UNL     1      -5.920 -63.869  -1.266  1.00  0.00     0.000 C 
BRANCH   7   8
ATOM      8  C   UNL     1      -4.853 -64.956  -1.477  1.00  0.00    -0.000 C 
BRANCH   8   9
ATOM      9  C   UNL     1      -4.589 -65.249  -2.964  1.00  0.00    -0.000 C 
BRANCH   9  10
ATOM     10  C   UNL     1      -4.673 -66.748  -3.292  1.00  0.00    -0.003 C 
ATOM     11  C   UNL     1      -3.963 -67.107  -4.597  1.00  0.00     0.004 C 
ENDBRANCH   9  10
ENDBRANCH   8   9
ENDBRANCH   7   8
ENDBRANCH   1   7
TORSDOF 7
ENDMDL
MODEL 6
REMARK VINA RESULT:    -3.394      7.681      9.061
REMARK INTER + INTRA:          -5.008
REMARK INTER:                  -4.342
REMARK INTRA:                  -0.667
REMARK UNBOUND:                -0.225
REMARK SMILES CCCCCCCCC(=O)[O-]
REMARK SMILES IDX 6 1 7 2 8 3 9 4 10 5 11 6 5 7 4 8 3 9 2 10 1 11
REMARK H PARENT
REMARK Flexibility Score: inf
ROOT
ATOM      1  C   UNL     1      -5.710 -63.999  -5.009  1.00  0.00     0.000 C 
ENDROOT
BRANCH   1   2
ATOM      2  C   UNL     1      -5.143 -64.519  -6.341  1.00  0.00     0.006 C 
BRANCH   2   3
ATOM      3  C   UNL     1      -4.824 -66.019  -6.304  1.00  0.00     0.053 C 
BRANCH   3   4
ATOM      4  C   UNL     1      -3.497 -66.253  -5.654  1.00  0.00     0.041 C 
ATOM      5  O   UNL     1      -2.453 -65.748  -6.145  1.00  0.00    -0.550 OA
ATOM      6  O   UNL     1      -3.419 -66.988  -4.478  1.00  0.00    -0.550 OA
ENDBRANCH   3   4
ENDBRANCH   2   3
ENDBRANCH   1   2
BRANCH   1   7
ATOM      7  C   UNL     1      -6.553 -62.723  -5.186  1.00  0.00     0.000 C 
BRANCH   7   8
ATOM      8  C   UNL     1      -7.101 -62.573  -6.614  1.00  0.00    -0.000 C 
BRANCH   8   9
ATOM      9  C   UNL     1      -8.629 -62.733  -6.684  1.00  0.00    -0.000 C 
BRANCH   9  10
ATOM     10  C   UNL     1      -9.063 -64.205  -6.775  1.00  0.00    -0.003 C 
ATOM     11  C   UNL     1      -8.532 -64.900  -8.028  1.00  0.00     0.004 C 
ENDBRANCH   9  10
ENDBRANCH   8   9
ENDBRANCH   7   8
ENDBRANCH   1   7
TORSDOF 7
ENDMDL
MODEL 7
REMARK VINA RESULT:    -3.376      6.789      8.061
REMARK INTER + INTRA:          -4.983
REMARK INTER:                  -4.678
REMARK INTRA:                  -0.305
REMARK UNBOUND:                -0.225
REMARK SMILES CCCCCCCCC(=O)[O-]
REMARK SMILES IDX 6 1 7 2 8 3 9 4 10 5 11 6 5 7 4 8 3 9 2 10 1 11
REMARK H PARENT
REMARK Flexibility Score: inf
ROOT
ATOM      1  C   UNL     1      -6.324 -65.002  -7.618  1.00  0.00     0.000 C 
ENDROOT
BRANCH   1   2
ATOM      2  C   UNL     1      -5.312 -66.133  -7.367  1.00  0.00     0.006 C 
BRANCH   2   3
ATOM      3  C   UNL     1      -4.437 -65.881  -6.133  1.00  0.00     0.053 C 
BRANCH   3   4
ATOM      4  C   UNL     1      -4.068 -67.178  -5.483  1.00  0.00     0.041 C 
ATOM      5  O   UNL     1      -4.842 -68.168  -5.562  1.00  0.00    -0.550 OA
ATOM      6  O   UNL     1      -2.849 -67.307  -4.832  1.00  0.00    -0.550 OA
ENDBRANCH   3   4
ENDBRANCH   2   3
ENDBRANCH   1   2
BRANCH   1   7
ATOM      7  C   UNL     1      -7.282 -65.316  -8.781  1.00  0.00     0.000 C 
BRANCH   7   8
ATOM      8  C   UNL     1      -8.753 -65.050  -8.420  1.00  0.00    -0.000 C 
BRANCH   8   9
ATOM      9  C   UNL     1      -8.918 -64.411  -7.030  1.00  0.00    -0.000 C 
BRANCH   9  10
ATOM     10  C   UNL     1      -9.168 -62.896  -7.106  1.00  0.00    -0.003 C 
ATOM     11  C   UNL     1      -9.337 -62.397  -8.540  1.00  0.00     0.004 C 
ENDBRANCH   9  10
ENDBRANCH   8   9
ENDBRANCH   7   8
ENDBRANCH   1   7
TORSDOF 7
ENDMDL
MODEL 8
REMARK VINA RESULT:    -3.329      3.577      5.340
REMARK INTER + INTRA:          -4.917
REMARK INTER:                  -4.346
REMARK INTRA:                  -0.571
REMARK UNBOUND:                -0.225
REMARK SMILES CCCCCCCCC(=O)[O-]
REMARK SMILES IDX 6 1 7 2 8 3 9 4 10 5 11 6 5 7 4 8 3 9 2 10 1 11
REMARK H PARENT
REMARK Flexibility Score: inf
ROOT
ATOM      1  C   UNL     1      -5.806 -69.416  -9.751  1.00  0.00     0.000 C 
ENDROOT
BRANCH   1   2
ATOM      2  C   UNL     1      -7.131 -69.682 -10.485  1.00  0.00     0.006 C 
BRANCH   2   3
ATOM      3  C   UNL     1      -7.884 -70.897  -9.928  1.00  0.00     0.053 C 
BRANCH   3   4
ATOM      4  C   UNL     1      -9.082 -70.454  -9.148  1.00  0.00     0.041 C 
ATOM      5  O   UNL     1      -9.403 -71.051  -8.086  1.00  0.00    -0.550 OA
ATOM      6  O   UNL     1      -9.815 -69.352  -9.566  1.00  0.00    -0.550 OA
ENDBRANCH   3   4
ENDBRANCH   2   3
ENDBRANCH   1   2
BRANCH   1   7
ATOM      7  C   UNL     1      -4.577 -69.658 -10.646  1.00  0.00     0.000 C 
BRANCH   7   8
ATOM      8  C   UNL     1      -4.964 -70.058 -12.080  1.00  0.00    -0.000 C 
BRANCH   8   9
ATOM      9  C   UNL     1      -3.927 -70.985 -12.738  1.00  0.00    -0.000 C 
BRANCH   9  10
ATOM     10  C   UNL     1      -3.875 -72.372 -12.079  1.00  0.00    -0.003 C 
ATOM     11  C   UNL     1      -5.233 -73.074 -12.075  1.00  0.00     0.004 C 
ENDBRANCH   9  10
ENDBRANCH   8   9
ENDBRANCH   7   8
ENDBRANCH   1   7
TORSDOF 7
ENDMDL
MODEL 9
REMARK VINA RESULT:    -3.294      9.094     10.443
REMARK INTER + INTRA:          -4.866
REMARK INTER:                  -4.287
REMARK INTRA:                  -0.579
REMARK UNBOUND:                -0.225
REMARK SMILES CCCCCCCCC(=O)[O-]
REMARK SMILES IDX 6 1 7 2 8 3 9 4 10 5 11 6 5 7 4 8 3 9 2 10 1 11
REMARK H PARENT
REMARK Flexibility Score: inf
ROOT
ATOM      1  C   UNL     1     -14.332 -74.520  -9.446  1.00  0.00     0.000 C 
ENDROOT
BRANCH   1   2
ATOM      2  C   UNL     1     -13.512 -73.262  -9.782  1.00  0.00     0.006 C 
BRANCH   2   3
ATOM      3  C   UNL     1     -12.099 -73.300  -9.187  1.00  0.00     0.053 C 
BRANCH   3   4
ATOM      4  C   UNL     1     -11.075 -73.130 -10.265  1.00  0.00     0.041 C 
ATOM      5  O   UNL     1     -10.224 -72.205 -10.191  1.00  0.00    -0.550 OA
ATOM      6  O   UNL     1     -11.031 -74.024 -11.327  1.00  0.00    -0.550 OA
ENDBRANCH   3   4
ENDBRANCH   2   3
ENDBRANCH   1   2
BRANCH   1   7
ATOM      7  C   UNL     1     -13.871 -75.753 -10.245  1.00  0.00     0.000 C 
BRANCH   7   8
ATOM      8  C   UNL     1     -13.698 -76.997  -9.358  1.00  0.00    -0.000 C 
BRANCH   8   9
ATOM      9  C   UNL     1     -13.430 -76.644  -7.884  1.00  0.00    -0.000 C 
BRANCH   9  10
ATOM     10  C   UNL     1     -14.385 -77.369  -6.923  1.00  0.00    -0.003 C 
ATOM     11  C   UNL     1     -15.687 -76.601  -6.694  1.00  0.00     0.004 C 
ENDBRANCH   9  10
ENDBRANCH   8   9
ENDBRANCH   7   8
ENDBRANCH   1   7
TORSDOF 7
ENDMDL
