MODEL 1
REMARK VINA RESULT:    -4.915      0.000      0.000
REMARK INTER + INTRA:          -6.963
REMARK INTER:                  -6.640
REMARK INTRA:                  -0.323
REMARK UNBOUND:                -0.323
REMARK SMILES CCCCCCC=CC(=O)[O-]
REMARK SMILES IDX 5 1 6 2 7 3 8 4 9 5 10 6 11 7 4 8 3 9 2 10 1 11
REMARK H PARENT
REMARK Flexibility Score: inf
ROOT
ATOM      1  C   UNL     1      14.365  15.542  26.449  1.00  0.00     0.004 C 
ENDROOT
BRANCH   1   2
ATOM      2  C   UNL     1      14.750  16.051  27.843  1.00  0.00     0.027 C 
BRANCH   2   3
ATOM      3  C   UNL     1      15.120  14.916  28.754  1.00  0.00    -0.025 C 
ATOM      4  C   UNL     1      14.571  14.784  29.966  1.00  0.00     0.020 C 
BRANCH   4   5
ATOM      5  C   UNL     1      14.909  13.672  30.868  1.00  0.00     0.064 C 
ATOM      6  O   UNL     1      14.865  13.813  32.120  1.00  0.00    -0.545 OA
ATOM      7  O   UNL     1      15.283  12.447  30.332  1.00  0.00    -0.545 OA
ENDBRANCH   4   5
ENDBRANCH   2   3
ENDBRANCH   1   2
BRANCH   1   8
ATOM      8  C   UNL     1      12.842  15.461  26.293  1.00  0.00     0.000 C 
BRANCH   8   9
ATOM      9  C   UNL     1      12.408  15.903  24.887  1.00  0.00    -0.000 C 
BRANCH   9  10
ATOM     10  C   UNL     1      11.671  17.251  24.894  1.00  0.00    -0.003 C 
ATOM     11  C   UNL     1      11.370  17.754  26.305  1.00  0.00     0.004 C 
ENDBRANCH   9  10
ENDBRANCH   8   9
ENDBRANCH   1   8
TORSDOF 6
ENDMDL
MODEL 2
REMARK VINA RESULT:    -4.845      0.803      1.490
REMARK INTER + INTRA:          -6.868
REMARK INTER:                  -6.523
REMARK INTRA:                  -0.345
REMARK UNBOUND:                -0.323
REMARK SMILES CCCCCCC=CC(=O)[O-]
REMARK SMILES IDX 5 1 6 2 7 3 8 4 9 5 10 6 11 7 4 8 3 9 2 10 1 11
REMARK H PARENT
REMARK Flexibility Score: inf
ROOT
ATOM      1  C   UNL     1      13.565  16.627  28.211  1.00  0.00     0.004 C 
ENDROOT
BRANCH   1   2
ATOM      2  C   UNL     1      14.853  15.893  27.817  1.00  0.00     0.027 C 
BRANCH   2   3
ATOM      3  C   UNL     1      15.157  14.776  28.774  1.00  0.00    -0.025 C 
ATOM      4  C   UNL     1      14.649  14.757  30.011  1.00  0.00     0.020 C 
BRANCH   4   5
ATOM      5  C   UNL     1      14.923  13.666  30.959  1.00  0.00     0.064 C 
ATOM      6  O   UNL     1      14.812  13.839  32.203  1.00  0.00    -0.545 OA
ATOM      7  O   UNL     1      15.312  12.423  30.476  1.00  0.00    -0.545 OA
ENDBRANCH   4   5
ENDBRANCH   2   3
ENDBRANCH   1   2
BRANCH   1   8
ATOM      8  C   UNL     1      13.275  17.785  27.250  1.00  0.00     0.000 C 
BRANCH   8   9
ATOM      9  C   UNL     1      11.871  17.658  26.642  1.00  0.00    -0.000 C 
BRANCH   9  10
ATOM     10  C   UNL     1      11.902  17.467  25.117  1.00  0.00    -0.003 C 
ATOM     11  C   UNL     1      12.266  16.041  24.708  1.00  0.00     0.004 C 
ENDBRANCH   9  10
ENDBRANCH   8   9
ENDBRANCH   1   8
TORSDOF 6
ENDMDL
MODEL 3
REMARK VINA RESULT:    -4.766      0.767      1.030
REMARK INTER + INTRA:          -6.761
REMARK INTER:                  -6.411
REMARK INTRA:                  -0.350
REMARK UNBOUND:                -0.323
REMARK SMILES CCCCCCC=CC(=O)[O-]
REMARK SMILES IDX 5 1 6 2 7 3 8 4 9 5 10 6 11 7 4 8 3 9 2 10 1 11
REMARK H PARENT
REMARK Flexibility Score: inf
ROOT
ATOM      1  C   UNL     1      14.854  15.550  27.386  1.00  0.00     0.004 C 
ENDROOT
BRANCH   1   2
ATOM      2  C   UNL     1      14.009  16.085  28.549  1.00  0.00     0.027 C 
BRANCH   2   3
ATOM      3  C   UNL     1      13.999  15.122  29.703  1.00  0.00    -0.025 C 
ATOM      4  C   UNL     1      15.077  14.396  30.017  1.00  0.00     0.020 C 
BRANCH   4   5
ATOM      5  C   UNL     1      15.094  13.459  31.150  1.00  0.00     0.064 C 
ATOM      6  O   UNL     1      14.746  13.826  32.305  1.00  0.00    -0.545 OA
ATOM      7  O   UNL     1      15.500  12.147  30.946  1.00  0.00    -0.545 OA
ENDBRANCH   4   5
ENDBRANCH   2   3
ENDBRANCH   1   2
BRANCH   1   8
ATOM      8  C   UNL     1      14.419  16.176  26.057  1.00  0.00     0.000 C 
BRANCH   8   9
ATOM      9  C   UNL     1      13.156  15.492  25.513  1.00  0.00    -0.000 C 
BRANCH   9  10
ATOM     10  C   UNL     1      12.289  16.439  24.668  1.00  0.00    -0.003 C 
ATOM     11  C   UNL     1      11.789  17.647  25.458  1.00  0.00     0.004 C 
ENDBRANCH   9  10
ENDBRANCH   8   9
ENDBRANCH   1   8
TORSDOF 6
ENDMDL
MODEL 4
REMARK VINA RESULT:    -4.642      3.670      6.178
REMARK INTER + INTRA:          -6.593
REMARK INTER:                  -6.309
REMARK INTRA:                  -0.284
REMARK UNBOUND:                -0.323
REMARK SMILES CCCCCCC=CC(=O)[O-]
REMARK SMILES IDX 5 1 6 2 7 3 8 4 9 5 10 6 11 7 4 8 3 9 2 10 1 11
REMARK H PARENT
REMARK Flexibility Score: inf
ROOT
ATOM      1  C   UNL     1      14.123  16.410  28.566  1.00  0.00     0.004 C 
ENDROOT
BRANCH   1   2
ATOM      2  C   UNL     1      15.094  15.884  27.502  1.00  0.00     0.027 C 
BRANCH   2   3
ATOM      3  C   UNL     1      14.454  15.862  26.144  1.00  0.00    -0.025 C 
ATOM      4  C   UNL     1      13.392  16.622  25.859  1.00  0.00     0.020 C 
BRANCH   4   5
ATOM      5  C   UNL     1      12.758  16.626  24.531  1.00  0.00     0.064 C 
ATOM      6  O   UNL     1      11.842  15.809  24.243  1.00  0.00    -0.545 OA
ATOM      7  O   UNL     1      13.177  17.544  23.577  1.00  0.00    -0.545 OA
ENDBRANCH   4   5
ENDBRANCH   2   3
ENDBRANCH   1   2
BRANCH   1   8
ATOM      8  C   UNL     1      13.668  15.284  29.502  1.00  0.00     0.000 C 
BRANCH   8   9
ATOM      9  C   UNL     1      14.863  14.437  29.965  1.00  0.00    -0.000 C 
BRANCH   9  10
ATOM     10  C   UNL     1      14.751  14.014  31.439  1.00  0.00    -0.003 C 
ATOM     11  C   UNL     1      15.517  12.728  31.745  1.00  0.00     0.004 C 
ENDBRANCH   9  10
ENDBRANCH   8   9
ENDBRANCH   1   8
TORSDOF 6
ENDMDL
MODEL 5
REMARK VINA RESULT:    -4.619      3.638      6.239
REMARK INTER + INTRA:          -6.562
REMARK INTER:                  -6.265
REMARK INTRA:                  -0.297
REMARK UNBOUND:                -0.323
REMARK SMILES CCCCCCC=CC(=O)[O-]
REMARK SMILES IDX 5 1 6 2 7 3 8 4 9 5 10 6 11 7 4 8 3 9 2 10 1 11
REMARK H PARENT
REMARK Flexibility Score: inf
ROOT
ATOM      1  C   UNL     1      14.910  15.638  28.443  1.00  0.00     0.004 C 
ENDROOT
BRANCH   1   2
ATOM      2  C   UNL     1      13.382  15.510  28.440  1.00  0.00     0.027 C 
BRANCH   2   3
ATOM      3  C   UNL     1      12.828  15.641  27.050  1.00  0.00    -0.025 C 
ATOM      4  C   UNL     1      13.441  16.379  26.119  1.00  0.00     0.020 C 
BRANCH   4   5
ATOM      5  C   UNL     1      12.922  16.509  24.748  1.00  0.00     0.064 C 
ATOM      6  O   UNL     1      13.456  17.296  23.921  1.00  0.00    -0.545 OA
ATOM      7  O   UNL     1      11.825  15.752  24.358  1.00  0.00    -0.545 OA
ENDBRANCH   4   5
ENDBRANCH   2   3
ENDBRANCH   1   2
BRANCH   1   8
ATOM      8  C   UNL     1      15.521  14.908  29.644  1.00  0.00     0.000 C 
BRANCH   8   9
ATOM      9  C   UNL     1      14.427  14.294  30.530  1.00  0.00    -0.000 C 
BRANCH   9  10
ATOM     10  C   UNL     1      14.991  13.672  31.818  1.00  0.00    -0.003 C 
ATOM     11  C   UNL     1      15.651  12.315  31.579  1.00  0.00     0.004 C 
ENDBRANCH   9  10
ENDBRANCH   8   9
ENDBRANCH   1   8
TORSDOF 6
ENDMDL
MODEL 6
REMARK VINA RESULT:    -4.449      3.561      6.387
REMARK INTER + INTRA:          -6.332
REMARK INTER:                  -6.130
REMARK INTRA:                  -0.203
REMARK UNBOUND:                -0.323
REMARK SMILES CCCCCCC=CC(=O)[O-]
REMARK SMILES IDX 5 1 6 2 7 3 8 4 9 5 10 6 11 7 4 8 3 9 2 10 1 11
REMARK H PARENT
REMARK Flexibility Score: inf
ROOT
ATOM      1  C   UNL     1      13.867  15.158  29.438  1.00  0.00     0.004 C 
ENDROOT
BRANCH   1   2
ATOM      2  C   UNL     1      14.316  16.326  28.551  1.00  0.00     0.027 C 
BRANCH   2   3
ATOM      3  C   UNL     1      13.229  16.735  27.599  1.00  0.00    -0.025 C 
ATOM      4  C   UNL     1      13.175  16.258  26.351  1.00  0.00     0.020 C 
BRANCH   4   5
ATOM      5  C   UNL     1      12.112  16.635  25.407  1.00  0.00     0.064 C 
ATOM      6  O   UNL     1      11.971  16.032  24.309  1.00  0.00    -0.545 OA
ATOM      7  O   UNL     1      11.249  17.673  25.730  1.00  0.00    -0.545 OA
ENDBRANCH   4   5
ENDBRANCH   2   3
ENDBRANCH   1   2
BRANCH   1   8
ATOM      8  C   UNL     1      15.072  14.440  30.055  1.00  0.00     0.000 C 
BRANCH   8   9
ATOM      9  C   UNL     1      14.756  13.958  31.479  1.00  0.00    -0.000 C 
BRANCH   9  10
ATOM     10  C   UNL     1      15.366  12.581  31.785  1.00  0.00    -0.003 C 
ATOM     11  C   UNL     1      15.603  11.747  30.527  1.00  0.00     0.004 C 
ENDBRANCH   9  10
ENDBRANCH   8   9
ENDBRANCH   1   8
TORSDOF 6
ENDMDL
MODEL 7
REMARK VINA RESULT:    -4.335      2.047      2.939
REMARK INTER + INTRA:          -6.178
REMARK INTER:                  -5.685
REMARK INTRA:                  -0.493
REMARK UNBOUND:                -0.323
REMARK SMILES CCCCCCC=CC(=O)[O-]
REMARK SMILES IDX 5 1 6 2 7 3 8 4 9 5 10 6 11 7 4 8 3 9 2 10 1 11
REMARK H PARENT
REMARK Flexibility Score: inf
ROOT
ATOM      1  C   UNL     1      11.440  17.221  26.235  1.00  0.00     0.004 C 
ENDROOT
BRANCH   1   2
ATOM      2  C   UNL     1      12.283  17.946  27.291  1.00  0.00     0.027 C 
BRANCH   2   3
ATOM      3  C   UNL     1      13.452  17.109  27.723  1.00  0.00    -0.025 C 
ATOM      4  C   UNL     1      13.300  16.066  28.547  1.00  0.00     0.020 C 
BRANCH   4   5
ATOM      5  C   UNL     1      14.430  15.225  28.972  1.00  0.00     0.064 C 
ATOM      6  O   UNL     1      14.462  14.709  30.121  1.00  0.00    -0.545 OA
ATOM      7  O   UNL     1      15.479  14.995  28.091  1.00  0.00    -0.545 OA
ENDBRANCH   4   5
ENDBRANCH   2   3
ENDBRANCH   1   2
BRANCH   1   8
ATOM      8  C   UNL     1      11.647  17.837  24.847  1.00  0.00     0.000 C 
BRANCH   8   9
ATOM      9  C   UNL     1      12.772  17.119  24.088  1.00  0.00    -0.000 C 
BRANCH   9  10
ATOM     10  C   UNL     1      13.797  18.095  23.488  1.00  0.00    -0.003 C 
ATOM     11  C   UNL     1      15.111  18.125  24.266  1.00  0.00     0.004 C 
ENDBRANCH   9  10
ENDBRANCH   8   9
ENDBRANCH   1   8
TORSDOF 6
ENDMDL
MODEL 8
REMARK VINA RESULT:    -4.106      3.095      6.065
REMARK INTER + INTRA:          -5.870
REMARK INTER:                  -5.401
REMARK INTRA:                  -0.469
REMARK UNBOUND:                -0.323
REMARK SMILES CCCCCCC=CC(=O)[O-]
REMARK SMILES IDX 5 1 6 2 7 3 8 4 9 5 10 6 11 7 4 8 3 9 2 10 1 11
REMARK H PARENT
REMARK Flexibility Score: inf
ROOT
ATOM      1  C   UNL     1      14.390  14.209  30.740  1.00  0.00     0.004 C 
ENDROOT
BRANCH   1   2
ATOM      2  C   UNL     1      15.501  14.856  29.903  1.00  0.00     0.027 C 
BRANCH   2   3
ATOM      3  C   UNL     1      15.129  14.907  28.449  1.00  0.00    -0.025 C 
ATOM      4  C   UNL     1      14.755  16.048  27.862  1.00  0.00     0.020 C 
BRANCH   4   5
ATOM      5  C   UNL     1      14.399  16.122  26.436  1.00  0.00     0.064 C 
ATOM      6  O   UNL     1      14.480  17.207  25.800  1.00  0.00    -0.545 OA
ATOM      7  O   UNL     1      13.966  14.978  25.780  1.00  0.00    -0.545 OA
ENDBRANCH   4   5
ENDBRANCH   2   3
ENDBRANCH   1   2
BRANCH   1   8
ATOM      8  C   UNL     1      14.968  13.505  31.972  1.00  0.00     0.000 C 
BRANCH   8   9
ATOM      9  C   UNL     1      15.876  12.336  31.563  1.00  0.00    -0.000 C 
BRANCH   9  10
ATOM     10  C   UNL     1      15.145  11.294  30.703  1.00  0.00    -0.003 C 
ATOM     11  C   UNL     1      15.837  11.041  29.364  1.00  0.00     0.004 C 
ENDBRANCH   9  10
ENDBRANCH   8   9
ENDBRANCH   1   8
TORSDOF 6
ENDMDL
MODEL 9
REMARK VINA RESULT:    -3.016      1.628      2.336
REMARK INTER + INTRA:          -4.396
REMARK INTER:                  -4.101
REMARK INTRA:                  -0.296
REMARK UNBOUND:                -0.323
REMARK SMILES CCCCCCC=CC(=O)[O-]
REMARK SMILES IDX 5 1 6 2 7 3 8 4 9 5 10 6 11 7 4 8 3 9 2 10 1 11
REMARK H PARENT
REMARK Flexibility Score: inf
ROOT
ATOM      1  C   UNL     1      13.636  16.352  24.685  1.00  0.00     0.004 C 
ENDROOT
BRANCH   1   2
ATOM      2  C   UNL     1      14.599  17.087  25.626  1.00  0.00     0.027 C 
BRANCH   2   3
ATOM      3  C   UNL     1      14.963  16.234  26.808  1.00  0.00    -0.025 C 
ATOM      4  C   UNL     1      14.075  15.953  27.767  1.00  0.00     0.020 C 
BRANCH   4   5
ATOM      5  C   UNL     1      14.405  15.109  28.926  1.00  0.00     0.064 C 
ATOM      6  O   UNL     1      13.714  15.147  29.979  1.00  0.00    -0.545 OA
ATOM      7  O   UNL     1      15.498  14.255  28.858  1.00  0.00    -0.545 OA
ENDBRANCH   4   5
ENDBRANCH   2   3
ENDBRANCH   1   2
BRANCH   1   8
ATOM      8  C   UNL     1      12.374  17.182  24.432  1.00  0.00     0.000 C 
BRANCH   8   9
ATOM      9  C   UNL     1      12.089  18.125  25.610  1.00  0.00    -0.000 C 
BRANCH   9  10
ATOM     10  C   UNL     1      11.233  17.463  26.702  1.00  0.00    -0.003 C 
ATOM     11  C   UNL     1       9.736  17.704  26.507  1.00  0.00     0.004 C 
ENDBRANCH   9  10
ENDBRANCH   8   9
ENDBRANCH   1   8
TORSDOF 6
ENDMDL
