MODEL 1
REMARK VINA RESULT:    -7.601      0.000      0.000
REMARK INTER + INTRA:          -7.601
REMARK INTER:                  -7.601
REMARK INTRA:                   0.000
REMARK UNBOUND:                 0.000
REMARK SMILES C=C1CCC[C@]2(C)CC(=O)C(=C(C)C)C[C@H]12
REMARK SMILES IDX 13 1 12 2 11 3 15 4 16 5 2 6 1 7 3 8 4 9 5 10 6 11 8 12 9 13
REMARK SMILES IDX 10 14 7 15 14 16
REMARK H PARENT
REMARK Flexibility Score: inf
ROOT
ATOM      1  C   UNL     1      32.083  19.383  21.384  1.00  0.00     0.039 C 
ATOM      2  C   UNL     1      32.801  20.429  20.564  1.00  0.00    -0.070 C 
ATOM      3  C   UNL     1      33.134  20.203  19.260  1.00  0.00    -0.006 C 
ATOM      4  C   UNL     1      32.810  18.899  18.561  1.00  0.00     0.047 C 
ATOM      5  C   UNL     1      32.472  19.074  17.057  1.00  0.00     0.025 C 
ATOM      6  C   UNL     1      32.405  17.700  16.410  1.00  0.00    -0.073 C 
ATOM      7  C   UNL     1      31.224  17.091  16.220  1.00  0.00     0.008 C 
ATOM      8  C   UNL     1      33.698  16.963  16.131  1.00  0.00     0.031 C 
ATOM      9  C   UNL     1      34.733  17.874  15.455  1.00  0.00     0.005 C 
ATOM     10  C   UNL     1      34.854  19.248  16.140  1.00  0.00     0.008 C 
ATOM     11  C   UNL     1      33.484  19.976  16.282  1.00  0.00    -0.018 C 
ATOM     12  C   UNL     1      33.673  21.329  17.017  1.00  0.00     0.088 C 
ATOM     13  C   UNL     1      33.952  21.156  18.476  1.00  0.00     0.159 C 
ATOM     14  O   UNL     1      34.878  21.822  19.013  1.00  0.00    -0.295 OA
ATOM     15  C   UNL     1      32.917  20.307  14.875  1.00  0.00     0.012 C 
ATOM     16  C   UNL     1      33.100  21.749  21.236  1.00  0.00     0.039 C 
ENDROOT
TORSDOF 0
ENDMDL
MODEL 2
REMARK VINA RESULT:    -6.810      2.163      5.880
REMARK INTER + INTRA:          -6.810
REMARK INTER:                  -6.810
REMARK INTRA:                   0.000
REMARK UNBOUND:                 0.000
REMARK SMILES C=C1CCC[C@]2(C)CC(=O)C(=C(C)C)C[C@H]12
REMARK SMILES IDX 13 1 12 2 11 3 15 4 16 5 2 6 1 7 3 8 4 9 5 10 6 11 8 12 9 13
REMARK SMILES IDX 10 14 7 15 14 16
REMARK H PARENT
REMARK Flexibility Score: inf
ROOT
ATOM      1  C   UNL     1      34.988  22.005  18.243  1.00  0.00     0.039 C 
ATOM      2  C   UNL     1      34.130  20.763  18.184  1.00  0.00    -0.070 C 
ATOM      3  C   UNL     1      33.471  20.303  19.287  1.00  0.00    -0.006 C 
ATOM      4  C   UNL     1      33.561  21.002  20.628  1.00  0.00     0.047 C 
ATOM      5  C   UNL     1      32.249  20.925  21.452  1.00  0.00     0.025 C 
ATOM      6  C   UNL     1      32.525  21.437  22.856  1.00  0.00    -0.073 C 
ATOM      7  C   UNL     1      32.223  22.700  23.195  1.00  0.00     0.008 C 
ATOM      8  C   UNL     1      33.291  20.551  23.817  1.00  0.00     0.031 C 
ATOM      9  C   UNL     1      32.747  19.116  23.818  1.00  0.00     0.005 C 
ATOM     10  C   UNL     1      32.520  18.564  22.398  1.00  0.00     0.008 C 
ATOM     11  C   UNL     1      31.629  19.493  21.522  1.00  0.00    -0.018 C 
ATOM     12  C   UNL     1      31.479  18.900  20.096  1.00  0.00     0.088 C 
ATOM     13  C   UNL     1      32.733  19.020  19.290  1.00  0.00     0.159 C 
ATOM     14  O   UNL     1      33.141  18.027  18.629  1.00  0.00    -0.295 OA
ATOM     15  C   UNL     1      30.201  19.572  22.126  1.00  0.00     0.012 C 
ATOM     16  C   UNL     1      34.001  20.073  16.846  1.00  0.00     0.039 C 
ENDROOT
TORSDOF 0
ENDMDL
MODEL 3
REMARK VINA RESULT:    -6.675      6.525      8.641
REMARK INTER + INTRA:          -6.675
REMARK INTER:                  -6.675
REMARK INTRA:                   0.000
REMARK UNBOUND:                 0.000
REMARK SMILES C=C1CCC[C@]2(C)CC(=O)C(=C(C)C)C[C@H]12
REMARK SMILES IDX 13 1 12 2 11 3 15 4 16 5 2 6 1 7 3 8 4 9 5 10 6 11 8 12 9 13
REMARK SMILES IDX 10 14 7 15 14 16
REMARK H PARENT
REMARK Flexibility Score: inf
ROOT
ATOM      1  C   UNL     1      29.913  17.120  28.579  1.00  0.00     0.039 C 
ATOM      2  C   UNL     1      29.037  18.077  27.806  1.00  0.00    -0.070 C 
ATOM      3  C   UNL     1      29.489  18.702  26.681  1.00  0.00    -0.006 C 
ATOM      4  C   UNL     1      30.887  18.479  26.142  1.00  0.00     0.047 C 
ATOM      5  C   UNL     1      30.966  18.527  24.594  1.00  0.00     0.025 C 
ATOM      6  C   UNL     1      32.428  18.535  24.181  1.00  0.00    -0.073 C 
ATOM      7  C   UNL     1      33.038  17.400  23.802  1.00  0.00     0.008 C 
ATOM      8  C   UNL     1      33.227  19.810  24.355  1.00  0.00     0.031 C 
ATOM      9  C   UNL     1      32.466  21.031  23.822  1.00  0.00     0.005 C 
ATOM     10  C   UNL     1      30.997  21.066  24.284  1.00  0.00     0.008 C 
ATOM     11  C   UNL     1      30.229  19.750  23.961  1.00  0.00    -0.018 C 
ATOM     12  C   UNL     1      28.774  19.838  24.492  1.00  0.00     0.088 C 
ATOM     13  C   UNL     1      28.700  19.743  25.983  1.00  0.00     0.159 C 
ATOM     14  O   UNL     1      27.970  20.550  26.619  1.00  0.00    -0.295 OA
ATOM     15  C   UNL     1      30.133  19.563  22.423  1.00  0.00     0.012 C 
ATOM     16  C   UNL     1      27.627  18.285  28.310  1.00  0.00     0.039 C 
ENDROOT
TORSDOF 0
ENDMDL
MODEL 4
REMARK VINA RESULT:    -6.662      6.516      8.897
REMARK INTER + INTRA:          -6.662
REMARK INTER:                  -6.662
REMARK INTRA:                   0.000
REMARK UNBOUND:                 0.000
REMARK SMILES C=C1CCC[C@]2(C)CC(=O)C(=C(C)C)C[C@H]12
REMARK SMILES IDX 13 1 12 2 11 3 15 4 16 5 2 6 1 7 3 8 4 9 5 10 6 11 8 12 9 13
REMARK SMILES IDX 10 14 7 15 14 16
REMARK H PARENT
REMARK Flexibility Score: inf
ROOT
ATOM      1  C   UNL     1      32.145  17.523  24.998  1.00  0.00     0.039 C 
ATOM      2  C   UNL     1      32.694  18.835  24.489  1.00  0.00    -0.070 C 
ATOM      3  C   UNL     1      33.932  19.276  24.859  1.00  0.00    -0.006 C 
ATOM      4  C   UNL     1      34.822  18.485  25.795  1.00  0.00     0.047 C 
ATOM      5  C   UNL     1      36.333  18.621  25.470  1.00  0.00     0.025 C 
ATOM      6  C   UNL     1      37.132  17.995  26.601  1.00  0.00    -0.073 C 
ATOM      7  C   UNL     1      37.604  16.743  26.494  1.00  0.00     0.008 C 
ATOM      8  C   UNL     1      37.251  18.747  27.911  1.00  0.00     0.031 C 
ATOM      9  C   UNL     1      37.617  20.220  27.685  1.00  0.00     0.005 C 
ATOM     10  C   UNL     1      36.770  20.882  26.581  1.00  0.00     0.008 C 
ATOM     11  C   UNL     1      36.801  20.092  25.240  1.00  0.00    -0.018 C 
ATOM     12  C   UNL     1      35.895  20.789  24.190  1.00  0.00     0.088 C 
ATOM     13  C   UNL     1      34.439  20.615  24.483  1.00  0.00     0.159 C 
ATOM     14  O   UNL     1      33.669  21.611  24.406  1.00  0.00    -0.295 OA
ATOM     15  C   UNL     1      38.242  20.097  24.661  1.00  0.00     0.012 C 
ATOM     16  C   UNL     1      31.834  19.620  23.526  1.00  0.00     0.039 C 
ENDROOT
TORSDOF 0
ENDMDL
MODEL 5
REMARK VINA RESULT:    -6.575      1.586      3.125
REMARK INTER + INTRA:          -6.575
REMARK INTER:                  -6.575
REMARK INTRA:                   0.000
REMARK UNBOUND:                 0.000
REMARK SMILES C=C1CCC[C@]2(C)CC(=O)C(=C(C)C)C[C@H]12
REMARK SMILES IDX 13 1 12 2 11 3 15 4 16 5 2 6 1 7 3 8 4 9 5 10 6 11 8 12 9 13
REMARK SMILES IDX 10 14 7 15 14 16
REMARK H PARENT
REMARK Flexibility Score: inf
ROOT
ATOM      1  C   UNL     1      34.258  22.671  20.254  1.00  0.00     0.039 C 
ATOM      2  C   UNL     1      33.425  21.425  20.446  1.00  0.00    -0.070 C 
ATOM      3  C   UNL     1      33.151  20.588  19.404  1.00  0.00    -0.006 C 
ATOM      4  C   UNL     1      33.658  20.856  18.001  1.00  0.00     0.047 C 
ATOM      5  C   UNL     1      33.999  19.564  17.213  1.00  0.00     0.025 C 
ATOM      6  C   UNL     1      34.260  19.934  15.762  1.00  0.00    -0.073 C 
ATOM      7  C   UNL     1      35.515  20.092  15.312  1.00  0.00     0.008 C 
ATOM      8  C   UNL     1      33.081  20.276  14.875  1.00  0.00     0.031 C 
ATOM      9  C   UNL     1      31.949  19.249  15.019  1.00  0.00     0.005 C 
ATOM     10  C   UNL     1      31.635  18.912  16.489  1.00  0.00     0.008 C 
ATOM     11  C   UNL     1      32.893  18.464  17.290  1.00  0.00    -0.018 C 
ATOM     12  C   UNL     1      32.513  18.185  18.768  1.00  0.00     0.088 C 
ATOM     13  C   UNL     1      32.230  19.437  19.535  1.00  0.00     0.159 C 
ATOM     14  O   UNL     1      31.214  19.491  20.279  1.00  0.00    -0.295 OA
ATOM     15  C   UNL     1      33.439  17.133  16.709  1.00  0.00     0.012 C 
ATOM     16  C   UNL     1      32.941  21.125  21.845  1.00  0.00     0.039 C 
ENDROOT
TORSDOF 0
ENDMDL
MODEL 6
REMARK VINA RESULT:    -6.294      6.904      9.869
REMARK INTER + INTRA:          -6.294
REMARK INTER:                  -6.294
REMARK INTRA:                   0.000
REMARK UNBOUND:                 0.000
REMARK SMILES C=C1CCC[C@]2(C)CC(=O)C(=C(C)C)C[C@H]12
REMARK SMILES IDX 13 1 12 2 11 3 15 4 16 5 2 6 1 7 3 8 4 9 5 10 6 11 8 12 9 13
REMARK SMILES IDX 10 14 7 15 14 16
REMARK H PARENT
REMARK Flexibility Score: inf
ROOT
ATOM      1  C   UNL     1      33.346  21.244  24.245  1.00  0.00     0.039 C 
ATOM      2  C   UNL     1      33.866  19.845  24.480  1.00  0.00    -0.070 C 
ATOM      3  C   UNL     1      35.085  19.629  25.054  1.00  0.00    -0.006 C 
ATOM      4  C   UNL     1      35.986  20.769  25.485  1.00  0.00     0.047 C 
ATOM      5  C   UNL     1      36.814  20.452  26.757  1.00  0.00     0.025 C 
ATOM      6  C   UNL     1      37.845  21.551  26.954  1.00  0.00    -0.073 C 
ATOM      7  C   UNL     1      37.614  22.559  27.810  1.00  0.00     0.008 C 
ATOM      8  C   UNL     1      39.062  21.577  26.054  1.00  0.00     0.031 C 
ATOM      9  C   UNL     1      39.708  20.189  25.937  1.00  0.00     0.005 C 
ATOM     10  C   UNL     1      38.678  19.073  25.677  1.00  0.00     0.008 C 
ATOM     11  C   UNL     1      37.523  19.061  26.721  1.00  0.00    -0.018 C 
ATOM     12  C   UNL     1      36.503  17.945  26.374  1.00  0.00     0.088 C 
ATOM     13  C   UNL     1      35.674  18.276  25.174  1.00  0.00     0.159 C 
ATOM     14  O   UNL     1      35.493  17.401  24.286  1.00  0.00    -0.295 OA
ATOM     15  C   UNL     1      38.090  18.727  28.127  1.00  0.00     0.012 C 
ATOM     16  C   UNL     1      32.966  18.697  24.088  1.00  0.00     0.039 C 
ENDROOT
TORSDOF 0
ENDMDL
MODEL 7
REMARK VINA RESULT:    -6.176      8.748     11.198
REMARK INTER + INTRA:          -6.176
REMARK INTER:                  -6.176
REMARK INTRA:                   0.000
REMARK UNBOUND:                 0.000
REMARK SMILES C=C1CCC[C@]2(C)CC(=O)C(=C(C)C)C[C@H]12
REMARK SMILES IDX 13 1 12 2 11 3 15 4 16 5 2 6 1 7 3 8 4 9 5 10 6 11 8 12 9 13
REMARK SMILES IDX 10 14 7 15 14 16
REMARK H PARENT
REMARK Flexibility Score: inf
ROOT
ATOM      1  C   UNL     1      42.052  18.748  23.195  1.00  0.00     0.039 C 
ATOM      2  C   UNL     1      41.783  17.869  24.393  1.00  0.00    -0.070 C 
ATOM      3  C   UNL     1      40.718  18.099  25.215  1.00  0.00    -0.006 C 
ATOM      4  C   UNL     1      39.750  19.241  24.980  1.00  0.00     0.047 C 
ATOM      5  C   UNL     1      38.291  18.904  25.384  1.00  0.00     0.025 C 
ATOM      6  C   UNL     1      37.466  20.180  25.336  1.00  0.00    -0.073 C 
ATOM      7  C   UNL     1      36.708  20.464  24.265  1.00  0.00     0.008 C 
ATOM      8  C   UNL     1      37.637  21.199  26.444  1.00  0.00     0.031 C 
ATOM      9  C   UNL     1      37.607  20.538  27.829  1.00  0.00     0.005 C 
ATOM     10  C   UNL     1      38.488  19.277  27.907  1.00  0.00     0.008 C 
ATOM     11  C   UNL     1      38.160  18.240  26.791  1.00  0.00    -0.018 C 
ATOM     12  C   UNL     1      39.112  17.020  26.902  1.00  0.00     0.088 C 
ATOM     13  C   UNL     1      40.507  17.337  26.467  1.00  0.00     0.159 C 
ATOM     14  O   UNL     1      41.478  16.953  27.173  1.00  0.00    -0.295 OA
ATOM     15  C   UNL     1      36.717  17.702  26.983  1.00  0.00     0.012 C 
ATOM     16  C   UNL     1      42.718  16.705  24.623  1.00  0.00     0.039 C 
ENDROOT
TORSDOF 0
ENDMDL
MODEL 8
REMARK VINA RESULT:    -6.098      7.973     11.397
REMARK INTER + INTRA:          -6.098
REMARK INTER:                  -6.098
REMARK INTRA:                   0.000
REMARK UNBOUND:                 0.000
REMARK SMILES C=C1CCC[C@]2(C)CC(=O)C(=C(C)C)C[C@H]12
REMARK SMILES IDX 13 1 12 2 11 3 15 4 16 5 2 6 1 7 3 8 4 9 5 10 6 11 8 12 9 13
REMARK SMILES IDX 10 14 7 15 14 16
REMARK H PARENT
REMARK Flexibility Score: inf
ROOT
ATOM      1  C   UNL     1      34.994  20.651  24.286  1.00  0.00     0.039 C 
ATOM      2  C   UNL     1      35.482  19.612  25.268  1.00  0.00    -0.070 C 
ATOM      3  C   UNL     1      36.487  19.887  26.150  1.00  0.00    -0.006 C 
ATOM      4  C   UNL     1      37.171  21.238  26.195  1.00  0.00     0.047 C 
ATOM      5  C   UNL     1      37.602  21.662  27.624  1.00  0.00     0.025 C 
ATOM      6  C   UNL     1      38.481  22.898  27.520  1.00  0.00    -0.073 C 
ATOM      7  C   UNL     1      37.965  24.121  27.718  1.00  0.00     0.008 C 
ATOM      8  C   UNL     1      39.907  22.739  27.036  1.00  0.00     0.031 C 
ATOM      9  C   UNL     1      40.618  21.577  27.744  1.00  0.00     0.005 C 
ATOM     10  C   UNL     1      39.760  20.299  27.801  1.00  0.00     0.008 C 
ATOM     11  C   UNL     1      38.350  20.544  28.417  1.00  0.00    -0.018 C 
ATOM     12  C   UNL     1      37.527  19.229  28.403  1.00  0.00     0.088 C 
ATOM     13  C   UNL     1      37.074  18.850  27.029  1.00  0.00     0.159 C 
ATOM     14  O   UNL     1      37.199  17.657  26.643  1.00  0.00    -0.295 OA
ATOM     15  C   UNL     1      38.494  20.966  29.904  1.00  0.00     0.012 C 
ATOM     16  C   UNL     1      34.788  18.270  25.260  1.00  0.00     0.039 C 
ENDROOT
TORSDOF 0
ENDMDL
MODEL 9
REMARK VINA RESULT:    -5.941      1.856      5.909
REMARK INTER + INTRA:          -5.941
REMARK INTER:                  -5.941
REMARK INTRA:                   0.000
REMARK UNBOUND:                 0.000
REMARK SMILES C=C1CCC[C@]2(C)CC(=O)C(=C(C)C)C[C@H]12
REMARK SMILES IDX 13 1 12 2 11 3 15 4 16 5 2 6 1 7 3 8 4 9 5 10 6 11 8 12 9 13
REMARK SMILES IDX 10 14 7 15 14 16
REMARK H PARENT
REMARK Flexibility Score: inf
ROOT
ATOM      1  C   UNL     1      31.978  18.242  18.195  1.00  0.00     0.039 C 
ATOM      2  C   UNL     1      32.908  19.388  18.515  1.00  0.00    -0.070 C 
ATOM      3  C   UNL     1      32.958  19.932  19.765  1.00  0.00    -0.006 C 
ATOM      4  C   UNL     1      32.089  19.427  20.899  1.00  0.00     0.047 C 
ATOM      5  C   UNL     1      32.780  19.502  22.285  1.00  0.00     0.025 C 
ATOM      6  C   UNL     1      31.748  19.205  23.361  1.00  0.00    -0.073 C 
ATOM      7  C   UNL     1      31.650  17.977  23.893  1.00  0.00     0.008 C 
ATOM      8  C   UNL     1      30.730  20.272  23.706  1.00  0.00     0.031 C 
ATOM      9  C   UNL     1      31.391  21.643  23.898  1.00  0.00     0.005 C 
ATOM     10  C   UNL     1      32.396  21.982  22.780  1.00  0.00     0.008 C 
ATOM     11  C   UNL     1      33.470  20.873  22.576  1.00  0.00    -0.018 C 
ATOM     12  C   UNL     1      34.418  21.257  21.409  1.00  0.00     0.088 C 
ATOM     13  C   UNL     1      33.760  21.138  20.071  1.00  0.00     0.159 C 
ATOM     14  O   UNL     1      33.899  22.066  19.229  1.00  0.00    -0.295 OA
ATOM     15  C   UNL     1      34.351  20.754  23.848  1.00  0.00     0.012 C 
ATOM     16  C   UNL     1      33.807  19.881  17.405  1.00  0.00     0.039 C 
ENDROOT
TORSDOF 0
ENDMDL
