MODEL 1
REMARK VINA RESULT:    -3.841      0.000      0.000
REMARK INTER + INTRA:          -4.748
REMARK INTER:                  -4.627
REMARK INTRA:                  -0.121
REMARK UNBOUND:                -0.121
REMARK SMILES CC[C@H](C)[C@@H]([NH3+])C(=O)[O-]
REMARK SMILES IDX 3 1 4 2 5 3 6 4 7 8 8 9 9 10 2 11 1 12
REMARK H PARENT 6 5 6 6 6 7
REMARK Flexibility Score: inf
ROOT
ATOM      1  C   UNL     1      -1.618  61.810  33.328  1.00  0.00     0.050 C 
ATOM      2  C   UNL     1      -3.059  61.266  33.245  1.00  0.00     0.014 C 
ENDROOT
BRANCH   1   3
ATOM      3  C   UNL     1      -1.510  62.974  34.367  1.00  0.00     0.230 C 
BRANCH   3   4
ATOM      4  N   UNL     1      -2.476  64.052  34.097  1.00  0.00    -0.350 N 
ATOM      5  H   UNL     1      -2.507  64.719  34.900  1.00  0.00     0.345 HD
ATOM      6  H   UNL     1      -2.224  64.564  33.220  1.00  0.00     0.345 HD
ATOM      7  H   UNL     1      -3.439  63.655  33.993  1.00  0.00     0.345 HD
ENDBRANCH   3   4
BRANCH   3   8
ATOM      8  C   UNL     1      -1.715  62.464  35.773  1.00  0.00     0.099 C 
ATOM      9  O   UNL     1      -2.509  63.051  36.555  1.00  0.00    -0.544 OA
ATOM     10  O   UNL     1      -1.022  61.342  36.211  1.00  0.00    -0.544 OA
ENDBRANCH   3   8
ENDBRANCH   1   3
BRANCH   1  11
ATOM     11  C   UNL     1      -1.140  62.280  31.925  1.00  0.00     0.006 C 
ATOM     12  C   UNL     1      -2.242  62.228  30.864  1.00  0.00     0.004 C 
ENDBRANCH   1  11
TORSDOF 4
ENDMDL
MODEL 2
REMARK VINA RESULT:    -3.808      9.361     10.091
REMARK INTER + INTRA:          -4.708
REMARK INTER:                  -4.602
REMARK INTRA:                  -0.106
REMARK UNBOUND:                -0.121
REMARK SMILES CC[C@H](C)[C@@H]([NH3+])C(=O)[O-]
REMARK SMILES IDX 3 1 4 2 5 3 6 4 7 8 8 9 9 10 2 11 1 12
REMARK H PARENT 6 5 6 6 6 7
REMARK Flexibility Score: inf
ROOT
ATOM      1  C   UNL     1       7.337  63.123  34.775  1.00  0.00     0.050 C 
ATOM      2  C   UNL     1       8.733  63.417  35.362  1.00  0.00     0.014 C 
ENDROOT
BRANCH   1   3
ATOM      3  C   UNL     1       7.384  61.924  33.771  1.00  0.00     0.230 C 
BRANCH   3   4
ATOM      4  N   UNL     1       8.502  62.040  32.820  1.00  0.00    -0.350 N 
ATOM      5  H   UNL     1       8.140  62.084  31.841  1.00  0.00     0.345 HD
ATOM      6  H   UNL     1       9.074  62.892  33.024  1.00  0.00     0.345 HD
ATOM      7  H   UNL     1       9.117  61.196  32.881  1.00  0.00     0.345 HD
ENDBRANCH   3   4
BRANCH   3   8
ATOM      8  C   UNL     1       7.492  60.609  34.505  1.00  0.00     0.099 C 
ATOM      9  O   UNL     1       8.176  59.666  34.026  1.00  0.00    -0.544 OA
ATOM     10  O   UNL     1       6.831  60.433  35.714  1.00  0.00    -0.544 OA
ENDBRANCH   3   8
ENDBRANCH   1   3
BRANCH   1  11
ATOM     11  C   UNL     1       6.765  64.393  34.087  1.00  0.00     0.006 C 
ATOM     12  C   UNL     1       7.732  65.579  34.111  1.00  0.00     0.004 C 
ENDBRANCH   1  11
TORSDOF 4
ENDMDL
MODEL 3
REMARK VINA RESULT:    -3.805     10.092     10.697
REMARK INTER + INTRA:          -4.704
REMARK INTER:                  -4.560
REMARK INTRA:                  -0.144
REMARK UNBOUND:                -0.121
REMARK SMILES CC[C@H](C)[C@@H]([NH3+])C(=O)[O-]
REMARK SMILES IDX 3 1 4 2 5 3 6 4 7 8 8 9 9 10 2 11 1 12
REMARK H PARENT 6 5 6 6 6 7
REMARK Flexibility Score: inf
ROOT
ATOM      1  C   UNL     1       8.097  60.504  33.918  1.00  0.00     0.050 C 
ATOM      2  C   UNL     1       6.985  61.563  33.767  1.00  0.00     0.014 C 
ENDROOT
BRANCH   1   3
ATOM      3  C   UNL     1       8.064  59.844  35.336  1.00  0.00     0.230 C 
BRANCH   3   4
ATOM      4  N   UNL     1       7.129  60.527  36.245  1.00  0.00    -0.350 N 
ATOM      5  H   UNL     1       6.561  61.229  35.720  1.00  0.00     0.345 HD
ATOM      6  H   UNL     1       6.497  59.836  36.712  1.00  0.00     0.345 HD
ATOM      7  H   UNL     1       7.660  61.051  36.980  1.00  0.00     0.345 HD
ENDBRANCH   3   4
BRANCH   3   8
ATOM      8  C   UNL     1       7.689  58.385  35.244  1.00  0.00     0.099 C 
ATOM      9  O   UNL     1       6.682  57.944  35.859  1.00  0.00    -0.544 OA
ATOM     10  O   UNL     1       8.459  57.518  34.479  1.00  0.00    -0.544 OA
ENDBRANCH   3   8
ENDBRANCH   1   3
BRANCH   1  11
ATOM     11  C   UNL     1       9.487  61.142  33.642  1.00  0.00     0.006 C 
ATOM     12  C   UNL     1      10.506  60.869  34.750  1.00  0.00     0.004 C 
ENDBRANCH   1  11
TORSDOF 4
ENDMDL
MODEL 4
REMARK VINA RESULT:    -3.802      2.859      3.796
REMARK INTER + INTRA:          -4.701
REMARK INTER:                  -4.584
REMARK INTRA:                  -0.116
REMARK UNBOUND:                -0.121
REMARK SMILES CC[C@H](C)[C@@H]([NH3+])C(=O)[O-]
REMARK SMILES IDX 3 1 4 2 5 3 6 4 7 8 8 9 9 10 2 11 1 12
REMARK H PARENT 6 5 6 6 6 7
REMARK Flexibility Score: inf
ROOT
ATOM      1  C   UNL     1      -1.802  62.204  29.660  1.00  0.00     0.050 C 
ATOM      2  C   UNL     1      -2.640  61.684  28.474  1.00  0.00     0.014 C 
ENDROOT
BRANCH   1   3
ATOM      3  C   UNL     1      -2.699  62.483  30.911  1.00  0.00     0.230 C 
BRANCH   3   4
ATOM      4  N   UNL     1      -4.063  61.955  30.746  1.00  0.00    -0.350 N 
ATOM      5  H   UNL     1      -4.726  62.466  31.370  1.00  0.00     0.345 HD
ATOM      6  H   UNL     1      -4.375  62.041  29.750  1.00  0.00     0.345 HD
ATOM      7  H   UNL     1      -4.095  60.947  31.025  1.00  0.00     0.345 HD
ENDBRANCH   3   4
BRANCH   3   8
ATOM      8  C   UNL     1      -2.086  61.893  32.157  1.00  0.00     0.099 C 
ATOM      9  O   UNL     1      -2.791  61.226  32.961  1.00  0.00    -0.544 OA
ATOM     10  O   UNL     1      -0.736  62.086  32.425  1.00  0.00    -0.544 OA
ENDBRANCH   3   8
ENDBRANCH   1   3
BRANCH   1  11
ATOM     11  C   UNL     1      -1.023  63.484  29.247  1.00  0.00     0.006 C 
ATOM     12  C   UNL     1      -1.521  64.747  29.953  1.00  0.00     0.004 C 
ENDBRANCH   1  11
TORSDOF 4
ENDMDL
MODEL 5
REMARK VINA RESULT:    -3.802      2.710      3.550
REMARK INTER + INTRA:          -4.700
REMARK INTER:                  -4.557
REMARK INTRA:                  -0.144
REMARK UNBOUND:                -0.121
REMARK SMILES CC[C@H](C)[C@@H]([NH3+])C(=O)[O-]
REMARK SMILES IDX 3 1 4 2 5 3 6 4 7 8 8 9 9 10 2 11 1 12
REMARK H PARENT 6 5 6 6 6 7
REMARK Flexibility Score: inf
ROOT
ATOM      1  C   UNL     1      -2.360  63.089  35.799  1.00  0.00     0.050 C 
ATOM      2  C   UNL     1      -1.212  63.084  34.769  1.00  0.00     0.014 C 
ENDROOT
BRANCH   1   3
ATOM      3  C   UNL     1      -2.335  61.799  36.683  1.00  0.00     0.230 C 
BRANCH   3   4
ATOM      4  N   UNL     1      -1.359  60.811  36.198  1.00  0.00    -0.350 N 
ATOM      5  H   UNL     1      -1.623  59.853  36.519  1.00  0.00     0.345 HD
ATOM      6  H   UNL     1      -1.301  60.830  35.153  1.00  0.00     0.345 HD
ATOM      7  H   UNL     1      -0.411  61.015  36.593  1.00  0.00     0.345 HD
ENDBRANCH   3   4
BRANCH   3   8
ATOM      8  C   UNL     1      -2.025  62.137  38.122  1.00  0.00     0.099 C 
ATOM      9  O   UNL     1      -1.017  61.640  38.691  1.00  0.00    -0.544 OA
ATOM     10  O   UNL     1      -2.857  62.997  38.827  1.00  0.00    -0.544 OA
ENDBRANCH   3   8
ENDBRANCH   1   3
BRANCH   1  11
ATOM     11  C   UNL     1      -3.728  63.233  35.077  1.00  0.00     0.006 C 
ATOM     12  C   UNL     1      -4.736  62.153  35.475  1.00  0.00     0.004 C 
ENDBRANCH   1  11
TORSDOF 4
ENDMDL
MODEL 6
REMARK VINA RESULT:    -3.782     10.256     10.844
REMARK INTER + INTRA:          -4.677
REMARK INTER:                  -4.613
REMARK INTRA:                  -0.064
REMARK UNBOUND:                -0.121
REMARK SMILES CC[C@H](C)[C@@H]([NH3+])C(=O)[O-]
REMARK SMILES IDX 3 1 4 2 5 3 6 4 7 8 8 9 9 10 2 11 1 12
REMARK H PARENT 6 5 6 6 6 7
REMARK Flexibility Score: inf
ROOT
ATOM      1  C   UNL     1       7.916  65.018  34.452  1.00  0.00     0.050 C 
ATOM      2  C   UNL     1       6.795  63.973  34.277  1.00  0.00     0.014 C 
ENDROOT
BRANCH   1   3
ATOM      3  C   UNL     1       8.155  65.821  33.132  1.00  0.00     0.230 C 
BRANCH   3   4
ATOM      4  N   UNL     1       7.521  65.179  31.968  1.00  0.00    -0.350 N 
ATOM      5  H   UNL     1       7.121  65.903  31.330  1.00  0.00     0.345 HD
ATOM      6  H   UNL     1       8.212  64.590  31.448  1.00  0.00     0.345 HD
ATOM      7  H   UNL     1       6.726  64.573  32.280  1.00  0.00     0.345 HD
ENDBRANCH   3   4
BRANCH   3   8
ATOM      8  C   UNL     1       7.643  67.235  33.259  1.00  0.00     0.099 C 
ATOM      9  O   UNL     1       8.270  68.082  33.949  1.00  0.00    -0.544 OA
ATOM     10  O   UNL     1       6.471  67.609  32.614  1.00  0.00    -0.544 OA
ENDBRANCH   3   8
ENDBRANCH   1   3
BRANCH   1  11
ATOM     11  C   UNL     1       9.227  64.326  34.919  1.00  0.00     0.006 C 
ATOM     12  C   UNL     1       9.013  62.887  35.393  1.00  0.00     0.004 C 
ENDBRANCH   1  11
TORSDOF 4
ENDMDL
MODEL 7
REMARK VINA RESULT:    -3.747      2.843      4.014
REMARK INTER + INTRA:          -4.634
REMARK INTER:                  -4.513
REMARK INTRA:                  -0.121
REMARK UNBOUND:                -0.121
REMARK SMILES CC[C@H](C)[C@@H]([NH3+])C(=O)[O-]
REMARK SMILES IDX 3 1 4 2 5 3 6 4 7 8 8 9 9 10 2 11 1 12
REMARK H PARENT 6 5 6 6 6 7
REMARK Flexibility Score: inf
ROOT
ATOM      1  C   UNL     1      -1.952  63.244  34.417  1.00  0.00     0.050 C 
ATOM      2  C   UNL     1      -3.458  63.577  34.365  1.00  0.00     0.014 C 
ENDROOT
BRANCH   1   3
ATOM      3  C   UNL     1      -1.588  62.105  33.409  1.00  0.00     0.230 C 
BRANCH   3   4
ATOM      4  N   UNL     1      -2.434  60.913  33.586  1.00  0.00    -0.350 N 
ATOM      5  H   UNL     1      -2.713  60.813  34.588  1.00  0.00     0.345 HD
ATOM      6  H   UNL     1      -3.288  60.974  32.985  1.00  0.00     0.345 HD
ATOM      7  H   UNL     1      -1.900  60.051  33.330  1.00  0.00     0.345 HD
ENDBRANCH   3   4
BRANCH   3   8
ATOM      8  C   UNL     1      -1.703  62.588  31.984  1.00  0.00     0.099 C 
ATOM      9  O   UNL     1      -0.955  63.507  31.558  1.00  0.00    -0.544 OA
ATOM     10  O   UNL     1      -2.643  62.020  31.133  1.00  0.00    -0.544 OA
ENDBRANCH   3   8
ENDBRANCH   1   3
BRANCH   1  11
ATOM     11  C   UNL     1      -1.539  62.850  35.863  1.00  0.00     0.006 C 
ATOM     12  C   UNL     1      -2.717  62.819  36.839  1.00  0.00     0.004 C 
ENDBRANCH   1  11
TORSDOF 4
ENDMDL
MODEL 8
REMARK VINA RESULT:    -3.734      9.624     10.205
REMARK INTER + INTRA:          -4.619
REMARK INTER:                  -4.500
REMARK INTRA:                  -0.118
REMARK UNBOUND:                -0.121
REMARK SMILES CC[C@H](C)[C@@H]([NH3+])C(=O)[O-]
REMARK SMILES IDX 3 1 4 2 5 3 6 4 7 8 8 9 9 10 2 11 1 12
REMARK H PARENT 6 5 6 6 6 7
REMARK Flexibility Score: inf
ROOT
ATOM      1  C   UNL     1       7.592  62.213  33.581  1.00  0.00     0.050 C 
ATOM      2  C   UNL     1       9.082  62.162  33.183  1.00  0.00     0.014 C 
ENDROOT
BRANCH   1   3
ATOM      3  C   UNL     1       7.312  63.382  34.581  1.00  0.00     0.230 C 
BRANCH   3   4
ATOM      4  N   UNL     1       8.227  63.358  35.735  1.00  0.00    -0.350 N 
ATOM      5  H   UNL     1       9.038  62.731  35.540  1.00  0.00     0.345 HD
ATOM      6  H   UNL     1       8.569  64.322  35.956  1.00  0.00     0.345 HD
ATOM      7  H   UNL     1       7.737  62.972  36.575  1.00  0.00     0.345 HD
ENDBRANCH   3   4
BRANCH   3   8
ATOM      8  C   UNL     1       7.419  64.721  33.892  1.00  0.00     0.099 C 
ATOM      9  O   UNL     1       6.775  64.947  32.833  1.00  0.00    -0.544 OA
ATOM     10  O   UNL     1       8.235  65.712  34.423  1.00  0.00    -0.544 OA
ENDBRANCH   3   8
ENDBRANCH   1   3
BRANCH   1  11
ATOM     11  C   UNL     1       7.152  60.853  34.190  1.00  0.00     0.006 C 
ATOM     12  C   UNL     1       8.298  59.845  34.305  1.00  0.00     0.004 C 
ENDBRANCH   1  11
TORSDOF 4
ENDMDL
MODEL 9
REMARK VINA RESULT:    -3.703      4.039      4.785
REMARK INTER + INTRA:          -4.581
REMARK INTER:                  -4.637
REMARK INTRA:                   0.056
REMARK UNBOUND:                -0.121
REMARK SMILES CC[C@H](C)[C@@H]([NH3+])C(=O)[O-]
REMARK SMILES IDX 3 1 4 2 5 3 6 4 7 8 8 9 9 10 2 11 1 12
REMARK H PARENT 6 5 6 6 6 7
REMARK Flexibility Score: inf
ROOT
ATOM      1  C   UNL     1      -2.934  63.370  31.697  1.00  0.00     0.050 C 
ATOM      2  C   UNL     1      -3.722  62.056  31.520  1.00  0.00     0.014 C 
ENDROOT
BRANCH   1   3
ATOM      3  C   UNL     1      -2.858  64.172  30.357  1.00  0.00     0.230 C 
BRANCH   3   4
ATOM      4  N   UNL     1      -2.646  65.612  30.581  1.00  0.00    -0.350 N 
ATOM      5  H   UNL     1      -1.809  65.941  30.051  1.00  0.00     0.345 HD
ATOM      6  H   UNL     1      -3.489  66.159  30.289  1.00  0.00     0.345 HD
ATOM      7  H   UNL     1      -2.457  65.795  31.594  1.00  0.00     0.345 HD
ENDBRANCH   3   4
BRANCH   3   8
ATOM      8  C   UNL     1      -1.756  63.641  29.472  1.00  0.00     0.099 C 
ATOM      9  O   UNL     1      -0.661  64.256  29.378  1.00  0.00    -0.544 OA
ATOM     10  O   UNL     1      -1.949  62.469  28.752  1.00  0.00    -0.544 OA
ENDBRANCH   3   8
ENDBRANCH   1   3
BRANCH   1  11
ATOM     11  C   UNL     1      -1.509  63.072  32.240  1.00  0.00     0.006 C 
ATOM     12  C   UNL     1      -1.372  61.669  32.836  1.00  0.00     0.004 C 
ENDBRANCH   1  11
TORSDOF 4
ENDMDL
