MODEL 1
REMARK VINA RESULT:    -4.594      0.000      0.000
REMARK INTER + INTRA:          -5.011
REMARK INTER:                  -4.997
REMARK INTRA:                  -0.013
REMARK UNBOUND:                -0.013
REMARK SMILES OCc1ccccc1
REMARK SMILES IDX 2 1 3 2 6 3 5 4 7 5 4 6 8 7 1 8
REMARK H PARENT 1 9
REMARK Flexibility Score: inf
ROOT
ATOM      1  C   UNL     1       7.127 -24.729 -23.884  1.00  0.00     0.191 C 
ENDROOT
BRANCH   1   2
ATOM      2  C   UNL     1       8.378 -24.624 -24.713  1.00  0.00    -0.023 A 
ATOM      3  C   UNL     1      10.753 -24.418 -26.191  1.00  0.00     0.000 A 
ATOM      4  C   UNL     1      10.324 -25.666 -25.731  1.00  0.00     0.000 A 
ATOM      5  C   UNL     1      10.004 -23.272 -25.908  1.00  0.00     0.000 A 
ATOM      6  C   UNL     1       9.143 -25.770 -24.988  1.00  0.00     0.006 A 
ATOM      7  C   UNL     1       8.823 -23.373 -25.166  1.00  0.00     0.006 A 
ENDBRANCH   1   2
BRANCH   1   8
ATOM      8  O   UNL     1       6.082 -24.029 -24.499  1.00  0.00    -0.392 OA
ATOM      9  H   UNL     1       5.933 -23.210 -23.958  1.00  0.00     0.211 HD
ENDBRANCH   1   8
TORSDOF 2
ENDMDL
MODEL 2
REMARK VINA RESULT:    -4.417      2.405      3.892
REMARK INTER + INTRA:          -4.817
REMARK INTER:                  -4.802
REMARK INTRA:                  -0.016
REMARK UNBOUND:                -0.013
REMARK SMILES OCc1ccccc1
REMARK SMILES IDX 2 1 3 2 6 3 5 4 7 5 4 6 8 7 1 8
REMARK H PARENT 1 9
REMARK Flexibility Score: inf
ROOT
ATOM      1  C   UNL     1      11.749 -24.219 -26.764  1.00  0.00     0.191 C 
ENDROOT
BRANCH   1   2
ATOM      2  C   UNL     1      10.452 -24.494 -26.055  1.00  0.00    -0.023 A 
ATOM      3  C   UNL     1       8.072 -25.007 -24.661  1.00  0.00     0.000 A 
ATOM      4  C   UNL     1       8.467 -23.689 -24.906  1.00  0.00     0.000 A 
ATOM      5  C   UNL     1       8.866 -26.069 -25.102  1.00  0.00     0.000 A 
ATOM      6  C   UNL     1       9.657 -23.431 -25.595  1.00  0.00     0.006 A 
ATOM      7  C   UNL     1      10.056 -25.815 -25.791  1.00  0.00     0.006 A 
ENDBRANCH   1   2
BRANCH   1   8
ATOM      8  O   UNL     1      12.398 -23.126 -26.174  1.00  0.00    -0.392 OA
ATOM      9  H   UNL     1      12.481 -22.432 -26.879  1.00  0.00     0.211 HD
ENDBRANCH   1   8
TORSDOF 2
ENDMDL
MODEL 3
REMARK VINA RESULT:    -4.240      7.003      7.734
REMARK INTER + INTRA:          -4.625
REMARK INTER:                  -4.615
REMARK INTRA:                  -0.009
REMARK UNBOUND:                -0.013
REMARK SMILES OCc1ccccc1
REMARK SMILES IDX 2 1 3 2 6 3 5 4 7 5 4 6 8 7 1 8
REMARK H PARENT 1 9
REMARK Flexibility Score: inf
ROOT
ATOM      1  C   UNL     1      10.813 -18.232 -19.743  1.00  0.00     0.191 C 
ENDROOT
BRANCH   1   2
ATOM      2  C   UNL     1       9.816 -18.391 -20.858  1.00  0.00    -0.023 A 
ATOM      3  C   UNL     1       7.996 -18.753 -22.962  1.00  0.00     0.000 A 
ATOM      4  C   UNL     1       7.761 -19.358 -21.724  1.00  0.00     0.000 A 
ATOM      5  C   UNL     1       9.141 -17.975 -23.155  1.00  0.00     0.000 A 
ATOM      6  C   UNL     1       8.671 -19.184 -20.676  1.00  0.00     0.006 A 
ATOM      7  C   UNL     1      10.052 -17.799 -22.109  1.00  0.00     0.006 A 
ENDBRANCH   1   2
BRANCH   1   8
ATOM      8  O   UNL     1      10.401 -17.216 -18.871  1.00  0.00    -0.392 OA
ATOM      9  H   UNL     1       9.775 -16.640 -19.381  1.00  0.00     0.211 HD
ENDBRANCH   1   8
TORSDOF 2
ENDMDL
MODEL 4
REMARK VINA RESULT:    -4.078     15.587     16.603
REMARK INTER + INTRA:          -4.449
REMARK INTER:                  -4.430
REMARK INTRA:                  -0.019
REMARK UNBOUND:                -0.013
REMARK SMILES OCc1ccccc1
REMARK SMILES IDX 2 1 3 2 6 3 5 4 7 5 4 6 8 7 1 8
REMARK H PARENT 1 9
REMARK Flexibility Score: inf
ROOT
ATOM      1  C   UNL     1       4.723  -9.051 -24.522  1.00  0.00     0.191 C 
ENDROOT
BRANCH   1   2
ATOM      2  C   UNL     1       6.104  -8.464 -24.441  1.00  0.00    -0.023 A 
ATOM      3  C   UNL     1       8.679  -7.373 -24.208  1.00  0.00     0.000 A 
ATOM      4  C   UNL     1       8.515  -8.756 -24.330  1.00  0.00     0.000 A 
ATOM      5  C   UNL     1       7.561  -6.534 -24.192  1.00  0.00     0.000 A 
ATOM      6  C   UNL     1       7.231  -9.302 -24.440  1.00  0.00     0.006 A 
ATOM      7  C   UNL     1       6.276  -7.077 -24.302  1.00  0.00     0.006 A 
ENDBRANCH   1   2
BRANCH   1   8
ATOM      8  O   UNL     1       3.766  -8.078 -24.206  1.00  0.00    -0.392 OA
ATOM      9  H   UNL     1       3.902  -7.847 -23.251  1.00  0.00     0.211 HD
ENDBRANCH   1   8
TORSDOF 2
ENDMDL
MODEL 5
REMARK VINA RESULT:    -4.067      8.662      9.504
REMARK INTER + INTRA:          -4.437
REMARK INTER:                  -4.421
REMARK INTRA:                  -0.016
REMARK UNBOUND:                -0.013
REMARK SMILES OCc1ccccc1
REMARK SMILES IDX 2 1 3 2 6 3 5 4 7 5 4 6 8 7 1 8
REMARK H PARENT 1 9
REMARK Flexibility Score: inf
ROOT
ATOM      1  C   UNL     1      18.160 -25.338 -23.049  1.00  0.00     0.191 C 
ENDROOT
BRANCH   1   2
ATOM      2  C   UNL     1      18.175 -24.231 -24.067  1.00  0.00    -0.023 A 
ATOM      3  C   UNL     1      18.158 -22.213 -26.015  1.00  0.00     0.000 A 
ATOM      4  C   UNL     1      17.151 -22.257 -25.048  1.00  0.00     0.000 A 
ATOM      5  C   UNL     1      19.169 -23.178 -26.018  1.00  0.00     0.000 A 
ATOM      6  C   UNL     1      17.154 -23.267 -24.079  1.00  0.00     0.006 A 
ATOM      7  C   UNL     1      19.175 -24.189 -25.051  1.00  0.00     0.006 A 
ENDBRANCH   1   2
BRANCH   1   8
ATOM      8  O   UNL     1      16.846 -25.773 -22.830  1.00  0.00    -0.392 OA
ATOM      9  H   UNL     1      16.898 -26.745 -22.637  1.00  0.00     0.211 HD
ENDBRANCH   1   8
TORSDOF 2
ENDMDL
MODEL 6
REMARK VINA RESULT:    -4.030      8.536      9.619
REMARK INTER + INTRA:          -4.396
REMARK INTER:                  -4.378
REMARK INTRA:                  -0.018
REMARK UNBOUND:                -0.013
REMARK SMILES OCc1ccccc1
REMARK SMILES IDX 2 1 3 2 6 3 5 4 7 5 4 6 8 7 1 8
REMARK H PARENT 1 9
REMARK Flexibility Score: inf
ROOT
ATOM      1  C   UNL     1      19.116 -23.536 -25.729  1.00  0.00     0.191 C 
ENDROOT
BRANCH   1   2
ATOM      2  C   UNL     1      18.347 -23.934 -24.500  1.00  0.00    -0.023 A 
ATOM      3  C   UNL     1      16.865 -24.723 -22.252  1.00  0.00     0.000 A 
ATOM      4  C   UNL     1      17.990 -25.455 -22.638  1.00  0.00     0.000 A 
ATOM      5  C   UNL     1      16.472 -23.603 -22.990  1.00  0.00     0.000 A 
ATOM      6  C   UNL     1      18.727 -25.067 -23.762  1.00  0.00     0.006 A 
ATOM      7  C   UNL     1      17.206 -23.212 -24.115  1.00  0.00     0.006 A 
ENDBRANCH   1   2
BRANCH   1   8
ATOM      8  O   UNL     1      18.277 -22.859 -26.624  1.00  0.00    -0.392 OA
ATOM      9  H   UNL     1      18.045 -23.507 -27.339  1.00  0.00     0.211 HD
ENDBRANCH   1   8
TORSDOF 2
ENDMDL
MODEL 7
REMARK VINA RESULT:    -3.991      9.832     10.462
REMARK INTER + INTRA:          -4.355
REMARK INTER:                  -4.342
REMARK INTRA:                  -0.013
REMARK UNBOUND:                -0.013
REMARK SMILES OCc1ccccc1
REMARK SMILES IDX 2 1 3 2 6 3 5 4 7 5 4 6 8 7 1 8
REMARK H PARENT 1 9
REMARK Flexibility Score: inf
ROOT
ATOM      1  C   UNL     1      14.901 -18.966 -16.647  1.00  0.00     0.191 C 
ENDROOT
BRANCH   1   2
ATOM      2  C   UNL     1      14.735 -18.920 -18.141  1.00  0.00    -0.023 A 
ATOM      3  C   UNL     1      14.344 -18.834 -20.917  1.00  0.00     0.000 A 
ATOM      4  C   UNL     1      14.451 -17.645 -20.191  1.00  0.00     0.000 A 
ATOM      5  C   UNL     1      14.423 -20.065 -20.261  1.00  0.00     0.000 A 
ATOM      6  C   UNL     1      14.640 -17.686 -18.805  1.00  0.00     0.006 A 
ATOM      7  C   UNL     1      14.611 -20.109 -18.876  1.00  0.00     0.006 A 
ENDBRANCH   1   2
BRANCH   1   8
ATOM      8  O   UNL     1      13.832 -19.659 -16.065  1.00  0.00    -0.392 OA
ATOM      9  H   UNL     1      14.225 -20.432 -15.582  1.00  0.00     0.211 HD
ENDBRANCH   1   8
TORSDOF 2
ENDMDL
MODEL 8
REMARK VINA RESULT:    -3.873     10.681     11.571
REMARK INTER + INTRA:          -4.226
REMARK INTER:                  -4.215
REMARK INTRA:                  -0.011
REMARK UNBOUND:                -0.013
REMARK SMILES OCc1ccccc1
REMARK SMILES IDX 2 1 3 2 6 3 5 4 7 5 4 6 8 7 1 8
REMARK H PARENT 1 9
REMARK Flexibility Score: inf
ROOT
ATOM      1  C   UNL     1      17.959 -18.573 -20.761  1.00  0.00     0.191 C 
ENDROOT
BRANCH   1   2
ATOM      2  C   UNL     1      16.708 -18.568 -19.926  1.00  0.00    -0.023 A 
ATOM      3  C   UNL     1      14.411 -18.606 -18.315  1.00  0.00     0.000 A 
ATOM      4  C   UNL     1      15.391 -17.631 -18.110  1.00  0.00     0.000 A 
ATOM      5  C   UNL     1      14.579 -19.568 -19.315  1.00  0.00     0.000 A 
ATOM      6  C   UNL     1      16.540 -17.614 -18.909  1.00  0.00     0.006 A 
ATOM      7  C   UNL     1      15.726 -19.554 -20.115  1.00  0.00     0.006 A 
ENDBRANCH   1   2
BRANCH   1   8
ATOM      8  O   UNL     1      18.741 -19.692 -20.448  1.00  0.00    -0.392 OA
ATOM      9  H   UNL     1      19.205 -19.956 -21.284  1.00  0.00     0.211 HD
ENDBRANCH   1   8
TORSDOF 2
ENDMDL
MODEL 9
REMARK VINA RESULT:    -3.854      8.848      9.367
REMARK INTER + INTRA:          -4.205
REMARK INTER:                  -4.189
REMARK INTRA:                  -0.017
REMARK UNBOUND:                -0.013
REMARK SMILES OCc1ccccc1
REMARK SMILES IDX 2 1 3 2 6 3 5 4 7 5 4 6 8 7 1 8
REMARK H PARENT 1 9
REMARK Flexibility Score: inf
ROOT
ATOM      1  C   UNL     1      11.249 -18.369 -20.409  1.00  0.00     0.191 C 
ENDROOT
BRANCH   1   2
ATOM      2  C   UNL     1      12.660 -18.516 -19.910  1.00  0.00    -0.023 A 
ATOM      3  C   UNL     1      15.263 -18.818 -18.908  1.00  0.00     0.000 A 
ATOM      4  C   UNL     1      14.641 -19.882 -19.567  1.00  0.00     0.000 A 
ATOM      5  C   UNL     1      14.586 -17.607 -18.740  1.00  0.00     0.000 A 
ATOM      6  C   UNL     1      13.341 -19.736 -20.062  1.00  0.00     0.006 A 
ATOM      7  C   UNL     1      13.286 -17.457 -19.233  1.00  0.00     0.006 A 
ENDBRANCH   1   2
BRANCH   1   8
ATOM      8  O   UNL     1      10.509 -17.567 -19.531  1.00  0.00    -0.392 OA
ATOM      9  H   UNL     1       9.747 -17.204 -20.053  1.00  0.00     0.211 HD
ENDBRANCH   1   8
TORSDOF 2
ENDMDL
