MODEL 1
REMARK VINA RESULT:    -4.466      0.000      0.000
REMARK INTER + INTRA:          -7.041
REMARK INTER:                  -5.510
REMARK INTRA:                  -1.531
REMARK UNBOUND:                -1.531
REMARK SMILES CC(C)=CCC[C@H](C)c1ccc(C)cc1
REMARK SMILES IDX 6 1 7 2 8 3 9 4 13 5 12 6 11 7 14 8 10 9 15 10 5 11 4 12
REMARK SMILES IDX 2 13 1 14 3 15
REMARK H PARENT
REMARK Flexibility Score: inf
ROOT
ATOM      1  C   UNL     1      -2.479 -11.947  52.082  1.00  0.00     0.012 C 
ENDROOT
BRANCH   1   2
ATOM      2  C   UNL     1      -3.114 -10.771  52.858  1.00  0.00     0.016 C 
ATOM      3  C   UNL     1      -2.122  -9.620  53.104  1.00  0.00     0.013 C 
BRANCH   2   4
ATOM      4  C   UNL     1      -3.827 -11.230  54.121  1.00  0.00    -0.045 A 
ATOM      5  C   UNL     1      -5.794 -12.659  57.696  1.00  0.00     0.044 C 
ATOM      6  C   UNL     1      -5.083 -12.175  56.467  1.00  0.00    -0.051 A 
ATOM      7  C   UNL     1      -4.563 -10.874  56.418  1.00  0.00     0.004 A 
ATOM      8  C   UNL     1      -4.985 -12.997  55.336  1.00  0.00     0.004 A 
ATOM      9  C   UNL     1      -3.931 -10.408  55.261  1.00  0.00     0.004 A 
ATOM     10  C   UNL     1      -4.352 -12.534  54.179  1.00  0.00     0.004 A 
ENDBRANCH   2   4
ENDBRANCH   1   2
BRANCH   1  11
ATOM     11  C   UNL     1      -1.025 -12.263  52.476  1.00  0.00     0.028 C 
BRANCH  11  12
ATOM     12  C   UNL     1      -0.967 -13.505  53.331  1.00  0.00    -0.028 C 
ATOM     13  C   UNL     1      -0.761 -13.500  54.667  1.00  0.00    -0.080 C 
ATOM     14  C   UNL     1      -0.620 -12.216  55.451  1.00  0.00     0.039 C 
ATOM     15  C   UNL     1      -0.688 -14.822  55.386  1.00  0.00     0.039 C 
ENDBRANCH  11  12
ENDBRANCH   1  11
TORSDOF 4
ENDMDL
MODEL 2
REMARK VINA RESULT:    -4.192      1.747      4.741
REMARK INTER + INTRA:          -6.703
REMARK INTER:                  -5.185
REMARK INTRA:                  -1.518
REMARK UNBOUND:                -1.531
REMARK SMILES CC(C)=CCC[C@H](C)c1ccc(C)cc1
REMARK SMILES IDX 6 1 7 2 8 3 9 4 13 5 12 6 11 7 14 8 10 9 15 10 5 11 4 12
REMARK SMILES IDX 2 13 1 14 3 15
REMARK H PARENT
REMARK Flexibility Score: inf
ROOT
ATOM      1  C   UNL     1      -4.534 -12.963  57.874  1.00  0.00     0.012 C 
ENDROOT
BRANCH   1   2
ATOM      2  C   UNL     1      -4.381 -11.590  57.181  1.00  0.00     0.016 C 
ATOM      3  C   UNL     1      -5.670 -10.751  57.239  1.00  0.00     0.013 C 
BRANCH   2   4
ATOM      4  C   UNL     1      -3.805 -11.712  55.778  1.00  0.00    -0.045 A 
ATOM      5  C   UNL     1      -2.162 -12.194  51.809  1.00  0.00     0.044 C 
ATOM      6  C   UNL     1      -2.755 -12.051  53.179  1.00  0.00    -0.051 A 
ATOM      7  C   UNL     1      -3.794 -11.139  53.408  1.00  0.00     0.004 A 
ATOM      8  C   UNL     1      -2.233 -12.782  54.255  1.00  0.00     0.004 A 
ATOM      9  C   UNL     1      -4.324 -10.978  54.691  1.00  0.00     0.004 A 
ATOM     10  C   UNL     1      -2.761 -12.624  55.539  1.00  0.00     0.004 A 
ENDBRANCH   2   4
ENDBRANCH   1   2
BRANCH   1  11
ATOM     11  C   UNL     1      -5.682 -13.831  57.327  1.00  0.00     0.028 C 
BRANCH  11  12
ATOM     12  C   UNL     1      -5.137 -15.049  56.624  1.00  0.00    -0.028 C 
ATOM     13  C   UNL     1      -5.265 -15.283  55.299  1.00  0.00    -0.080 C 
ATOM     14  C   UNL     1      -5.937 -14.297  54.372  1.00  0.00     0.039 C 
ATOM     15  C   UNL     1      -4.702 -16.564  54.740  1.00  0.00     0.039 C 
ENDBRANCH  11  12
ENDBRANCH   1  11
TORSDOF 4
ENDMDL
MODEL 3
REMARK VINA RESULT:    -4.137      1.694      2.881
REMARK INTER + INTRA:          -6.636
REMARK INTER:                  -5.129
REMARK INTRA:                  -1.507
REMARK UNBOUND:                -1.531
REMARK SMILES CC(C)=CCC[C@H](C)c1ccc(C)cc1
REMARK SMILES IDX 6 1 7 2 8 3 9 4 13 5 12 6 11 7 14 8 10 9 15 10 5 11 4 12
REMARK SMILES IDX 2 13 1 14 3 15
REMARK H PARENT
REMARK Flexibility Score: inf
ROOT
ATOM      1  C   UNL     1      -1.589  -9.580  54.308  1.00  0.00     0.012 C 
ENDROOT
BRANCH   1   2
ATOM      2  C   UNL     1      -2.253  -9.070  55.607  1.00  0.00     0.016 C 
ATOM      3  C   UNL     1      -1.241  -8.440  56.581  1.00  0.00     0.013 C 
BRANCH   2   4
ATOM      4  C   UNL     1      -3.137 -10.124  56.257  1.00  0.00    -0.045 A 
ATOM      5  C   UNL     1      -5.746 -13.095  58.004  1.00  0.00     0.044 C 
ATOM      6  C   UNL     1      -4.846 -12.079  57.368  1.00  0.00    -0.051 A 
ATOM      7  C   UNL     1      -3.468 -12.315  57.274  1.00  0.00     0.004 A 
ATOM      8  C   UNL     1      -5.365 -10.857  56.917  1.00  0.00     0.004 A 
ATOM      9  C   UNL     1      -2.621 -11.354  56.714  1.00  0.00     0.004 A 
ATOM     10  C   UNL     1      -4.522  -9.895  56.355  1.00  0.00     0.004 A 
ENDBRANCH   2   4
ENDBRANCH   1   2
BRANCH   1  11
ATOM     11  C   UNL     1      -2.574 -10.126  53.259  1.00  0.00     0.028 C 
BRANCH  11  12
ATOM     12  C   UNL     1      -2.302 -11.584  52.986  1.00  0.00    -0.028 C 
ATOM     13  C   UNL     1      -3.202 -12.575  53.179  1.00  0.00    -0.080 C 
ATOM     14  C   UNL     1      -4.611 -12.297  53.648  1.00  0.00     0.039 C 
ATOM     15  C   UNL     1      -2.777 -13.993  52.899  1.00  0.00     0.039 C 
ENDBRANCH  11  12
ENDBRANCH   1  11
TORSDOF 4
ENDMDL
MODEL 4
REMARK VINA RESULT:    -4.125      1.673      4.646
REMARK INTER + INTRA:          -6.621
REMARK INTER:                  -5.145
REMARK INTRA:                  -1.475
REMARK UNBOUND:                -1.531
REMARK SMILES CC(C)=CCC[C@H](C)c1ccc(C)cc1
REMARK SMILES IDX 6 1 7 2 8 3 9 4 13 5 12 6 11 7 14 8 10 9 15 10 5 11 4 12
REMARK SMILES IDX 2 13 1 14 3 15
REMARK H PARENT
REMARK Flexibility Score: inf
ROOT
ATOM      1  C   UNL     1      -4.621 -11.026  57.102  1.00  0.00     0.012 C 
ENDROOT
BRANCH   1   2
ATOM      2  C   UNL     1      -5.387 -12.338  56.819  1.00  0.00     0.016 C 
ATOM      3  C   UNL     1      -5.780 -13.084  58.107  1.00  0.00     0.013 C 
BRANCH   2   4
ATOM      4  C   UNL     1      -4.669 -13.220  55.808  1.00  0.00    -0.045 A 
ATOM      5  C   UNL     1      -2.565 -15.789  53.041  1.00  0.00     0.044 C 
ATOM      6  C   UNL     1      -3.303 -14.925  54.019  1.00  0.00    -0.051 A 
ATOM      7  C   UNL     1      -4.657 -14.626  53.817  1.00  0.00     0.004 A 
ATOM      8  C   UNL     1      -2.631 -14.358  55.110  1.00  0.00     0.004 A 
ATOM      9  C   UNL     1      -5.339 -13.792  54.708  1.00  0.00     0.004 A 
ATOM     10  C   UNL     1      -3.309 -13.524  56.003  1.00  0.00     0.004 A 
ENDBRANCH   2   4
ENDBRANCH   1   2
BRANCH   1  11
ATOM     11  C   UNL     1      -4.554 -10.055  55.910  1.00  0.00     0.028 C 
BRANCH  11  12
ATOM     12  C   UNL     1      -3.123  -9.827  55.492  1.00  0.00    -0.028 C 
ATOM     13  C   UNL     1      -2.599 -10.240  54.316  1.00  0.00    -0.080 C 
ATOM     14  C   UNL     1      -3.433 -10.936  53.267  1.00  0.00     0.039 C 
ATOM     15  C   UNL     1      -1.139  -9.975  54.050  1.00  0.00     0.039 C 
ENDBRANCH  11  12
ENDBRANCH   1  11
TORSDOF 4
ENDMDL
MODEL 5
REMARK VINA RESULT:    -4.093      1.707      3.830
REMARK INTER + INTRA:          -6.581
REMARK INTER:                  -5.055
REMARK INTRA:                  -1.526
REMARK UNBOUND:                -1.531
REMARK SMILES CC(C)=CCC[C@H](C)c1ccc(C)cc1
REMARK SMILES IDX 6 1 7 2 8 3 9 4 13 5 12 6 11 7 14 8 10 9 15 10 5 11 4 12
REMARK SMILES IDX 2 13 1 14 3 15
REMARK H PARENT
REMARK Flexibility Score: inf
ROOT
ATOM      1  C   UNL     1      -4.638 -10.215  55.735  1.00  0.00     0.012 C 
ENDROOT
BRANCH   1   2
ATOM      2  C   UNL     1      -4.831 -11.360  56.755  1.00  0.00     0.016 C 
ATOM      3  C   UNL     1      -4.047 -11.129  58.060  1.00  0.00     0.013 C 
BRANCH   2   4
ATOM      4  C   UNL     1      -4.586 -12.730  56.140  1.00  0.00    -0.045 A 
ATOM      5  C   UNL     1      -3.893 -16.563  54.266  1.00  0.00     0.044 C 
ATOM      6  C   UNL     1      -4.109 -15.220  54.897  1.00  0.00    -0.051 A 
ATOM      7  C   UNL     1      -3.424 -14.871  56.069  1.00  0.00     0.004 A 
ATOM      8  C   UNL     1      -5.042 -14.325  54.356  1.00  0.00     0.004 A 
ATOM      9  C   UNL     1      -3.650 -13.634  56.680  1.00  0.00     0.004 A 
ATOM     10  C   UNL     1      -5.270 -13.088  54.963  1.00  0.00     0.004 A 
ENDBRANCH   2   4
ENDBRANCH   1   2
BRANCH   1  11
ATOM     11  C   UNL     1      -3.213 -10.100  55.165  1.00  0.00     0.028 C 
BRANCH  11  12
ATOM     12  C   UNL     1      -3.177 -10.568  53.732  1.00  0.00    -0.028 C 
ATOM     13  C   UNL     1      -2.358 -11.539  53.269  1.00  0.00    -0.080 C 
ATOM     14  C   UNL     1      -1.420 -12.297  54.178  1.00  0.00     0.039 C 
ATOM     15  C   UNL     1      -2.405 -11.877  51.801  1.00  0.00     0.039 C 
ENDBRANCH  11  12
ENDBRANCH   1  11
TORSDOF 4
ENDMDL
MODEL 6
REMARK VINA RESULT:    -4.084      1.578      4.766
REMARK INTER + INTRA:          -6.570
REMARK INTER:                  -5.071
REMARK INTRA:                  -1.500
REMARK UNBOUND:                -1.531
REMARK SMILES CC(C)=CCC[C@H](C)c1ccc(C)cc1
REMARK SMILES IDX 6 1 7 2 8 3 9 4 13 5 12 6 11 7 14 8 10 9 15 10 5 11 4 12
REMARK SMILES IDX 2 13 1 14 3 15
REMARK H PARENT
REMARK Flexibility Score: inf
ROOT
ATOM      1  C   UNL     1      -5.772 -14.425  55.299  1.00  0.00     0.012 C 
ENDROOT
BRANCH   1   2
ATOM      2  C   UNL     1      -4.544 -14.659  54.390  1.00  0.00     0.016 C 
ATOM      3  C   UNL     1      -3.571 -15.703  54.966  1.00  0.00     0.013 C 
BRANCH   2   4
ATOM      4  C   UNL     1      -3.864 -13.358  53.990  1.00  0.00    -0.045 A 
ATOM      5  C   UNL     1      -2.006  -9.596  52.951  1.00  0.00     0.044 C 
ATOM      6  C   UNL     1      -2.644 -10.895  53.344  1.00  0.00    -0.051 A 
ATOM      7  C   UNL     1      -1.881 -12.069  53.398  1.00  0.00     0.004 A 
ATOM      8  C   UNL     1      -4.021 -10.958  53.600  1.00  0.00     0.004 A 
ATOM      9  C   UNL     1      -2.481 -13.288  53.729  1.00  0.00     0.004 A 
ATOM     10  C   UNL     1      -4.623 -12.174  53.932  1.00  0.00     0.004 A 
ENDBRANCH   2   4
ENDBRANCH   1   2
BRANCH   1  11
ATOM     11  C   UNL     1      -5.447 -14.339  56.801  1.00  0.00     0.028 C 
BRANCH  11  12
ATOM     12  C   UNL     1      -5.355 -12.899  57.242  1.00  0.00    -0.028 C 
ATOM     13  C   UNL     1      -4.200 -12.273  57.560  1.00  0.00    -0.080 C 
ATOM     14  C   UNL     1      -2.860 -12.961  57.449  1.00  0.00     0.039 C 
ATOM     15  C   UNL     1      -4.265 -10.840  58.022  1.00  0.00     0.039 C 
ENDBRANCH  11  12
ENDBRANCH   1  11
TORSDOF 4
ENDMDL
MODEL 7
REMARK VINA RESULT:    -4.049      1.609      3.687
REMARK INTER + INTRA:          -6.526
REMARK INTER:                  -5.220
REMARK INTRA:                  -1.307
REMARK UNBOUND:                -1.531
REMARK SMILES CC(C)=CCC[C@H](C)c1ccc(C)cc1
REMARK SMILES IDX 6 1 7 2 8 3 9 4 13 5 12 6 11 7 14 8 10 9 15 10 5 11 4 12
REMARK SMILES IDX 2 13 1 14 3 15
REMARK H PARENT
REMARK Flexibility Score: inf
ROOT
ATOM      1  C   UNL     1      -4.277  -9.750  55.889  1.00  0.00     0.012 C 
ENDROOT
BRANCH   1   2
ATOM      2  C   UNL     1      -4.761 -10.864  56.845  1.00  0.00     0.016 C 
ATOM      3  C   UNL     1      -3.887 -10.981  58.107  1.00  0.00     0.013 C 
BRANCH   2   4
ATOM      4  C   UNL     1      -4.966 -12.191  56.130  1.00  0.00    -0.045 A 
ATOM      5  C   UNL     1      -5.665 -15.981  54.172  1.00  0.00     0.044 C 
ATOM      6  C   UNL     1      -5.455 -14.657  54.846  1.00  0.00    -0.051 A 
ATOM      7  C   UNL     1      -5.014 -13.551  54.108  1.00  0.00     0.004 A 
ATOM      8  C   UNL     1      -5.638 -14.530  56.230  1.00  0.00     0.004 A 
ATOM      9  C   UNL     1      -4.783 -12.325  54.739  1.00  0.00     0.004 A 
ATOM     10  C   UNL     1      -5.408 -13.307  56.864  1.00  0.00     0.004 A 
ENDBRANCH   2   4
ENDBRANCH   1   2
BRANCH   1  11
ATOM     11  C   UNL     1      -2.772  -9.440  55.977  1.00  0.00     0.028 C 
BRANCH  11  12
ATOM     12  C   UNL     1      -2.071  -9.853  54.706  1.00  0.00    -0.028 C 
ATOM     13  C   UNL     1      -1.346 -10.986  54.571  1.00  0.00    -0.080 C 
ATOM     14  C   UNL     1      -1.214 -11.991  55.690  1.00  0.00     0.039 C 
ATOM     15  C   UNL     1      -0.669 -11.250  53.251  1.00  0.00     0.039 C 
ENDBRANCH  11  12
ENDBRANCH   1  11
TORSDOF 4
ENDMDL
MODEL 8
REMARK VINA RESULT:    -3.990      1.361      4.656
REMARK INTER + INTRA:          -6.454
REMARK INTER:                  -5.010
REMARK INTRA:                  -1.444
REMARK UNBOUND:                -1.531
REMARK SMILES CC(C)=CCC[C@H](C)c1ccc(C)cc1
REMARK SMILES IDX 6 1 7 2 8 3 9 4 13 5 12 6 11 7 14 8 10 9 15 10 5 11 4 12
REMARK SMILES IDX 2 13 1 14 3 15
REMARK H PARENT
REMARK Flexibility Score: inf
ROOT
ATOM      1  C   UNL     1      -4.013 -14.133  54.583  1.00  0.00     0.012 C 
ENDROOT
BRANCH   1   2
ATOM      2  C   UNL     1      -3.068 -13.839  53.395  1.00  0.00     0.016 C 
ATOM      3  C   UNL     1      -1.976 -14.911  53.229  1.00  0.00     0.013 C 
BRANCH   2   4
ATOM      4  C   UNL     1      -2.518 -12.421  53.431  1.00  0.00    -0.045 A 
ATOM      5  C   UNL     1      -0.831  -8.443  53.552  1.00  0.00     0.044 C 
ATOM      6  C   UNL     1      -1.392  -9.832  53.488  1.00  0.00    -0.051 A 
ATOM      7  C   UNL     1      -2.385 -10.151  52.552  1.00  0.00     0.004 A 
ATOM      8  C   UNL     1      -0.974 -10.807  54.404  1.00  0.00     0.004 A 
ATOM      9  C   UNL     1      -2.936 -11.435  52.514  1.00  0.00     0.004 A 
ATOM     10  C   UNL     1      -1.522 -12.092  54.368  1.00  0.00     0.004 A 
ENDBRANCH   2   4
ENDBRANCH   1   2
BRANCH   1  11
ATOM     11  C   UNL     1      -4.962 -12.977  54.945  1.00  0.00     0.028 C 
BRANCH  11  12
ATOM     12  C   UNL     1      -4.700 -12.497  56.351  1.00  0.00    -0.028 C 
ATOM     13  C   UNL     1      -4.438 -11.213  56.680  1.00  0.00    -0.080 C 
ATOM     14  C   UNL     1      -4.436 -10.106  55.652  1.00  0.00     0.039 C 
ATOM     15  C   UNL     1      -4.156 -10.885  58.124  1.00  0.00     0.039 C 
ENDBRANCH  11  12
ENDBRANCH   1  11
TORSDOF 4
ENDMDL
