MODEL 1
REMARK VINA RESULT:    -6.826      0.000      0.000
REMARK INTER + INTRA:         -11.853
REMARK INTER:                 -10.417
REMARK INTRA:                  -1.436
REMARK UNBOUND:                -1.436
REMARK SMILES CC(=O)CCC=C(C)CCC=C(C)CCC=C(C)C
REMARK SMILES IDX 10 1 11 2 12 3 13 4 14 5 15 6 16 7 18 8 17 9 19 10 9 11 7 12
REMARK SMILES IDX 6 13 8 14 5 15 4 16 2 17 3 18 1 19
REMARK H PARENT
REMARK Flexibility Score: inf
ROOT
ATOM      1  C   UNL     1      -3.585 -10.123  28.773  1.00  0.00     0.032 C 
ENDROOT
BRANCH   1   2
ATOM      2  C   UNL     1      -3.838 -11.548  28.355  1.00  0.00    -0.028 C 
ATOM      3  C   UNL     1      -3.482 -12.060  27.156  1.00  0.00    -0.077 C 
ATOM      4  C   UNL     1      -2.723 -11.244  26.134  1.00  0.00     0.039 C 
BRANCH   3   5
ATOM      5  C   UNL     1      -3.866 -13.488  26.818  1.00  0.00     0.034 C 
BRANCH   5   6
ATOM      6  C   UNL     1      -4.386 -14.251  28.048  1.00  0.00     0.032 C 
BRANCH   6   7
ATOM      7  C   UNL     1      -5.846 -14.618  27.918  1.00  0.00    -0.028 C 
ATOM      8  C   UNL     1      -6.152 -15.037  30.370  1.00  0.00     0.039 C 
ATOM      9  C   UNL     1      -6.643 -14.995  28.942  1.00  0.00    -0.080 C 
ATOM     10  C   UNL     1      -8.069 -15.372  28.636  1.00  0.00     0.039 C 
ENDBRANCH   6   7
ENDBRANCH   5   6
ENDBRANCH   3   5
ENDBRANCH   1   2
BRANCH   1  11
ATOM     11  C   UNL     1      -3.903  -9.931  30.262  1.00  0.00     0.034 C 
BRANCH  11  12
ATOM     12  C   UNL     1      -3.169 -10.956  31.096  1.00  0.00    -0.077 C 
ATOM     13  C   UNL     1      -1.816 -10.919  31.131  1.00  0.00    -0.028 C 
ATOM     14  C   UNL     1      -3.958 -11.989  31.862  1.00  0.00     0.039 C 
BRANCH  13  15
ATOM     15  C   UNL     1      -0.949 -11.940  31.827  1.00  0.00     0.035 C 
BRANCH  15  16
ATOM     16  C   UNL     1       0.068 -12.562  30.860  1.00  0.00     0.079 C 
BRANCH  16  17
ATOM     17  C   UNL     1      -0.601 -13.478  29.865  1.00  0.00     0.130 C 
ATOM     18  O   UNL     1      -1.710 -13.928  30.109  1.00  0.00    -0.300 OA
ATOM     19  C   UNL     1       0.071 -13.848  28.575  1.00  0.00     0.087 C 
ENDBRANCH  16  17
ENDBRANCH  15  16
ENDBRANCH  13  15
ENDBRANCH  11  12
ENDBRANCH   1  11
TORSDOF 9
ENDMDL
MODEL 2
REMARK VINA RESULT:    -6.717      1.354      4.018
REMARK INTER + INTRA:         -11.687
REMARK INTER:                 -10.332
REMARK INTRA:                  -1.354
REMARK UNBOUND:                -1.436
REMARK SMILES CC(=O)CCC=C(C)CCC=C(C)CCC=C(C)C
REMARK SMILES IDX 10 1 11 2 12 3 13 4 14 5 15 6 16 7 18 8 17 9 19 10 9 11 7 12
REMARK SMILES IDX 6 13 8 14 5 15 4 16 2 17 3 18 1 19
REMARK H PARENT
REMARK Flexibility Score: inf
ROOT
ATOM      1  C   UNL     1      -5.375 -15.082  31.836  1.00  0.00     0.032 C 
ENDROOT
BRANCH   1   2
ATOM      2  C   UNL     1      -5.478 -14.390  30.501  1.00  0.00    -0.028 C 
ATOM      3  C   UNL     1      -6.109 -14.910  29.425  1.00  0.00    -0.077 C 
ATOM      4  C   UNL     1      -6.840 -16.233  29.492  1.00  0.00     0.039 C 
BRANCH   3   5
ATOM      5  C   UNL     1      -6.074 -14.156  28.111  1.00  0.00     0.034 C 
BRANCH   5   6
ATOM      6  C   UNL     1      -4.657 -13.667  27.765  1.00  0.00     0.032 C 
BRANCH   6   7
ATOM      7  C   UNL     1      -4.332 -12.346  28.422  1.00  0.00    -0.028 C 
ATOM      8  C   UNL     1      -2.950 -11.517  26.502  1.00  0.00     0.039 C 
ATOM      9  C   UNL     1      -3.551 -11.385  27.881  1.00  0.00    -0.080 C 
ATOM     10  C   UNL     1      -3.288 -10.140  28.689  1.00  0.00     0.039 C 
ENDBRANCH   6   7
ENDBRANCH   5   6
ENDBRANCH   3   5
ENDBRANCH   1   2
BRANCH   1  11
ATOM     11  C   UNL     1      -4.663 -14.185  32.857  1.00  0.00     0.034 C 
BRANCH  11  12
ATOM     12  C   UNL     1      -3.820 -13.147  32.152  1.00  0.00    -0.077 C 
ATOM     13  C   UNL     1      -2.665 -13.537  31.564  1.00  0.00    -0.028 C 
ATOM     14  C   UNL     1      -4.283 -11.711  32.124  1.00  0.00     0.039 C 
BRANCH  13  15
ATOM     15  C   UNL     1      -1.670 -12.600  30.924  1.00  0.00     0.035 C 
BRANCH  15  16
ATOM     16  C   UNL     1      -0.326 -13.297  30.673  1.00  0.00     0.079 C 
BRANCH  16  17
ATOM     17  C   UNL     1      -0.113 -13.583  29.207  1.00  0.00     0.130 C 
ATOM     18  O   UNL     1       0.935 -13.250  28.673  1.00  0.00    -0.300 OA
ATOM     19  C   UNL     1      -1.166 -14.270  28.388  1.00  0.00     0.087 C 
ENDBRANCH  16  17
ENDBRANCH  15  16
ENDBRANCH  13  15
ENDBRANCH  11  12
ENDBRANCH   1  11
TORSDOF 9
ENDMDL
MODEL 3
REMARK VINA RESULT:    -6.585      1.404      3.146
REMARK INTER + INTRA:         -11.486
REMARK INTER:                  -9.912
REMARK INTRA:                  -1.574
REMARK UNBOUND:                -1.436
REMARK SMILES CC(=O)CCC=C(C)CCC=C(C)CCC=C(C)C
REMARK SMILES IDX 10 1 11 2 12 3 13 4 14 5 15 6 16 7 18 8 17 9 19 10 9 11 7 12
REMARK SMILES IDX 6 13 8 14 5 15 4 16 2 17 3 18 1 19
REMARK H PARENT
REMARK Flexibility Score: inf
ROOT
ATOM      1  C   UNL     1      -0.541 -13.255  28.383  1.00  0.00     0.032 C 
ENDROOT
BRANCH   1   2
ATOM      2  C   UNL     1      -1.902 -13.789  28.015  1.00  0.00    -0.028 C 
ATOM      3  C   UNL     1      -2.817 -13.099  27.298  1.00  0.00    -0.077 C 
ATOM      4  C   UNL     1      -2.520 -11.728  26.734  1.00  0.00     0.039 C 
BRANCH   3   5
ATOM      5  C   UNL     1      -4.185 -13.710  27.063  1.00  0.00     0.034 C 
BRANCH   5   6
ATOM      6  C   UNL     1      -5.135 -13.470  28.249  1.00  0.00     0.032 C 
BRANCH   6   7
ATOM      7  C   UNL     1      -6.325 -14.400  28.225  1.00  0.00    -0.028 C 
ATOM      8  C   UNL     1      -6.049 -15.116  30.612  1.00  0.00     0.039 C 
ATOM      9  C   UNL     1      -6.732 -15.161  29.265  1.00  0.00    -0.080 C 
ATOM     10  C   UNL     1      -7.915 -16.072  29.063  1.00  0.00     0.039 C 
ENDBRANCH   6   7
ENDBRANCH   5   6
ENDBRANCH   3   5
ENDBRANCH   1   2
BRANCH   1  11
ATOM     11  C   UNL     1      -0.087 -13.818  29.736  1.00  0.00     0.034 C 
BRANCH  11  12
ATOM     12  C   UNL     1      -0.845 -13.157  30.865  1.00  0.00    -0.077 C 
ATOM     13  C   UNL     1      -2.169 -13.407  30.994  1.00  0.00    -0.028 C 
ATOM     14  C   UNL     1      -0.110 -12.241  31.813  1.00  0.00     0.039 C 
BRANCH  13  15
ATOM     15  C   UNL     1      -3.074 -12.736  31.999  1.00  0.00     0.035 C 
BRANCH  15  16
ATOM     16  C   UNL     1      -4.174 -11.922  31.306  1.00  0.00     0.079 C 
BRANCH  16  17
ATOM     17  C   UNL     1      -3.650 -10.604  30.791  1.00  0.00     0.130 C 
ATOM     18  O   UNL     1      -2.842  -9.975  31.457  1.00  0.00    -0.300 OA
ATOM     19  C   UNL     1      -4.101 -10.050  29.472  1.00  0.00     0.087 C 
ENDBRANCH  16  17
ENDBRANCH  15  16
ENDBRANCH  13  15
ENDBRANCH  11  12
ENDBRANCH   1  11
TORSDOF 9
ENDMDL
MODEL 4
REMARK VINA RESULT:    -6.487      1.791      3.608
REMARK INTER + INTRA:         -11.336
REMARK INTER:                  -9.819
REMARK INTRA:                  -1.517
REMARK UNBOUND:                -1.436
REMARK SMILES CC(=O)CCC=C(C)CCC=C(C)CCC=C(C)C
REMARK SMILES IDX 10 1 11 2 12 3 13 4 14 5 15 6 16 7 18 8 17 9 19 10 9 11 7 12
REMARK SMILES IDX 6 13 8 14 5 15 4 16 2 17 3 18 1 19
REMARK H PARENT
REMARK Flexibility Score: inf
ROOT
ATOM      1  C   UNL     1      -0.889 -13.416  28.341  1.00  0.00     0.032 C 
ENDROOT
BRANCH   1   2
ATOM      2  C   UNL     1      -2.243 -14.005  28.043  1.00  0.00    -0.028 C 
ATOM      3  C   UNL     1      -3.243 -13.334  27.429  1.00  0.00    -0.077 C 
ATOM      4  C   UNL     1      -3.058 -11.923  26.916  1.00  0.00     0.039 C 
BRANCH   3   5
ATOM      5  C   UNL     1      -4.591 -14.007  27.261  1.00  0.00     0.034 C 
BRANCH   5   6
ATOM      6  C   UNL     1      -5.420 -13.969  28.555  1.00  0.00     0.032 C 
BRANCH   6   7
ATOM      7  C   UNL     1      -4.593 -13.558  29.751  1.00  0.00    -0.028 C 
ATOM      8  C   UNL     1      -5.749 -15.130  31.326  1.00  0.00     0.039 C 
ATOM      9  C   UNL     1      -4.744 -14.050  31.001  1.00  0.00    -0.080 C 
ATOM     10  C   UNL     1      -3.865 -13.501  32.095  1.00  0.00     0.039 C 
ENDBRANCH   6   7
ENDBRANCH   5   6
ENDBRANCH   3   5
ENDBRANCH   1   2
BRANCH   1  11
ATOM     11  C   UNL     1      -0.524 -13.615  29.817  1.00  0.00     0.034 C 
BRANCH  11  12
ATOM     12  C   UNL     1      -0.704 -12.325  30.586  1.00  0.00    -0.077 C 
ATOM     13  C   UNL     1      -1.468 -11.347  30.046  1.00  0.00    -0.028 C 
ATOM     14  C   UNL     1      -0.029 -12.162  31.926  1.00  0.00     0.039 C 
BRANCH  13  15
ATOM     15  C   UNL     1      -1.647  -9.972  30.642  1.00  0.00     0.035 C 
BRANCH  15  16
ATOM     16  C   UNL     1      -2.658  -9.989  31.796  1.00  0.00     0.079 C 
BRANCH  16  17
ATOM     17  C   UNL     1      -4.078  -9.919  31.290  1.00  0.00     0.130 C 
ATOM     18  O   UNL     1      -5.001  -9.875  32.089  1.00  0.00    -0.300 OA
ATOM     19  C   UNL     1      -4.381  -9.903  29.821  1.00  0.00     0.087 C 
ENDBRANCH  16  17
ENDBRANCH  15  16
ENDBRANCH  13  15
ENDBRANCH  11  12
ENDBRANCH   1  11
TORSDOF 9
ENDMDL
MODEL 5
REMARK VINA RESULT:    -6.386      1.421      3.442
REMARK INTER + INTRA:         -11.182
REMARK INTER:                  -9.191
REMARK INTRA:                  -1.990
REMARK UNBOUND:                -1.436
REMARK SMILES CC(=O)CCC=C(C)CCC=C(C)CCC=C(C)C
REMARK SMILES IDX 10 1 11 2 12 3 13 4 14 5 15 6 16 7 18 8 17 9 19 10 9 11 7 12
REMARK SMILES IDX 6 13 8 14 5 15 4 16 2 17 3 18 1 19
REMARK H PARENT
REMARK Flexibility Score: inf
ROOT
ATOM      1  C   UNL     1      -4.063 -10.843  32.196  1.00  0.00     0.032 C 
ENDROOT
BRANCH   1   2
ATOM      2  C   UNL     1      -4.672 -12.202  32.425  1.00  0.00    -0.028 C 
ATOM      3  C   UNL     1      -4.005 -13.367  32.268  1.00  0.00    -0.077 C 
ATOM      4  C   UNL     1      -2.538 -13.403  31.905  1.00  0.00     0.039 C 
BRANCH   3   5
ATOM      5  C   UNL     1      -4.751 -14.675  32.447  1.00  0.00     0.034 C 
BRANCH   5   6
ATOM      6  C   UNL     1      -5.854 -14.858  31.391  1.00  0.00     0.032 C 
BRANCH   6   7
ATOM      7  C   UNL     1      -5.383 -14.493  30.003  1.00  0.00    -0.028 C 
ATOM      8  C   UNL     1      -7.456 -15.338  28.874  1.00  0.00     0.039 C 
ATOM      9  C   UNL     1      -6.077 -14.722  28.865  1.00  0.00    -0.080 C 
ATOM     10  C   UNL     1      -5.444 -14.335  27.554  1.00  0.00     0.039 C 
ENDBRANCH   6   7
ENDBRANCH   5   6
ENDBRANCH   3   5
ENDBRANCH   1   2
BRANCH   1  11
ATOM     11  C   UNL     1      -4.373 -10.343  30.779  1.00  0.00     0.034 C 
BRANCH  11  12
ATOM     12  C   UNL     1      -3.229 -10.660  29.843  1.00  0.00    -0.077 C 
ATOM     13  C   UNL     1      -3.413 -11.595  28.882  1.00  0.00    -0.028 C 
ATOM     14  C   UNL     1      -1.917  -9.931  30.005  1.00  0.00     0.039 C 
BRANCH  13  15
ATOM     15  C   UNL     1      -2.334 -12.093  27.952  1.00  0.00     0.035 C 
BRANCH  15  16
ATOM     16  C   UNL     1      -1.910 -13.526  28.303  1.00  0.00     0.079 C 
BRANCH  16  17
ATOM     17  C   UNL     1      -0.459 -13.591  28.711  1.00  0.00     0.130 C 
ATOM     18  O   UNL     1       0.313 -14.297  28.080  1.00  0.00    -0.300 OA
ATOM     19  C   UNL     1       0.057 -12.803  29.879  1.00  0.00     0.087 C 
ENDBRANCH  16  17
ENDBRANCH  15  16
ENDBRANCH  13  15
ENDBRANCH  11  12
ENDBRANCH   1  11
TORSDOF 9
ENDMDL
MODEL 6
REMARK VINA RESULT:    -6.379      1.384      4.598
REMARK INTER + INTRA:         -11.171
REMARK INTER:                  -9.543
REMARK INTRA:                  -1.628
REMARK UNBOUND:                -1.436
REMARK SMILES CC(=O)CCC=C(C)CCC=C(C)CCC=C(C)C
REMARK SMILES IDX 10 1 11 2 12 3 13 4 14 5 15 6 16 7 18 8 17 9 19 10 9 11 7 12
REMARK SMILES IDX 6 13 8 14 5 15 4 16 2 17 3 18 1 19
REMARK H PARENT
REMARK Flexibility Score: inf
ROOT
ATOM      1  C   UNL     1      -5.392 -13.984  27.647  1.00  0.00     0.032 C 
ENDROOT
BRANCH   1   2
ATOM      2  C   UNL     1      -5.056 -14.005  29.115  1.00  0.00    -0.028 C 
ATOM      3  C   UNL     1      -5.717 -14.744  30.034  1.00  0.00    -0.077 C 
ATOM      4  C   UNL     1      -6.835 -15.685  29.644  1.00  0.00     0.039 C 
BRANCH   3   5
ATOM      5  C   UNL     1      -5.339 -14.617  31.496  1.00  0.00     0.034 C 
BRANCH   5   6
ATOM      6  C   UNL     1      -4.027 -13.838  31.687  1.00  0.00     0.032 C 
BRANCH   6   7
ATOM      7  C   UNL     1      -4.235 -12.541  32.433  1.00  0.00    -0.028 C 
ATOM      8  C   UNL     1      -4.119 -11.119  30.371  1.00  0.00     0.039 C 
ATOM      9  C   UNL     1      -4.255 -11.315  31.863  1.00  0.00    -0.080 C 
ATOM     10  C   UNL     1      -4.430 -10.115  32.756  1.00  0.00     0.039 C 
ENDBRANCH   6   7
ENDBRANCH   5   6
ENDBRANCH   3   5
ENDBRANCH   1   2
BRANCH   1  11
ATOM     11  C   UNL     1      -4.127 -14.168  26.799  1.00  0.00     0.034 C 
BRANCH  11  12
ATOM     12  C   UNL     1      -3.012 -13.288  27.314  1.00  0.00    -0.077 C 
ATOM     13  C   UNL     1      -2.033 -13.848  28.062  1.00  0.00    -0.028 C 
ATOM     14  C   UNL     1      -3.019 -11.815  26.984  1.00  0.00     0.039 C 
BRANCH  13  15
ATOM     15  C   UNL     1      -0.921 -13.079  28.734  1.00  0.00     0.035 C 
BRANCH  15  16
ATOM     16  C   UNL     1      -0.779 -13.475  30.209  1.00  0.00     0.079 C 
BRANCH  16  17
ATOM     17  C   UNL     1      -0.282 -12.323  31.048  1.00  0.00     0.130 C 
ATOM     18  O   UNL     1       0.631 -12.504  31.840  1.00  0.00    -0.300 OA
ATOM     19  C   UNL     1      -0.889 -10.956  30.929  1.00  0.00     0.087 C 
ENDBRANCH  16  17
ENDBRANCH  15  16
ENDBRANCH  13  15
ENDBRANCH  11  12
ENDBRANCH   1  11
TORSDOF 9
ENDMDL
MODEL 7
REMARK VINA RESULT:    -6.367      1.422      2.539
REMARK INTER + INTRA:         -11.153
REMARK INTER:                 -10.059
REMARK INTRA:                  -1.094
REMARK UNBOUND:                -1.436
REMARK SMILES CC(=O)CCC=C(C)CCC=C(C)CCC=C(C)C
REMARK SMILES IDX 10 1 11 2 12 3 13 4 14 5 15 6 16 7 18 8 17 9 19 10 9 11 7 12
REMARK SMILES IDX 6 13 8 14 5 15 4 16 2 17 3 18 1 19
REMARK H PARENT
REMARK Flexibility Score: inf
ROOT
ATOM      1  C   UNL     1      -4.011 -11.394  28.316  1.00  0.00     0.032 C 
ENDROOT
BRANCH   1   2
ATOM      2  C   UNL     1      -5.030 -12.446  28.673  1.00  0.00    -0.028 C 
ATOM      3  C   UNL     1      -5.193 -13.603  27.994  1.00  0.00    -0.077 C 
ATOM      4  C   UNL     1      -4.302 -13.978  26.831  1.00  0.00     0.039 C 
BRANCH   3   5
ATOM      5  C   UNL     1      -6.310 -14.546  28.398  1.00  0.00     0.034 C 
BRANCH   5   6
ATOM      6  C   UNL     1      -6.194 -14.980  29.869  1.00  0.00     0.032 C 
BRANCH   6   7
ATOM      7  C   UNL     1      -4.959 -14.417  30.535  1.00  0.00    -0.028 C 
ATOM      8  C   UNL     1      -5.665 -15.099  32.842  1.00  0.00     0.039 C 
ATOM      9  C   UNL     1      -4.720 -14.441  31.865  1.00  0.00    -0.080 C 
ATOM     10  C   UNL     1      -3.457 -13.795  32.374  1.00  0.00     0.039 C 
ENDBRANCH   6   7
ENDBRANCH   5   6
ENDBRANCH   3   5
ENDBRANCH   1   2
BRANCH   1  11
ATOM     11  C   UNL     1      -3.971 -10.296  29.387  1.00  0.00     0.034 C 
BRANCH  11  12
ATOM     12  C   UNL     1      -2.876 -10.576  30.391  1.00  0.00    -0.077 C 
ATOM     13  C   UNL     1      -1.777 -11.253  29.985  1.00  0.00    -0.028 C 
ATOM     14  C   UNL     1      -3.037 -10.097  31.814  1.00  0.00     0.039 C 
BRANCH  13  15
ATOM     15  C   UNL     1      -0.660 -11.699  30.896  1.00  0.00     0.035 C 
BRANCH  15  16
ATOM     16  C   UNL     1      -0.341 -13.188  30.703  1.00  0.00     0.079 C 
BRANCH  16  17
ATOM     17  C   UNL     1      -0.206 -13.541  29.242  1.00  0.00     0.130 C 
ATOM     18  O   UNL     1       0.831 -13.277  28.651  1.00  0.00    -0.300 OA
ATOM     19  C   UNL     1      -1.322 -14.214  28.498  1.00  0.00     0.087 C 
ENDBRANCH  16  17
ENDBRANCH  15  16
ENDBRANCH  13  15
ENDBRANCH  11  12
ENDBRANCH   1  11
TORSDOF 9
ENDMDL
MODEL 8
REMARK VINA RESULT:    -6.288      1.596      4.384
REMARK INTER + INTRA:         -11.032
REMARK INTER:                 -10.064
REMARK INTRA:                  -0.968
REMARK UNBOUND:                -1.436
REMARK SMILES CC(=O)CCC=C(C)CCC=C(C)CCC=C(C)C
REMARK SMILES IDX 10 1 11 2 12 3 13 4 14 5 15 6 16 7 18 8 17 9 19 10 9 11 7 12
REMARK SMILES IDX 6 13 8 14 5 15 4 16 2 17 3 18 1 19
REMARK H PARENT
REMARK Flexibility Score: inf
ROOT
ATOM      1  C   UNL     1      -1.358 -12.418  31.476  1.00  0.00     0.032 C 
ENDROOT
BRANCH   1   2
ATOM      2  C   UNL     1      -2.301 -13.564  31.736  1.00  0.00    -0.028 C 
ATOM      3  C   UNL     1      -3.600 -13.414  32.077  1.00  0.00    -0.077 C 
ATOM      4  C   UNL     1      -4.249 -12.051  32.163  1.00  0.00     0.039 C 
BRANCH   3   5
ATOM      5  C   UNL     1      -4.428 -14.644  32.395  1.00  0.00     0.034 C 
BRANCH   5   6
ATOM      6  C   UNL     1      -5.652 -14.769  31.473  1.00  0.00     0.032 C 
BRANCH   6   7
ATOM      7  C   UNL     1      -5.323 -14.431  30.037  1.00  0.00    -0.028 C 
ATOM      8  C   UNL     1      -7.366 -15.550  29.110  1.00  0.00     0.039 C 
ATOM      9  C   UNL     1      -6.066 -14.793  28.968  1.00  0.00    -0.080 C 
ATOM     10  C   UNL     1      -5.574 -14.413  27.595  1.00  0.00     0.039 C 
ENDBRANCH   6   7
ENDBRANCH   5   6
ENDBRANCH   3   5
ENDBRANCH   1   2
BRANCH   1  11
ATOM     11  C   UNL     1      -0.143 -12.890  30.666  1.00  0.00     0.034 C 
BRANCH  11  12
ATOM     12  C   UNL     1      -0.544 -13.200  29.242  1.00  0.00    -0.077 C 
ATOM     13  C   UNL     1      -1.696 -12.676  28.761  1.00  0.00    -0.028 C 
ATOM     14  C   UNL     1       0.344 -14.082  28.398  1.00  0.00     0.039 C 
BRANCH  13  15
ATOM     15  C   UNL     1      -2.277 -12.987  27.403  1.00  0.00     0.035 C 
BRANCH  15  16
ATOM     16  C   UNL     1      -3.180 -11.849  26.908  1.00  0.00     0.079 C 
BRANCH  16  17
ATOM     17  C   UNL     1      -3.452 -10.841  27.998  1.00  0.00     0.130 C 
ATOM     18  O   UNL     1      -2.707  -9.882  28.132  1.00  0.00    -0.300 OA
ATOM     19  C   UNL     1      -4.624 -10.993  28.922  1.00  0.00     0.087 C 
ENDBRANCH  16  17
ENDBRANCH  15  16
ENDBRANCH  13  15
ENDBRANCH  11  12
ENDBRANCH   1  11
TORSDOF 9
ENDMDL
MODEL 9
REMARK VINA RESULT:    -6.218      1.679      4.767
REMARK INTER + INTRA:         -10.926
REMARK INTER:                  -9.774
REMARK INTRA:                  -1.152
REMARK UNBOUND:                -1.436
REMARK SMILES CC(=O)CCC=C(C)CCC=C(C)CCC=C(C)C
REMARK SMILES IDX 10 1 11 2 12 3 13 4 14 5 15 6 16 7 18 8 17 9 19 10 9 11 7 12
REMARK SMILES IDX 6 13 8 14 5 15 4 16 2 17 3 18 1 19
REMARK H PARENT
REMARK Flexibility Score: inf
ROOT
ATOM      1  C   UNL     1      -1.923 -10.448  31.483  1.00  0.00     0.032 C 
ENDROOT
BRANCH   1   2
ATOM      2  C   UNL     1      -1.505 -11.408  30.399  1.00  0.00    -0.028 C 
ATOM      3  C   UNL     1      -0.490 -12.293  30.520  1.00  0.00    -0.077 C 
ATOM      4  C   UNL     1       0.286 -12.443  31.809  1.00  0.00     0.039 C 
BRANCH   3   5
ATOM      5  C   UNL     1      -0.110 -13.149  29.329  1.00  0.00     0.034 C 
BRANCH   5   6
ATOM      6  C   UNL     1      -1.338 -13.567  28.503  1.00  0.00     0.032 C 
BRANCH   6   7
ATOM      7  C   UNL     1      -1.821 -12.459  27.596  1.00  0.00    -0.028 C 
ATOM      8  C   UNL     1      -3.770 -13.771  26.720  1.00  0.00     0.039 C 
ATOM      9  C   UNL     1      -2.892 -12.543  26.775  1.00  0.00    -0.080 C 
ATOM     10  C   UNL     1      -3.214 -11.360  25.900  1.00  0.00     0.039 C 
ENDBRANCH   6   7
ENDBRANCH   5   6
ENDBRANCH   3   5
ENDBRANCH   1   2
BRANCH   1  11
ATOM     11  C   UNL     1      -3.421 -10.587  31.780  1.00  0.00     0.034 C 
BRANCH  11  12
ATOM     12  C   UNL     1      -4.096 -11.428  30.720  1.00  0.00    -0.077 C 
ATOM     13  C   UNL     1      -4.207 -12.762  30.921  1.00  0.00    -0.028 C 
ATOM     14  C   UNL     1      -4.623 -10.762  29.473  1.00  0.00     0.039 C 
BRANCH  13  15
ATOM     15  C   UNL     1      -4.754 -13.738  29.908  1.00  0.00     0.035 C 
BRANCH  15  16
ATOM     16  C   UNL     1      -5.689 -14.762  30.565  1.00  0.00     0.079 C 
BRANCH  16  17
ATOM     17  C   UNL     1      -6.522 -15.491  29.540  1.00  0.00     0.130 C 
ATOM     18  O   UNL     1      -6.744 -16.684  29.682  1.00  0.00    -0.300 OA
ATOM     19  C   UNL     1      -7.086 -14.778  28.346  1.00  0.00     0.087 C 
ENDBRANCH  16  17
ENDBRANCH  15  16
ENDBRANCH  13  15
ENDBRANCH  11  12
ENDBRANCH   1  11
TORSDOF 9
ENDMDL
