MODEL 1
REMARK VINA RESULT:    -3.405      0.000      0.000
REMARK INTER + INTRA:          -5.293
REMARK INTER:                  -5.196
REMARK INTRA:                  -0.096
REMARK UNBOUND:                -0.096
REMARK SMILES CC1=CCC[C@H](C)C(=O)C[C@H](C(C)C)C(=O)C1
REMARK SMILES IDX 8 1 9 2 6 3 7 4 5 5 4 6 3 7 2 8 1 9 10 11 11 12 15 13 16 14
REMARK SMILES IDX 17 15 12 17 13 18 14 19
REMARK H PARENT
REMARK Flexibility Score: 70.00
ROOT
ATOM      1  C   UNL     1      -0.029  30.452  52.032  1.00  0.00     0.136 C 
ATOM      2  O   UNL     1       0.029  31.244  52.964  1.00  0.00    -0.299 OA
ENDROOT
BRANCH   1   3
ATOM      3  C   UNL     1      -0.906  30.760  50.827  1.00  0.00     0.053 C 
ATOM      4  C   UNL     1      -0.741  29.718  49.709  1.00  0.00     0.016 C 
BRANCH   3   5
ATOM      5  C   UNL     1      -2.393  30.925  51.217  1.00  0.00     0.015 C 
BRANCH   5   6
ATOM      6  C   UNL     1      -3.048  29.648  51.798  1.00  0.00     0.028 C 
BRANCH   6   7
ATOM      7  C   UNL     1      -3.126  29.721  53.305  1.00  0.00    -0.028 C 
ATOM      8  C   UNL     1      -2.668  28.779  54.165  1.00  0.00    -0.070 CG0
ATOM      9  C   UNL     1      -2.703  29.092  55.639  1.00  0.00     0.039 C 
ATOM     10  G   UNL     1      -2.126  27.429  53.719  1.00  0.00     0.000 G0
ENDBRANCH   6   7
ENDBRANCH   5   6
ENDBRANCH   3   5
ENDBRANCH   1   3
BRANCH   1  11
ATOM     11  C   UNL     1       0.812  29.197  52.094  1.00  0.00     0.087 C 
BRANCH  11  12
ATOM     12  C   UNL     1       0.384  28.248  53.246  1.00  0.00     0.066 C 
BRANCH  12  13
ATOM     13  C   UNL     1      -0.865  27.449  52.884  1.00  0.00     0.140 C 
ATOM     14  O   UNL     1      -0.868  26.802  51.847  1.00  0.00    -0.299 OA
BRANCH  13  15
ATOM     15  C   UNL     1      -2.130  27.425  53.723  1.00  0.00     0.106 CG0
ATOM     16  G   UNL     1      -2.653  28.781  54.172  1.00  0.00     0.000 G0
ENDBRANCH  13  15
ENDBRANCH  12  13
BRANCH  12  17
ATOM     17  C   UNL     1       1.525  27.310  53.753  1.00  0.00    -0.006 C 
ATOM     18  C   UNL     1       1.394  27.023  55.257  1.00  0.00     0.008 C 
ATOM     19  C   UNL     1       2.947  27.808  53.442  1.00  0.00     0.008 C 
ENDBRANCH  12  17
ENDBRANCH  11  12
ENDBRANCH   1  11
TORSDOF 1
ENDMDL
MODEL 2
REMARK VINA RESULT:    -3.018      7.141      9.269
REMARK INTER + INTRA:          -4.702
REMARK INTER:                  -4.266
REMARK INTRA:                  -0.437
REMARK UNBOUND:                -0.096
REMARK SMILES CC1=CCC[C@H](C)C(=O)C[C@H](C(C)C)C(=O)C1
REMARK SMILES IDX 8 1 9 2 6 3 7 4 5 5 4 6 3 7 2 8 1 9 10 11 11 12 15 13 16 14
REMARK SMILES IDX 17 15 12 17 13 18 14 19
REMARK H PARENT
REMARK Flexibility Score: 70.00
ROOT
ATOM      1  C   UNL     1      -1.106  34.903  60.382  1.00  0.00     0.136 C 
ATOM      2  O   UNL     1      -0.372  35.605  59.698  1.00  0.00    -0.299 OA
ENDROOT
BRANCH   1   3
ATOM      3  C   UNL     1      -2.589  35.227  60.484  1.00  0.00     0.053 C 
ATOM      4  C   UNL     1      -2.839  36.725  60.727  1.00  0.00     0.016 C 
BRANCH   3   5
ATOM      5  C   UNL     1      -3.381  34.724  59.255  1.00  0.00     0.015 C 
BRANCH   5   6
ATOM      6  C   UNL     1      -4.124  33.384  59.478  1.00  0.00     0.028 C 
BRANCH   6   7
ATOM      7  C   UNL     1      -3.532  32.290  58.620  1.00  0.00    -0.028 C 
ATOM      8  C   UNL     1      -3.013  31.124  59.076  1.00  0.00    -0.070 CG0
ATOM      9  C   UNL     1      -2.599  30.090  58.060  1.00  0.00     0.039 C 
ATOM     10  G   UNL     1      -2.827  30.810  60.552  1.00  0.00     0.000 G0
ENDBRANCH   6   7
ENDBRANCH   5   6
ENDBRANCH   3   5
ENDBRANCH   1   3
BRANCH   1  11
ATOM     11  C   UNL     1      -0.512  33.702  61.083  1.00  0.00     0.087 C 
BRANCH  11  12
ATOM     12  C   UNL     1      -1.585  32.837  61.798  1.00  0.00     0.066 C 
BRANCH  12  13
ATOM     13  C   UNL     1      -1.621  31.414  61.249  1.00  0.00     0.140 C 
ATOM     14  O   UNL     1      -0.616  30.724  61.341  1.00  0.00    -0.299 OA
BRANCH  13  15
ATOM     15  C   UNL     1      -2.827  30.798  60.563  1.00  0.00     0.106 CG0
ATOM     16  G   UNL     1      -3.002  31.145  59.092  1.00  0.00     0.000 G0
ENDBRANCH  13  15
ENDBRANCH  12  13
BRANCH  12  17
ATOM     17  C   UNL     1      -1.465  32.837  63.355  1.00  0.00    -0.006 C 
ATOM     18  C   UNL     1      -2.825  33.086  64.027  1.00  0.00     0.008 C 
ATOM     19  C   UNL     1      -0.422  33.820  63.916  1.00  0.00     0.008 C 
ENDBRANCH  12  17
ENDBRANCH  11  12
ENDBRANCH   1  11
TORSDOF 1
ENDMDL
MODEL 3
REMARK VINA RESULT:    -3.013      9.497     11.941
REMARK INTER + INTRA:          -4.695
REMARK INTER:                  -4.275
REMARK INTRA:                  -0.420
REMARK UNBOUND:                -0.096
REMARK SMILES CC1=CCC[C@H](C)C(=O)C[C@H](C(C)C)C(=O)C1
REMARK SMILES IDX 8 1 9 2 6 3 7 4 5 5 4 6 3 7 2 8 1 9 10 11 11 12 15 13 16 14
REMARK SMILES IDX 17 15 12 17 13 18 14 19
REMARK H PARENT
REMARK Flexibility Score: 70.00
ROOT
ATOM      1  C   UNL     1      -0.568  34.501  61.396  1.00  0.00     0.136 C 
ATOM      2  O   UNL     1       0.597  34.874  61.425  1.00  0.00    -0.299 OA
ENDROOT
BRANCH   1   3
ATOM      3  C   UNL     1      -0.960  33.180  62.041  1.00  0.00     0.053 C 
ATOM      4  C   UNL     1      -0.383  31.972  61.283  1.00  0.00     0.016 C 
BRANCH   3   5
ATOM      5  C   UNL     1      -0.580  33.128  63.539  1.00  0.00     0.015 C 
BRANCH   5   6
ATOM      6  C   UNL     1      -1.788  33.185  64.507  1.00  0.00     0.028 C 
BRANCH   6   7
ATOM      7  C   UNL     1      -1.987  34.585  65.038  1.00  0.00    -0.028 C 
ATOM      8  C   UNL     1      -2.980  35.433  64.674  1.00  0.00    -0.070 CG0
ATOM      9  C   UNL     1      -3.103  36.738  65.419  1.00  0.00     0.039 C 
ATOM     10  G   UNL     1      -3.969  35.135  63.557  1.00  0.00     0.000 G0
ENDBRANCH   6   7
ENDBRANCH   5   6
ENDBRANCH   3   5
ENDBRANCH   1   3
BRANCH   1  11
ATOM     11  C   UNL     1      -1.598  35.395  60.742  1.00  0.00     0.087 C 
BRANCH  11  12
ATOM     12  C   UNL     1      -3.054  34.949  61.045  1.00  0.00     0.066 C 
BRANCH  12  13
ATOM     13  C   UNL     1      -3.660  35.744  62.198  1.00  0.00     0.140 C 
ATOM     14  O   UNL     1      -3.871  36.937  62.041  1.00  0.00    -0.299 OA
BRANCH  13  15
ATOM     15  C   UNL     1      -3.998  35.151  63.555  1.00  0.00     0.106 CG0
ATOM     16  G   UNL     1      -2.987  35.411  64.662  1.00  0.00     0.000 G0
ENDBRANCH  13  15
ENDBRANCH  12  13
BRANCH  12  17
ATOM     17  C   UNL     1      -3.994  34.960  59.799  1.00  0.00    -0.006 C 
ATOM     18  C   UNL     1      -4.049  33.581  59.120  1.00  0.00     0.008 C 
ATOM     19  C   UNL     1      -3.658  36.039  58.755  1.00  0.00     0.008 C 
ENDBRANCH  12  17
ENDBRANCH  11  12
ENDBRANCH   1  11
TORSDOF 1
ENDMDL
MODEL 4
REMARK VINA RESULT:    -2.748      8.426     10.850
REMARK INTER + INTRA:          -4.290
REMARK INTER:                  -4.323
REMARK INTRA:                   0.033
REMARK UNBOUND:                -0.096
REMARK SMILES CC1=CCC[C@H](C)C(=O)C[C@H](C(C)C)C(=O)C1
REMARK SMILES IDX 8 1 9 2 6 3 7 4 5 5 4 6 3 7 2 8 1 9 10 11 11 12 15 13 16 14
REMARK SMILES IDX 17 15 12 17 13 18 14 19
REMARK H PARENT
REMARK Flexibility Score: 70.00
ROOT
ATOM      1  C   UNL     1      -0.921  33.339  63.451  1.00  0.00     0.136 C 
ATOM      2  O   UNL     1       0.083  33.636  64.086  1.00  0.00    -0.299 OA
ENDROOT
BRANCH   1   3
ATOM      3  C   UNL     1      -2.294  33.738  63.971  1.00  0.00     0.053 C 
ATOM      4  C   UNL     1      -2.510  33.303  65.430  1.00  0.00     0.016 C 
BRANCH   3   5
ATOM      5  C   UNL     1      -2.567  35.250  63.796  1.00  0.00     0.015 C 
BRANCH   5   6
ATOM      6  C   UNL     1      -3.810  35.580  62.933  1.00  0.00     0.028 C 
BRANCH   6   7
ATOM      7  C   UNL     1      -3.434  36.457  61.761  1.00  0.00    -0.028 C 
ATOM      8  C   UNL     1      -3.301  36.043  60.477  1.00  0.00    -0.070 CG0
ATOM      9  C   UNL     1      -3.062  37.090  59.419  1.00  0.00     0.039 C 
ATOM     10  G   UNL     1      -3.380  34.584  60.054  1.00  0.00     0.000 G0
ENDBRANCH   6   7
ENDBRANCH   5   6
ENDBRANCH   3   5
ENDBRANCH   1   3
BRANCH   1  11
ATOM     11  C   UNL     1      -0.757  32.608  62.137  1.00  0.00     0.087 C 
BRANCH  11  12
ATOM     12  C   UNL     1      -2.064  32.589  61.298  1.00  0.00     0.066 C 
BRANCH  12  13
ATOM     13  C   UNL     1      -2.122  33.756  60.316  1.00  0.00     0.140 C 
ATOM     14  O   UNL     1      -1.104  34.071  59.718  1.00  0.00    -0.299 OA
BRANCH  13  15
ATOM     15  C   UNL     1      -3.369  34.582  60.050  1.00  0.00     0.106 CG0
ATOM     16  G   UNL     1      -3.296  36.043  60.465  1.00  0.00     0.000 G0
ENDBRANCH  13  15
ENDBRANCH  12  13
BRANCH  12  17
ATOM     17  C   UNL     1      -2.334  31.232  60.575  1.00  0.00    -0.006 C 
ATOM     18  C   UNL     1      -1.090  30.329  60.585  1.00  0.00     0.008 C 
ATOM     19  C   UNL     1      -2.863  31.369  59.137  1.00  0.00     0.008 C 
ENDBRANCH  12  17
ENDBRANCH  11  12
ENDBRANCH   1  11
TORSDOF 1
ENDMDL
MODEL 5
REMARK VINA RESULT:    -2.672      1.764      4.289
REMARK INTER + INTRA:          -4.174
REMARK INTER:                  -5.164
REMARK INTRA:                   0.990
REMARK UNBOUND:                -0.096
REMARK SMILES CC1=CCC[C@H](C)C(=O)C[C@H](C(C)C)C(=O)C1
REMARK SMILES IDX 8 1 9 2 6 3 7 4 5 5 4 6 3 7 2 8 1 9 10 11 11 12 15 13 16 14
REMARK SMILES IDX 17 15 12 17 13 18 14 19
REMARK H PARENT
REMARK Flexibility Score: 70.00
ROOT
ATOM      1  C   UNL     1       0.431  27.532  54.632  1.00  0.00     0.136 C 
ATOM      2  O   UNL     1       0.786  27.188  55.751  1.00  0.00    -0.299 OA
ENDROOT
BRANCH   1   3
ATOM      3  C   UNL     1       1.439  28.140  53.668  1.00  0.00     0.053 C 
ATOM      4  C   UNL     1       2.650  27.219  53.439  1.00  0.00     0.016 C 
BRANCH   3   5
ATOM      5  C   UNL     1       0.790  28.548  52.325  1.00  0.00     0.015 C 
BRANCH   5   6
ATOM      6  C   UNL     1       0.444  30.053  52.213  1.00  0.00     0.028 C 
BRANCH   6   7
ATOM      7  C   UNL     1      -0.385  30.324  50.979  1.00  0.00    -0.028 C 
ATOM      8  C   UNL     1      -1.734  30.450  50.946  1.00  0.00    -0.070 CG0
ATOM      9  C   UNL     1      -2.373  30.865  49.645  1.00  0.00     0.039 C 
ATOM     10  G   UNL     1      -2.629  30.195  52.149  1.00  0.00     0.000 G0
ENDBRANCH   6   7
ENDBRANCH   5   6
ENDBRANCH   3   5
ENDBRANCH   1   3
BRANCH   1  11
ATOM     11  C   UNL     1      -1.009  27.307  54.227  1.00  0.00     0.087 C 
BRANCH  11  12
ATOM     12  C   UNL     1      -1.833  28.622  54.193  1.00  0.00     0.066 C 
BRANCH  12  13
ATOM     13  C   UNL     1      -2.494  28.840  52.834  1.00  0.00     0.140 C 
ATOM     14  O   UNL     1      -2.917  27.868  52.225  1.00  0.00    -0.299 OA
BRANCH  13  15
ATOM     15  C   UNL     1      -2.638  30.196  52.167  1.00  0.00     0.106 CG0
ATOM     16  G   UNL     1      -1.747  30.438  50.958  1.00  0.00     0.000 G0
ENDBRANCH  13  15
ENDBRANCH  12  13
BRANCH  12  17
ATOM     17  C   UNL     1      -2.873  28.750  55.351  1.00  0.00    -0.006 C 
ATOM     18  C   UNL     1      -3.846  29.915  55.109  1.00  0.00     0.008 C 
ATOM     19  C   UNL     1      -2.254  28.874  56.754  1.00  0.00     0.008 C 
ENDBRANCH  12  17
ENDBRANCH  11  12
ENDBRANCH   1  11
TORSDOF 1
ENDMDL
MODEL 6
REMARK VINA RESULT:    -2.614      9.122     10.826
REMARK INTER + INTRA:          -4.085
REMARK INTER:                  -4.048
REMARK INTRA:                  -0.038
REMARK UNBOUND:                -0.096
REMARK SMILES CC1=CCC[C@H](C)C(=O)C[C@H](C(C)C)C(=O)C1
REMARK SMILES IDX 8 1 9 2 6 3 7 4 5 5 4 6 3 7 2 8 1 9 10 11 11 12 15 13 16 14
REMARK SMILES IDX 17 15 12 17 13 18 14 19
REMARK H PARENT
REMARK Flexibility Score: 70.00
ROOT
ATOM      1  C   UNL     1      -0.589  34.626  61.945  1.00  0.00     0.136 C 
ATOM      2  O   UNL     1       0.520  34.878  61.495  1.00  0.00    -0.299 OA
ENDROOT
BRANCH   1   3
ATOM      3  C   UNL     1      -0.747  33.570  63.030  1.00  0.00     0.053 C 
ATOM      4  C   UNL     1       0.610  33.078  63.561  1.00  0.00     0.016 C 
BRANCH   3   5
ATOM      5  C   UNL     1      -1.654  34.052  64.185  1.00  0.00     0.015 C 
BRANCH   5   6
ATOM      6  C   UNL     1      -3.130  33.596  64.073  1.00  0.00     0.028 C 
BRANCH   6   7
ATOM      7  C   UNL     1      -3.251  32.374  63.193  1.00  0.00    -0.028 C 
ATOM      8  C   UNL     1      -3.623  32.373  61.890  1.00  0.00    -0.070 CG0
ATOM      9  C   UNL     1      -3.546  31.072  61.134  1.00  0.00     0.039 C 
ATOM     10  G   UNL     1      -4.113  33.613  61.158  1.00  0.00     0.000 G0
ENDBRANCH   6   7
ENDBRANCH   5   6
ENDBRANCH   3   5
ENDBRANCH   1   3
BRANCH   1  11
ATOM     11  C   UNL     1      -1.776  35.407  61.427  1.00  0.00     0.087 C 
BRANCH  11  12
ATOM     12  C   UNL     1      -2.151  35.026  59.969  1.00  0.00     0.066 C 
BRANCH  12  13
ATOM     13  C   UNL     1      -3.326  34.053  59.924  1.00  0.00     0.140 C 
ATOM     14  O   UNL     1      -3.672  33.602  58.842  1.00  0.00    -0.299 OA
BRANCH  13  15
ATOM     15  C   UNL     1      -4.120  33.623  61.144  1.00  0.00     0.106 CG0
ATOM     16  G   UNL     1      -3.617  32.377  61.857  1.00  0.00     0.000 G0
ENDBRANCH  13  15
ENDBRANCH  12  13
BRANCH  12  17
ATOM     17  C   UNL     1      -2.401  36.254  59.037  1.00  0.00    -0.006 C 
ATOM     18  C   UNL     1      -1.083  36.824  58.488  1.00  0.00     0.008 C 
ATOM     19  C   UNL     1      -3.228  37.383  59.677  1.00  0.00     0.008 C 
ENDBRANCH  12  17
ENDBRANCH  11  12
ENDBRANCH   1  11
TORSDOF 1
ENDMDL
MODEL 7
REMARK VINA RESULT:    -2.496      8.059     10.593
REMARK INTER + INTRA:          -3.906
REMARK INTER:                  -4.793
REMARK INTRA:                   0.887
REMARK UNBOUND:                -0.096
REMARK SMILES CC1=CCC[C@H](C)C(=O)C[C@H](C(C)C)C(=O)C1
REMARK SMILES IDX 8 1 9 2 6 3 7 4 5 5 4 6 3 7 2 8 1 9 10 11 11 12 15 13 16 14
REMARK SMILES IDX 17 15 12 17 13 18 14 19
REMARK H PARENT
REMARK Flexibility Score: 70.00
ROOT
ATOM      1  C   UNL     1      -3.412  32.616  60.526  1.00  0.00     0.136 C 
ATOM      2  O   UNL     1      -3.953  32.748  61.616  1.00  0.00    -0.299 OA
ENDROOT
BRANCH   1   3
ATOM      3  C   UNL     1      -3.156  31.223  59.969  1.00  0.00     0.053 C 
ATOM      4  C   UNL     1      -3.466  31.134  58.466  1.00  0.00     0.016 C 
BRANCH   3   5
ATOM      5  C   UNL     1      -1.722  30.730  60.271  1.00  0.00     0.015 C 
BRANCH   5   6
ATOM      6  C   UNL     1      -0.669  31.859  60.390  1.00  0.00     0.028 C 
BRANCH   6   7
ATOM      7  C   UNL     1      -0.441  32.232  61.836  1.00  0.00    -0.028 C 
ATOM      8  C   UNL     1      -0.539  33.482  62.353  1.00  0.00    -0.070 CG0
ATOM      9  C   UNL     1      -0.418  33.640  63.847  1.00  0.00     0.039 C 
ATOM     10  G   UNL     1      -0.762  34.724  61.505  1.00  0.00     0.000 G0
ENDBRANCH   6   7
ENDBRANCH   5   6
ENDBRANCH   3   5
ENDBRANCH   1   3
BRANCH   1  11
ATOM     11  C   UNL     1      -3.045  33.857  59.744  1.00  0.00     0.087 C 
BRANCH  11  12
ATOM     12  C   UNL     1      -3.252  35.161  60.561  1.00  0.00     0.066 C 
BRANCH  12  13
ATOM     13  C   UNL     1      -2.151  35.358  61.600  1.00  0.00     0.140 C 
ATOM     14  O   UNL     1      -2.373  36.079  62.561  1.00  0.00    -0.299 OA
BRANCH  13  15
ATOM     15  C   UNL     1      -0.771  34.732  61.503  1.00  0.00     0.106 CG0
ATOM     16  G   UNL     1      -0.550  33.483  62.343  1.00  0.00     0.000 G0
ENDBRANCH  13  15
ENDBRANCH  12  13
BRANCH  12  17
ATOM     17  C   UNL     1      -3.432  36.439  59.683  1.00  0.00    -0.006 C 
ATOM     18  C   UNL     1      -2.144  36.784  58.917  1.00  0.00     0.008 C 
ATOM     19  C   UNL     1      -3.926  37.678  60.451  1.00  0.00     0.008 C 
ENDBRANCH  12  17
ENDBRANCH  11  12
ENDBRANCH   1  11
TORSDOF 1
ENDMDL
MODEL 8
REMARK VINA RESULT:    -2.474      9.182     11.545
REMARK INTER + INTRA:          -3.872
REMARK INTER:                  -3.841
REMARK INTRA:                  -0.031
REMARK UNBOUND:                -0.096
REMARK SMILES CC1=CCC[C@H](C)C(=O)C[C@H](C(C)C)C(=O)C1
REMARK SMILES IDX 8 1 9 2 6 3 7 4 5 5 4 6 3 7 2 8 1 9 10 11 11 12 15 13 16 14
REMARK SMILES IDX 17 15 12 17 13 18 14 19
REMARK H PARENT
REMARK Flexibility Score: 70.00
ROOT
ATOM      1  C   UNL     1      -3.249  37.026  62.378  1.00  0.00     0.136 C 
ATOM      2  O   UNL     1      -3.188  38.229  62.595  1.00  0.00    -0.299 OA
ENDROOT
BRANCH   1   3
ATOM      3  C   UNL     1      -2.929  36.036  63.488  1.00  0.00     0.053 C 
ATOM      4  C   UNL     1      -3.122  36.650  64.885  1.00  0.00     0.016 C 
BRANCH   3   5
ATOM      5  C   UNL     1      -3.729  34.721  63.344  1.00  0.00     0.015 C 
BRANCH   5   6
ATOM      6  C   UNL     1      -2.861  33.473  63.049  1.00  0.00     0.028 C 
BRANCH   6   7
ATOM      7  C   UNL     1      -1.407  33.853  62.893  1.00  0.00    -0.028 C 
ATOM      8  C   UNL     1      -0.750  33.992  61.715  1.00  0.00    -0.070 CG0
ATOM      9  C   UNL     1       0.662  34.519  61.752  1.00  0.00     0.039 C 
ATOM     10  G   UNL     1      -1.363  33.644  60.367  1.00  0.00     0.000 G0
ENDBRANCH   6   7
ENDBRANCH   5   6
ENDBRANCH   3   5
ENDBRANCH   1   3
BRANCH   1  11
ATOM     11  C   UNL     1      -3.680  36.559  61.005  1.00  0.00     0.087 C 
BRANCH  11  12
ATOM     12  C   UNL     1      -2.483  36.107  60.125  1.00  0.00     0.066 C 
BRANCH  12  13
ATOM     13  C   UNL     1      -2.477  34.596  59.913  1.00  0.00     0.140 C 
ATOM     14  O   UNL     1      -3.439  34.076  59.367  1.00  0.00    -0.299 OA
BRANCH  13  15
ATOM     15  C   UNL     1      -1.354  33.679  60.364  1.00  0.00     0.106 CG0
ATOM     16  G   UNL     1      -0.742  33.999  61.720  1.00  0.00     0.000 G0
ENDBRANCH  13  15
ENDBRANCH  12  13
BRANCH  12  17
ATOM     17  C   UNL     1      -2.372  36.867  58.766  1.00  0.00    -0.006 C 
ATOM     18  C   UNL     1      -0.929  36.867  58.234  1.00  0.00     0.008 C 
ATOM     19  C   UNL     1      -2.915  38.307  58.792  1.00  0.00     0.008 C 
ENDBRANCH  12  17
ENDBRANCH  11  12
ENDBRANCH   1  11
TORSDOF 1
ENDMDL
MODEL 9
REMARK VINA RESULT:    -2.199      9.117     11.445
REMARK INTER + INTRA:          -3.452
REMARK INTER:                  -3.393
REMARK INTRA:                  -0.060
REMARK UNBOUND:                -0.096
REMARK SMILES CC1=CCC[C@H](C)C(=O)C[C@H](C(C)C)C(=O)C1
REMARK SMILES IDX 8 1 9 2 6 3 7 4 5 5 4 6 3 7 2 8 1 9 10 11 11 12 15 13 16 14
REMARK SMILES IDX 17 15 12 17 13 18 14 19
REMARK H PARENT
REMARK Flexibility Score: 70.00
ROOT
ATOM      1  C   UNL     1      -2.626  31.808  62.040  1.00  0.00     0.136 C 
ATOM      2  O   UNL     1      -2.999  30.648  62.156  1.00  0.00    -0.299 OA
ENDROOT
BRANCH   1   3
ATOM      3  C   UNL     1      -1.469  32.145  61.110  1.00  0.00     0.053 C 
ATOM      4  C   UNL     1      -0.781  30.884  60.562  1.00  0.00     0.016 C 
BRANCH   3   5
ATOM      5  C   UNL     1      -1.900  33.087  59.962  1.00  0.00     0.015 C 
BRANCH   5   6
ATOM      6  C   UNL     1      -1.402  34.546  60.110  1.00  0.00     0.028 C 
BRANCH   6   7
ATOM      7  C   UNL     1      -2.524  35.525  59.858  1.00  0.00    -0.028 C 
ATOM      8  C   UNL     1      -2.993  36.434  60.748  1.00  0.00    -0.070 CG0
ATOM      9  C   UNL     1      -4.021  37.426  60.269  1.00  0.00     0.039 C 
ATOM     10  G   UNL     1      -2.538  36.499  62.198  1.00  0.00     0.000 G0
ENDBRANCH   6   7
ENDBRANCH   5   6
ENDBRANCH   3   5
ENDBRANCH   1   3
BRANCH   1  11
ATOM     11  C   UNL     1      -3.361  32.886  62.806  1.00  0.00     0.087 C 
BRANCH  11  12
ATOM     12  C   UNL     1      -2.422  34.028  63.278  1.00  0.00     0.066 C 
BRANCH  12  13
ATOM     13  C   UNL     1      -3.074  35.399  63.116  1.00  0.00     0.140 C 
ATOM     14  O   UNL     1      -4.098  35.638  63.739  1.00  0.00    -0.299 OA
BRANCH  13  15
ATOM     15  C   UNL     1      -2.546  36.489  62.201  1.00  0.00     0.106 CG0
ATOM     16  G   UNL     1      -3.013  36.424  60.755  1.00  0.00     0.000 G0
ENDBRANCH  13  15
ENDBRANCH  12  13
BRANCH  12  17
ATOM     17  C   UNL     1      -1.866  33.837  64.724  1.00  0.00    -0.006 C 
ATOM     18  C   UNL     1      -0.331  33.908  64.754  1.00  0.00     0.008 C 
ATOM     19  C   UNL     1      -2.339  32.551  65.425  1.00  0.00     0.008 C 
ENDBRANCH  12  17
ENDBRANCH  11  12
ENDBRANCH   1  11
TORSDOF 1
ENDMDL
