MODEL 1
REMARK VINA RESULT:    -3.488      0.000      0.000
REMARK INTER + INTRA:          -5.070
REMARK INTER:                  -4.508
REMARK INTRA:                  -0.562
REMARK UNBOUND:                -0.562
REMARK SMILES CO[C@]1(CO)O[C@@H](CO)[C@@H](O)[C@@H]1O
REMARK SMILES IDX 3 1 12 2 10 3 7 4 6 5 2 6 1 7 4 8 5 9 13 11 11 13 8 15 9 16
REMARK H PARENT 5 10 13 12 11 14 9 17
REMARK Flexibility Score: inf
ROOT
ATOM      1  C   UNL     1     -11.963 -21.697  15.902  1.00  0.00     0.221 C 
ATOM      2  C   UNL     1     -11.105 -20.526  16.393  1.00  0.00     0.207 C 
ATOM      3  C   UNL     1     -11.552 -20.386  17.822  1.00  0.00     0.180 C 
ATOM      4  C   UNL     1     -11.940 -21.826  18.195  1.00  0.00     0.179 C 
ATOM      5  O   UNL     1     -12.148 -22.568  17.008  1.00  0.00    -0.337 OA
ENDROOT
BRANCH   1   6
ATOM      6  O   UNL     1     -13.205 -21.178  15.425  1.00  0.00    -0.349 OA
ATOM      7  C   UNL     1     -14.077 -22.181  14.942  1.00  0.00     0.198 C 
ENDBRANCH   1   6
BRANCH   1   8
ATOM      8  C   UNL     1     -11.243 -22.446  14.759  1.00  0.00     0.224 C 
BRANCH   8   9
ATOM      9  O   UNL     1     -10.724 -21.537  13.827  1.00  0.00    -0.391 OA
ATOM     10  H   UNL     1     -11.358 -21.531  13.064  1.00  0.00     0.210 HD
ENDBRANCH   8   9
ENDBRANCH   1   8
BRANCH   2  11
ATOM     11  O   UNL     1     -11.352 -19.354  15.657  1.00  0.00    -0.385 OA
ATOM     12  H   UNL     1     -10.739 -18.661  16.016  1.00  0.00     0.211 HD
ENDBRANCH   2  11
BRANCH   3  13
ATOM     13  O   UNL     1     -10.524 -19.856  18.620  1.00  0.00    -0.387 OA
ATOM     14  H   UNL     1     -10.252 -20.579  19.243  1.00  0.00     0.211 HD
ENDBRANCH   3  13
BRANCH   4  15
ATOM     15  C   UNL     1     -10.908 -22.559  19.065  1.00  0.00     0.191 C 
BRANCH  15  16
ATOM     16  O   UNL     1      -9.781 -22.904  18.306  1.00  0.00    -0.394 OA
ATOM     17  H   UNL     1      -9.205 -23.450  18.900  1.00  0.00     0.210 HD
ENDBRANCH  15  16
ENDBRANCH   4  15
TORSDOF 7
ENDMDL
MODEL 2
REMARK VINA RESULT:    -3.183      1.617      4.068
REMARK INTER + INTRA:          -4.676
REMARK INTER:                  -4.102
REMARK INTRA:                  -0.574
REMARK UNBOUND:                -0.562
REMARK SMILES CO[C@]1(CO)O[C@@H](CO)[C@@H](O)[C@@H]1O
REMARK SMILES IDX 3 1 12 2 10 3 7 4 6 5 2 6 1 7 4 8 5 9 13 11 11 13 8 15 9 16
REMARK H PARENT 5 10 13 12 11 14 9 17
REMARK Flexibility Score: inf
ROOT
ATOM      1  C   UNL     1     -12.174 -22.003  17.001  1.00  0.00     0.221 C 
ATOM      2  C   UNL     1     -12.512 -21.161  15.765  1.00  0.00     0.207 C 
ATOM      3  C   UNL     1     -13.465 -22.059  15.025  1.00  0.00     0.180 C 
ATOM      4  C   UNL     1     -14.138 -22.844  16.161  1.00  0.00     0.179 C 
ATOM      5  O   UNL     1     -13.335 -22.754  17.322  1.00  0.00    -0.337 OA
ENDROOT
BRANCH   1   6
ATOM      6  O   UNL     1     -11.069 -22.850  16.681  1.00  0.00    -0.349 OA
ATOM      7  C   UNL     1     -10.241 -23.125  17.793  1.00  0.00     0.198 C 
ENDBRANCH   1   6
BRANCH   1   8
ATOM      8  C   UNL     1     -11.796 -21.088  18.186  1.00  0.00     0.224 C 
BRANCH   8   9
ATOM      9  O   UNL     1     -11.556 -19.781  17.740  1.00  0.00    -0.391 OA
ATOM     10  H   UNL     1     -12.258 -19.215  18.153  1.00  0.00     0.210 HD
ENDBRANCH   8   9
ENDBRANCH   1   8
BRANCH   2  11
ATOM     11  O   UNL     1     -11.369 -20.875  15.000  1.00  0.00    -0.385 OA
ATOM     12  H   UNL     1     -11.661 -20.858  14.052  1.00  0.00     0.211 HD
ENDBRANCH   2  11
BRANCH   3  13
ATOM     13  O   UNL     1     -14.363 -21.306  14.250  1.00  0.00    -0.387 OA
ATOM     14  H   UNL     1     -14.896 -20.764  14.889  1.00  0.00     0.211 HD
ENDBRANCH   3  13
BRANCH   4  15
ATOM     15  C   UNL     1     -15.561 -22.375  16.502  1.00  0.00     0.191 C 
BRANCH  15  16
ATOM     16  O   UNL     1     -16.425 -22.600  15.422  1.00  0.00    -0.394 OA
ATOM     17  H   UNL     1     -16.168 -21.946  14.722  1.00  0.00     0.210 HD
ENDBRANCH  15  16
ENDBRANCH   4  15
TORSDOF 7
ENDMDL
MODEL 3
REMARK VINA RESULT:    -3.171      1.217      3.864
REMARK INTER + INTRA:          -4.661
REMARK INTER:                  -4.129
REMARK INTRA:                  -0.532
REMARK UNBOUND:                -0.562
REMARK SMILES CO[C@]1(CO)O[C@@H](CO)[C@@H](O)[C@@H]1O
REMARK SMILES IDX 3 1 12 2 10 3 7 4 6 5 2 6 1 7 4 8 5 9 13 11 11 13 8 15 9 16
REMARK H PARENT 5 10 13 12 11 14 9 17
REMARK Flexibility Score: inf
ROOT
ATOM      1  C   UNL     1     -11.552 -21.852  18.130  1.00  0.00     0.221 C 
ATOM      2  C   UNL     1     -11.785 -20.446  17.566  1.00  0.00     0.207 C 
ATOM      3  C   UNL     1     -10.882 -20.436  16.363  1.00  0.00     0.180 C 
ATOM      4  C   UNL     1     -10.875 -21.913  15.937  1.00  0.00     0.179 C 
ATOM      5  O   UNL     1     -11.309 -22.707  17.024  1.00  0.00    -0.337 OA
ENDROOT
BRANCH   1   6
ATOM      6  O   UNL     1     -10.434 -21.802  19.017  1.00  0.00    -0.349 OA
ATOM      7  C   UNL     1      -9.757 -23.039  19.125  1.00  0.00     0.198 C 
ENDBRANCH   1   6
BRANCH   1   8
ATOM      8  C   UNL     1     -12.801 -22.333  18.901  1.00  0.00     0.224 C 
BRANCH   8   9
ATOM      9  O   UNL     1     -13.754 -21.308  18.981  1.00  0.00    -0.391 OA
ATOM     10  H   UNL     1     -13.334 -20.581  19.508  1.00  0.00     0.210 HD
ENDBRANCH   8   9
ENDBRANCH   1   8
BRANCH   2  11
ATOM     11  O   UNL     1     -11.429 -19.448  18.489  1.00  0.00    -0.385 OA
ATOM     12  H   UNL     1     -12.258 -19.209  18.980  1.00  0.00     0.211 HD
ENDBRANCH   2  11
BRANCH   3  13
ATOM     13  O   UNL     1     -11.373 -19.567  15.375  1.00  0.00    -0.387 OA
ATOM     14  H   UNL     1     -11.327 -20.065  14.517  1.00  0.00     0.211 HD
ENDBRANCH   3  13
BRANCH   4  15
ATOM     15  C   UNL     1     -11.749 -22.226  14.712  1.00  0.00     0.191 C 
BRANCH  15  16
ATOM     16  O   UNL     1     -11.034 -22.000  13.528  1.00  0.00    -0.394 OA
ATOM     17  H   UNL     1     -11.056 -21.020  13.375  1.00  0.00     0.210 HD
ENDBRANCH  15  16
ENDBRANCH   4  15
TORSDOF 7
ENDMDL
MODEL 4
REMARK VINA RESULT:    -2.711      2.071      3.975
REMARK INTER + INTRA:          -4.065
REMARK INTER:                  -3.620
REMARK INTRA:                  -0.446
REMARK UNBOUND:                -0.562
REMARK SMILES CO[C@]1(CO)O[C@@H](CO)[C@@H](O)[C@@H]1O
REMARK SMILES IDX 3 1 12 2 10 3 7 4 6 5 2 6 1 7 4 8 5 9 13 11 11 13 8 15 9 16
REMARK H PARENT 5 10 13 12 11 14 9 17
REMARK Flexibility Score: inf
ROOT
ATOM      1  C   UNL     1     -12.658 -22.019  16.572  1.00  0.00     0.221 C 
ATOM      2  C   UNL     1     -13.543 -21.865  15.329  1.00  0.00     0.207 C 
ATOM      3  C   UNL     1     -14.658 -22.832  15.615  1.00  0.00     0.180 C 
ATOM      4  C   UNL     1     -14.734 -22.813  17.150  1.00  0.00     0.179 C 
ATOM      5  O   UNL     1     -13.523 -22.293  17.664  1.00  0.00    -0.337 OA
ENDROOT
BRANCH   1   6
ATOM      6  O   UNL     1     -11.740 -23.089  16.342  1.00  0.00    -0.349 OA
ATOM      7  C   UNL     1     -10.606 -23.037  17.186  1.00  0.00     0.198 C 
ENDBRANCH   1   6
BRANCH   1   8
ATOM      8  C   UNL     1     -11.876 -20.715  16.837  1.00  0.00     0.224 C 
BRANCH   8   9
ATOM      9  O   UNL     1     -11.804 -19.939  15.671  1.00  0.00    -0.391 OA
ATOM     10  H   UNL     1     -12.566 -19.306  15.714  1.00  0.00     0.210 HD
ENDBRANCH   8   9
ENDBRANCH   1   8
BRANCH   2  11
ATOM     11  O   UNL     1     -12.853 -22.204  14.153  1.00  0.00    -0.385 OA
ATOM     12  H   UNL     1     -12.062 -21.606  14.108  1.00  0.00     0.211 HD
ENDBRANCH   2  11
BRANCH   3  13
ATOM     13  O   UNL     1     -15.848 -22.426  14.987  1.00  0.00    -0.387 OA
ATOM     14  H   UNL     1     -16.106 -23.164  14.375  1.00  0.00     0.211 HD
ENDBRANCH   3  13
BRANCH   4  15
ATOM     15  C   UNL     1     -15.906 -21.998  17.719  1.00  0.00     0.191 C 
BRANCH  15  16
ATOM     16  O   UNL     1     -15.478 -21.208  18.795  1.00  0.00    -0.394 OA
ATOM     17  H   UNL     1     -15.532 -20.267  18.486  1.00  0.00     0.210 HD
ENDBRANCH  15  16
ENDBRANCH   4  15
TORSDOF 7
ENDMDL
MODEL 5
REMARK VINA RESULT:    -2.437      1.785      4.212
REMARK INTER + INTRA:          -3.712
REMARK INTER:                  -3.106
REMARK INTRA:                  -0.606
REMARK UNBOUND:                -0.562
REMARK SMILES CO[C@]1(CO)O[C@@H](CO)[C@@H](O)[C@@H]1O
REMARK SMILES IDX 3 1 12 2 10 3 7 4 6 5 2 6 1 7 4 8 5 9 13 11 11 13 8 15 9 16
REMARK H PARENT 5 10 13 12 11 14 9 17
REMARK Flexibility Score: inf
ROOT
ATOM      1  C   UNL     1     -11.989 -22.030  16.291  1.00  0.00     0.221 C 
ATOM      2  C   UNL     1     -13.074 -22.659  17.172  1.00  0.00     0.207 C 
ATOM      3  C   UNL     1     -14.334 -22.126  16.548  1.00  0.00     0.180 C 
ATOM      4  C   UNL     1     -13.934 -21.962  15.073  1.00  0.00     0.179 C 
ATOM      5  O   UNL     1     -12.522 -21.937  14.979  1.00  0.00    -0.337 OA
ENDROOT
BRANCH   1   6
ATOM      6  O   UNL     1     -11.665 -20.745  16.823  1.00  0.00    -0.349 OA
ATOM      7  C   UNL     1     -10.795 -20.003  15.990  1.00  0.00     0.198 C 
ENDBRANCH   1   6
BRANCH   1   8
ATOM      8  C   UNL     1     -10.725 -22.918  16.282  1.00  0.00     0.224 C 
BRANCH   8   9
ATOM      9  O   UNL     1     -10.248 -23.107  17.587  1.00  0.00    -0.391 OA
ATOM     10  H   UNL     1     -11.049 -23.180  18.166  1.00  0.00     0.210 HD
ENDBRANCH   8   9
ENDBRANCH   1   8
BRANCH   2  11
ATOM     11  O   UNL     1     -12.952 -22.260  18.514  1.00  0.00    -0.385 OA
ATOM     12  H   UNL     1     -12.052 -22.549  18.814  1.00  0.00     0.211 HD
ENDBRANCH   2  11
BRANCH   3  13
ATOM     13  O   UNL     1     -15.405 -23.013  16.745  1.00  0.00    -0.387 OA
ATOM     14  H   UNL     1     -16.207 -22.450  16.910  1.00  0.00     0.211 HD
ENDBRANCH   3  13
BRANCH   4  15
ATOM     15  C   UNL     1     -14.475 -23.057  14.141  1.00  0.00     0.191 C 
BRANCH  15  16
ATOM     16  O   UNL     1     -15.843 -22.866  13.902  1.00  0.00    -0.394 OA
ATOM     17  H   UNL     1     -15.965 -21.892  13.760  1.00  0.00     0.210 HD
ENDBRANCH  15  16
ENDBRANCH   4  15
TORSDOF 7
ENDMDL
