MODEL 1
REMARK VINA RESULT:     3.896      0.000      0.000
REMARK INTER + INTRA:           5.659
REMARK INTER:                   4.921
REMARK INTRA:                   0.738
REMARK UNBOUND:                 0.738
REMARK SMILES Oc1cc(O)cc(CCc2ccccc2O)c1
REMARK SMILES IDX 9 1 10 2 12 3 13 4 11 5 14 6 15 7 16 8 8 10 7 11 6 12 17 13
REMARK SMILES IDX 4 14 2 15 3 16 5 17 1 19
REMARK H PARENT 16 9 5 18 1 20
REMARK Flexibility Score: inf
ROOT
ATOM      1  C   UNL     1       9.150   2.839  19.256  1.00  0.00     0.044 C 
ENDROOT
BRANCH   1   2
ATOM      2  C   UNL     1       7.742   2.330  19.057  1.00  0.00    -0.006 A 
ATOM      3  C   UNL     1       6.227   0.832  17.877  1.00  0.00     0.001 A 
ATOM      4  C   UNL     1       5.160   1.297  18.644  1.00  0.00     0.004 A 
ATOM      5  C   UNL     1       7.512   1.340  18.083  1.00  0.00     0.007 A 
ATOM      6  C   UNL     1       5.374   2.267  19.625  1.00  0.00     0.046 A 
ATOM      7  C   UNL     1       6.658   2.783  19.847  1.00  0.00     0.118 A 
BRANCH   7   8
ATOM      8  O   UNL     1       6.814   3.736  20.859  1.00  0.00    -0.508 OA
ATOM      9  H   UNL     1       7.282   3.549  21.735  1.00  0.00     0.293 HD
ENDBRANCH   7   8
ENDBRANCH   1   2
BRANCH   1  10
ATOM     10  C   UNL     1       9.599   3.681  18.057  1.00  0.00     0.040 C 
BRANCH  10  11
ATOM     11  C   UNL     1       8.857   4.991  18.023  1.00  0.00    -0.040 A 
ATOM     12  C   UNL     1       7.456   5.013  18.113  1.00  0.00     0.050 A 
ATOM     13  C   UNL     1       9.564   6.202  17.959  1.00  0.00     0.050 A 
ATOM     14  C   UNL     1       6.767   6.231  18.115  1.00  0.00     0.119 A 
ATOM     15  C   UNL     1       8.876   7.423  17.961  1.00  0.00     0.119 A 
ATOM     16  C   UNL     1       7.480   7.435  18.036  1.00  0.00     0.092 A 
BRANCH  14  17
ATOM     17  O   UNL     1       5.376   6.233  18.199  1.00  0.00    -0.508 OA
ATOM     18  H   UNL     1       4.853   7.096  18.287  1.00  0.00     0.293 HD
ENDBRANCH  14  17
BRANCH  15  19
ATOM     19  O   UNL     1       9.570   8.630  17.891  1.00  0.00    -0.508 OA
ATOM     20  H   UNL     1       9.226   9.465  18.349  1.00  0.00     0.293 HD
ENDBRANCH  15  19
ENDBRANCH  10  11
ENDBRANCH   1  10
TORSDOF 6
ENDMDL
MODEL 2
REMARK VINA RESULT:     3.998      0.153      2.037
REMARK INTER + INTRA:           5.787
REMARK INTER:                   5.479
REMARK INTRA:                   0.308
REMARK UNBOUND:                 0.738
REMARK SMILES Oc1cc(O)cc(CCc2ccccc2O)c1
REMARK SMILES IDX 9 1 10 2 12 3 13 4 11 5 14 6 15 7 16 8 8 10 7 11 6 12 17 13
REMARK SMILES IDX 4 14 2 15 3 16 5 17 1 19
REMARK H PARENT 16 9 5 18 1 20
REMARK Flexibility Score: inf
ROOT
ATOM      1  C   UNL     1       9.048   2.848  19.254  1.00  0.00     0.044 C 
ENDROOT
BRANCH   1   2
ATOM      2  C   UNL     1       7.650   2.312  19.061  1.00  0.00    -0.006 A 
ATOM      3  C   UNL     1       6.165   0.756  17.919  1.00  0.00     0.001 A 
ATOM      4  C   UNL     1       5.085   1.230  18.662  1.00  0.00     0.004 A 
ATOM      5  C   UNL     1       7.441   1.288  18.119  1.00  0.00     0.007 A 
ATOM      6  C   UNL     1       5.278   2.235  19.612  1.00  0.00     0.046 A 
ATOM      7  C   UNL     1       6.552   2.776  19.828  1.00  0.00     0.118 A 
BRANCH   7   8
ATOM      8  O   UNL     1       6.686   3.763  20.809  1.00  0.00    -0.508 OA
ATOM      9  H   UNL     1       5.947   4.404  21.062  1.00  0.00     0.293 HD
ENDBRANCH   7   8
ENDBRANCH   1   2
BRANCH   1  10
ATOM     10  C   UNL     1       9.495   3.657  18.033  1.00  0.00     0.040 C 
BRANCH  10  11
ATOM     11  C   UNL     1       8.837   5.011  18.025  1.00  0.00    -0.040 A 
ATOM     12  C   UNL     1       9.617   6.177  17.968  1.00  0.00     0.050 A 
ATOM     13  C   UNL     1       7.437   5.116  18.018  1.00  0.00     0.050 A 
ATOM     14  C   UNL     1       9.007   7.435  17.927  1.00  0.00     0.119 A 
ATOM     15  C   UNL     1       6.823   6.376  17.977  1.00  0.00     0.119 A 
ATOM     16  C   UNL     1       7.609   7.532  17.935  1.00  0.00     0.092 A 
BRANCH  14  17
ATOM     17  O   UNL     1       9.797   8.581  17.877  1.00  0.00    -0.508 OA
ATOM     18  H   UNL     1       9.936   9.164  18.694  1.00  0.00     0.293 HD
ENDBRANCH  14  17
BRANCH  15  19
ATOM     19  O   UNL     1       5.434   6.489  17.976  1.00  0.00    -0.508 OA
ATOM     20  H   UNL     1       4.910   6.582  18.838  1.00  0.00     0.293 HD
ENDBRANCH  15  19
ENDBRANCH  10  11
ENDBRANCH   1  10
TORSDOF 6
ENDMDL
MODEL 3
REMARK VINA RESULT:     4.534      1.482      2.543
REMARK INTER + INTRA:           6.465
REMARK INTER:                   4.997
REMARK INTRA:                   1.468
REMARK UNBOUND:                 0.738
REMARK SMILES Oc1cc(O)cc(CCc2ccccc2O)c1
REMARK SMILES IDX 9 1 10 2 12 3 13 4 11 5 14 6 15 7 16 8 8 10 7 11 6 12 17 13
REMARK SMILES IDX 4 14 2 15 3 16 5 17 1 19
REMARK H PARENT 16 9 5 18 1 20
REMARK Flexibility Score: inf
ROOT
ATOM      1  C   UNL     1       6.063   3.816  20.048  1.00  0.00     0.044 C 
ENDROOT
BRANCH   1   2
ATOM      2  C   UNL     1       6.719   2.674  19.310  1.00  0.00    -0.006 A 
ATOM      3  C   UNL     1       6.475   0.715  17.882  1.00  0.00     0.001 A 
ATOM      4  C   UNL     1       7.858   0.540  17.876  1.00  0.00     0.004 A 
ATOM      5  C   UNL     1       5.907   1.778  18.591  1.00  0.00     0.007 A 
ATOM      6  C   UNL     1       8.679   1.429  18.572  1.00  0.00     0.046 A 
ATOM      7  C   UNL     1       8.125   2.502  19.282  1.00  0.00     0.118 A 
BRANCH   7   8
ATOM      8  O   UNL     1       9.000   3.372  19.940  1.00  0.00    -0.508 OA
ATOM      9  H   UNL     1       9.742   3.876  19.474  1.00  0.00     0.293 HD
ENDBRANCH   7   8
ENDBRANCH   1   2
BRANCH   1  10
ATOM     10  C   UNL     1       5.581   4.892  19.070  1.00  0.00     0.040 C 
BRANCH  10  11
ATOM     11  C   UNL     1       6.726   5.769  18.641  1.00  0.00    -0.040 A 
ATOM     12  C   UNL     1       6.531   7.146  18.448  1.00  0.00     0.050 A 
ATOM     13  C   UNL     1       8.012   5.227  18.487  1.00  0.00     0.050 A 
ATOM     14  C   UNL     1       7.602   7.968  18.082  1.00  0.00     0.119 A 
ATOM     15  C   UNL     1       9.087   6.049  18.120  1.00  0.00     0.119 A 
ATOM     16  C   UNL     1       8.879   7.416  17.917  1.00  0.00     0.092 A 
BRANCH  14  17
ATOM     17  O   UNL     1       7.386   9.331  17.889  1.00  0.00    -0.508 OA
ATOM     18  H   UNL     1       7.882   9.849  17.173  1.00  0.00     0.293 HD
ENDBRANCH  14  17
BRANCH  15  19
ATOM     19  O   UNL     1      10.365   5.517  17.959  1.00  0.00    -0.508 OA
ATOM     20  H   UNL     1      10.535   4.520  18.026  1.00  0.00     0.293 HD
ENDBRANCH  15  19
ENDBRANCH  10  11
ENDBRANCH   1  10
TORSDOF 6
ENDMDL
MODEL 4
REMARK VINA RESULT:     5.502      1.557      2.742
REMARK INTER + INTRA:           7.688
REMARK INTER:                   6.623
REMARK INTRA:                   1.065
REMARK UNBOUND:                 0.738
REMARK SMILES Oc1cc(O)cc(CCc2ccccc2O)c1
REMARK SMILES IDX 9 1 10 2 12 3 13 4 11 5 14 6 15 7 16 8 8 10 7 11 6 12 17 13
REMARK SMILES IDX 4 14 2 15 3 16 5 17 1 19
REMARK H PARENT 16 9 5 18 1 20
REMARK Flexibility Score: inf
ROOT
ATOM      1  C   UNL     1       6.554   3.673  20.139  1.00  0.00     0.044 C 
ENDROOT
BRANCH   1   2
ATOM      2  C   UNL     1       7.267   2.585  19.372  1.00  0.00    -0.006 A 
ATOM      3  C   UNL     1       7.122   0.621  17.939  1.00  0.00     0.001 A 
ATOM      4  C   UNL     1       8.513   0.547  17.888  1.00  0.00     0.004 A 
ATOM      5  C   UNL     1       6.501   1.635  18.673  1.00  0.00     0.007 A 
ATOM      6  C   UNL     1       9.289   1.491  18.564  1.00  0.00     0.046 A 
ATOM      7  C   UNL     1       8.681   2.517  19.300  1.00  0.00     0.118 A 
BRANCH   7   8
ATOM      8  O   UNL     1       9.510   3.446  19.935  1.00  0.00    -0.508 OA
ATOM      9  H   UNL     1       9.904   3.305  20.856  1.00  0.00     0.293 HD
ENDBRANCH   7   8
ENDBRANCH   1   2
BRANCH   1  10
ATOM     10  C   UNL     1       5.930   4.693  19.182  1.00  0.00     0.040 C 
BRANCH  10  11
ATOM     11  C   UNL     1       6.952   5.712  18.755  1.00  0.00    -0.040 A 
ATOM     12  C   UNL     1       8.282   5.326  18.524  1.00  0.00     0.050 A 
ATOM     13  C   UNL     1       6.571   7.044  18.528  1.00  0.00     0.050 A 
ATOM     14  C   UNL     1       9.227   6.265  18.095  1.00  0.00     0.119 A 
ATOM     15  C   UNL     1       7.515   7.986  18.098  1.00  0.00     0.119 A 
ATOM     16  C   UNL     1       8.841   7.596  17.885  1.00  0.00     0.092 A 
BRANCH  14  17
ATOM     17  O   UNL     1      10.543   5.865  17.877  1.00  0.00    -0.508 OA
ATOM     18  H   UNL     1      10.760   4.977  17.438  1.00  0.00     0.293 HD
ENDBRANCH  14  17
BRANCH  15  19
ATOM     19  O   UNL     1       7.146   9.312  17.877  1.00  0.00    -0.508 OA
ATOM     20  H   UNL     1       6.207   9.639  18.074  1.00  0.00     0.293 HD
ENDBRANCH  15  19
ENDBRANCH  10  11
ENDBRANCH   1  10
TORSDOF 6
ENDMDL
MODEL 5
REMARK VINA RESULT:     5.507      1.224      2.635
REMARK INTER + INTRA:           7.693
REMARK INTER:                   7.414
REMARK INTRA:                   0.279
REMARK UNBOUND:                 0.738
REMARK SMILES Oc1cc(O)cc(CCc2ccccc2O)c1
REMARK SMILES IDX 9 1 10 2 12 3 13 4 11 5 14 6 15 7 16 8 8 10 7 11 6 12 17 13
REMARK SMILES IDX 4 14 2 15 3 16 5 17 1 19
REMARK H PARENT 16 9 5 18 1 20
REMARK Flexibility Score: inf
ROOT
ATOM      1  C   UNL     1       8.760   2.939  19.682  1.00  0.00     0.044 C 
ENDROOT
BRANCH   1   2
ATOM      2  C   UNL     1       7.540   2.189  19.204  1.00  0.00    -0.006 A 
ATOM      3  C   UNL     1       5.113   1.989  19.164  1.00  0.00     0.001 A 
ATOM      4  C   UNL     1       5.213   0.875  18.331  1.00  0.00     0.004 A 
ATOM      5  C   UNL     1       6.268   2.646  19.595  1.00  0.00     0.007 A 
ATOM      6  C   UNL     1       6.467   0.418  17.921  1.00  0.00     0.046 A 
ATOM      7  C   UNL     1       7.634   1.069  18.341  1.00  0.00     0.118 A 
BRANCH   7   8
ATOM      8  O   UNL     1       8.859   0.579  17.879  1.00  0.00    -0.508 OA
ATOM      9  H   UNL     1       9.041  -0.401  17.709  1.00  0.00     0.293 HD
ENDBRANCH   7   8
ENDBRANCH   1   2
BRANCH   1  10
ATOM     10  C   UNL     1       9.424   3.693  18.525  1.00  0.00     0.040 C 
BRANCH  10  11
ATOM     11  C   UNL     1       8.779   5.039  18.332  1.00  0.00    -0.040 A 
ATOM     12  C   UNL     1       9.570   6.192  18.206  1.00  0.00     0.050 A 
ATOM     13  C   UNL     1       7.383   5.145  18.220  1.00  0.00     0.050 A 
ATOM     14  C   UNL     1       8.974   7.440  17.993  1.00  0.00     0.119 A 
ATOM     15  C   UNL     1       6.783   6.393  18.007  1.00  0.00     0.119 A 
ATOM     16  C   UNL     1       7.579   7.537  17.896  1.00  0.00     0.092 A 
BRANCH  14  17
ATOM     17  O   UNL     1       9.775   8.573  17.876  1.00  0.00    -0.508 OA
ATOM     18  H   UNL     1      10.046   8.938  16.970  1.00  0.00     0.293 HD
ENDBRANCH  14  17
BRANCH  15  19
ATOM     19  O   UNL     1       5.398   6.507  17.900  1.00  0.00    -0.508 OA
ATOM     20  H   UNL     1       4.843   6.916  18.642  1.00  0.00     0.293 HD
ENDBRANCH  15  19
ENDBRANCH  10  11
ENDBRANCH   1  10
TORSDOF 6
ENDMDL
MODEL 6
REMARK VINA RESULT:     6.493      1.821      5.801
REMARK INTER + INTRA:           8.939
REMARK INTER:                   7.282
REMARK INTRA:                   1.657
REMARK UNBOUND:                 0.738
REMARK SMILES Oc1cc(O)cc(CCc2ccccc2O)c1
REMARK SMILES IDX 9 1 10 2 12 3 13 4 11 5 14 6 15 7 16 8 8 10 7 11 6 12 17 13
REMARK SMILES IDX 4 14 2 15 3 16 5 17 1 19
REMARK H PARENT 16 9 5 18 1 20
REMARK Flexibility Score: inf
ROOT
ATOM      1  C   UNL     1       6.179   5.928  18.275  1.00  0.00     0.044 C 
ENDROOT
BRANCH   1   2
ATOM      2  C   UNL     1       7.656   6.219  18.147  1.00  0.00    -0.006 A 
ATOM      3  C   UNL     1       9.932   5.366  18.000  1.00  0.00     0.001 A 
ATOM      4  C   UNL     1      10.418   6.667  17.876  1.00  0.00     0.004 A 
ATOM      5  C   UNL     1       8.559   5.141  18.131  1.00  0.00     0.007 A 
ATOM      6  C   UNL     1       9.533   7.747  17.875  1.00  0.00     0.046 A 
ATOM      7  C   UNL     1       8.154   7.537  18.000  1.00  0.00     0.118 A 
BRANCH   7   8
ATOM      8  O   UNL     1       7.317   8.656  17.969  1.00  0.00    -0.508 OA
ATOM      9  H   UNL     1       7.317   9.334  17.219  1.00  0.00     0.293 HD
ENDBRANCH   7   8
ENDBRANCH   1   2
BRANCH   1  10
ATOM     10  C   UNL     1       5.904   5.031  19.486  1.00  0.00     0.040 C 
BRANCH  10  11
ATOM     11  C   UNL     1       6.082   3.581  19.122  1.00  0.00    -0.040 A 
ATOM     12  C   UNL     1       7.345   3.096  18.747  1.00  0.00     0.050 A 
ATOM     13  C   UNL     1       5.000   2.692  19.210  1.00  0.00     0.050 A 
ATOM     14  C   UNL     1       7.520   1.742  18.441  1.00  0.00     0.119 A 
ATOM     15  C   UNL     1       5.172   1.335  18.904  1.00  0.00     0.119 A 
ATOM     16  C   UNL     1       6.431   0.864  18.517  1.00  0.00     0.092 A 
BRANCH  14  17
ATOM     17  O   UNL     1       8.780   1.280  18.064  1.00  0.00    -0.508 OA
ATOM     18  H   UNL     1       9.048   0.311  18.194  1.00  0.00     0.293 HD
ENDBRANCH  14  17
BRANCH  15  19
ATOM     19  O   UNL     1       4.101   0.447  18.983  1.00  0.00    -0.508 OA
ATOM     20  H   UNL     1       4.143  -0.381  19.566  1.00  0.00     0.293 HD
ENDBRANCH  15  19
ENDBRANCH  10  11
ENDBRANCH   1  10
TORSDOF 6
ENDMDL
