MODEL 1
REMARK VINA RESULT:    -4.358      0.000      0.000
REMARK INTER + INTRA:          -5.326
REMARK INTER:                  -4.994
REMARK INTRA:                  -0.332
REMARK UNBOUND:                -0.332
REMARK SMILES COc1ccc(C(C)=O)c(O)c1
REMARK SMILES IDX 6 1 10 2 12 3 3 4 4 5 5 6 7 7 8 8 9 9 11 10 2 12 1 13
REMARK H PARENT 11 11
REMARK Flexibility Score: inf
ROOT
ATOM      1  C   UNL     1      79.414  15.054   2.447  1.00  0.00     0.059 A 
ATOM      2  C   UNL     1      78.595  15.613   3.453  1.00  0.00     0.130 A 
ATOM      3  C   UNL     1      78.847  15.327   4.804  1.00  0.00     0.093 A 
ATOM      4  C   UNL     1      79.922  14.499   5.173  1.00  0.00     0.122 A 
ATOM      5  C   UNL     1      80.741  13.963   4.176  1.00  0.00     0.047 A 
ATOM      6  C   UNL     1      80.495  14.238   2.830  1.00  0.00     0.019 A 
ENDROOT
BRANCH   1   7
ATOM      7  C   UNL     1      79.188  15.304   0.997  1.00  0.00     0.163 C 
ATOM      8  C   UNL     1      79.308  14.223  -0.034  1.00  0.00     0.093 C 
ATOM      9  O   UNL     1      78.884  16.465   0.611  1.00  0.00    -0.294 OA
ENDBRANCH   1   7
BRANCH   2  10
ATOM     10  O   UNL     1      77.544  16.470   3.125  1.00  0.00    -0.507 OA
ATOM     11  H   UNL     1      77.413  17.359   3.594  1.00  0.00     0.293 HD
ENDBRANCH   2  10
BRANCH   4  12
ATOM     12  O   UNL     1      80.211  14.188   6.510  1.00  0.00    -0.497 OA
ATOM     13  C   UNL     1      79.871  15.014   7.619  1.00  0.00     0.278 C 
ENDBRANCH   4  12
TORSDOF 3
ENDMDL
MODEL 2
REMARK VINA RESULT:    -4.218      1.596      2.329
REMARK INTER + INTRA:          -5.167
REMARK INTER:                  -4.829
REMARK INTRA:                  -0.338
REMARK UNBOUND:                -0.332
REMARK SMILES COc1ccc(C(C)=O)c(O)c1
REMARK SMILES IDX 6 1 10 2 12 3 3 4 4 5 5 6 7 7 8 8 9 9 11 10 2 12 1 13
REMARK H PARENT 11 11
REMARK Flexibility Score: inf
ROOT
ATOM      1  C   UNL     1      79.594  16.159   3.071  1.00  0.00     0.059 A 
ATOM      2  C   UNL     1      79.902  14.780   3.034  1.00  0.00     0.130 A 
ATOM      3  C   UNL     1      79.955  14.040   4.226  1.00  0.00     0.093 A 
ATOM      4  C   UNL     1      79.688  14.653   5.463  1.00  0.00     0.122 A 
ATOM      5  C   UNL     1      79.366  16.011   5.493  1.00  0.00     0.047 A 
ATOM      6  C   UNL     1      79.315  16.757   4.314  1.00  0.00     0.019 A 
ENDROOT
BRANCH   1   7
ATOM      7  C   UNL     1      79.539  17.002   1.846  1.00  0.00     0.163 C 
ATOM      8  C   UNL     1      80.110  18.387   1.796  1.00  0.00     0.093 C 
ATOM      9  O   UNL     1      78.995  16.544   0.805  1.00  0.00    -0.294 OA
ENDBRANCH   1   7
BRANCH   2  10
ATOM     10  O   UNL     1      80.134  14.133   1.820  1.00  0.00    -0.507 OA
ATOM     11  H   UNL     1      81.072  13.976   1.469  1.00  0.00     0.293 HD
ENDBRANCH   2  10
BRANCH   4  12
ATOM     12  O   UNL     1      79.729  13.950   6.677  1.00  0.00    -0.497 OA
ATOM     13  C   UNL     1      80.105  14.522   7.925  1.00  0.00     0.278 C 
ENDBRANCH   4  12
TORSDOF 3
ENDMDL
MODEL 3
REMARK VINA RESULT:    -3.958      2.045      2.386
REMARK INTER + INTRA:          -4.869
REMARK INTER:                  -4.549
REMARK INTRA:                  -0.320
REMARK UNBOUND:                -0.332
REMARK SMILES COc1ccc(C(C)=O)c(O)c1
REMARK SMILES IDX 6 1 10 2 12 3 3 4 4 5 5 6 7 7 8 8 9 9 11 10 2 12 1 13
REMARK H PARENT 11 11
REMARK Flexibility Score: inf
ROOT
ATOM      1  C   UNL     1      79.285  16.871   2.826  1.00  0.00     0.059 A 
ATOM      2  C   UNL     1      79.829  17.150   4.100  1.00  0.00     0.130 A 
ATOM      3  C   UNL     1      79.747  16.194   5.125  1.00  0.00     0.093 A 
ATOM      4  C   UNL     1      79.140  14.946   4.893  1.00  0.00     0.122 A 
ATOM      5  C   UNL     1      78.620  14.667   3.627  1.00  0.00     0.047 A 
ATOM      6  C   UNL     1      78.693  15.613   2.604  1.00  0.00     0.019 A 
ENDROOT
BRANCH   1   7
ATOM      7  C   UNL     1      79.325  17.849   1.705  1.00  0.00     0.163 C 
ATOM      8  C   UNL     1      78.217  17.969   0.703  1.00  0.00     0.093 C 
ATOM      9  O   UNL     1      80.323  18.609   1.584  1.00  0.00    -0.294 OA
ENDBRANCH   1   7
BRANCH   2  10
ATOM     10  O   UNL     1      80.472  18.362   4.353  1.00  0.00    -0.507 OA
ATOM     11  H   UNL     1      81.481  18.426   4.430  1.00  0.00     0.293 HD
ENDBRANCH   2  10
BRANCH   4  12
ATOM     12  O   UNL     1      79.038  13.962   5.888  1.00  0.00    -0.497 OA
ATOM     13  C   UNL     1      79.890  13.875   7.024  1.00  0.00     0.278 C 
ENDBRANCH   4  12
TORSDOF 3
ENDMDL
MODEL 4
REMARK VINA RESULT:    -3.879      1.664      4.936
REMARK INTER + INTRA:          -4.778
REMARK INTER:                  -4.595
REMARK INTRA:                  -0.184
REMARK UNBOUND:                -0.332
REMARK SMILES COc1ccc(C(C)=O)c(O)c1
REMARK SMILES IDX 6 1 10 2 12 3 3 4 4 5 5 6 7 7 8 8 9 9 11 10 2 12 1 13
REMARK H PARENT 11 11
REMARK Flexibility Score: inf
ROOT
ATOM      1  C   UNL     1      79.655  15.148   6.203  1.00  0.00     0.059 A 
ATOM      2  C   UNL     1      79.325  16.341   5.520  1.00  0.00     0.130 A 
ATOM      3  C   UNL     1      78.925  16.294   4.176  1.00  0.00     0.093 A 
ATOM      4  C   UNL     1      78.831  15.065   3.499  1.00  0.00     0.122 A 
ATOM      5  C   UNL     1      79.140  13.886   4.182  1.00  0.00     0.047 A 
ATOM      6  C   UNL     1      79.544  13.924   5.518  1.00  0.00     0.019 A 
ENDROOT
BRANCH   1   7
ATOM      7  C   UNL     1      80.103  15.134   7.622  1.00  0.00     0.163 C 
ATOM      8  C   UNL     1      80.521  13.875   8.321  1.00  0.00     0.093 C 
ATOM      9  O   UNL     1      80.135  16.214   8.270  1.00  0.00    -0.294 OA
ENDBRANCH   1   7
BRANCH   2  10
ATOM     10  O   UNL     1      79.370  17.573   6.173  1.00  0.00    -0.507 OA
ATOM     11  H   UNL     1      79.171  18.442   5.690  1.00  0.00     0.293 HD
ENDBRANCH   2  10
BRANCH   4  12
ATOM     12  O   UNL     1      78.434  14.972   2.156  1.00  0.00    -0.497 OA
ATOM     13  C   UNL     1      79.332  14.941   1.052  1.00  0.00     0.278 C 
ENDBRANCH   4  12
TORSDOF 3
ENDMDL
MODEL 5
REMARK VINA RESULT:    -3.547      1.607      4.929
REMARK INTER + INTRA:          -4.398
REMARK INTER:                  -4.060
REMARK INTRA:                  -0.337
REMARK UNBOUND:                -0.332
REMARK SMILES COc1ccc(C(C)=O)c(O)c1
REMARK SMILES IDX 6 1 10 2 12 3 3 4 4 5 5 6 7 7 8 8 9 9 11 10 2 12 1 13
REMARK H PARENT 11 11
REMARK Flexibility Score: inf
ROOT
ATOM      1  C   UNL     1      79.469  15.680   4.435  1.00  0.00     0.059 A 
ATOM      2  C   UNL     1      80.346  14.711   3.895  1.00  0.00     0.130 A 
ATOM      3  C   UNL     1      80.208  14.305   2.558  1.00  0.00     0.093 A 
ATOM      4  C   UNL     1      79.212  14.866   1.738  1.00  0.00     0.122 A 
ATOM      5  C   UNL     1      78.360  15.837   2.270  1.00  0.00     0.047 A 
ATOM      6  C   UNL     1      78.487  16.243   3.599  1.00  0.00     0.019 A 
ENDROOT
BRANCH   1   7
ATOM      7  C   UNL     1      79.553  16.138   5.848  1.00  0.00     0.163 C 
ATOM      8  C   UNL     1      79.454  17.584   6.232  1.00  0.00     0.093 C 
ATOM      9  O   UNL     1      79.714  15.288   6.765  1.00  0.00    -0.294 OA
ENDBRANCH   1   7
BRANCH   2  10
ATOM     10  O   UNL     1      81.368  14.162   4.670  1.00  0.00    -0.507 OA
ATOM     11  H   UNL     1      81.210  13.852   5.622  1.00  0.00     0.293 HD
ENDBRANCH   2  10
BRANCH   4  12
ATOM     12  O   UNL     1      79.041  14.491   0.397  1.00  0.00    -0.497 OA
ATOM     13  C   UNL     1      77.861  13.888  -0.124  1.00  0.00     0.278 C 
ENDBRANCH   4  12
TORSDOF 3
ENDMDL
MODEL 6
REMARK VINA RESULT:    -3.202      1.898      2.234
REMARK INTER + INTRA:          -4.002
REMARK INTER:                  -3.766
REMARK INTRA:                  -0.236
REMARK UNBOUND:                -0.332
REMARK SMILES COc1ccc(C(C)=O)c(O)c1
REMARK SMILES IDX 6 1 10 2 12 3 3 4 4 5 5 6 7 7 8 8 9 9 11 10 2 12 1 13
REMARK H PARENT 11 11
REMARK Flexibility Score: inf
ROOT
ATOM      1  C   UNL     1      78.883  15.034   1.870  1.00  0.00     0.059 A 
ATOM      2  C   UNL     1      79.299  16.373   2.051  1.00  0.00     0.130 A 
ATOM      3  C   UNL     1      79.429  16.899   3.346  1.00  0.00     0.093 A 
ATOM      4  C   UNL     1      79.165  16.102   4.474  1.00  0.00     0.122 A 
ATOM      5  C   UNL     1      78.771  14.774   4.290  1.00  0.00     0.047 A 
ATOM      6  C   UNL     1      78.635  14.243   3.007  1.00  0.00     0.019 A 
ENDROOT
BRANCH   1   7
ATOM      7  C   UNL     1      78.709  14.424   0.523  1.00  0.00     0.163 C 
ATOM      8  C   UNL     1      77.361  14.223  -0.101  1.00  0.00     0.093 C 
ATOM      9  O   UNL     1      79.726  14.059  -0.125  1.00  0.00    -0.294 OA
ENDBRANCH   1   7
BRANCH   2  10
ATOM     10  O   UNL     1      79.607  17.180   0.955  1.00  0.00    -0.507 OA
ATOM     11  H   UNL     1      79.769  16.791   0.033  1.00  0.00     0.293 HD
ENDBRANCH   2  10
BRANCH   4  12
ATOM     12  O   UNL     1      79.283  16.587   5.785  1.00  0.00    -0.497 OA
ATOM     13  C   UNL     1      79.529  17.949   6.119  1.00  0.00     0.278 C 
ENDBRANCH   4  12
TORSDOF 3
ENDMDL
MODEL 7
REMARK VINA RESULT:    -3.010     18.503     20.061
REMARK INTER + INTRA:          -3.782
REMARK INTER:                  -3.452
REMARK INTRA:                  -0.330
REMARK UNBOUND:                -0.332
REMARK SMILES COc1ccc(C(C)=O)c(O)c1
REMARK SMILES IDX 6 1 10 2 12 3 3 4 4 5 5 6 7 7 8 8 9 9 11 10 2 12 1 13
REMARK H PARENT 11 11
REMARK Flexibility Score: inf
ROOT
ATOM      1  C   UNL     1      89.544  26.830  15.923  1.00  0.00     0.059 A 
ATOM      2  C   UNL     1      89.065  26.526  14.628  1.00  0.00     0.130 A 
ATOM      3  C   UNL     1      89.912  26.659  13.516  1.00  0.00     0.093 A 
ATOM      4  C   UNL     1      91.245  27.079  13.677  1.00  0.00     0.122 A 
ATOM      5  C   UNL     1      91.719  27.361  14.960  1.00  0.00     0.047 A 
ATOM      6  C   UNL     1      90.883  27.236  16.071  1.00  0.00     0.019 A 
ENDROOT
BRANCH   1   7
ATOM      7  C   UNL     1      88.691  26.726  17.138  1.00  0.00     0.163 C 
ATOM      8  C   UNL     1      88.741  27.735  18.245  1.00  0.00     0.093 C 
ATOM      9  O   UNL     1      87.894  25.756  17.251  1.00  0.00    -0.294 OA
ENDBRANCH   1   7
BRANCH   2  10
ATOM     10  O   UNL     1      87.761  26.069  14.438  1.00  0.00    -0.507 OA
ATOM     11  H   UNL     1      87.209  25.695  15.201  1.00  0.00     0.293 HD
ENDBRANCH   2  10
BRANCH   4  12
ATOM     12  O   UNL     1      92.125  27.225  12.594  1.00  0.00    -0.497 OA
ATOM     13  C   UNL     1      92.107  26.409  11.428  1.00  0.00     0.278 C 
ENDBRANCH   4  12
TORSDOF 3
ENDMDL
