MODEL 1
REMARK VINA RESULT:    -1.775      0.000      0.000
REMARK INTER + INTRA:          -2.048
REMARK INTER:                  -2.606
REMARK INTRA:                   0.557
REMARK UNBOUND:                 0.557
REMARK SMILES C=C1C=C[C@@H](C(C)C)CCC(C)=CCC1
REMARK SMILES IDX 3 1 4 2 5 3 9 4 10 5 11 6 12 7 13 8 6 10 7 11 8 12 2 13 1 14
REMARK SMILES IDX 15 15 14 16
REMARK H PARENT
REMARK Flexibility Score: 70.00
ROOT
ATOM      1  C   UNL     1     136.412 138.132 125.391  1.00  0.00    -0.001 C 
ATOM      2  C   UNL     1     137.178 137.053 125.604  1.00  0.00    -0.023 C 
ENDROOT
BRANCH   2   3
ATOM      3  C   UNL     1     137.838 136.240 124.508  1.00  0.00     0.014 C 
BRANCH   3   4
ATOM      4  C   UNL     1     136.823 135.191 123.962  1.00  0.00     0.012 C 
BRANCH   4   5
ATOM      5  C   UNL     1     136.884 135.016 122.427  1.00  0.00     0.031 C 
BRANCH   5   6
ATOM      6  C   UNL     1     138.092 135.713 121.816  1.00  0.00    -0.077 C 
ATOM      7  C   UNL     1     139.314 134.888 121.502  1.00  0.00     0.039 C 
ATOM      8  C   UNL     1     138.129 137.035 121.525  1.00  0.00    -0.028 CG0
ATOM      9  G   UNL     1     136.991 138.008 121.712  1.00  0.00     0.000 G0
ENDBRANCH   5   6
ENDBRANCH   4   5
ENDBRANCH   3   4
BRANCH   3  10
ATOM     10  C   UNL     1     139.162 135.581 125.019  1.00  0.00    -0.010 C 
ATOM     11  C   UNL     1     140.412 136.308 124.489  1.00  0.00     0.008 C 
ATOM     12  C   UNL     1     139.227 135.565 126.559  1.00  0.00     0.008 C 
ENDBRANCH   3  10
ENDBRANCH   2   3
BRANCH   1  13
ATOM     13  C   UNL     1     136.080 138.693 124.062  1.00  0.00    -0.055 C 
ATOM     14  C   UNL     1     134.875 139.252 123.901  1.00  0.00     0.012 C 
BRANCH  13  15
ATOM     15  C   UNL     1     137.143 138.886 122.997  1.00  0.00     0.039 C 
BRANCH  15  16
ATOM     16  C   UNL     1     137.005 138.015 121.722  1.00  0.00     0.032 CG0
ATOM     17  G   UNL     1     138.131 137.035 121.503  1.00  0.00     0.000 G0
ENDBRANCH  15  16
ENDBRANCH  13  15
ENDBRANCH   1  13
TORSDOF 1
ENDMDL
MODEL 2
REMARK VINA RESULT:    -1.316      1.460      3.821
REMARK INTER + INTRA:          -1.374
REMARK INTER:                  -5.037
REMARK INTRA:                   3.663
REMARK UNBOUND:                 0.557
REMARK SMILES C=C1C=C[C@@H](C(C)C)CCC(C)=CCC1
REMARK SMILES IDX 3 1 4 2 5 3 9 4 10 5 11 6 12 7 13 8 6 10 7 11 8 12 2 13 1 14
REMARK SMILES IDX 15 15 14 16
REMARK H PARENT
REMARK Flexibility Score: 70.00
ROOT
ATOM      1  C   UNL     1     138.371 138.211 122.693  1.00  0.00    -0.001 C 
ATOM      2  C   UNL     1     137.777 138.340 123.887  1.00  0.00    -0.023 C 
ENDROOT
BRANCH   2   3
ATOM      3  C   UNL     1     136.469 137.675 124.269  1.00  0.00     0.014 C 
BRANCH   3   4
ATOM      4  C   UNL     1     136.247 136.420 123.371  1.00  0.00     0.012 C 
BRANCH   4   5
ATOM      5  C   UNL     1     136.656 135.095 124.053  1.00  0.00     0.031 C 
BRANCH   5   6
ATOM      6  C   UNL     1     138.103 135.112 124.526  1.00  0.00    -0.077 C 
ATOM      7  C   UNL     1     138.376 135.028 126.006  1.00  0.00     0.039 C 
ATOM      8  C   UNL     1     139.165 135.187 123.690  1.00  0.00    -0.028 CG0
ATOM      9  G   UNL     1     139.097 135.220 122.183  1.00  0.00     0.000 G0
ENDBRANCH   5   6
ENDBRANCH   4   5
ENDBRANCH   3   4
BRANCH   3  10
ATOM     10  C   UNL     1     135.279 138.687 124.186  1.00  0.00    -0.010 C 
ATOM     11  C   UNL     1     135.614 140.031 124.858  1.00  0.00     0.008 C 
ATOM     12  C   UNL     1     134.876 138.964 122.724  1.00  0.00     0.008 C 
ENDBRANCH   3  10
ENDBRANCH   2   3
BRANCH   1  13
ATOM     13  C   UNL     1     137.847 137.417 121.559  1.00  0.00    -0.055 C 
ATOM     14  C   UNL     1     137.586 138.056 120.414  1.00  0.00     0.012 C 
BRANCH  13  15
ATOM     15  C   UNL     1     137.860 135.900 121.585  1.00  0.00     0.039 C 
BRANCH  15  16
ATOM     16  C   UNL     1     139.124 135.232 122.183  1.00  0.00     0.032 CG0
ATOM     17  G   UNL     1     139.158 135.185 123.691  1.00  0.00     0.000 G0
ENDBRANCH  15  16
ENDBRANCH  13  15
ENDBRANCH   1  13
TORSDOF 1
ENDMDL
MODEL 3
REMARK VINA RESULT:    -0.694      1.882      3.872
REMARK INTER + INTRA:          -0.461
REMARK INTER:                  -0.992
REMARK INTRA:                   0.531
REMARK UNBOUND:                 0.557
REMARK SMILES C=C1C=C[C@@H](C(C)C)CCC(C)=CCC1
REMARK SMILES IDX 3 1 4 2 5 3 9 4 10 5 11 6 12 7 13 8 6 10 7 11 8 12 2 13 1 14
REMARK SMILES IDX 15 15 14 16
REMARK H PARENT
REMARK Flexibility Score: 70.00
ROOT
ATOM      1  C   UNL     1     137.286 138.625 123.480  1.00  0.00    -0.001 C 
ATOM      2  C   UNL     1     138.124 138.399 122.459  1.00  0.00    -0.023 C 
ENDROOT
BRANCH   2   3
ATOM      3  C   UNL     1     137.799 137.530 121.261  1.00  0.00     0.014 C 
BRANCH   3   4
ATOM      4  C   UNL     1     138.636 136.217 121.335  1.00  0.00     0.012 C 
BRANCH   4   5
ATOM      5  C   UNL     1     137.967 135.107 122.177  1.00  0.00     0.031 C 
BRANCH   5   6
ATOM      6  C   UNL     1     138.407 135.145 123.634  1.00  0.00    -0.077 C 
ATOM      7  C   UNL     1     139.868 134.946 123.948  1.00  0.00     0.039 C 
ATOM      8  C   UNL     1     137.561 135.360 124.669  1.00  0.00    -0.028 CG0
ATOM      9  G   UNL     1     136.082 135.636 124.551  1.00  0.00     0.000 G0
ENDBRANCH   5   6
ENDBRANCH   4   5
ENDBRANCH   3   4
BRANCH   3  10
ATOM     10  C   UNL     1     138.028 138.309 119.924  1.00  0.00    -0.010 C 
ATOM     11  C   UNL     1     138.826 137.481 118.900  1.00  0.00     0.008 C 
ATOM     12  C   UNL     1     136.692 138.723 119.276  1.00  0.00     0.008 C 
ENDBRANCH   3  10
ENDBRANCH   2   3
BRANCH   1  13
ATOM     13  C   UNL     1     135.924 138.059 123.608  1.00  0.00    -0.055 C 
ATOM     14  C   UNL     1     134.894 138.910 123.664  1.00  0.00     0.012 C 
BRANCH  13  15
ATOM     15  C   UNL     1     135.662 136.578 123.409  1.00  0.00     0.039 C 
BRANCH  15  16
ATOM     16  C   UNL     1     136.080 135.643 124.571  1.00  0.00     0.032 CG0
ATOM     17  G   UNL     1     137.563 135.377 124.664  1.00  0.00     0.000 G0
ENDBRANCH  15  16
ENDBRANCH  13  15
ENDBRANCH   1  13
TORSDOF 1
ENDMDL
MODEL 4
REMARK VINA RESULT:    -0.044      1.836      3.961
REMARK INTER + INTRA:           0.493
REMARK INTER:                  -0.365
REMARK INTRA:                   0.858
REMARK UNBOUND:                 0.557
REMARK SMILES C=C1C=C[C@@H](C(C)C)CCC(C)=CCC1
REMARK SMILES IDX 3 1 4 2 5 3 9 4 10 5 11 6 12 7 13 8 6 10 7 11 8 12 2 13 1 14
REMARK SMILES IDX 15 15 14 16
REMARK H PARENT
REMARK Flexibility Score: 70.00
ROOT
ATOM      1  C   UNL     1     137.504 138.625 123.538  1.00  0.00    -0.001 C 
ATOM      2  C   UNL     1     138.401 137.920 122.834  1.00  0.00    -0.023 C 
ENDROOT
BRANCH   2   3
ATOM      3  C   UNL     1     138.339 136.420 122.627  1.00  0.00     0.014 C 
BRANCH   3   4
ATOM      4  C   UNL     1     139.622 135.764 123.222  1.00  0.00     0.012 C 
BRANCH   4   5
ATOM      5  C   UNL     1     140.022 136.335 124.602  1.00  0.00     0.031 C 
BRANCH   5   6
ATOM      6  C   UNL     1     139.477 135.498 125.751  1.00  0.00    -0.077 C 
ATOM      7  C   UNL     1     140.444 134.978 126.783  1.00  0.00     0.039 C 
ATOM      8  C   UNL     1     138.165 135.202 125.908  1.00  0.00    -0.028 CG0
ATOM      9  G   UNL     1     137.044 135.677 125.016  1.00  0.00     0.000 G0
ENDBRANCH   5   6
ENDBRANCH   4   5
ENDBRANCH   3   4
BRANCH   3  10
ATOM     10  C   UNL     1     138.135 136.069 121.117  1.00  0.00    -0.010 C 
ATOM     11  C   UNL     1     136.925 135.142 120.896  1.00  0.00     0.008 C 
ATOM     12  C   UNL     1     137.935 137.339 120.265  1.00  0.00     0.008 C 
ENDBRANCH   3  10
ENDBRANCH   2   3
BRANCH   1  13
ATOM     13  C   UNL     1     136.326 138.058 124.231  1.00  0.00    -0.055 C 
ATOM     14  C   UNL     1     135.125 138.226 123.666  1.00  0.00     0.012 C 
BRANCH  13  15
ATOM     15  C   UNL     1     136.481 137.088 125.388  1.00  0.00     0.039 C 
BRANCH  15  16
ATOM     16  C   UNL     1     137.022 135.679 125.036  1.00  0.00     0.032 CG0
ATOM     17  G   UNL     1     138.169 135.212 125.899  1.00  0.00     0.000 G0
ENDBRANCH  15  16
ENDBRANCH  13  15
ENDBRANCH   1  13
TORSDOF 1
ENDMDL
