MODEL 1
REMARK VINA RESULT:    -5.080      0.000      0.000
REMARK INTER + INTRA:          -8.889
REMARK INTER:                  -8.049
REMARK INTRA:                  -0.840
REMARK UNBOUND:                -0.840
REMARK SMILES CCCCCCCCCCCC(=O)[O-]
REMARK SMILES IDX 7 1 8 2 9 3 10 4 11 5 12 6 13 7 14 8 6 9 5 10 4 11 3 12 2 13
REMARK SMILES IDX 1 14
REMARK H PARENT
REMARK Flexibility Score: inf
ROOT
ATOM      1  C   UNL     1     -10.575 -15.903  27.664  1.00  0.00     0.000 C 
ENDROOT
BRANCH   1   2
ATOM      2  C   UNL     1     -10.606 -15.256  26.272  1.00  0.00     0.000 C 
BRANCH   2   3
ATOM      3  C   UNL     1      -9.274 -14.559  25.960  1.00  0.00     0.000 C 
BRANCH   3   4
ATOM      4  C   UNL     1      -8.066 -15.234  26.635  1.00  0.00     0.006 C 
BRANCH   4   5
ATOM      5  C   UNL     1      -6.933 -14.260  27.004  1.00  0.00     0.053 C 
BRANCH   5   6
ATOM      6  C   UNL     1      -6.720 -14.153  28.484  1.00  0.00     0.041 C 
ATOM      7  O   UNL     1      -7.488 -14.753  29.282  1.00  0.00    -0.550 OA
ATOM      8  O   UNL     1      -5.690 -13.366  28.983  1.00  0.00    -0.550 OA
ENDBRANCH   5   6
ENDBRANCH   4   5
ENDBRANCH   3   4
ENDBRANCH   2   3
ENDBRANCH   1   2
BRANCH   1   9
ATOM      9  C   UNL     1     -11.789 -16.820  27.870  1.00  0.00     0.000 C 
BRANCH   9  10
ATOM     10  C   UNL     1     -12.628 -16.421  29.095  1.00  0.00    -0.000 C 
BRANCH  10  11
ATOM     11  C   UNL     1     -12.130 -17.082  30.393  1.00  0.00    -0.000 C 
BRANCH  11  12
ATOM     12  C   UNL     1     -11.523 -18.473  30.153  1.00  0.00    -0.000 C 
BRANCH  12  13
ATOM     13  C   UNL     1     -10.101 -18.600  30.720  1.00  0.00    -0.003 C 
ATOM     14  C   UNL     1      -9.466 -17.228  30.923  1.00  0.00     0.004 C 
ENDBRANCH  12  13
ENDBRANCH  11  12
ENDBRANCH  10  11
ENDBRANCH   9  10
ENDBRANCH   1   9
TORSDOF 10
ENDMDL
MODEL 2
REMARK VINA RESULT:    -5.071      1.691      3.796
REMARK INTER + INTRA:          -8.875
REMARK INTER:                  -7.846
REMARK INTRA:                  -1.029
REMARK UNBOUND:                -0.840
REMARK SMILES CCCCCCCCCCCC(=O)[O-]
REMARK SMILES IDX 7 1 8 2 9 3 10 4 11 5 12 6 13 7 14 8 6 9 5 10 4 11 3 12 2 13
REMARK SMILES IDX 1 14
REMARK H PARENT
REMARK Flexibility Score: inf
ROOT
ATOM      1  C   UNL     1     -11.309 -18.545  30.901  1.00  0.00     0.000 C 
ENDROOT
BRANCH   1   2
ATOM      2  C   UNL     1      -9.899 -18.086  30.505  1.00  0.00     0.000 C 
BRANCH   2   3
ATOM      3  C   UNL     1      -9.691 -16.601  30.833  1.00  0.00     0.000 C 
BRANCH   3   4
ATOM      4  C   UNL     1      -8.265 -16.285  31.321  1.00  0.00     0.006 C 
BRANCH   4   5
ATOM      5  C   UNL     1      -7.588 -15.129  30.564  1.00  0.00     0.053 C 
BRANCH   5   6
ATOM      6  C   UNL     1      -6.419 -14.555  31.305  1.00  0.00     0.041 C 
ATOM      7  O   UNL     1      -5.245 -14.750  30.891  1.00  0.00    -0.550 OA
ATOM      8  O   UNL     1      -6.624 -13.830  32.471  1.00  0.00    -0.550 OA
ENDBRANCH   5   6
ENDBRANCH   4   5
ENDBRANCH   3   4
ENDBRANCH   2   3
ENDBRANCH   1   2
BRANCH   1   9
ATOM      9  C   UNL     1     -12.259 -18.506  29.695  1.00  0.00     0.000 C 
BRANCH   9  10
ATOM     10  C   UNL     1     -13.194 -17.287  29.718  1.00  0.00    -0.000 C 
BRANCH  10  11
ATOM     11  C   UNL     1     -12.777 -16.202  28.710  1.00  0.00    -0.000 C 
BRANCH  11  12
ATOM     12  C   UNL     1     -11.885 -16.752  27.585  1.00  0.00    -0.000 C 
BRANCH  12  13
ATOM     13  C   UNL     1     -11.152 -15.641  26.818  1.00  0.00    -0.003 C 
ATOM     14  C   UNL     1      -9.679 -15.584  27.207  1.00  0.00     0.004 C 
ENDBRANCH  12  13
ENDBRANCH  11  12
ENDBRANCH  10  11
ENDBRANCH   9  10
ENDBRANCH   1   9
TORSDOF 10
ENDMDL
MODEL 3
REMARK VINA RESULT:    -5.053      2.183      5.311
REMARK INTER + INTRA:          -8.848
REMARK INTER:                  -8.170
REMARK INTRA:                  -0.677
REMARK UNBOUND:                -0.840
REMARK SMILES CCCCCCCCCCCC(=O)[O-]
REMARK SMILES IDX 7 1 8 2 9 3 10 4 11 5 12 6 13 7 14 8 6 9 5 10 4 11 3 12 2 13
REMARK SMILES IDX 1 14
REMARK H PARENT
REMARK Flexibility Score: inf
ROOT
ATOM      1  C   UNL     1     -10.843 -15.985  27.398  1.00  0.00     0.000 C 
ENDROOT
BRANCH   1   2
ATOM      2  C   UNL     1     -12.307 -16.416  27.558  1.00  0.00     0.000 C 
BRANCH   2   3
ATOM      3  C   UNL     1     -12.782 -16.228  29.005  1.00  0.00     0.000 C 
BRANCH   3   4
ATOM      4  C   UNL     1     -12.904 -17.555  29.777  1.00  0.00     0.006 C 
BRANCH   4   5
ATOM      5  C   UNL     1     -11.851 -17.730  30.886  1.00  0.00     0.053 C 
BRANCH   5   6
ATOM      6  C   UNL     1     -10.575 -18.337  30.385  1.00  0.00     0.041 C 
ATOM      7  O   UNL     1     -10.568 -19.015  29.324  1.00  0.00    -0.550 OA
ATOM      8  O   UNL     1      -9.399 -18.177  31.106  1.00  0.00    -0.550 OA
ENDBRANCH   5   6
ENDBRANCH   4   5
ENDBRANCH   3   4
ENDBRANCH   2   3
ENDBRANCH   1   2
BRANCH   1   9
ATOM      9  C   UNL     1     -10.684 -15.000  26.231  1.00  0.00     0.000 C 
BRANCH   9  10
ATOM     10  C   UNL     1      -9.213 -14.765  25.853  1.00  0.00    -0.000 C 
BRANCH  10  11
ATOM     11  C   UNL     1      -8.246 -15.108  27.000  1.00  0.00    -0.000 C 
BRANCH  11  12
ATOM     12  C   UNL     1      -6.841 -14.520  26.784  1.00  0.00    -0.000 C 
BRANCH  12  13
ATOM     13  C   UNL     1      -6.099 -14.270  28.106  1.00  0.00    -0.003 C 
ATOM     14  C   UNL     1      -7.035 -14.427  29.300  1.00  0.00     0.004 C 
ENDBRANCH  12  13
ENDBRANCH  11  12
ENDBRANCH  10  11
ENDBRANCH   9  10
ENDBRANCH   1   9
TORSDOF 10
ENDMDL
MODEL 4
REMARK VINA RESULT:    -5.037      2.423      5.217
REMARK INTER + INTRA:          -8.821
REMARK INTER:                  -7.971
REMARK INTRA:                  -0.850
REMARK UNBOUND:                -0.840
REMARK SMILES CCCCCCCCCCCC(=O)[O-]
REMARK SMILES IDX 7 1 8 2 9 3 10 4 11 5 12 6 13 7 14 8 6 9 5 10 4 11 3 12 2 13
REMARK SMILES IDX 1 14
REMARK H PARENT
REMARK Flexibility Score: inf
ROOT
ATOM      1  C   UNL     1     -10.333 -15.212  26.269  1.00  0.00     0.000 C 
ENDROOT
BRANCH   1   2
ATOM      2  C   UNL     1     -10.539 -15.991  27.575  1.00  0.00     0.000 C 
BRANCH   2   3
ATOM      3  C   UNL     1     -12.022 -16.324  27.789  1.00  0.00     0.000 C 
BRANCH   3   4
ATOM      4  C   UNL     1     -12.430 -16.337  29.274  1.00  0.00     0.006 C 
BRANCH   4   5
ATOM      5  C   UNL     1     -11.261 -16.602  30.240  1.00  0.00     0.053 C 
BRANCH   5   6
ATOM      6  C   UNL     1     -11.086 -18.057  30.554  1.00  0.00     0.041 C 
ATOM      7  O   UNL     1     -10.251 -18.750  29.914  1.00  0.00    -0.550 OA
ATOM      8  O   UNL     1     -11.867 -18.655  31.534  1.00  0.00    -0.550 OA
ENDBRANCH   5   6
ENDBRANCH   4   5
ENDBRANCH   3   4
ENDBRANCH   2   3
ENDBRANCH   1   2
BRANCH   1   9
ATOM      9  C   UNL     1      -9.025 -14.408  26.310  1.00  0.00     0.000 C 
BRANCH   9  10
ATOM     10  C   UNL     1      -7.801 -15.289  26.609  1.00  0.00    -0.000 C 
BRANCH  10  11
ATOM     11  C   UNL     1      -6.680 -14.518  27.328  1.00  0.00    -0.000 C 
BRANCH  11  12
ATOM     12  C   UNL     1      -7.124 -13.960  28.690  1.00  0.00    -0.000 C 
BRANCH  12  13
ATOM     13  C   UNL     1      -7.644 -15.056  29.633  1.00  0.00    -0.003 C 
ATOM     14  C   UNL     1      -7.096 -14.870  31.044  1.00  0.00     0.004 C 
ENDBRANCH  12  13
ENDBRANCH  11  12
ENDBRANCH  10  11
ENDBRANCH   9  10
ENDBRANCH   1   9
TORSDOF 10
ENDMDL
MODEL 5
REMARK VINA RESULT:    -4.995      0.967      1.462
REMARK INTER + INTRA:          -8.756
REMARK INTER:                  -7.913
REMARK INTRA:                  -0.843
REMARK UNBOUND:                -0.840
REMARK SMILES CCCCCCCCCCCC(=O)[O-]
REMARK SMILES IDX 7 1 8 2 9 3 10 4 11 5 12 6 13 7 14 8 6 9 5 10 4 11 3 12 2 13
REMARK SMILES IDX 1 14
REMARK H PARENT
REMARK Flexibility Score: inf
ROOT
ATOM      1  C   UNL     1     -10.675 -15.031  26.184  1.00  0.00     0.000 C 
ENDROOT
BRANCH   1   2
ATOM      2  C   UNL     1      -9.309 -14.333  26.130  1.00  0.00     0.000 C 
BRANCH   2   3
ATOM      3  C   UNL     1      -8.193 -15.270  26.612  1.00  0.00     0.000 C 
BRANCH   3   4
ATOM      4  C   UNL     1      -7.189 -14.580  27.554  1.00  0.00     0.006 C 
BRANCH   4   5
ATOM      5  C   UNL     1      -7.556 -14.689  29.045  1.00  0.00     0.053 C 
BRANCH   5   6
ATOM      6  C   UNL     1      -6.864 -13.663  29.889  1.00  0.00     0.041 C 
ATOM      7  O   UNL     1      -7.181 -13.517  31.100  1.00  0.00    -0.550 OA
ATOM      8  O   UNL     1      -5.887 -12.848  29.332  1.00  0.00    -0.550 OA
ENDBRANCH   5   6
ENDBRANCH   4   5
ENDBRANCH   3   4
ENDBRANCH   2   3
ENDBRANCH   1   2
BRANCH   1   9
ATOM      9  C   UNL     1     -10.738 -16.025  27.354  1.00  0.00     0.000 C 
BRANCH   9  10
ATOM     10  C   UNL     1     -12.175 -16.271  27.841  1.00  0.00    -0.000 C 
BRANCH  10  11
ATOM     11  C   UNL     1     -12.247 -17.321  28.964  1.00  0.00    -0.000 C 
BRANCH  11  12
ATOM     12  C   UNL     1     -11.034 -18.265  28.970  1.00  0.00    -0.000 C 
BRANCH  12  13
ATOM     13  C   UNL     1     -10.402 -18.401  30.363  1.00  0.00    -0.003 C 
ATOM     14  C   UNL     1      -9.683 -17.119  30.768  1.00  0.00     0.004 C 
ENDBRANCH  12  13
ENDBRANCH  11  12
ENDBRANCH  10  11
ENDBRANCH   9  10
ENDBRANCH   1   9
TORSDOF 10
ENDMDL
MODEL 6
REMARK VINA RESULT:    -4.953      1.832      3.427
REMARK INTER + INTRA:          -8.688
REMARK INTER:                  -8.096
REMARK INTRA:                  -0.593
REMARK UNBOUND:                -0.840
REMARK SMILES CCCCCCCCCCCC(=O)[O-]
REMARK SMILES IDX 7 1 8 2 9 3 10 4 11 5 12 6 13 7 14 8 6 9 5 10 4 11 3 12 2 13
REMARK SMILES IDX 1 14
REMARK H PARENT
REMARK Flexibility Score: inf
ROOT
ATOM      1  C   UNL     1      -8.100 -15.216  26.534  1.00  0.00     0.000 C 
ENDROOT
BRANCH   1   2
ATOM      2  C   UNL     1      -6.938 -14.243  26.772  1.00  0.00     0.000 C 
BRANCH   2   3
ATOM      3  C   UNL     1      -6.308 -14.464  28.154  1.00  0.00     0.000 C 
BRANCH   3   4
ATOM      4  C   UNL     1      -7.349 -14.530  29.288  1.00  0.00     0.006 C 
BRANCH   4   5
ATOM      5  C   UNL     1      -6.959 -13.723  30.540  1.00  0.00     0.053 C 
BRANCH   5   6
ATOM      6  C   UNL     1      -6.982 -14.548  31.791  1.00  0.00     0.041 C 
ATOM      7  O   UNL     1      -6.456 -14.111  32.850  1.00  0.00    -0.550 OA
ATOM      8  O   UNL     1      -7.556 -15.812  31.781  1.00  0.00    -0.550 OA
ENDBRANCH   5   6
ENDBRANCH   4   5
ENDBRANCH   3   4
ENDBRANCH   2   3
ENDBRANCH   1   2
BRANCH   1   9
ATOM      9  C   UNL     1      -9.374 -14.462  26.125  1.00  0.00     0.000 C 
BRANCH   9  10
ATOM     10  C   UNL     1     -10.649 -15.286  26.360  1.00  0.00    -0.000 C 
BRANCH  10  11
ATOM     11  C   UNL     1     -10.610 -16.072  27.682  1.00  0.00    -0.000 C 
BRANCH  11  12
ATOM     12  C   UNL     1     -11.968 -16.697  28.039  1.00  0.00    -0.000 C 
BRANCH  12  13
ATOM     13  C   UNL     1     -11.828 -18.091  28.668  1.00  0.00    -0.003 C 
ATOM     14  C   UNL     1     -12.604 -18.184  29.978  1.00  0.00     0.004 C 
ENDBRANCH  12  13
ENDBRANCH  11  12
ENDBRANCH  10  11
ENDBRANCH   9  10
ENDBRANCH   1   9
TORSDOF 10
ENDMDL
MODEL 7
REMARK VINA RESULT:    -4.945      1.877      4.824
REMARK INTER + INTRA:          -8.675
REMARK INTER:                  -7.900
REMARK INTRA:                  -0.775
REMARK UNBOUND:                -0.840
REMARK SMILES CCCCCCCCCCCC(=O)[O-]
REMARK SMILES IDX 7 1 8 2 9 3 10 4 11 5 12 6 13 7 14 8 6 9 5 10 4 11 3 12 2 13
REMARK SMILES IDX 1 14
REMARK H PARENT
REMARK Flexibility Score: inf
ROOT
ATOM      1  C   UNL     1     -12.950 -17.619  29.398  1.00  0.00     0.000 C 
ENDROOT
BRANCH   1   2
ATOM      2  C   UNL     1     -12.995 -17.655  30.931  1.00  0.00     0.000 C 
BRANCH   2   3
ATOM      3  C   UNL     1     -11.910 -18.584  31.492  1.00  0.00     0.000 C 
BRANCH   3   4
ATOM      4  C   UNL     1     -10.695 -18.728  30.556  1.00  0.00     0.006 C 
BRANCH   4   5
ATOM      5  C   UNL     1      -9.362 -18.297  31.193  1.00  0.00     0.053 C 
BRANCH   5   6
ATOM      6  C   UNL     1      -9.076 -16.837  31.010  1.00  0.00     0.041 C 
ATOM      7  O   UNL     1      -9.729 -16.162  30.171  1.00  0.00    -0.550 OA
ATOM      8  O   UNL     1      -8.066 -16.229  31.744  1.00  0.00    -0.550 OA
ENDBRANCH   5   6
ENDBRANCH   4   5
ENDBRANCH   3   4
ENDBRANCH   2   3
ENDBRANCH   1   2
BRANCH   1   9
ATOM      9  C   UNL     1     -13.422 -16.257  28.866  1.00  0.00     0.000 C 
BRANCH   9  10
ATOM     10  C   UNL     1     -12.969 -15.999  27.420  1.00  0.00    -0.000 C 
BRANCH  10  11
ATOM     11  C   UNL     1     -11.488 -16.352  27.193  1.00  0.00    -0.000 C 
BRANCH  11  12
ATOM     12  C   UNL     1     -10.738 -15.268  26.401  1.00  0.00    -0.000 C 
BRANCH  12  13
ATOM     13  C   UNL     1      -9.237 -15.233  26.728  1.00  0.00    -0.003 C 
ATOM     14  C   UNL     1      -8.604 -13.926  26.262  1.00  0.00     0.004 C 
ENDBRANCH  12  13
ENDBRANCH  11  12
ENDBRANCH  10  11
ENDBRANCH   9  10
ENDBRANCH   1   9
TORSDOF 10
ENDMDL
MODEL 8
REMARK VINA RESULT:    -4.883      4.848      7.783
REMARK INTER + INTRA:          -8.577
REMARK INTER:                  -7.976
REMARK INTRA:                  -0.601
REMARK UNBOUND:                -0.840
REMARK SMILES CCCCCCCCCCCC(=O)[O-]
REMARK SMILES IDX 7 1 8 2 9 3 10 4 11 5 12 6 13 7 14 8 6 9 5 10 4 11 3 12 2 13
REMARK SMILES IDX 1 14
REMARK H PARENT
REMARK Flexibility Score: inf
ROOT
ATOM      1  C   UNL     1     -13.457 -17.530  30.445  1.00  0.00     0.000 C 
ENDROOT
BRANCH   1   2
ATOM      2  C   UNL     1     -12.685 -17.464  31.769  1.00  0.00     0.000 C 
BRANCH   2   3
ATOM      3  C   UNL     1     -13.313 -18.389  32.820  1.00  0.00     0.000 C 
BRANCH   3   4
ATOM      4  C   UNL     1     -12.804 -19.840  32.729  1.00  0.00     0.006 C 
BRANCH   4   5
ATOM      5  C   UNL     1     -12.346 -20.426  34.076  1.00  0.00     0.053 C 
BRANCH   5   6
ATOM      6  C   UNL     1     -13.356 -21.357  34.677  1.00  0.00     0.041 C 
ATOM      7  O   UNL     1     -14.372 -20.899  35.264  1.00  0.00    -0.550 OA
ATOM      8  O   UNL     1     -13.160 -22.730  34.614  1.00  0.00    -0.550 OA
ENDBRANCH   5   6
ENDBRANCH   4   5
ENDBRANCH   3   4
ENDBRANCH   2   3
ENDBRANCH   1   2
BRANCH   1   9
ATOM      9  C   UNL     1     -12.508 -17.810  29.270  1.00  0.00     0.000 C 
BRANCH   9  10
ATOM     10  C   UNL     1     -11.061 -17.384  29.565  1.00  0.00    -0.000 C 
BRANCH  10  11
ATOM     11  C   UNL     1     -10.440 -16.563  28.421  1.00  0.00    -0.000 C 
BRANCH  11  12
ATOM     12  C   UNL     1     -11.488 -16.076  27.407  1.00  0.00    -0.000 C 
BRANCH  12  13
ATOM     13  C   UNL     1     -10.863 -15.279  26.252  1.00  0.00    -0.003 C 
ATOM     14  C   UNL     1      -9.378 -15.029  26.498  1.00  0.00     0.004 C 
ENDBRANCH  12  13
ENDBRANCH  11  12
ENDBRANCH  10  11
ENDBRANCH   9  10
ENDBRANCH   1   9
TORSDOF 10
ENDMDL
MODEL 9
REMARK VINA RESULT:    -4.789      5.483      7.927
REMARK INTER + INTRA:          -8.429
REMARK INTER:                  -7.544
REMARK INTRA:                  -0.886
REMARK UNBOUND:                -0.840
REMARK SMILES CCCCCCCCCCCC(=O)[O-]
REMARK SMILES IDX 7 1 8 2 9 3 10 4 11 5 12 6 13 7 14 8 6 9 5 10 4 11 3 12 2 13
REMARK SMILES IDX 1 14
REMARK H PARENT
REMARK Flexibility Score: inf
ROOT
ATOM      1  C   UNL     1     -13.107 -17.481  31.813  1.00  0.00     0.000 C 
ENDROOT
BRANCH   1   2
ATOM      2  C   UNL     1     -13.478 -18.643  32.745  1.00  0.00     0.000 C 
BRANCH   2   3
ATOM      3  C   UNL     1     -12.403 -19.738  32.713  1.00  0.00     0.000 C 
BRANCH   3   4
ATOM      4  C   UNL     1     -12.004 -20.233  34.116  1.00  0.00     0.006 C 
BRANCH   4   5
ATOM      5  C   UNL     1     -12.583 -21.611  34.480  1.00  0.00     0.053 C 
BRANCH   5   6
ATOM      6  C   UNL     1     -14.077 -21.599  34.603  1.00  0.00     0.041 C 
ATOM      7  O   UNL     1     -14.785 -22.287  33.820  1.00  0.00    -0.550 OA
ATOM      8  O   UNL     1     -14.689 -20.804  35.563  1.00  0.00    -0.550 OA
ENDBRANCH   5   6
ENDBRANCH   4   5
ENDBRANCH   3   4
ENDBRANCH   2   3
ENDBRANCH   1   2
BRANCH   1   9
ATOM      9  C   UNL     1     -13.476 -17.805  30.358  1.00  0.00     0.000 C 
BRANCH   9  10
ATOM     10  C   UNL     1     -12.927 -16.767  29.366  1.00  0.00    -0.000 C 
BRANCH  10  11
ATOM     11  C   UNL     1     -11.486 -17.076  28.924  1.00  0.00    -0.000 C 
BRANCH  11  12
ATOM     12  C   UNL     1     -11.069 -18.523  29.236  1.00  0.00    -0.000 C 
BRANCH  12  13
ATOM     13  C   UNL     1      -9.958 -18.599  30.295  1.00  0.00    -0.003 C 
ATOM     14  C   UNL     1      -9.601 -17.211  30.817  1.00  0.00     0.004 C 
ENDBRANCH  12  13
ENDBRANCH  11  12
ENDBRANCH  10  11
ENDBRANCH   9  10
ENDBRANCH   1   9
TORSDOF 10
ENDMDL
