MODEL 1
REMARK VINA RESULT:    -3.194      0.000      0.000
REMARK INTER + INTRA:          -7.370
REMARK INTER:                  -5.434
REMARK INTRA:                  -1.936
REMARK UNBOUND:                -1.936
REMARK SMILES CCCCCCCCCCCCCC(=O)[O-]
REMARK SMILES IDX 8 1 9 2 10 3 11 4 12 5 13 6 14 7 15 8 16 9 7 10 6 11 5 12
REMARK SMILES IDX 4 13 3 14 2 15 1 16
REMARK H PARENT
REMARK Flexibility Score: inf
ROOT
ATOM      1  C   UNL     1       3.405 105.491 177.520  1.00  0.00     0.000 C 
ENDROOT
BRANCH   1   2
ATOM      2  C   UNL     1       3.357 104.485 178.679  1.00  0.00     0.000 C 
BRANCH   2   3
ATOM      3  C   UNL     1       2.965 105.179 179.993  1.00  0.00     0.000 C 
BRANCH   3   4
ATOM      4  C   UNL     1       4.059 106.126 180.521  1.00  0.00     0.000 C 
BRANCH   4   5
ATOM      5  C   UNL     1       3.658 106.962 181.749  1.00  0.00     0.006 C 
BRANCH   5   6
ATOM      6  C   UNL     1       3.779 108.472 181.510  1.00  0.00     0.053 C 
BRANCH   6   7
ATOM      7  C   UNL     1       2.869 109.221 182.432  1.00  0.00     0.041 C 
ATOM      8  O   UNL     1       1.712 108.788 182.672  1.00  0.00    -0.550 OA
ATOM      9  O   UNL     1       3.282 110.424 182.989  1.00  0.00    -0.550 OA
ENDBRANCH   6   7
ENDBRANCH   5   6
ENDBRANCH   4   5
ENDBRANCH   3   4
ENDBRANCH   2   3
ENDBRANCH   1   2
BRANCH   1  10
ATOM     10  C   UNL     1       2.279 105.271 176.498  1.00  0.00     0.000 C 
BRANCH  10  11
ATOM     11  C   UNL     1       0.897 105.132 177.161  1.00  0.00    -0.000 C 
BRANCH  11  12
ATOM     12  C   UNL     1       0.154 106.473 177.265  1.00  0.00    -0.000 C 
BRANCH  12  13
ATOM     13  C   UNL     1      -0.046 106.927 178.719  1.00  0.00    -0.000 C 
BRANCH  13  14
ATOM     14  C   UNL     1       0.938 108.050 179.082  1.00  0.00    -0.000 C 
BRANCH  14  15
ATOM     15  C   UNL     1       1.518 108.751 177.843  1.00  0.00    -0.003 C 
ATOM     16  C   UNL     1       3.022 108.998 177.953  1.00  0.00     0.004 C 
ENDBRANCH  14  15
ENDBRANCH  13  14
ENDBRANCH  12  13
ENDBRANCH  11  12
ENDBRANCH  10  11
ENDBRANCH   1  10
TORSDOF 12
ENDMDL
MODEL 2
REMARK VINA RESULT:    -2.985      1.277      2.980
REMARK INTER + INTRA:          -7.015
REMARK INTER:                  -5.465
REMARK INTRA:                  -1.550
REMARK UNBOUND:                -1.936
REMARK SMILES CCCCCCCCCCCCCC(=O)[O-]
REMARK SMILES IDX 8 1 9 2 10 3 11 4 12 5 13 6 14 7 15 8 16 9 7 10 6 11 5 12
REMARK SMILES IDX 4 13 3 14 2 15 1 16
REMARK H PARENT
REMARK Flexibility Score: inf
ROOT
ATOM      1  C   UNL     1       3.462 108.126 179.425  1.00  0.00     0.000 C 
ENDROOT
BRANCH   1   2
ATOM      2  C   UNL     1       4.458 107.193 180.130  1.00  0.00     0.000 C 
BRANCH   2   3
ATOM      3  C   UNL     1       3.906 106.724 181.485  1.00  0.00     0.000 C 
BRANCH   3   4
ATOM      4  C   UNL     1       4.892 106.950 182.645  1.00  0.00     0.000 C 
BRANCH   4   5
ATOM      5  C   UNL     1       4.741 108.299 183.373  1.00  0.00     0.006 C 
BRANCH   5   6
ATOM      6  C   UNL     1       3.332 108.891 183.247  1.00  0.00     0.053 C 
BRANCH   6   7
ATOM      7  C   UNL     1       3.406 110.340 182.881  1.00  0.00     0.041 C 
ATOM      8  O   UNL     1       2.845 111.206 183.604  1.00  0.00    -0.550 OA
ATOM      9  O   UNL     1       4.053 110.731 181.716  1.00  0.00    -0.550 OA
ENDBRANCH   6   7
ENDBRANCH   5   6
ENDBRANCH   4   5
ENDBRANCH   3   4
ENDBRANCH   2   3
ENDBRANCH   1   2
BRANCH   1  10
ATOM     10  C   UNL     1       2.096 108.172 180.127  1.00  0.00     0.000 C 
BRANCH  10  11
ATOM     11  C   UNL     1       0.920 108.066 179.141  1.00  0.00    -0.000 C 
BRANCH  11  12
ATOM     12  C   UNL     1       0.469 106.615 178.913  1.00  0.00    -0.000 C 
BRANCH  12  13
ATOM     13  C   UNL     1       0.295 106.277 177.425  1.00  0.00    -0.000 C 
BRANCH  13  14
ATOM     14  C   UNL     1       1.111 105.031 177.047  1.00  0.00    -0.000 C 
BRANCH  14  15
ATOM     15  C   UNL     1       2.623 105.233 177.243  1.00  0.00    -0.003 C 
ATOM     16  C   UNL     1       3.204 104.325 178.326  1.00  0.00     0.004 C 
ENDBRANCH  14  15
ENDBRANCH  13  14
ENDBRANCH  12  13
ENDBRANCH  11  12
ENDBRANCH  10  11
ENDBRANCH   1  10
TORSDOF 12
ENDMDL
MODEL 3
REMARK VINA RESULT:    -2.942      1.460      3.108
REMARK INTER + INTRA:          -6.942
REMARK INTER:                  -4.808
REMARK INTRA:                  -2.134
REMARK UNBOUND:                -1.936
REMARK SMILES CCCCCCCCCCCCCC(=O)[O-]
REMARK SMILES IDX 8 1 9 2 10 3 11 4 12 5 13 6 14 7 15 8 16 9 7 10 6 11 5 12
REMARK SMILES IDX 4 13 3 14 2 15 1 16
REMARK H PARENT
REMARK Flexibility Score: inf
ROOT
ATOM      1  C   UNL     1       3.754 108.850 179.123  1.00  0.00     0.000 C 
ENDROOT
BRANCH   1   2
ATOM      2  C   UNL     1       4.826 107.818 178.743  1.00  0.00     0.000 C 
BRANCH   2   3
ATOM      3  C   UNL     1       5.854 107.652 179.873  1.00  0.00     0.000 C 
BRANCH   3   4
ATOM      4  C   UNL     1       5.626 106.380 180.709  1.00  0.00     0.000 C 
BRANCH   4   5
ATOM      5  C   UNL     1       5.270 106.628 182.187  1.00  0.00     0.006 C 
BRANCH   5   6
ATOM      6  C   UNL     1       3.791 106.974 182.395  1.00  0.00     0.053 C 
BRANCH   6   7
ATOM      7  C   UNL     1       3.645 108.398 182.833  1.00  0.00     0.041 C 
ATOM      8  O   UNL     1       2.505 108.930 182.890  1.00  0.00    -0.550 OA
ATOM      9  O   UNL     1       4.772 109.152 183.132  1.00  0.00    -0.550 OA
ENDBRANCH   6   7
ENDBRANCH   5   6
ENDBRANCH   4   5
ENDBRANCH   3   4
ENDBRANCH   2   3
ENDBRANCH   1   2
BRANCH   1  10
ATOM     10  C   UNL     1       2.354 108.461 178.623  1.00  0.00     0.000 C 
BRANCH  10  11
ATOM     11  C   UNL     1       1.605 107.550 179.611  1.00  0.00    -0.000 C 
BRANCH  11  12
ATOM     12  C   UNL     1       1.367 106.139 179.049  1.00  0.00    -0.000 C 
BRANCH  12  13
ATOM     13  C   UNL     1       2.342 105.102 179.624  1.00  0.00    -0.000 C 
BRANCH  13  14
ATOM     14  C   UNL     1       3.224 104.506 178.516  1.00  0.00    -0.000 C 
BRANCH  14  15
ATOM     15  C   UNL     1       2.835 105.008 177.117  1.00  0.00    -0.003 C 
ATOM     16  C   UNL     1       3.923 104.755 176.074  1.00  0.00     0.004 C 
ENDBRANCH  14  15
ENDBRANCH  13  14
ENDBRANCH  12  13
ENDBRANCH  11  12
ENDBRANCH  10  11
ENDBRANCH   1  10
TORSDOF 12
ENDMDL
MODEL 4
REMARK VINA RESULT:    -2.932      2.836      6.292
REMARK INTER + INTRA:          -6.925
REMARK INTER:                  -5.218
REMARK INTRA:                  -1.707
REMARK UNBOUND:                -1.936
REMARK SMILES CCCCCCCCCCCCCC(=O)[O-]
REMARK SMILES IDX 8 1 9 2 10 3 11 4 12 5 13 6 14 7 15 8 16 9 7 10 6 11 5 12
REMARK SMILES IDX 4 13 3 14 2 15 1 16
REMARK H PARENT
REMARK Flexibility Score: inf
ROOT
ATOM      1  C   UNL     1       5.510 110.091 182.218  1.00  0.00     0.000 C 
ENDROOT
BRANCH   1   2
ATOM      2  C   UNL     1       4.084 110.495 181.815  1.00  0.00     0.000 C 
BRANCH   2   3
ATOM      3  C   UNL     1       3.067 110.055 182.879  1.00  0.00     0.000 C 
BRANCH   3   4
ATOM      4  C   UNL     1       2.197 108.870 182.424  1.00  0.00     0.000 C 
BRANCH   4   5
ATOM      5  C   UNL     1       2.486 108.360 181.000  1.00  0.00     0.006 C 
BRANCH   5   6
ATOM      6  C   UNL     1       1.213 108.142 180.173  1.00  0.00     0.053 C 
BRANCH   6   7
ATOM      7  C   UNL     1       1.311 106.870 179.389  1.00  0.00     0.041 C 
ATOM      8  O   UNL     1       0.475 106.619 178.483  1.00  0.00    -0.550 OA
ATOM      9  O   UNL     1       2.298 105.942 179.693  1.00  0.00    -0.550 OA
ENDBRANCH   6   7
ENDBRANCH   5   6
ENDBRANCH   4   5
ENDBRANCH   3   4
ENDBRANCH   2   3
ENDBRANCH   1   2
BRANCH   1  10
ATOM     10  C   UNL     1       5.719 110.099 183.740  1.00  0.00     0.000 C 
BRANCH  10  11
ATOM     11  C   UNL     1       6.240 108.753 184.273  1.00  0.00    -0.000 C 
BRANCH  11  12
ATOM     12  C   UNL     1       5.549 107.550 183.614  1.00  0.00    -0.000 C 
BRANCH  12  13
ATOM     13  C   UNL     1       6.509 106.376 183.373  1.00  0.00    -0.000 C 
BRANCH  13  14
ATOM     14  C   UNL     1       6.811 106.214 181.875  1.00  0.00    -0.000 C 
BRANCH  14  15
ATOM     15  C   UNL     1       5.549 106.320 181.003  1.00  0.00    -0.003 C 
ATOM     16  C   UNL     1       5.762 107.177 179.756  1.00  0.00     0.004 C 
ENDBRANCH  14  15
ENDBRANCH  13  14
ENDBRANCH  12  13
ENDBRANCH  11  12
ENDBRANCH  10  11
ENDBRANCH   1  10
TORSDOF 12
ENDMDL
MODEL 5
REMARK VINA RESULT:    -2.914      3.972      6.295
REMARK INTER + INTRA:          -6.894
REMARK INTER:                  -5.322
REMARK INTRA:                  -1.573
REMARK UNBOUND:                -1.936
REMARK SMILES CCCCCCCCCCCCCC(=O)[O-]
REMARK SMILES IDX 8 1 9 2 10 3 11 4 12 5 13 6 14 7 15 8 16 9 7 10 6 11 5 12
REMARK SMILES IDX 4 13 3 14 2 15 1 16
REMARK H PARENT
REMARK Flexibility Score: inf
ROOT
ATOM      1  C   UNL     1       6.889 108.163 184.098  1.00  0.00     0.000 C 
ENDROOT
BRANCH   1   2
ATOM      2  C   UNL     1       6.315 109.554 184.406  1.00  0.00     0.000 C 
BRANCH   2   3
ATOM      3  C   UNL     1       6.740 110.573 183.338  1.00  0.00     0.000 C 
BRANCH   3   4
ATOM      4  C   UNL     1       5.695 111.682 183.117  1.00  0.00     0.000 C 
BRANCH   4   5
ATOM      5  C   UNL     1       4.925 112.111 184.379  1.00  0.00     0.006 C 
BRANCH   5   6
ATOM      6  C   UNL     1       4.864 113.634 184.553  1.00  0.00     0.053 C 
BRANCH   6   7
ATOM      7  C   UNL     1       3.459 114.122 184.383  1.00  0.00     0.041 C 
ATOM      8  O   UNL     1       2.497 113.465 184.860  1.00  0.00    -0.550 OA
ATOM      9  O   UNL     1       3.209 115.278 183.655  1.00  0.00    -0.550 OA
ENDBRANCH   6   7
ENDBRANCH   5   6
ENDBRANCH   4   5
ENDBRANCH   3   4
ENDBRANCH   2   3
ENDBRANCH   1   2
BRANCH   1  10
ATOM     10  C   UNL     1       5.795 107.121 183.819  1.00  0.00     0.000 C 
BRANCH  10  11
ATOM     11  C   UNL     1       5.755 106.686 182.343  1.00  0.00    -0.000 C 
BRANCH  11  12
ATOM     12  C   UNL     1       4.420 107.026 181.663  1.00  0.00    -0.000 C 
BRANCH  12  13
ATOM     13  C   UNL     1       4.413 108.433 181.046  1.00  0.00    -0.000 C 
BRANCH  13  14
ATOM     14  C   UNL     1       3.096 109.161 181.358  1.00  0.00    -0.000 C 
BRANCH  14  15
ATOM     15  C   UNL     1       2.912 109.432 182.860  1.00  0.00    -0.003 C 
ATOM     16  C   UNL     1       1.532 109.020 183.370  1.00  0.00     0.004 C 
ENDBRANCH  14  15
ENDBRANCH  13  14
ENDBRANCH  12  13
ENDBRANCH  11  12
ENDBRANCH  10  11
ENDBRANCH   1  10
TORSDOF 12
ENDMDL
MODEL 6
REMARK VINA RESULT:    -2.894      1.309      1.947
REMARK INTER + INTRA:          -6.860
REMARK INTER:                  -4.955
REMARK INTRA:                  -1.905
REMARK UNBOUND:                -1.936
REMARK SMILES CCCCCCCCCCCCCC(=O)[O-]
REMARK SMILES IDX 8 1 9 2 10 3 11 4 12 5 13 6 14 7 15 8 16 9 7 10 6 11 5 12
REMARK SMILES IDX 4 13 3 14 2 15 1 16
REMARK H PARENT
REMARK Flexibility Score: inf
ROOT
ATOM      1  C   UNL     1       5.328 105.811 178.683  1.00  0.00     0.000 C 
ENDROOT
BRANCH   1   2
ATOM      2  C   UNL     1       4.914 107.262 178.393  1.00  0.00     0.000 C 
BRANCH   2   3
ATOM      3  C   UNL     1       4.601 108.015 179.695  1.00  0.00     0.000 C 
BRANCH   3   4
ATOM      4  C   UNL     1       4.669 107.113 180.941  1.00  0.00     0.000 C 
BRANCH   4   5
ATOM      5  C   UNL     1       3.517 107.303 181.944  1.00  0.00     0.006 C 
BRANCH   5   6
ATOM      6  C   UNL     1       2.611 108.491 181.596  1.00  0.00     0.053 C 
BRANCH   6   7
ATOM      7  C   UNL     1       2.484 109.412 182.769  1.00  0.00     0.041 C 
ATOM      8  O   UNL     1       1.450 109.385 183.487  1.00  0.00    -0.550 OA
ATOM      9  O   UNL     1       3.486 110.334 183.040  1.00  0.00    -0.550 OA
ENDBRANCH   6   7
ENDBRANCH   5   6
ENDBRANCH   4   5
ENDBRANCH   3   4
ENDBRANCH   2   3
ENDBRANCH   1   2
BRANCH   1  10
ATOM     10  C   UNL     1       4.476 104.788 177.915  1.00  0.00     0.000 C 
BRANCH  10  11
ATOM     11  C   UNL     1       3.198 104.393 178.676  1.00  0.00    -0.000 C 
BRANCH  11  12
ATOM     12  C   UNL     1       1.945 105.096 178.132  1.00  0.00    -0.000 C 
BRANCH  12  13
ATOM     13  C   UNL     1       1.333 106.078 179.142  1.00  0.00    -0.000 C 
BRANCH  13  14
ATOM     14  C   UNL     1       0.206 106.897 178.495  1.00  0.00    -0.000 C 
BRANCH  14  15
ATOM     15  C   UNL     1       0.490 108.408 178.510  1.00  0.00    -0.003 C 
ATOM     16  C   UNL     1       1.586 108.813 177.524  1.00  0.00     0.004 C 
ENDBRANCH  14  15
ENDBRANCH  13  14
ENDBRANCH  12  13
ENDBRANCH  11  12
ENDBRANCH  10  11
ENDBRANCH   1  10
TORSDOF 12
ENDMDL
MODEL 7
REMARK VINA RESULT:    -2.863      4.012      6.669
REMARK INTER + INTRA:          -6.807
REMARK INTER:                  -5.470
REMARK INTRA:                  -1.337
REMARK UNBOUND:                -1.936
REMARK SMILES CCCCCCCCCCCCCC(=O)[O-]
REMARK SMILES IDX 8 1 9 2 10 3 11 4 12 5 13 6 14 7 15 8 16 9 7 10 6 11 5 12
REMARK SMILES IDX 4 13 3 14 2 15 1 16
REMARK H PARENT
REMARK Flexibility Score: inf
ROOT
ATOM      1  C   UNL     1       2.190 108.907 182.826  1.00  0.00     0.000 C 
ENDROOT
BRANCH   1   2
ATOM      2  C   UNL     1       3.130 108.540 181.669  1.00  0.00     0.000 C 
BRANCH   2   3
ATOM      3  C   UNL     1       3.649 107.101 181.818  1.00  0.00     0.000 C 
BRANCH   3   4
ATOM      4  C   UNL     1       5.157 107.036 182.126  1.00  0.00     0.000 C 
BRANCH   4   5
ATOM      5  C   UNL     1       5.523 107.165 183.615  1.00  0.00     0.006 C 
BRANCH   5   6
ATOM      6  C   UNL     1       6.071 108.551 183.978  1.00  0.00     0.053 C 
BRANCH   6   7
ATOM      7  C   UNL     1       7.174 108.937 183.043  1.00  0.00     0.041 C 
ATOM      8  O   UNL     1       8.273 108.324 183.072  1.00  0.00    -0.550 OA
ATOM      9  O   UNL     1       7.005 110.005 182.172  1.00  0.00    -0.550 OA
ENDBRANCH   6   7
ENDBRANCH   5   6
ENDBRANCH   4   5
ENDBRANCH   3   4
ENDBRANCH   2   3
ENDBRANCH   1   2
BRANCH   1  10
ATOM     10  C   UNL     1       2.485 110.298 183.409  1.00  0.00     0.000 C 
BRANCH  10  11
ATOM     11  C   UNL     1       3.684 110.982 182.730  1.00  0.00    -0.000 C 
BRANCH  11  12
ATOM     12  C   UNL     1       4.218 112.176 183.537  1.00  0.00    -0.000 C 
BRANCH  12  13
ATOM     13  C   UNL     1       3.247 112.627 184.638  1.00  0.00    -0.000 C 
BRANCH  13  14
ATOM     14  C   UNL     1       2.885 114.111 184.474  1.00  0.00    -0.000 C 
BRANCH  14  15
ATOM     15  C   UNL     1       4.047 114.944 183.911  1.00  0.00    -0.003 C 
ATOM     16  C   UNL     1       3.588 115.981 182.886  1.00  0.00     0.004 C 
ENDBRANCH  14  15
ENDBRANCH  13  14
ENDBRANCH  12  13
ENDBRANCH  11  12
ENDBRANCH  10  11
ENDBRANCH   1  10
TORSDOF 12
ENDMDL
MODEL 8
REMARK VINA RESULT:    -2.862      2.248      5.171
REMARK INTER + INTRA:          -6.805
REMARK INTER:                  -5.047
REMARK INTRA:                  -1.758
REMARK UNBOUND:                -1.936
REMARK SMILES CCCCCCCCCCCCCC(=O)[O-]
REMARK SMILES IDX 8 1 9 2 10 3 11 4 12 5 13 6 14 7 15 8 16 9 7 10 6 11 5 12
REMARK SMILES IDX 4 13 3 14 2 15 1 16
REMARK H PARENT
REMARK Flexibility Score: inf
ROOT
ATOM      1  C   UNL     1       4.208 106.979 179.488  1.00  0.00     0.000 C 
ENDROOT
BRANCH   1   2
ATOM      2  C   UNL     1       3.572 105.893 180.369  1.00  0.00     0.000 C 
BRANCH   2   3
ATOM      3  C   UNL     1       2.825 104.859 179.513  1.00  0.00     0.000 C 
BRANCH   3   4
ATOM      4  C   UNL     1       2.717 105.271 178.033  1.00  0.00     0.000 C 
BRANCH   4   5
ATOM      5  C   UNL     1       1.384 104.908 177.353  1.00  0.00     0.006 C 
BRANCH   5   6
ATOM      6  C   UNL     1       0.672 106.124 176.748  1.00  0.00     0.053 C 
BRANCH   6   7
ATOM      7  C   UNL     1       0.521 107.204 177.773  1.00  0.00     0.041 C 
ATOM      8  O   UNL     1       1.017 108.343 177.571  1.00  0.00    -0.550 OA
ATOM      9  O   UNL     1      -0.125 106.938 178.974  1.00  0.00    -0.550 OA
ENDBRANCH   6   7
ENDBRANCH   5   6
ENDBRANCH   4   5
ENDBRANCH   3   4
ENDBRANCH   2   3
ENDBRANCH   1   2
BRANCH   1  10
ATOM     10  C   UNL     1       3.675 108.385 179.806  1.00  0.00     0.000 C 
BRANCH  10  11
ATOM     11  C   UNL     1       2.544 108.367 180.850  1.00  0.00    -0.000 C 
BRANCH  11  12
ATOM     12  C   UNL     1       2.891 109.176 182.110  1.00  0.00    -0.000 C 
BRANCH  12  13
ATOM     13  C   UNL     1       3.422 108.294 183.250  1.00  0.00    -0.000 C 
BRANCH  13  14
ATOM     14  C   UNL     1       4.958 108.276 183.257  1.00  0.00    -0.000 C 
BRANCH  14  15
ATOM     15  C   UNL     1       5.532 106.850 183.263  1.00  0.00    -0.003 C 
ATOM     16  C   UNL     1       6.714 106.684 182.307  1.00  0.00     0.004 C 
ENDBRANCH  14  15
ENDBRANCH  13  14
ENDBRANCH  12  13
ENDBRANCH  11  12
ENDBRANCH  10  11
ENDBRANCH   1  10
TORSDOF 12
ENDMDL
MODEL 9
REMARK VINA RESULT:    -2.852      1.991      3.482
REMARK INTER + INTRA:          -6.788
REMARK INTER:                  -4.938
REMARK INTRA:                  -1.851
REMARK UNBOUND:                -1.936
REMARK SMILES CCCCCCCCCCCCCC(=O)[O-]
REMARK SMILES IDX 8 1 9 2 10 3 11 4 12 5 13 6 14 7 15 8 16 9 7 10 6 11 5 12
REMARK SMILES IDX 4 13 3 14 2 15 1 16
REMARK H PARENT
REMARK Flexibility Score: inf
ROOT
ATOM      1  C   UNL     1       4.480 107.637 178.049  1.00  0.00     0.000 C 
ENDROOT
BRANCH   1   2
ATOM      2  C   UNL     1       3.532 108.617 178.755  1.00  0.00     0.000 C 
BRANCH   2   3
ATOM      3  C   UNL     1       3.972 108.858 180.207  1.00  0.00     0.000 C 
BRANCH   3   4
ATOM      4  C   UNL     1       2.827 108.675 181.220  1.00  0.00     0.000 C 
BRANCH   4   5
ATOM      5  C   UNL     1       3.254 108.116 182.589  1.00  0.00     0.006 C 
BRANCH   5   6
ATOM      6  C   UNL     1       4.267 106.971 182.478  1.00  0.00     0.053 C 
BRANCH   6   7
ATOM      7  C   UNL     1       5.453 107.235 183.352  1.00  0.00     0.041 C 
ATOM      8  O   UNL     1       6.307 106.333 183.552  1.00  0.00    -0.550 OA
ATOM      9  O   UNL     1       5.588 108.464 183.986  1.00  0.00    -0.550 OA
ENDBRANCH   6   7
ENDBRANCH   5   6
ENDBRANCH   4   5
ENDBRANCH   3   4
ENDBRANCH   2   3
ENDBRANCH   1   2
BRANCH   1  10
ATOM     10  C   UNL     1       5.023 106.554 178.995  1.00  0.00     0.000 C 
BRANCH  10  11
ATOM     11  C   UNL     1       4.279 105.215 178.849  1.00  0.00    -0.000 C 
BRANCH  11  12
ATOM     12  C   UNL     1       3.056 105.114 179.773  1.00  0.00    -0.000 C 
BRANCH  12  13
ATOM     13  C   UNL     1       1.736 105.393 179.039  1.00  0.00    -0.000 C 
BRANCH  13  14
ATOM     14  C   UNL     1       1.738 104.748 177.644  1.00  0.00    -0.000 C 
BRANCH  14  15
ATOM     15  C   UNL     1       1.389 105.749 176.530  1.00  0.00    -0.003 C 
ATOM     16  C   UNL     1       2.483 105.857 175.468  1.00  0.00     0.004 C 
ENDBRANCH  14  15
ENDBRANCH  13  14
ENDBRANCH  12  13
ENDBRANCH  11  12
ENDBRANCH  10  11
ENDBRANCH   1  10
TORSDOF 12
ENDMDL
