MODEL 1
REMARK VINA RESULT:    -3.218      0.000      0.000
REMARK INTER + INTRA:          -4.374
REMARK INTER:                  -4.158
REMARK INTRA:                  -0.216
REMARK UNBOUND:                -0.216
REMARK SMILES CCCCCCC(=O)[O-]
REMARK SMILES IDX 5 1 6 2 7 3 8 4 9 5 4 6 3 7 2 8 1 9
REMARK H PARENT
REMARK Flexibility Score: inf
ROOT
ATOM      1  C   UNL     1      60.073  -0.646  95.791  1.00  0.00     0.006 C 
ENDROOT
BRANCH   1   2
ATOM      2  C   UNL     1      61.044  -1.078  94.685  1.00  0.00     0.053 C 
BRANCH   2   3
ATOM      3  C   UNL     1      60.365  -1.049  93.353  1.00  0.00     0.041 C 
ATOM      4  O   UNL     1      59.558  -0.123  93.073  1.00  0.00    -0.550 OA
ATOM      5  O   UNL     1      60.659  -2.016  92.400  1.00  0.00    -0.550 OA
ENDBRANCH   2   3
ENDBRANCH   1   2
BRANCH   1   6
ATOM      6  C   UNL     1      60.695   0.361  96.774  1.00  0.00     0.000 C 
BRANCH   6   7
ATOM      7  C   UNL     1      59.859   1.631  97.024  1.00  0.00    -0.000 C 
BRANCH   7   8
ATOM      8  C   UNL     1      58.537   1.705  96.238  1.00  0.00    -0.003 C 
ATOM      9  C   UNL     1      58.074   3.139  95.985  1.00  0.00     0.004 C 
ENDBRANCH   7   8
ENDBRANCH   6   7
ENDBRANCH   1   6
TORSDOF 5
ENDMDL
MODEL 2
REMARK VINA RESULT:    -3.153      1.270      1.986
REMARK INTER + INTRA:          -4.291
REMARK INTER:                  -4.083
REMARK INTRA:                  -0.207
REMARK UNBOUND:                -0.216
REMARK SMILES CCCCCCC(=O)[O-]
REMARK SMILES IDX 5 1 6 2 7 3 8 4 9 5 4 6 3 7 2 8 1 9
REMARK H PARENT
REMARK Flexibility Score: inf
ROOT
ATOM      1  C   UNL     1      60.969  -1.007  94.433  1.00  0.00     0.006 C 
ENDROOT
BRANCH   1   2
ATOM      2  C   UNL     1      60.239  -1.007  93.083  1.00  0.00     0.053 C 
BRANCH   2   3
ATOM      3  C   UNL     1      60.164  -2.395  92.531  1.00  0.00     0.041 C 
ATOM      4  O   UNL     1      60.981  -2.771  91.649  1.00  0.00    -0.550 OA
ATOM      5  O   UNL     1      59.222  -3.290  93.023  1.00  0.00    -0.550 OA
ENDBRANCH   2   3
ENDBRANCH   1   2
BRANCH   1   6
ATOM      6  C   UNL     1      60.027  -0.747  95.622  1.00  0.00     0.000 C 
BRANCH   6   7
ATOM      7  C   UNL     1      60.648   0.055  96.783  1.00  0.00    -0.000 C 
BRANCH   7   8
ATOM      8  C   UNL     1      60.062   1.463  96.987  1.00  0.00    -0.003 C 
ATOM      9  C   UNL     1      58.700   1.644  96.317  1.00  0.00     0.004 C 
ENDBRANCH   7   8
ENDBRANCH   6   7
ENDBRANCH   1   6
TORSDOF 5
ENDMDL
MODEL 3
REMARK VINA RESULT:    -3.057      3.026      4.599
REMARK INTER + INTRA:          -4.167
REMARK INTER:                  -3.976
REMARK INTRA:                  -0.191
REMARK UNBOUND:                -0.216
REMARK SMILES CCCCCCC(=O)[O-]
REMARK SMILES IDX 5 1 6 2 7 3 8 4 9 5 4 6 3 7 2 8 1 9
REMARK H PARENT
REMARK Flexibility Score: inf
ROOT
ATOM      1  C   UNL     1      59.943   1.588  97.060  1.00  0.00     0.006 C 
ENDROOT
BRANCH   1   2
ATOM      2  C   UNL     1      58.543   1.634  96.435  1.00  0.00     0.053 C 
BRANCH   2   3
ATOM      3  C   UNL     1      58.093   3.051  96.267  1.00  0.00     0.041 C 
ATOM      4  O   UNL     1      58.893   3.999  96.482  1.00  0.00    -0.550 OA
ATOM      5  O   UNL     1      56.805   3.324  95.826  1.00  0.00    -0.550 OA
ENDBRANCH   2   3
ENDBRANCH   1   2
BRANCH   1   6
ATOM      6  C   UNL     1      60.684   0.270  96.770  1.00  0.00     0.000 C 
BRANCH   6   7
ATOM      7  C   UNL     1      60.006  -0.646  95.732  1.00  0.00    -0.000 C 
BRANCH   7   8
ATOM      8  C   UNL     1      60.912  -1.096  94.572  1.00  0.00    -0.003 C 
ATOM      9  C   UNL     1      60.240  -0.963  93.206  1.00  0.00     0.004 C 
ENDBRANCH   7   8
ENDBRANCH   6   7
ENDBRANCH   1   6
TORSDOF 5
ENDMDL
MODEL 4
REMARK VINA RESULT:    -3.026      1.124      1.515
REMARK INTER + INTRA:          -4.126
REMARK INTER:                  -3.823
REMARK INTRA:                  -0.303
REMARK UNBOUND:                -0.216
REMARK SMILES CCCCCCC(=O)[O-]
REMARK SMILES IDX 5 1 6 2 7 3 8 4 9 5 4 6 3 7 2 8 1 9
REMARK H PARENT
REMARK Flexibility Score: inf
ROOT
ATOM      1  C   UNL     1      61.125  -0.983  94.940  1.00  0.00     0.006 C 
ENDROOT
BRANCH   1   2
ATOM      2  C   UNL     1      60.502  -1.885  93.866  1.00  0.00     0.053 C 
BRANCH   2   3
ATOM      3  C   UNL     1      59.409  -1.161  93.146  1.00  0.00     0.041 C 
ATOM      4  O   UNL     1      58.214  -1.541  93.262  1.00  0.00    -0.550 OA
ATOM      5  O   UNL     1      59.703  -0.036  92.386  1.00  0.00    -0.550 OA
ENDBRANCH   2   3
ENDBRANCH   1   2
BRANCH   1   6
ATOM      6  C   UNL     1      60.138  -0.626  96.066  1.00  0.00     0.000 C 
BRANCH   6   7
ATOM      7  C   UNL     1      60.413   0.716  96.773  1.00  0.00    -0.000 C 
BRANCH   7   8
ATOM      8  C   UNL     1      59.248   1.721  96.736  1.00  0.00    -0.003 C 
ATOM      9  C   UNL     1      58.057   1.222  95.919  1.00  0.00     0.004 C 
ENDBRANCH   7   8
ENDBRANCH   6   7
ENDBRANCH   1   6
TORSDOF 5
ENDMDL
MODEL 5
REMARK VINA RESULT:    -2.993      2.482      4.036
REMARK INTER + INTRA:          -4.084
REMARK INTER:                  -3.708
REMARK INTRA:                  -0.376
REMARK UNBOUND:                -0.216
REMARK SMILES CCCCCCC(=O)[O-]
REMARK SMILES IDX 5 1 6 2 7 3 8 4 9 5 4 6 3 7 2 8 1 9
REMARK H PARENT
REMARK Flexibility Score: inf
ROOT
ATOM      1  C   UNL     1      60.166  -0.530  96.247  1.00  0.00     0.006 C 
ENDROOT
BRANCH   1   2
ATOM      2  C   UNL     1      60.473   0.882  96.763  1.00  0.00     0.053 C 
BRANCH   2   3
ATOM      3  C   UNL     1      59.239   1.727  96.739  1.00  0.00     0.041 C 
ATOM      4  O   UNL     1      58.116   1.202  96.517  1.00  0.00    -0.550 OA
ATOM      5  O   UNL     1      59.322   3.087  97.010  1.00  0.00    -0.550 OA
ENDBRANCH   2   3
ENDBRANCH   1   2
BRANCH   1   6
ATOM      6  C   UNL     1      61.065  -0.945  95.069  1.00  0.00     0.000 C 
BRANCH   6   7
ATOM      7  C   UNL     1      60.369  -0.969  93.693  1.00  0.00    -0.000 C 
BRANCH   7   8
ATOM      8  C   UNL     1      58.830  -0.956  93.743  1.00  0.00    -0.003 C 
ATOM      9  C   UNL     1      58.224   0.293  93.105  1.00  0.00     0.004 C 
ENDBRANCH   7   8
ENDBRANCH   6   7
ENDBRANCH   1   6
TORSDOF 5
ENDMDL
MODEL 6
REMARK VINA RESULT:    -2.976      2.400      4.525
REMARK INTER + INTRA:          -4.063
REMARK INTER:                  -3.758
REMARK INTRA:                  -0.304
REMARK UNBOUND:                -0.216
REMARK SMILES CCCCCCC(=O)[O-]
REMARK SMILES IDX 5 1 6 2 7 3 8 4 9 5 4 6 3 7 2 8 1 9
REMARK H PARENT
REMARK Flexibility Score: inf
ROOT
ATOM      1  C   UNL     1      60.289  -0.395  96.022  1.00  0.00     0.006 C 
ENDROOT
BRANCH   1   2
ATOM      2  C   UNL     1      58.807  -0.790  96.056  1.00  0.00     0.053 C 
BRANCH   2   3
ATOM      3  C   UNL     1      57.942   0.431  96.049  1.00  0.00     0.041 C 
ATOM      4  O   UNL     1      56.915   0.484  96.776  1.00  0.00    -0.550 OA
ATOM      5  O   UNL     1      58.296   1.530  95.277  1.00  0.00    -0.550 OA
ENDBRANCH   2   3
ENDBRANCH   1   2
BRANCH   1   6
ATOM      6  C   UNL     1      61.041  -0.999  94.822  1.00  0.00     0.000 C 
BRANCH   6   7
ATOM      7  C   UNL     1      60.300  -0.905  93.473  1.00  0.00    -0.000 C 
BRANCH   7   8
ATOM      8  C   UNL     1      60.427  -2.147  92.574  1.00  0.00    -0.003 C 
ATOM      9  C   UNL     1      60.856  -3.397  93.342  1.00  0.00     0.004 C 
ENDBRANCH   7   8
ENDBRANCH   6   7
ENDBRANCH   1   6
TORSDOF 5
ENDMDL
MODEL 7
REMARK VINA RESULT:    -2.907      2.417      4.139
REMARK INTER + INTRA:          -3.972
REMARK INTER:                  -3.587
REMARK INTRA:                  -0.386
REMARK UNBOUND:                -0.216
REMARK SMILES CCCCCCC(=O)[O-]
REMARK SMILES IDX 5 1 6 2 7 3 8 4 9 5 4 6 3 7 2 8 1 9
REMARK H PARENT
REMARK Flexibility Score: inf
ROOT
ATOM      1  C   UNL     1      59.036   0.529  95.415  1.00  0.00     0.006 C 
ENDROOT
BRANCH   1   2
ATOM      2  C   UNL     1      57.792   0.175  96.240  1.00  0.00     0.053 C 
BRANCH   2   3
ATOM      3  C   UNL     1      57.371  -1.235  95.969  1.00  0.00     0.041 C 
ATOM      4  O   UNL     1      57.374  -1.683  94.792  1.00  0.00    -0.550 OA
ATOM      5  O   UNL     1      57.022  -2.071  97.022  1.00  0.00    -0.550 OA
ENDBRANCH   2   3
ENDBRANCH   1   2
BRANCH   1   6
ATOM      6  C   UNL     1      60.345   0.054  96.073  1.00  0.00     0.000 C 
BRANCH   6   7
ATOM      7  C   UNL     1      61.124  -1.014  95.280  1.00  0.00    -0.000 C 
BRANCH   7   8
ATOM      8  C   UNL     1      60.732  -1.137  93.796  1.00  0.00    -0.003 C 
ATOM      9  C   UNL     1      60.458  -2.578  93.371  1.00  0.00     0.004 C 
ENDBRANCH   7   8
ENDBRANCH   6   7
ENDBRANCH   1   6
TORSDOF 5
ENDMDL
MODEL 8
REMARK VINA RESULT:    -2.898      1.483      2.388
REMARK INTER + INTRA:          -3.961
REMARK INTER:                  -3.564
REMARK INTRA:                  -0.396
REMARK UNBOUND:                -0.216
REMARK SMILES CCCCCCC(=O)[O-]
REMARK SMILES IDX 5 1 6 2 7 3 8 4 9 5 4 6 3 7 2 8 1 9
REMARK H PARENT
REMARK Flexibility Score: inf
ROOT
ATOM      1  C   UNL     1      57.589  -1.171  94.880  1.00  0.00     0.006 C 
ENDROOT
BRANCH   1   2
ATOM      2  C   UNL     1      58.559  -2.012  94.040  1.00  0.00     0.053 C 
BRANCH   2   3
ATOM      3  C   UNL     1      59.543  -1.129  93.340  1.00  0.00     0.041 C 
ATOM      4  O   UNL     1      59.161  -0.058  92.800  1.00  0.00    -0.550 OA
ATOM      5  O   UNL     1      60.891  -1.465  93.326  1.00  0.00    -0.550 OA
ENDBRANCH   2   3
ENDBRANCH   1   2
BRANCH   1   6
ATOM      6  C   UNL     1      58.200  -0.707  96.214  1.00  0.00     0.000 C 
BRANCH   6   7
ATOM      7  C   UNL     1      58.666   0.762  96.243  1.00  0.00    -0.000 C 
BRANCH   7   8
ATOM      8  C   UNL     1      60.120   0.974  96.704  1.00  0.00    -0.003 C 
ATOM      9  C   UNL     1      60.923  -0.325  96.756  1.00  0.00     0.004 C 
ENDBRANCH   7   8
ENDBRANCH   6   7
ENDBRANCH   1   6
TORSDOF 5
ENDMDL
MODEL 9
REMARK VINA RESULT:    -2.887      2.291      4.707
REMARK INTER + INTRA:          -3.947
REMARK INTER:                  -3.783
REMARK INTRA:                  -0.164
REMARK UNBOUND:                -0.216
REMARK SMILES CCCCCCC(=O)[O-]
REMARK SMILES IDX 5 1 6 2 7 3 8 4 9 5 4 6 3 7 2 8 1 9
REMARK H PARENT
REMARK Flexibility Score: inf
ROOT
ATOM      1  C   UNL     1      60.125  -0.805  95.739  1.00  0.00     0.006 C 
ENDROOT
BRANCH   1   2
ATOM      2  C   UNL     1      60.521   0.371  96.642  1.00  0.00     0.053 C 
BRANCH   2   3
ATOM      3  C   UNL     1      59.474   1.438  96.598  1.00  0.00     0.041 C 
ATOM      4  O   UNL     1      59.690   2.561  97.125  1.00  0.00    -0.550 OA
ATOM      5  O   UNL     1      58.276   1.210  95.931  1.00  0.00    -0.550 OA
ENDBRANCH   2   3
ENDBRANCH   1   2
BRANCH   1   6
ATOM      6  C   UNL     1      61.065  -0.973  94.531  1.00  0.00     0.000 C 
BRANCH   6   7
ATOM      7  C   UNL     1      60.367  -1.342  93.207  1.00  0.00    -0.000 C 
BRANCH   7   8
ATOM      8  C   UNL     1      59.555  -2.650  93.243  1.00  0.00    -0.003 C 
ATOM      9  C   UNL     1      60.413  -3.889  92.993  1.00  0.00     0.004 C 
ENDBRANCH   7   8
ENDBRANCH   6   7
ENDBRANCH   1   6
TORSDOF 5
ENDMDL
