MODEL 1
REMARK VINA RESULT:    -4.829      0.000      0.000
REMARK INTER + INTRA:          -5.430
REMARK INTER:                  -5.394
REMARK INTRA:                  -0.036
REMARK UNBOUND:                -0.036
REMARK SMILES O=C([O-])c1ccc(O)c(O)c1
REMARK SMILES IDX 4 1 11 2 5 3 9 4 6 5 7 6 2 7 1 8 3 9 10 10 8 12
REMARK H PARENT 10 11 8 13
REMARK Flexibility Score: inf
ROOT
ATOM      1  C   UNL     1     -13.459  39.558  -9.739  1.00  0.00     0.001 A 
ATOM      2  C   UNL     1     -13.208  40.901  -9.401  1.00  0.00     0.060 A 
ATOM      3  C   UNL     1     -14.764  39.177 -10.091  1.00  0.00     0.014 A 
ATOM      4  C   UNL     1     -14.241  41.845  -9.414  1.00  0.00     0.158 A 
ATOM      5  C   UNL     1     -15.797  40.117 -10.105  1.00  0.00     0.051 A 
ATOM      6  C   UNL     1     -15.543  41.452  -9.767  1.00  0.00     0.157 A 
ENDROOT
BRANCH   1   7
ATOM      7  C   UNL     1     -12.367  38.560  -9.725  1.00  0.00     0.072 C 
ATOM      8  O   UNL     1     -12.207  37.798  -8.735  1.00  0.00    -0.545 OA
ATOM      9  O   UNL     1     -11.499  38.449 -10.807  1.00  0.00    -0.545 OA
ENDBRANCH   1   7
BRANCH   4  10
ATOM     10  O   UNL     1     -13.954  43.167  -9.073  1.00  0.00    -0.504 OA
ATOM     11  H   UNL     1     -13.301  43.402  -8.335  1.00  0.00     0.293 HD
ENDBRANCH   4  10
BRANCH   6  12
ATOM     12  O   UNL     1     -16.575  42.389  -9.782  1.00  0.00    -0.504 OA
ATOM     13  H   UNL     1     -16.651  43.084 -10.517  1.00  0.00     0.293 HD
ENDBRANCH   6  12
TORSDOF 3
ENDMDL
MODEL 2
REMARK VINA RESULT:    -4.813      7.438      9.206
REMARK INTER + INTRA:          -5.412
REMARK INTER:                  -5.376
REMARK INTRA:                  -0.036
REMARK UNBOUND:                -0.036
REMARK SMILES O=C([O-])c1ccc(O)c(O)c1
REMARK SMILES IDX 4 1 11 2 5 3 9 4 6 5 7 6 2 7 1 8 3 9 10 10 8 12
REMARK H PARENT 10 11 8 13
REMARK Flexibility Score: inf
ROOT
ATOM      1  C   UNL     1     -13.601  33.686  -3.071  1.00  0.00     0.001 A 
ATOM      2  C   UNL     1     -14.384  33.475  -4.221  1.00  0.00     0.060 A 
ATOM      3  C   UNL     1     -12.495  34.548  -3.149  1.00  0.00     0.014 A 
ATOM      4  C   UNL     1     -14.068  34.111  -5.426  1.00  0.00     0.158 A 
ATOM      5  C   UNL     1     -12.177  35.185  -4.351  1.00  0.00     0.051 A 
ATOM      6  C   UNL     1     -12.959  34.970  -5.494  1.00  0.00     0.157 A 
ENDROOT
BRANCH   1   7
ATOM      7  C   UNL     1     -13.935  33.014  -1.796  1.00  0.00     0.072 C 
ATOM      8  O   UNL     1     -13.540  31.839  -1.568  1.00  0.00    -0.545 OA
ATOM      9  O   UNL     1     -14.693  33.669  -0.831  1.00  0.00    -0.545 OA
ENDBRANCH   1   7
BRANCH   4  10
ATOM     10  O   UNL     1     -14.867  33.876  -6.545  1.00  0.00    -0.504 OA
ATOM     11  H   UNL     1     -15.603  34.514  -6.824  1.00  0.00     0.293 HD
ENDBRANCH   4  10
BRANCH   6  12
ATOM     12  O   UNL     1     -12.639  35.607  -6.692  1.00  0.00    -0.504 OA
ATOM     13  H   UNL     1     -11.797  36.163  -6.790  1.00  0.00     0.293 HD
ENDBRANCH   6  12
TORSDOF 3
ENDMDL
MODEL 3
REMARK VINA RESULT:    -4.810     12.536     13.353
REMARK INTER + INTRA:          -5.408
REMARK INTER:                  -5.368
REMARK INTRA:                  -0.041
REMARK UNBOUND:                -0.036
REMARK SMILES O=C([O-])c1ccc(O)c(O)c1
REMARK SMILES IDX 4 1 11 2 5 3 9 4 6 5 7 6 2 7 1 8 3 9 10 10 8 12
REMARK H PARENT 10 11 8 13
REMARK Flexibility Score: inf
ROOT
ATOM      1  C   UNL     1     -14.165  38.040   3.184  1.00  0.00     0.001 A 
ATOM      2  C   UNL     1     -13.565  38.407   1.965  1.00  0.00     0.060 A 
ATOM      3  C   UNL     1     -13.475  38.283   4.383  1.00  0.00     0.014 A 
ATOM      4  C   UNL     1     -12.301  39.006   1.944  1.00  0.00     0.158 A 
ATOM      5  C   UNL     1     -12.213  38.881   4.365  1.00  0.00     0.051 A 
ATOM      6  C   UNL     1     -11.619  39.244   3.149  1.00  0.00     0.157 A 
ENDROOT
BRANCH   1   7
ATOM      7  C   UNL     1     -15.502  37.406   3.207  1.00  0.00     0.072 C 
ATOM      8  O   UNL     1     -16.406  37.787   2.416  1.00  0.00    -0.545 OA
ATOM      9  O   UNL     1     -15.780  36.380   4.104  1.00  0.00    -0.545 OA
ENDBRANCH   1   7
BRANCH   4  10
ATOM     10  O   UNL     1     -11.738  39.356   0.716  1.00  0.00    -0.504 OA
ATOM     11  H   UNL     1     -10.742  39.501   0.603  1.00  0.00     0.293 HD
ENDBRANCH   4  10
BRANCH   6  12
ATOM     12  O   UNL     1     -10.359  39.841   3.133  1.00  0.00    -0.504 OA
ATOM     13  H   UNL     1     -10.161  40.648   2.551  1.00  0.00     0.293 HD
ENDBRANCH   6  12
TORSDOF 3
ENDMDL
MODEL 4
REMARK VINA RESULT:    -4.793      8.516      9.848
REMARK INTER + INTRA:          -5.389
REMARK INTER:                  -5.353
REMARK INTRA:                  -0.036
REMARK UNBOUND:                -0.036
REMARK SMILES O=C([O-])c1ccc(O)c(O)c1
REMARK SMILES IDX 4 1 11 2 5 3 9 4 6 5 7 6 2 7 1 8 3 9 10 10 8 12
REMARK H PARENT 10 11 8 13
REMARK Flexibility Score: inf
ROOT
ATOM      1  C   UNL     1     -14.095  33.859  -3.448  1.00  0.00     0.001 A 
ATOM      2  C   UNL     1     -13.346  33.436  -2.335  1.00  0.00     0.060 A 
ATOM      3  C   UNL     1     -15.071  34.853  -3.274  1.00  0.00     0.014 A 
ATOM      4  C   UNL     1     -13.567  33.995  -1.071  1.00  0.00     0.158 A 
ATOM      5  C   UNL     1     -15.295  35.413  -2.014  1.00  0.00     0.051 A 
ATOM      6  C   UNL     1     -14.547  34.988  -0.908  1.00  0.00     0.157 A 
ENDROOT
BRANCH   1   7
ATOM      7  C   UNL     1     -13.860  33.268  -4.784  1.00  0.00     0.072 C 
ATOM      8  O   UNL     1     -14.568  32.310  -5.195  1.00  0.00    -0.545 OA
ATOM      9  O   UNL     1     -12.853  33.762  -5.606  1.00  0.00    -0.545 OA
ENDBRANCH   1   7
BRANCH   4  10
ATOM     10  O   UNL     1     -12.805  33.550   0.009  1.00  0.00    -0.504 OA
ATOM     11  H   UNL     1     -12.920  32.624   0.403  1.00  0.00     0.293 HD
ENDBRANCH   4  10
BRANCH   6  12
ATOM     12  O   UNL     1     -14.772  35.549   0.348  1.00  0.00    -0.504 OA
ATOM     13  H   UNL     1     -14.293  36.392   0.647  1.00  0.00     0.293 HD
ENDBRANCH   6  12
TORSDOF 3
ENDMDL
MODEL 5
REMARK VINA RESULT:    -4.756      7.407      9.058
REMARK INTER + INTRA:          -5.348
REMARK INTER:                  -5.311
REMARK INTRA:                  -0.036
REMARK UNBOUND:                -0.036
REMARK SMILES O=C([O-])c1ccc(O)c(O)c1
REMARK SMILES IDX 4 1 11 2 5 3 9 4 6 5 7 6 2 7 1 8 3 9 10 10 8 12
REMARK H PARENT 10 11 8 13
REMARK Flexibility Score: inf
ROOT
ATOM      1  C   UNL     1     -13.646  33.498  -3.222  1.00  0.00     0.001 A 
ATOM      2  C   UNL     1     -12.718  34.541  -3.400  1.00  0.00     0.060 A 
ATOM      3  C   UNL     1     -14.289  32.959  -4.348  1.00  0.00     0.014 A 
ATOM      4  C   UNL     1     -12.437  35.036  -4.678  1.00  0.00     0.158 A 
ATOM      5  C   UNL     1     -14.011  33.452  -5.626  1.00  0.00     0.051 A 
ATOM      6  C   UNL     1     -13.087  34.490  -5.797  1.00  0.00     0.157 A 
ENDROOT
BRANCH   1   7
ATOM      7  C   UNL     1     -13.943  32.974  -1.870  1.00  0.00     0.072 C 
ATOM      8  O   UNL     1     -13.514  31.846  -1.511  1.00  0.00    -0.545 OA
ATOM      9  O   UNL     1     -14.702  33.722  -0.976  1.00  0.00    -0.545 OA
ENDBRANCH   1   7
BRANCH   4  10
ATOM     10  O   UNL     1     -11.511  36.070  -4.815  1.00  0.00    -0.504 OA
ATOM     11  H   UNL     1     -10.701  35.990  -5.417  1.00  0.00     0.293 HD
ENDBRANCH   4  10
BRANCH   6  12
ATOM     12  O   UNL     1     -12.811  34.980  -7.073  1.00  0.00    -0.504 OA
ATOM     13  H   UNL     1     -12.192  35.771  -7.216  1.00  0.00     0.293 HD
ENDBRANCH   6  12
TORSDOF 3
ENDMDL
MODEL 6
REMARK VINA RESULT:    -4.744      8.799     10.031
REMARK INTER + INTRA:          -5.335
REMARK INTER:                  -5.299
REMARK INTRA:                  -0.036
REMARK UNBOUND:                -0.036
REMARK SMILES O=C([O-])c1ccc(O)c(O)c1
REMARK SMILES IDX 4 1 11 2 5 3 9 4 6 5 7 6 2 7 1 8 3 9 10 10 8 12
REMARK H PARENT 10 11 8 13
REMARK Flexibility Score: inf
ROOT
ATOM      1  C   UNL     1     -14.116  33.572  -3.208  1.00  0.00     0.001 A 
ATOM      2  C   UNL     1     -14.883  34.697  -2.853  1.00  0.00     0.060 A 
ATOM      3  C   UNL     1     -13.575  32.768  -2.192  1.00  0.00     0.014 A 
ATOM      4  C   UNL     1     -15.107  35.013  -1.508  1.00  0.00     0.158 A 
ATOM      5  C   UNL     1     -13.797  33.080  -0.848  1.00  0.00     0.051 A 
ATOM      6  C   UNL     1     -14.561  34.202  -0.500  1.00  0.00     0.157 A 
ENDROOT
BRANCH   1   7
ATOM      7  C   UNL     1     -13.879  33.238  -4.630  1.00  0.00     0.072 C 
ATOM      8  O   UNL     1     -14.652  32.454  -5.243  1.00  0.00    -0.545 OA
ATOM      9  O   UNL     1     -12.798  33.786  -5.312  1.00  0.00    -0.545 OA
ENDBRANCH   1   7
BRANCH   4  10
ATOM     10  O   UNL     1     -15.873  36.135  -1.195  1.00  0.00    -0.504 OA
ATOM     11  H   UNL     1     -16.816  36.060  -0.834  1.00  0.00     0.293 HD
ENDBRANCH   4  10
BRANCH   6  12
ATOM     12  O   UNL     1     -14.781  34.511   0.842  1.00  0.00    -0.504 OA
ATOM     13  H   UNL     1     -15.716  34.662   1.205  1.00  0.00     0.293 HD
ENDBRANCH   6  12
TORSDOF 3
ENDMDL
MODEL 7
REMARK VINA RESULT:    -4.690      7.761      8.585
REMARK INTER + INTRA:          -5.274
REMARK INTER:                  -5.238
REMARK INTRA:                  -0.036
REMARK UNBOUND:                -0.036
REMARK SMILES O=C([O-])c1ccc(O)c(O)c1
REMARK SMILES IDX 4 1 11 2 5 3 9 4 6 5 7 6 2 7 1 8 3 9 10 10 8 12
REMARK H PARENT 10 11 8 13
REMARK Flexibility Score: inf
ROOT
ATOM      1  C   UNL     1     -17.503  37.374  -2.449  1.00  0.00     0.001 A 
ATOM      2  C   UNL     1     -17.703  38.177  -3.587  1.00  0.00     0.060 A 
ATOM      3  C   UNL     1     -16.505  36.386  -2.480  1.00  0.00     0.014 A 
ATOM      4  C   UNL     1     -16.922  37.997  -4.734  1.00  0.00     0.158 A 
ATOM      5  C   UNL     1     -15.724  36.204  -3.623  1.00  0.00     0.051 A 
ATOM      6  C   UNL     1     -15.927  37.005  -4.754  1.00  0.00     0.157 A 
ENDROOT
BRANCH   1   7
ATOM      7  C   UNL     1     -18.329  37.565  -1.236  1.00  0.00     0.072 C 
ATOM      8  O   UNL     1     -19.307  36.806  -1.001  1.00  0.00    -0.545 OA
ATOM      9  O   UNL     1     -18.038  38.586  -0.339  1.00  0.00    -0.545 OA
ENDBRANCH   1   7
BRANCH   4  10
ATOM     10  O   UNL     1     -17.150  38.812  -5.843  1.00  0.00    -0.504 OA
ATOM     11  H   UNL     1     -17.911  39.479  -5.873  1.00  0.00     0.293 HD
ENDBRANCH   4  10
BRANCH   6  12
ATOM     12  O   UNL     1     -15.146  36.822  -5.894  1.00  0.00    -0.504 OA
ATOM     13  H   UNL     1     -15.551  36.840  -6.824  1.00  0.00     0.293 HD
ENDBRANCH   6  12
TORSDOF 3
ENDMDL
MODEL 8
REMARK VINA RESULT:    -4.683      7.740      8.991
REMARK INTER + INTRA:          -5.266
REMARK INTER:                  -5.222
REMARK INTRA:                  -0.044
REMARK UNBOUND:                -0.036
REMARK SMILES O=C([O-])c1ccc(O)c(O)c1
REMARK SMILES IDX 4 1 11 2 5 3 9 4 6 5 7 6 2 7 1 8 3 9 10 10 8 12
REMARK H PARENT 10 11 8 13
REMARK Flexibility Score: inf
ROOT
ATOM      1  C   UNL     1     -14.545  34.047  -2.720  1.00  0.00     0.001 A 
ATOM      2  C   UNL     1     -14.176  33.687  -4.030  1.00  0.00     0.060 A 
ATOM      3  C   UNL     1     -15.249  35.244  -2.516  1.00  0.00     0.014 A 
ATOM      4  C   UNL     1     -14.505  34.507  -5.115  1.00  0.00     0.158 A 
ATOM      5  C   UNL     1     -15.579  36.066  -3.597  1.00  0.00     0.051 A 
ATOM      6  C   UNL     1     -15.209  35.703  -4.899  1.00  0.00     0.157 A 
ENDROOT
BRANCH   1   7
ATOM      7  C   UNL     1     -14.197  33.179  -1.573  1.00  0.00     0.072 C 
ATOM      8  O   UNL     1     -13.407  32.209  -1.719  1.00  0.00    -0.545 OA
ATOM      9  O   UNL     1     -14.740  33.423  -0.316  1.00  0.00    -0.545 OA
ENDBRANCH   1   7
BRANCH   4  10
ATOM     10  O   UNL     1     -14.123  34.118  -6.398  1.00  0.00    -0.504 OA
ATOM     11  H   UNL     1     -13.719  34.770  -7.060  1.00  0.00     0.293 HD
ENDBRANCH   4  10
BRANCH   6  12
ATOM     12  O   UNL     1     -15.540  36.525  -5.976  1.00  0.00    -0.504 OA
ATOM     13  H   UNL     1     -16.341  37.146  -5.943  1.00  0.00     0.293 HD
ENDBRANCH   6  12
TORSDOF 3
ENDMDL
MODEL 9
REMARK VINA RESULT:    -4.518      8.051      9.631
REMARK INTER + INTRA:          -5.082
REMARK INTER:                  -5.040
REMARK INTRA:                  -0.042
REMARK UNBOUND:                -0.036
REMARK SMILES O=C([O-])c1ccc(O)c(O)c1
REMARK SMILES IDX 4 1 11 2 5 3 9 4 6 5 7 6 2 7 1 8 3 9 10 10 8 12
REMARK H PARENT 10 11 8 13
REMARK Flexibility Score: inf
ROOT
ATOM      1  C   UNL     1     -13.364  34.179  -3.822  1.00  0.00     0.001 A 
ATOM      2  C   UNL     1     -12.893  35.190  -2.965  1.00  0.00     0.060 A 
ATOM      3  C   UNL     1     -13.802  32.965  -3.267  1.00  0.00     0.014 A 
ATOM      4  C   UNL     1     -12.861  34.995  -1.580  1.00  0.00     0.158 A 
ATOM      5  C   UNL     1     -13.771  32.767  -1.884  1.00  0.00     0.051 A 
ATOM      6  C   UNL     1     -13.301  33.778  -1.035  1.00  0.00     0.157 A 
ENDROOT
BRANCH   1   7
ATOM      7  C   UNL     1     -13.398  34.385  -5.287  1.00  0.00     0.072 C 
ATOM      8  O   UNL     1     -12.547  35.125  -5.850  1.00  0.00    -0.545 OA
ATOM      9  O   UNL     1     -14.372  33.767  -6.063  1.00  0.00    -0.545 OA
ENDBRANCH   1   7
BRANCH   4  10
ATOM     10  O   UNL     1     -12.388  36.021  -0.763  1.00  0.00    -0.504 OA
ATOM     11  H   UNL     1     -11.846  35.837   0.074  1.00  0.00     0.293 HD
ENDBRANCH   4  10
BRANCH   6  12
ATOM     12  O   UNL     1     -13.271  33.577   0.344  1.00  0.00    -0.504 OA
ATOM     13  H   UNL     1     -12.460  33.181   0.806  1.00  0.00     0.293 HD
ENDBRANCH   6  12
TORSDOF 3
ENDMDL
