MODEL 1
REMARK VINA RESULT:    -2.534      0.000      0.000
REMARK INTER + INTRA:          -2.534
REMARK INTER:                  -2.534
REMARK INTRA:                   0.000
REMARK UNBOUND:                 0.000
REMARK SMILES CC(=O)[O-]
REMARK SMILES IDX 1 1 2 2 3 3 4 4
REMARK H PARENT
REMARK Flexibility Score: inf
ROOT
ATOM      1  C   UNL     1       4.527  13.884   6.677  1.00  0.00     0.063 C 
ATOM      2  C   UNL     1       4.516  12.393   6.662  1.00  0.00     0.038 C 
ATOM      3  O   UNL     1       4.356  11.752   7.734  1.00  0.00    -0.550 OA
ATOM      4  O   UNL     1       4.628  11.708   5.459  1.00  0.00    -0.550 OA
ENDROOT
TORSDOF 0
ENDMDL
MODEL 2
REMARK VINA RESULT:    -2.428      1.292      2.249
REMARK INTER + INTRA:          -2.428
REMARK INTER:                  -2.428
REMARK INTRA:                   0.000
REMARK UNBOUND:                 0.000
REMARK SMILES CC(=O)[O-]
REMARK SMILES IDX 1 1 2 2 3 3 4 4
REMARK H PARENT
REMARK Flexibility Score: inf
ROOT
ATOM      1  C   UNL     1       4.212  11.206   7.489  1.00  0.00     0.063 C 
ATOM      2  C   UNL     1       4.461  12.345   6.560  1.00  0.00     0.038 C 
ATOM      3  O   UNL     1       4.594  12.137   5.326  1.00  0.00    -0.550 OA
ATOM      4  O   UNL     1       4.495  13.645   7.047  1.00  0.00    -0.550 OA
ENDROOT
TORSDOF 0
ENDMDL
MODEL 3
REMARK VINA RESULT:    -2.426     16.646     17.244
REMARK INTER + INTRA:          -2.426
REMARK INTER:                  -2.426
REMARK INTRA:                   0.000
REMARK UNBOUND:                 0.000
REMARK SMILES CC(=O)[O-]
REMARK SMILES IDX 1 1 2 2 3 3 4 4
REMARK H PARENT
REMARK Flexibility Score: inf
ROOT
ATOM      1  C   UNL     1       3.752   0.419  -5.868  1.00  0.00     0.063 C 
ATOM      2  C   UNL     1       5.103   0.997  -6.122  1.00  0.00     0.038 C 
ATOM      3  O   UNL     1       5.543   1.920  -5.388  1.00  0.00    -0.550 OA
ATOM      4  O   UNL     1       5.901   0.481  -7.134  1.00  0.00    -0.550 OA
ENDROOT
TORSDOF 0
ENDMDL
MODEL 4
REMARK VINA RESULT:    -2.273     17.000     17.543
REMARK INTER + INTRA:          -2.273
REMARK INTER:                  -2.273
REMARK INTRA:                   0.000
REMARK UNBOUND:                 0.000
REMARK SMILES CC(=O)[O-]
REMARK SMILES IDX 1 1 2 2 3 3 4 4
REMARK H PARENT
REMARK Flexibility Score: inf
ROOT
ATOM      1  C   UNL     1       5.212   0.888  -7.671  1.00  0.00     0.063 C 
ATOM      2  C   UNL     1       4.729   0.706  -6.272  1.00  0.00     0.038 C 
ATOM      3  O   UNL     1       5.393   1.171  -5.309  1.00  0.00    -0.550 OA
ATOM      4  O   UNL     1       3.518   0.071  -6.031  1.00  0.00    -0.550 OA
ENDROOT
TORSDOF 0
ENDMDL
MODEL 5
REMARK VINA RESULT:    -2.239      1.316      1.967
REMARK INTER + INTRA:          -2.239
REMARK INTER:                  -2.239
REMARK INTRA:                   0.000
REMARK UNBOUND:                 0.000
REMARK SMILES CC(=O)[O-]
REMARK SMILES IDX 1 1 2 2 3 3 4 4
REMARK H PARENT
REMARK Flexibility Score: inf
ROOT
ATOM      1  C   UNL     1       5.072  10.257   7.395  1.00  0.00     0.063 C 
ATOM      2  C   UNL     1       4.730  11.578   6.793  1.00  0.00     0.038 C 
ATOM      3  O   UNL     1       4.578  12.587   7.530  1.00  0.00    -0.550 OA
ATOM      4  O   UNL     1       4.632  11.710   5.414  1.00  0.00    -0.550 OA
ENDROOT
TORSDOF 0
ENDMDL
MODEL 6
REMARK VINA RESULT:    -2.130     16.178     16.647
REMARK INTER + INTRA:          -2.130
REMARK INTER:                  -2.130
REMARK INTRA:                   0.000
REMARK UNBOUND:                 0.000
REMARK SMILES CC(=O)[O-]
REMARK SMILES IDX 1 1 2 2 3 3 4 4
REMARK H PARENT
REMARK Flexibility Score: inf
ROOT
ATOM      1  C   UNL     1       4.722   1.989  -7.445  1.00  0.00     0.063 C 
ATOM      2  C   UNL     1       5.403   1.934  -6.120  1.00  0.00     0.038 C 
ATOM      3  O   UNL     1       5.259   0.928  -5.377  1.00  0.00    -0.550 OA
ATOM      4  O   UNL     1       6.242   2.968  -5.725  1.00  0.00    -0.550 OA
ENDROOT
TORSDOF 0
ENDMDL
MODEL 7
REMARK VINA RESULT:    -2.078     13.789     14.198
REMARK INTER + INTRA:          -2.078
REMARK INTER:                  -2.078
REMARK INTRA:                   0.000
REMARK UNBOUND:                 0.000
REMARK SMILES CC(=O)[O-]
REMARK SMILES IDX 1 1 2 2 3 3 4 4
REMARK H PARENT
REMARK Flexibility Score: inf
ROOT
ATOM      1  C   UNL     1       7.561  -1.869   6.384  1.00  0.00     0.063 C 
ATOM      2  C   UNL     1       7.147  -1.319   5.061  1.00  0.00     0.038 C 
ATOM      3  O   UNL     1       6.121  -1.764   4.485  1.00  0.00    -0.550 OA
ATOM      4  O   UNL     1       7.863  -0.276   4.488  1.00  0.00    -0.550 OA
ENDROOT
TORSDOF 0
ENDMDL
MODEL 8
REMARK VINA RESULT:    -2.005     10.909     11.409
REMARK INTER + INTRA:          -2.005
REMARK INTER:                  -2.005
REMARK INTRA:                   0.000
REMARK UNBOUND:                 0.000
REMARK SMILES CC(=O)[O-]
REMARK SMILES IDX 1 1 2 2 3 3 4 4
REMARK H PARENT
REMARK Flexibility Score: inf
ROOT
ATOM      1  C   UNL     1       7.688   3.181   5.271  1.00  0.00     0.063 C 
ATOM      2  C   UNL     1       8.392   1.933   4.859  1.00  0.00     0.038 C 
ATOM      3  O   UNL     1       9.306   1.979   3.995  1.00  0.00    -0.550 OA
ATOM      4  O   UNL     1       8.077   0.724   5.466  1.00  0.00    -0.550 OA
ENDROOT
TORSDOF 0
ENDMDL
MODEL 9
REMARK VINA RESULT:    -1.999      1.932      2.557
REMARK INTER + INTRA:          -1.999
REMARK INTER:                  -1.999
REMARK INTRA:                   0.000
REMARK UNBOUND:                 0.000
REMARK SMILES CC(=O)[O-]
REMARK SMILES IDX 1 1 2 2 3 3 4 4
REMARK H PARENT
REMARK Flexibility Score: inf
ROOT
ATOM      1  C   UNL     1       4.024  11.928   6.967  1.00  0.00     0.063 C 
ATOM      2  C   UNL     1       4.672  10.901   7.831  1.00  0.00     0.038 C 
ATOM      3  O   UNL     1       4.948   9.765   7.364  1.00  0.00    -0.550 OA
ATOM      4  O   UNL     1       5.022  11.212   9.139  1.00  0.00    -0.550 OA
ENDROOT
TORSDOF 0
ENDMDL
