MODEL 1
REMARK VINA RESULT:    -5.974      0.000      0.000
REMARK INTER + INTRA:          -6.415
REMARK INTER:                  -6.324
REMARK INTRA:                  -0.091
REMARK UNBOUND:                -0.091
REMARK SMILES C=C(C)[C@@H]1CC=C(C)C(=O)C1
REMARK SMILES IDX 8 1 7 2 6 3 5 4 4 5 11 6 9 7 10 8 2 9 1 10 3 11
REMARK H PARENT
REMARK Flexibility Score: inf
ROOT
ATOM      1  C   UNL     1      -7.793  34.954  26.123  1.00  0.00     0.048 C 
ATOM      2  C   UNL     1      -7.813  34.321  24.759  1.00  0.00    -0.012 C 
ATOM      3  C   UNL     1      -7.866  35.096  23.662  1.00  0.00    -0.019 C 
ATOM      4  C   UNL     1      -7.869  34.513  22.274  1.00  0.00     0.036 C 
ATOM      5  C   UNL     1      -8.586  33.150  22.245  1.00  0.00     0.025 C 
ATOM      6  C   UNL     1      -7.958  32.195  23.276  1.00  0.00     0.089 C 
ATOM      7  C   UNL     1      -7.898  32.844  24.631  1.00  0.00     0.158 C 
ATOM      8  O   UNL     1      -7.884  32.117  25.660  1.00  0.00    -0.295 OA
ENDROOT
BRANCH   5   9
ATOM      9  C   UNL     1      -8.577  32.545  20.848  1.00  0.00    -0.077 C 
ATOM     10  C   UNL     1      -9.523  31.661  20.491  1.00  0.00     0.008 C 
ATOM     11  C   UNL     1      -7.519  32.915  19.837  1.00  0.00     0.039 C 
ENDBRANCH   5   9
TORSDOF 1
ENDMDL
MODEL 2
REMARK VINA RESULT:    -5.839      1.611      4.270
REMARK INTER + INTRA:          -6.271
REMARK INTER:                  -6.174
REMARK INTRA:                  -0.097
REMARK UNBOUND:                -0.091
REMARK SMILES C=C(C)[C@@H]1CC=C(C)C(=O)C1
REMARK SMILES IDX 8 1 7 2 6 3 5 4 4 5 11 6 9 7 10 8 2 9 1 10 3 11
REMARK H PARENT
REMARK Flexibility Score: inf
ROOT
ATOM      1  C   UNL     1      -7.499  33.125  19.749  1.00  0.00     0.048 C 
ATOM      2  C   UNL     1      -7.768  33.355  21.211  1.00  0.00    -0.012 C 
ATOM      3  C   UNL     1      -7.722  34.602  21.711  1.00  0.00    -0.019 C 
ATOM      4  C   UNL     1      -8.002  34.890  23.162  1.00  0.00     0.036 C 
ATOM      5  C   UNL     1      -7.545  33.723  24.058  1.00  0.00     0.025 C 
ATOM      6  C   UNL     1      -8.191  32.406  23.590  1.00  0.00     0.089 C 
ATOM      7  C   UNL     1      -7.960  32.196  22.119  1.00  0.00     0.158 C 
ATOM      8  O   UNL     1      -7.968  31.024  21.657  1.00  0.00    -0.295 OA
ENDROOT
BRANCH   5   9
ATOM      9  C   UNL     1      -7.840  33.997  25.526  1.00  0.00    -0.077 C 
ATOM     10  C   UNL     1      -7.805  32.996  26.419  1.00  0.00     0.008 C 
ATOM     11  C   UNL     1      -8.180  35.384  26.013  1.00  0.00     0.039 C 
ENDBRANCH   5   9
TORSDOF 1
ENDMDL
MODEL 3
REMARK VINA RESULT:    -5.805      2.126      2.864
REMARK INTER + INTRA:          -6.236
REMARK INTER:                  -6.139
REMARK INTRA:                  -0.097
REMARK UNBOUND:                -0.091
REMARK SMILES C=C(C)[C@@H]1CC=C(C)C(=O)C1
REMARK SMILES IDX 8 1 7 2 6 3 5 4 4 5 11 6 9 7 10 8 2 9 1 10 3 11
REMARK H PARENT
REMARK Flexibility Score: inf
ROOT
ATOM      1  C   UNL     1      -7.148  30.103  26.299  1.00  0.00     0.048 C 
ATOM      2  C   UNL     1      -7.596  30.509  24.922  1.00  0.00    -0.012 C 
ATOM      3  C   UNL     1      -6.936  30.054  23.843  1.00  0.00    -0.019 C 
ATOM      4  C   UNL     1      -7.354  30.414  22.442  1.00  0.00     0.036 C 
ATOM      5  C   UNL     1      -7.958  31.830  22.390  1.00  0.00     0.025 C 
ATOM      6  C   UNL     1      -9.119  31.953  23.394  1.00  0.00     0.089 C 
ATOM      7  C   UNL     1      -8.684  31.506  24.763  1.00  0.00     0.158 C 
ATOM      8  O   UNL     1      -9.281  31.961  25.775  1.00  0.00    -0.295 OA
ENDROOT
BRANCH   5   9
ATOM      9  C   UNL     1      -8.401  32.196  20.980  1.00  0.00    -0.077 C 
ATOM     10  C   UNL     1      -9.595  31.787  20.521  1.00  0.00     0.008 C 
ATOM     11  C   UNL     1      -7.521  33.016  20.068  1.00  0.00     0.039 C 
ENDBRANCH   5   9
TORSDOF 1
ENDMDL
MODEL 4
REMARK VINA RESULT:    -5.715      2.299      3.676
REMARK INTER + INTRA:          -6.140
REMARK INTER:                  -6.044
REMARK INTRA:                  -0.096
REMARK UNBOUND:                -0.091
REMARK SMILES C=C(C)[C@@H]1CC=C(C)C(=O)C1
REMARK SMILES IDX 8 1 7 2 6 3 5 4 4 5 11 6 9 7 10 8 2 9 1 10 3 11
REMARK H PARENT
REMARK Flexibility Score: inf
ROOT
ATOM      1  C   UNL     1      -7.948  34.604  21.799  1.00  0.00     0.048 C 
ATOM      2  C   UNL     1      -7.920  33.145  22.165  1.00  0.00    -0.012 C 
ATOM      3  C   UNL     1      -8.304  32.223  21.267  1.00  0.00    -0.019 C 
ATOM      4  C   UNL     1      -8.277  30.749  21.576  1.00  0.00     0.036 C 
ATOM      5  C   UNL     1      -8.571  30.489  23.065  1.00  0.00     0.025 C 
ATOM      6  C   UNL     1      -7.595  31.287  23.949  1.00  0.00     0.089 C 
ATOM      7  C   UNL     1      -7.589  32.739  23.554  1.00  0.00     0.158 C 
ATOM      8  O   UNL     1      -7.264  33.606  24.409  1.00  0.00    -0.295 OA
ENDROOT
BRANCH   5   9
ATOM      9  C   UNL     1      -8.529  29.003  23.391  1.00  0.00    -0.077 C 
ATOM     10  C   UNL     1      -8.608  28.590  24.666  1.00  0.00     0.008 C 
ATOM     11  C   UNL     1      -8.396  27.964  22.305  1.00  0.00     0.039 C 
ENDBRANCH   5   9
TORSDOF 1
ENDMDL
MODEL 5
REMARK VINA RESULT:    -5.704      2.242      3.369
REMARK INTER + INTRA:          -6.129
REMARK INTER:                  -6.033
REMARK INTRA:                  -0.097
REMARK UNBOUND:                -0.091
REMARK SMILES C=C(C)[C@@H]1CC=C(C)C(=O)C1
REMARK SMILES IDX 8 1 7 2 6 3 5 4 4 5 11 6 9 7 10 8 2 9 1 10 3 11
REMARK H PARENT
REMARK Flexibility Score: inf
ROOT
ATOM      1  C   UNL     1      -8.267  29.136  25.369  1.00  0.00     0.048 C 
ATOM      2  C   UNL     1      -7.977  30.201  24.346  1.00  0.00    -0.012 C 
ATOM      3  C   UNL     1      -7.998  31.496  24.705  1.00  0.00    -0.019 C 
ATOM      4  C   UNL     1      -7.697  32.599  23.725  1.00  0.00     0.036 C 
ATOM      5  C   UNL     1      -8.161  32.223  22.305  1.00  0.00     0.025 C 
ATOM      6  C   UNL     1      -7.540  30.880  21.879  1.00  0.00     0.089 C 
ATOM      7  C   UNL     1      -7.792  29.826  22.922  1.00  0.00     0.158 C 
ATOM      8  O   UNL     1      -7.807  28.613  22.578  1.00  0.00    -0.295 OA
ENDROOT
BRANCH   5   9
ATOM      9  C   UNL     1      -7.844  33.326  21.305  1.00  0.00    -0.077 C 
ATOM     10  C   UNL     1      -7.810  34.607  21.703  1.00  0.00     0.008 C 
ATOM     11  C   UNL     1      -7.565  33.014  19.855  1.00  0.00     0.039 C 
ENDBRANCH   5   9
TORSDOF 1
ENDMDL
MODEL 6
REMARK VINA RESULT:    -5.682      2.785      4.034
REMARK INTER + INTRA:          -6.106
REMARK INTER:                  -6.010
REMARK INTRA:                  -0.096
REMARK UNBOUND:                -0.091
REMARK SMILES C=C(C)[C@@H]1CC=C(C)C(=O)C1
REMARK SMILES IDX 8 1 7 2 6 3 5 4 4 5 11 6 9 7 10 8 2 9 1 10 3 11
REMARK H PARENT
REMARK Flexibility Score: inf
ROOT
ATOM      1  C   UNL     1      -7.875  34.625  22.060  1.00  0.00     0.048 C 
ATOM      2  C   UNL     1      -8.200  33.191  22.380  1.00  0.00    -0.012 C 
ATOM      3  C   UNL     1      -8.420  32.824  23.654  1.00  0.00    -0.019 C 
ATOM      4  C   UNL     1      -8.767  31.407  24.027  1.00  0.00     0.036 C 
ATOM      5  C   UNL     1      -8.085  30.401  23.080  1.00  0.00     0.025 C 
ATOM      6  C   UNL     1      -8.438  30.721  21.616  1.00  0.00     0.089 C 
ATOM      7  C   UNL     1      -8.154  32.166  21.307  1.00  0.00     0.158 C 
ATOM      8  O   UNL     1      -7.913  32.504  20.118  1.00  0.00    -0.295 OA
ENDROOT
BRANCH   5   9
ATOM      9  C   UNL     1      -8.445  28.966  23.438  1.00  0.00    -0.077 C 
ATOM     10  C   UNL     1      -8.625  28.617  24.722  1.00  0.00     0.008 C 
ATOM     11  C   UNL     1      -8.604  27.907  22.375  1.00  0.00     0.039 C 
ENDBRANCH   5   9
TORSDOF 1
ENDMDL
MODEL 7
REMARK VINA RESULT:    -5.582      2.272      4.348
REMARK INTER + INTRA:          -6.000
REMARK INTER:                  -5.902
REMARK INTRA:                  -0.098
REMARK UNBOUND:                -0.091
REMARK SMILES C=C(C)[C@@H]1CC=C(C)C(=O)C1
REMARK SMILES IDX 8 1 7 2 6 3 5 4 4 5 11 6 9 7 10 8 2 9 1 10 3 11
REMARK H PARENT
REMARK Flexibility Score: inf
ROOT
ATOM      1  C   UNL     1      -8.251  27.961  22.396  1.00  0.00     0.048 C 
ATOM      2  C   UNL     1      -8.259  29.404  22.822  1.00  0.00    -0.012 C 
ATOM      3  C   UNL     1      -8.221  30.375  21.894  1.00  0.00    -0.019 C 
ATOM      4  C   UNL     1      -8.246  31.834  22.264  1.00  0.00     0.036 C 
ATOM      5  C   UNL     1      -7.537  32.077  23.610  1.00  0.00     0.025 C 
ATOM      6  C   UNL     1      -8.151  31.187  24.706  1.00  0.00     0.089 C 
ATOM      7  C   UNL     1      -8.184  29.749  24.263  1.00  0.00     0.158 C 
ATOM      8  O   UNL     1      -8.183  28.839  25.135  1.00  0.00    -0.295 OA
ENDROOT
BRANCH   5   9
ATOM      9  C   UNL     1      -7.574  33.548  24.003  1.00  0.00    -0.077 C 
ATOM     10  C   UNL     1      -7.756  33.898  25.286  1.00  0.00     0.008 C 
ATOM     11  C   UNL     1      -7.411  34.640  22.974  1.00  0.00     0.039 C 
ENDBRANCH   5   9
TORSDOF 1
ENDMDL
MODEL 8
REMARK VINA RESULT:    -5.524      1.325      2.266
REMARK INTER + INTRA:          -5.938
REMARK INTER:                  -5.843
REMARK INTRA:                  -0.095
REMARK UNBOUND:                -0.091
REMARK SMILES C=C(C)[C@@H]1CC=C(C)C(=O)C1
REMARK SMILES IDX 8 1 7 2 6 3 5 4 4 5 11 6 9 7 10 8 2 9 1 10 3 11
REMARK H PARENT
REMARK Flexibility Score: inf
ROOT
ATOM      1  C   UNL     1      -7.772  33.130  26.817  1.00  0.00     0.048 C 
ATOM      2  C   UNL     1      -8.079  33.053  25.347  1.00  0.00    -0.012 C 
ATOM      3  C   UNL     1      -8.614  31.932  24.833  1.00  0.00    -0.019 C 
ATOM      4  C   UNL     1      -8.958  31.810  23.372  1.00  0.00     0.036 C 
ATOM      5  C   UNL     1      -7.981  32.623  22.502  1.00  0.00     0.025 C 
ATOM      6  C   UNL     1      -7.942  34.089  22.970  1.00  0.00     0.089 C 
ATOM      7  C   UNL     1      -7.678  34.165  24.449  1.00  0.00     0.158 C 
ATOM      8  O   UNL     1      -7.143  35.202  24.925  1.00  0.00    -0.295 OA
ENDROOT
BRANCH   5   9
ATOM      9  C   UNL     1      -8.332  32.520  21.024  1.00  0.00    -0.077 C 
ATOM     10  C   UNL     1      -7.576  33.144  20.107  1.00  0.00     0.008 C 
ATOM     11  C   UNL     1      -9.525  31.725  20.553  1.00  0.00     0.039 C 
ENDBRANCH   5   9
TORSDOF 1
ENDMDL
MODEL 9
REMARK VINA RESULT:    -5.337      2.146      3.379
REMARK INTER + INTRA:          -5.740
REMARK INTER:                  -5.643
REMARK INTRA:                  -0.096
REMARK UNBOUND:                -0.091
REMARK SMILES C=C(C)[C@@H]1CC=C(C)C(=O)C1
REMARK SMILES IDX 8 1 7 2 6 3 5 4 4 5 11 6 9 7 10 8 2 9 1 10 3 11
REMARK H PARENT
REMARK Flexibility Score: inf
ROOT
ATOM      1  C   UNL     1      -8.178  35.790  25.101  1.00  0.00     0.048 C 
ATOM      2  C   UNL     1      -8.198  34.327  24.750  1.00  0.00    -0.012 C 
ATOM      3  C   UNL     1      -8.344  33.409  25.720  1.00  0.00    -0.019 C 
ATOM      4  C   UNL     1      -8.389  31.934  25.422  1.00  0.00     0.036 C 
ATOM      5  C   UNL     1      -7.505  31.586  24.209  1.00  0.00     0.025 C 
ATOM      6  C   UNL     1      -7.907  32.439  22.992  1.00  0.00     0.089 C 
ATOM      7  C   UNL     1      -7.931  33.899  23.354  1.00  0.00     0.158 C 
ATOM      8  O   UNL     1      -7.758  34.759  22.449  1.00  0.00    -0.295 OA
ENDROOT
BRANCH   5   9
ATOM      9  C   UNL     1      -7.558  30.098  23.889  1.00  0.00    -0.077 C 
ATOM     10  C   UNL     1      -6.958  29.625  22.785  1.00  0.00     0.008 C 
ATOM     11  C   UNL     1      -8.279  29.126  24.789  1.00  0.00     0.039 C 
ENDBRANCH   5   9
TORSDOF 1
ENDMDL
