MODEL 1
REMARK VINA RESULT:    -3.554      0.000      0.000
REMARK INTER + INTRA:          -6.754
REMARK INTER:                  -6.047
REMARK INTRA:                  -0.706
REMARK UNBOUND:                -0.706
REMARK SMILES CCCCCCCCCCCCCC(=O)[O-]
REMARK SMILES IDX 8 1 9 2 10 3 11 4 12 5 13 6 14 7 15 8 16 9 7 10 6 11 5 12
REMARK SMILES IDX 4 13 3 14 2 15 1 16
REMARK H PARENT
REMARK Flexibility Score: inf
ROOT
ATOM      1  C   UNL     1     -31.007 -20.627 -21.193  1.00  0.00     0.000 C 
ENDROOT
BRANCH   1   2
ATOM      2  C   UNL     1     -31.278 -22.128 -21.359  1.00  0.00     0.000 C 
BRANCH   2   3
ATOM      3  C   UNL     1     -29.975 -22.901 -21.589  1.00  0.00     0.000 C 
BRANCH   3   4
ATOM      4  C   UNL     1     -28.877 -22.428 -20.624  1.00  0.00     0.000 C 
BRANCH   4   5
ATOM      5  C   UNL     1     -29.091 -22.938 -19.190  1.00  0.00     0.006 C 
BRANCH   5   6
ATOM      6  C   UNL     1     -27.774 -23.112 -18.423  1.00  0.00     0.053 C 
BRANCH   6   7
ATOM      7  C   UNL     1     -27.995 -22.920 -16.956  1.00  0.00     0.041 C 
ATOM      8  O   UNL     1     -27.014 -22.881 -16.167  1.00  0.00    -0.550 OA
ATOM      9  O   UNL     1     -29.281 -22.734 -16.465  1.00  0.00    -0.550 OA
ENDBRANCH   6   7
ENDBRANCH   5   6
ENDBRANCH   4   5
ENDBRANCH   3   4
ENDBRANCH   2   3
ENDBRANCH   1   2
BRANCH   1  10
ATOM     10  C   UNL     1     -32.282 -19.808 -21.426  1.00  0.00     0.000 C 
BRANCH  10  11
ATOM     11  C   UNL     1     -32.877 -20.096 -22.809  1.00  0.00    -0.000 C 
BRANCH  11  12
ATOM     12  C   UNL     1     -31.901 -19.690 -23.923  1.00  0.00    -0.000 C 
BRANCH  12  13
ATOM     13  C   UNL     1     -31.785 -20.749 -25.036  1.00  0.00    -0.000 C 
BRANCH  13  14
ATOM     14  C   UNL     1     -30.751 -20.430 -26.131  1.00  0.00    -0.000 C 
BRANCH  14  15
ATOM     15  C   UNL     1     -30.511 -21.606 -27.090  1.00  0.00    -0.003 C 
ATOM     16  C   UNL     1     -31.653 -22.616 -27.016  1.00  0.00     0.004 C 
ENDBRANCH  14  15
ENDBRANCH  13  14
ENDBRANCH  12  13
ENDBRANCH  11  12
ENDBRANCH  10  11
ENDBRANCH   1  10
TORSDOF 12
ENDMDL
MODEL 2
REMARK VINA RESULT:    -3.015      1.433      2.116
REMARK INTER + INTRA:          -5.837
REMARK INTER:                  -4.712
REMARK INTRA:                  -1.125
REMARK UNBOUND:                -0.706
REMARK SMILES CCCCCCCCCCCCCC(=O)[O-]
REMARK SMILES IDX 8 1 9 2 10 3 11 4 12 5 13 6 14 7 15 8 16 9 7 10 6 11 5 12
REMARK SMILES IDX 4 13 3 14 2 15 1 16
REMARK H PARENT
REMARK Flexibility Score: inf
ROOT
ATOM      1  C   UNL     1     -32.169 -19.917 -21.348  1.00  0.00     0.000 C 
ENDROOT
BRANCH   1   2
ATOM      2  C   UNL     1     -31.561 -21.323 -21.420  1.00  0.00     0.000 C 
BRANCH   2   3
ATOM      3  C   UNL     1     -30.167 -21.352 -20.783  1.00  0.00     0.000 C 
BRANCH   3   4
ATOM      4  C   UNL     1     -29.603 -22.781 -20.760  1.00  0.00     0.000 C 
BRANCH   4   5
ATOM      5  C   UNL     1     -28.546 -22.982 -19.661  1.00  0.00     0.006 C 
BRANCH   5   6
ATOM      6  C   UNL     1     -29.163 -23.085 -18.261  1.00  0.00     0.053 C 
BRANCH   6   7
ATOM      7  C   UNL     1     -28.136 -22.783 -17.216  1.00  0.00     0.041 C 
ATOM      8  O   UNL     1     -28.335 -23.116 -16.017  1.00  0.00    -0.550 OA
ATOM      9  O   UNL     1     -26.937 -22.179 -17.572  1.00  0.00    -0.550 OA
ENDBRANCH   6   7
ENDBRANCH   5   6
ENDBRANCH   4   5
ENDBRANCH   3   4
ENDBRANCH   2   3
ENDBRANCH   1   2
BRANCH   1  10
ATOM     10  C   UNL     1     -32.849 -19.543 -22.671  1.00  0.00     0.000 C 
BRANCH  10  11
ATOM     11  C   UNL     1     -32.390 -20.467 -23.806  1.00  0.00    -0.000 C 
BRANCH  11  12
ATOM     12  C   UNL     1     -31.531 -19.702 -24.824  1.00  0.00    -0.000 C 
BRANCH  12  13
ATOM     13  C   UNL     1     -30.583 -20.619 -25.619  1.00  0.00    -0.000 C 
BRANCH  13  14
ATOM     14  C   UNL     1     -29.741 -21.583 -24.762  1.00  0.00    -0.000 C 
BRANCH  14  15
ATOM     15  C   UNL     1     -28.598 -20.878 -24.017  1.00  0.00    -0.003 C 
ATOM     16  C   UNL     1     -27.709 -21.886 -23.295  1.00  0.00     0.004 C 
ENDBRANCH  14  15
ENDBRANCH  13  14
ENDBRANCH  12  13
ENDBRANCH  11  12
ENDBRANCH  10  11
ENDBRANCH   1  10
TORSDOF 12
ENDMDL
MODEL 3
REMARK VINA RESULT:    -2.890      2.783      6.952
REMARK INTER + INTRA:          -5.624
REMARK INTER:                  -5.812
REMARK INTRA:                   0.188
REMARK UNBOUND:                -0.706
REMARK SMILES CCCCCCCCCCCCCC(=O)[O-]
REMARK SMILES IDX 8 1 9 2 10 3 11 4 12 5 13 6 14 7 15 8 16 9 7 10 6 11 5 12
REMARK SMILES IDX 4 13 3 14 2 15 1 16
REMARK H PARENT
REMARK Flexibility Score: inf
ROOT
ATOM      1  C   UNL     1     -28.179 -21.417 -23.591  1.00  0.00     0.000 C 
ENDROOT
BRANCH   1   2
ATOM      2  C   UNL     1     -29.633 -21.261 -24.054  1.00  0.00     0.000 C 
BRANCH   2   3
ATOM      3  C   UNL     1     -29.700 -20.862 -25.532  1.00  0.00     0.000 C 
BRANCH   3   4
ATOM      4  C   UNL     1     -31.104 -20.363 -25.904  1.00  0.00     0.000 C 
BRANCH   4   5
ATOM      5  C   UNL     1     -31.861 -19.776 -24.701  1.00  0.00     0.006 C 
BRANCH   5   6
ATOM      6  C   UNL     1     -32.281 -20.848 -23.688  1.00  0.00     0.053 C 
BRANCH   6   7
ATOM      7  C   UNL     1     -32.446 -20.244 -22.329  1.00  0.00     0.041 C 
ATOM      8  O   UNL     1     -32.001 -20.840 -21.312  1.00  0.00    -0.550 OA
ATOM      9  O   UNL     1     -33.048 -19.000 -22.189  1.00  0.00    -0.550 OA
ENDBRANCH   6   7
ENDBRANCH   5   6
ENDBRANCH   4   5
ENDBRANCH   3   4
ENDBRANCH   2   3
ENDBRANCH   1   2
BRANCH   1  10
ATOM     10  C   UNL     1     -28.083 -22.358 -22.384  1.00  0.00     0.000 C 
BRANCH  10  11
ATOM     11  C   UNL     1     -29.442 -22.996 -22.074  1.00  0.00    -0.000 C 
BRANCH  11  12
ATOM     12  C   UNL     1     -29.661 -23.117 -20.559  1.00  0.00    -0.000 C 
BRANCH  12  13
ATOM     13  C   UNL     1     -28.348 -23.050 -19.755  1.00  0.00    -0.000 C 
BRANCH  13  14
ATOM     14  C   UNL     1     -28.380 -22.110 -18.536  1.00  0.00    -0.000 C 
BRANCH  14  15
ATOM     15  C   UNL     1     -28.493 -22.864 -17.202  1.00  0.00    -0.003 C 
ATOM     16  C   UNL     1     -27.116 -23.112 -16.593  1.00  0.00     0.004 C 
ENDBRANCH  14  15
ENDBRANCH  13  14
ENDBRANCH  12  13
ENDBRANCH  11  12
ENDBRANCH  10  11
ENDBRANCH   1  10
TORSDOF 12
ENDMDL
MODEL 4
REMARK VINA RESULT:    -2.836      1.174      3.245
REMARK INTER + INTRA:          -5.532
REMARK INTER:                  -4.457
REMARK INTRA:                  -1.075
REMARK UNBOUND:                -0.706
REMARK SMILES CCCCCCCCCCCCCC(=O)[O-]
REMARK SMILES IDX 8 1 9 2 10 3 11 4 12 5 13 6 14 7 15 8 16 9 7 10 6 11 5 12
REMARK SMILES IDX 4 13 3 14 2 15 1 16
REMARK H PARENT
REMARK Flexibility Score: inf
ROOT
ATOM      1  C   UNL     1     -29.213 -22.022 -23.430  1.00  0.00     0.000 C 
ENDROOT
BRANCH   1   2
ATOM      2  C   UNL     1     -27.891 -22.078 -22.655  1.00  0.00     0.000 C 
BRANCH   2   3
ATOM      3  C   UNL     1     -27.997 -23.025 -21.454  1.00  0.00     0.000 C 
BRANCH   3   4
ATOM      4  C   UNL     1     -29.357 -22.875 -20.755  1.00  0.00     0.000 C 
BRANCH   4   5
ATOM      5  C   UNL     1     -29.274 -23.125 -19.240  1.00  0.00     0.006 C 
BRANCH   5   6
ATOM      6  C   UNL     1     -28.020 -22.509 -18.608  1.00  0.00     0.053 C 
BRANCH   6   7
ATOM      7  C   UNL     1     -28.005 -22.756 -17.132  1.00  0.00     0.041 C 
ATOM      8  O   UNL     1     -29.088 -22.885 -16.501  1.00  0.00    -0.550 OA
ATOM      9  O   UNL     1     -26.797 -22.892 -16.461  1.00  0.00    -0.550 OA
ENDBRANCH   6   7
ENDBRANCH   5   6
ENDBRANCH   4   5
ENDBRANCH   3   4
ENDBRANCH   2   3
ENDBRANCH   1   2
BRANCH   1  10
ATOM     10  C   UNL     1     -29.182 -20.915 -24.491  1.00  0.00     0.000 C 
BRANCH  10  11
ATOM     11  C   UNL     1     -30.393 -21.014 -25.426  1.00  0.00    -0.000 C 
BRANCH  11  12
ATOM     12  C   UNL     1     -31.689 -21.218 -24.628  1.00  0.00    -0.000 C 
BRANCH  12  13
ATOM     13  C   UNL     1     -32.384 -19.893 -24.263  1.00  0.00    -0.000 C 
BRANCH  13  14
ATOM     14  C   UNL     1     -32.702 -19.716 -22.767  1.00  0.00    -0.000 C 
BRANCH  14  15
ATOM     15  C   UNL     1     -32.088 -20.819 -21.891  1.00  0.00    -0.003 C 
ATOM     16  C   UNL     1     -31.271 -20.222 -20.749  1.00  0.00     0.004 C 
ENDBRANCH  14  15
ENDBRANCH  13  14
ENDBRANCH  12  13
ENDBRANCH  11  12
ENDBRANCH  10  11
ENDBRANCH   1  10
TORSDOF 12
ENDMDL
MODEL 5
REMARK VINA RESULT:    -2.823      3.075      4.612
REMARK INTER + INTRA:          -5.510
REMARK INTER:                  -4.454
REMARK INTRA:                  -1.056
REMARK UNBOUND:                -0.706
REMARK SMILES CCCCCCCCCCCCCC(=O)[O-]
REMARK SMILES IDX 8 1 9 2 10 3 11 4 12 5 13 6 14 7 15 8 16 9 7 10 6 11 5 12
REMARK SMILES IDX 4 13 3 14 2 15 1 16
REMARK H PARENT
REMARK Flexibility Score: inf
ROOT
ATOM      1  C   UNL     1     -28.623 -23.113 -21.944  1.00  0.00     0.000 C 
ENDROOT
BRANCH   1   2
ATOM      2  C   UNL     1     -28.143 -23.112 -20.487  1.00  0.00     0.000 C 
BRANCH   2   3
ATOM      3  C   UNL     1     -29.094 -22.306 -19.595  1.00  0.00     0.000 C 
BRANCH   3   4
ATOM      4  C   UNL     1     -29.801 -21.205 -20.399  1.00  0.00     0.000 C 
BRANCH   4   5
ATOM      5  C   UNL     1     -31.306 -21.470 -20.570  1.00  0.00     0.006 C 
BRANCH   5   6
ATOM      6  C   UNL     1     -31.794 -21.202 -22.000  1.00  0.00     0.053 C 
BRANCH   6   7
ATOM      7  C   UNL     1     -32.547 -19.911 -22.060  1.00  0.00     0.041 C 
ATOM      8  O   UNL     1     -32.621 -19.173 -21.041  1.00  0.00    -0.550 OA
ATOM      9  O   UNL     1     -33.125 -19.498 -23.253  1.00  0.00    -0.550 OA
ENDBRANCH   6   7
ENDBRANCH   5   6
ENDBRANCH   4   5
ENDBRANCH   3   4
ENDBRANCH   2   3
ENDBRANCH   1   2
BRANCH   1  10
ATOM     10  C   UNL     1     -27.541 -22.561 -22.880  1.00  0.00     0.000 C 
BRANCH  10  11
ATOM     11  C   UNL     1     -28.048 -21.334 -23.647  1.00  0.00    -0.000 C 
BRANCH  11  12
ATOM     12  C   UNL     1     -29.404 -21.622 -24.310  1.00  0.00    -0.000 C 
BRANCH  12  13
ATOM     13  C   UNL     1     -30.082 -20.354 -24.863  1.00  0.00    -0.000 C 
BRANCH  13  14
ATOM     14  C   UNL     1     -31.102 -20.603 -25.989  1.00  0.00    -0.000 C 
BRANCH  14  15
ATOM     15  C   UNL     1     -30.636 -21.667 -26.995  1.00  0.00    -0.003 C 
ATOM     16  C   UNL     1     -31.663 -22.787 -27.125  1.00  0.00     0.004 C 
ENDBRANCH  14  15
ENDBRANCH  13  14
ENDBRANCH  12  13
ENDBRANCH  11  12
ENDBRANCH  10  11
ENDBRANCH   1  10
TORSDOF 12
ENDMDL
MODEL 6
REMARK VINA RESULT:    -2.819      2.632      3.115
REMARK INTER + INTRA:          -5.503
REMARK INTER:                  -5.501
REMARK INTRA:                  -0.002
REMARK UNBOUND:                -0.706
REMARK SMILES CCCCCCCCCCCCCC(=O)[O-]
REMARK SMILES IDX 8 1 9 2 10 3 11 4 12 5 13 6 14 7 15 8 16 9 7 10 6 11 5 12
REMARK SMILES IDX 4 13 3 14 2 15 1 16
REMARK H PARENT
REMARK Flexibility Score: inf
ROOT
ATOM      1  C   UNL     1     -31.459 -20.155 -21.446  1.00  0.00     0.000 C 
ENDROOT
BRANCH   1   2
ATOM      2  C   UNL     1     -30.774 -21.353 -20.778  1.00  0.00     0.000 C 
BRANCH   2   3
ATOM      3  C   UNL     1     -29.451 -20.937 -20.125  1.00  0.00     0.000 C 
BRANCH   3   4
ATOM      4  C   UNL     1     -28.847 -22.098 -19.319  1.00  0.00     0.000 C 
BRANCH   4   5
ATOM      5  C   UNL     1     -28.128 -23.125 -20.209  1.00  0.00     0.006 C 
BRANCH   5   6
ATOM      6  C   UNL     1     -28.643 -23.117 -21.654  1.00  0.00     0.053 C 
BRANCH   6   7
ATOM      7  C   UNL     1     -27.586 -22.604 -22.581  1.00  0.00     0.041 C 
ATOM      8  O   UNL     1     -26.429 -23.102 -22.559  1.00  0.00    -0.550 OA
ATOM      9  O   UNL     1     -27.892 -21.612 -23.503  1.00  0.00    -0.550 OA
ENDBRANCH   6   7
ENDBRANCH   5   6
ENDBRANCH   4   5
ENDBRANCH   3   4
ENDBRANCH   2   3
ENDBRANCH   1   2
BRANCH   1  10
ATOM     10  C   UNL     1     -32.717 -20.593 -22.205  1.00  0.00     0.000 C 
BRANCH  10  11
ATOM     11  C   UNL     1     -32.655 -20.154 -23.673  1.00  0.00    -0.000 C 
BRANCH  11  12
ATOM     12  C   UNL     1     -31.385 -20.685 -24.353  1.00  0.00    -0.000 C 
BRANCH  12  13
ATOM     13  C   UNL     1     -30.839 -19.733 -25.434  1.00  0.00    -0.000 C 
BRANCH  13  14
ATOM     14  C   UNL     1     -30.900 -20.281 -26.872  1.00  0.00    -0.000 C 
BRANCH  14  15
ATOM     15  C   UNL     1     -30.481 -21.756 -26.969  1.00  0.00    -0.003 C 
ATOM     16  C   UNL     1     -31.700 -22.671 -27.011  1.00  0.00     0.004 C 
ENDBRANCH  14  15
ENDBRANCH  13  14
ENDBRANCH  12  13
ENDBRANCH  11  12
ENDBRANCH  10  11
ENDBRANCH   1  10
TORSDOF 12
ENDMDL
MODEL 7
REMARK VINA RESULT:    -2.275      3.654      7.937
REMARK INTER + INTRA:          -4.576
REMARK INTER:                  -4.578
REMARK INTRA:                   0.002
REMARK UNBOUND:                -0.706
REMARK SMILES CCCCCCCCCCCCCC(=O)[O-]
REMARK SMILES IDX 8 1 9 2 10 3 11 4 12 5 13 6 14 7 15 8 16 9 7 10 6 11 5 12
REMARK SMILES IDX 4 13 3 14 2 15 1 16
REMARK H PARENT
REMARK Flexibility Score: inf
ROOT
ATOM      1  C   UNL     1     -28.748 -21.827 -21.432  1.00  0.00     0.000 C 
ENDROOT
BRANCH   1   2
ATOM      2  C   UNL     1     -29.859 -20.922 -20.885  1.00  0.00     0.000 C 
BRANCH   2   3
ATOM      3  C   UNL     1     -31.244 -21.485 -21.225  1.00  0.00     0.000 C 
BRANCH   3   4
ATOM      4  C   UNL     1     -31.334 -21.862 -22.712  1.00  0.00     0.000 C 
BRANCH   4   5
ATOM      5  C   UNL     1     -31.730 -20.671 -23.600  1.00  0.00     0.006 C 
BRANCH   5   6
ATOM      6  C   UNL     1     -31.806 -21.044 -25.086  1.00  0.00     0.053 C 
BRANCH   6   7
ATOM      7  C   UNL     1     -30.438 -21.048 -25.693  1.00  0.00     0.041 C 
ATOM      8  O   UNL     1     -30.301 -21.048 -26.945  1.00  0.00    -0.550 OA
ATOM      9  O   UNL     1     -29.315 -21.002 -24.877  1.00  0.00    -0.550 OA
ENDBRANCH   6   7
ENDBRANCH   5   6
ENDBRANCH   4   5
ENDBRANCH   3   4
ENDBRANCH   2   3
ENDBRANCH   1   2
BRANCH   1  10
ATOM     10  C   UNL     1     -28.646 -23.125 -20.622  1.00  0.00     0.000 C 
BRANCH  10  11
ATOM     11  C   UNL     1     -29.607 -23.106 -19.428  1.00  0.00    -0.000 C 
BRANCH  11  12
ATOM     12  C   UNL     1     -28.835 -23.089 -18.100  1.00  0.00    -0.000 C 
BRANCH  12  13
ATOM     13  C   UNL     1     -27.755 -21.992 -18.047  1.00  0.00    -0.000 C 
BRANCH  13  14
ATOM     14  C   UNL     1     -26.419 -22.426 -17.417  1.00  0.00    -0.000 C 
BRANCH  14  15
ATOM     15  C   UNL     1     -26.589 -23.041 -16.019  1.00  0.00    -0.003 C 
ATOM     16  C   UNL     1     -25.437 -22.645 -15.101  1.00  0.00     0.004 C 
ENDBRANCH  14  15
ENDBRANCH  13  14
ENDBRANCH  12  13
ENDBRANCH  11  12
ENDBRANCH  10  11
ENDBRANCH   1  10
TORSDOF 12
ENDMDL
