MODEL 1
REMARK VINA RESULT:    -3.959      0.000      0.000
REMARK INTER + INTRA:          -5.790
REMARK INTER:                  -5.348
REMARK INTRA:                  -0.442
REMARK UNBOUND:                -0.442
REMARK SMILES CCCCCCC=CC(=O)[O-]
REMARK SMILES IDX 5 1 6 2 7 3 8 4 9 5 10 6 11 7 4 8 3 9 2 10 1 11
REMARK H PARENT
REMARK Flexibility Score: inf
ROOT
ATOM      1  C   UNL     1      63.166 -29.966  13.691  1.00  0.00     0.004 C 
ENDROOT
BRANCH   1   2
ATOM      2  C   UNL     1      62.361 -31.279  13.753  1.00  0.00     0.027 C 
BRANCH   2   3
ATOM      3  C   UNL     1      62.113 -31.740  15.166  1.00  0.00    -0.025 C 
ATOM      4  C   UNL     1      62.321 -32.978  15.643  1.00  0.00     0.020 C 
BRANCH   4   5
ATOM      5  C   UNL     1      62.774 -34.153  14.871  1.00  0.00     0.064 C 
ATOM      6  O   UNL     1      63.930 -34.607  15.075  1.00  0.00    -0.545 OA
ATOM      7  O   UNL     1      61.954 -34.800  13.957  1.00  0.00    -0.545 OA
ENDBRANCH   4   5
ENDBRANCH   2   3
ENDBRANCH   1   2
BRANCH   1   8
ATOM      8  C   UNL     1      63.147 -29.143  14.995  1.00  0.00     0.000 C 
BRANCH   8   9
ATOM      9  C   UNL     1      62.436 -27.781  14.899  1.00  0.00    -0.000 C 
BRANCH   9  10
ATOM     10  C   UNL     1      62.015 -27.427  13.465  1.00  0.00    -0.003 C 
ATOM     11  C   UNL     1      62.757 -26.190  12.965  1.00  0.00     0.004 C 
ENDBRANCH   9  10
ENDBRANCH   8   9
ENDBRANCH   1   8
TORSDOF 6
ENDMDL
MODEL 2
REMARK VINA RESULT:    -3.939     12.397     13.886
REMARK INTER + INTRA:          -5.762
REMARK INTER:                  -5.120
REMARK INTRA:                  -0.643
REMARK UNBOUND:                -0.442
REMARK SMILES CCCCCCC=CC(=O)[O-]
REMARK SMILES IDX 5 1 6 2 7 3 8 4 9 5 10 6 11 7 4 8 3 9 2 10 1 11
REMARK H PARENT
REMARK Flexibility Score: inf
ROOT
ATOM      1  C   UNL     1      74.886 -32.838  21.750  1.00  0.00     0.004 C 
ENDROOT
BRANCH   1   2
ATOM      2  C   UNL     1      73.559 -32.108  22.039  1.00  0.00     0.027 C 
BRANCH   2   3
ATOM      3  C   UNL     1      72.369 -32.810  21.439  1.00  0.00    -0.025 C 
ATOM      4  C   UNL     1      71.755 -32.486  20.290  1.00  0.00     0.020 C 
BRANCH   4   5
ATOM      5  C   UNL     1      72.076 -31.342  19.413  1.00  0.00     0.064 C 
ATOM      6  O   UNL     1      72.822 -31.529  18.417  1.00  0.00    -0.545 OA
ATOM      7  O   UNL     1      71.552 -30.075  19.627  1.00  0.00    -0.545 OA
ENDBRANCH   4   5
ENDBRANCH   2   3
ENDBRANCH   1   2
BRANCH   1   8
ATOM      8  C   UNL     1      75.286 -33.879  22.815  1.00  0.00     0.000 C 
BRANCH   8   9
ATOM      9  C   UNL     1      75.150 -35.348  22.377  1.00  0.00    -0.000 C 
BRANCH   9  10
ATOM     10  C   UNL     1      73.892 -36.026  22.940  1.00  0.00    -0.003 C 
ATOM     11  C   UNL     1      72.946 -36.447  21.819  1.00  0.00     0.004 C 
ENDBRANCH   9  10
ENDBRANCH   8   9
ENDBRANCH   1   8
TORSDOF 6
ENDMDL
MODEL 3
REMARK VINA RESULT:    -3.819     11.108     12.616
REMARK INTER + INTRA:          -5.600
REMARK INTER:                  -5.113
REMARK INTRA:                  -0.487
REMARK UNBOUND:                -0.442
REMARK SMILES CCCCCCC=CC(=O)[O-]
REMARK SMILES IDX 5 1 6 2 7 3 8 4 9 5 10 6 11 7 4 8 3 9 2 10 1 11
REMARK H PARENT
REMARK Flexibility Score: inf
ROOT
ATOM      1  C   UNL     1      70.620 -37.027   7.780  1.00  0.00     0.004 C 
ENDROOT
BRANCH   1   2
ATOM      2  C   UNL     1      69.823 -36.227   6.732  1.00  0.00     0.027 C 
BRANCH   2   3
ATOM      3  C   UNL     1      69.144 -35.017   7.320  1.00  0.00    -0.025 C 
ATOM      4  C   UNL     1      69.500 -33.737   7.125  1.00  0.00     0.020 C 
BRANCH   4   5
ATOM      5  C   UNL     1      70.662 -33.255   6.351  1.00  0.00     0.064 C 
ATOM      6  O   UNL     1      71.734 -33.000   6.960  1.00  0.00    -0.545 OA
ATOM      7  O   UNL     1      70.626 -33.111   4.972  1.00  0.00    -0.545 OA
ENDBRANCH   4   5
ENDBRANCH   2   3
ENDBRANCH   1   2
BRANCH   1   8
ATOM      8  C   UNL     1      71.874 -36.307   8.315  1.00  0.00     0.000 C 
BRANCH   8   9
ATOM      9  C   UNL     1      72.335 -36.750   9.716  1.00  0.00    -0.000 C 
BRANCH   9  10
ATOM     10  C   UNL     1      71.305 -37.634  10.432  1.00  0.00    -0.003 C 
ATOM     11  C   UNL     1      71.929 -38.346  11.629  1.00  0.00     0.004 C 
ENDBRANCH   9  10
ENDBRANCH   8   9
ENDBRANCH   1   8
TORSDOF 6
ENDMDL
MODEL 4
REMARK VINA RESULT:    -3.789      1.569      1.817
REMARK INTER + INTRA:          -5.560
REMARK INTER:                  -5.260
REMARK INTRA:                  -0.300
REMARK UNBOUND:                -0.442
REMARK SMILES CCCCCCC=CC(=O)[O-]
REMARK SMILES IDX 5 1 6 2 7 3 8 4 9 5 10 6 11 7 4 8 3 9 2 10 1 11
REMARK H PARENT
REMARK Flexibility Score: inf
ROOT
ATOM      1  C   UNL     1      62.922 -30.041  13.614  1.00  0.00     0.004 C 
ENDROOT
BRANCH   1   2
ATOM      2  C   UNL     1      62.563 -31.509  13.911  1.00  0.00     0.027 C 
BRANCH   2   3
ATOM      3  C   UNL     1      61.920 -32.197  12.735  1.00  0.00    -0.025 C 
ATOM      4  C   UNL     1      62.284 -33.381  12.214  1.00  0.00     0.020 C 
BRANCH   4   5
ATOM      5  C   UNL     1      63.425 -34.216  12.641  1.00  0.00     0.064 C 
ATOM      6  O   UNL     1      64.483 -34.193  11.961  1.00  0.00    -0.545 OA
ATOM      7  O   UNL     1      63.384 -34.996  13.788  1.00  0.00    -0.545 OA
ENDBRANCH   4   5
ENDBRANCH   2   3
ENDBRANCH   1   2
BRANCH   1   8
ATOM      8  C   UNL     1      63.065 -29.153  14.867  1.00  0.00     0.000 C 
BRANCH   8   9
ATOM      9  C   UNL     1      62.721 -27.667  14.659  1.00  0.00    -0.000 C 
BRANCH   9  10
ATOM     10  C   UNL     1      62.195 -27.368  13.248  1.00  0.00    -0.003 C 
ATOM     11  C   UNL     1      62.632 -25.982  12.780  1.00  0.00     0.004 C 
ENDBRANCH   9  10
ENDBRANCH   8   9
ENDBRANCH   1   8
TORSDOF 6
ENDMDL
MODEL 5
REMARK VINA RESULT:    -3.732      1.800      2.348
REMARK INTER + INTRA:          -5.483
REMARK INTER:                  -4.972
REMARK INTRA:                  -0.512
REMARK UNBOUND:                -0.442
REMARK SMILES CCCCCCC=CC(=O)[O-]
REMARK SMILES IDX 5 1 6 2 7 3 8 4 9 5 10 6 11 7 4 8 3 9 2 10 1 11
REMARK H PARENT
REMARK Flexibility Score: inf
ROOT
ATOM      1  C   UNL     1      62.166 -29.817  16.765  1.00  0.00     0.004 C 
ENDROOT
BRANCH   1   2
ATOM      2  C   UNL     1      61.244 -30.860  16.104  1.00  0.00     0.027 C 
BRANCH   2   3
ATOM      3  C   UNL     1      61.911 -32.200  15.935  1.00  0.00    -0.025 C 
ATOM      4  C   UNL     1      62.417 -32.694  14.793  1.00  0.00     0.020 C 
BRANCH   4   5
ATOM      5  C   UNL     1      62.367 -32.057  13.460  1.00  0.00     0.064 C 
ATOM      6  O   UNL     1      61.494 -32.439  12.637  1.00  0.00    -0.545 OA
ATOM      7  O   UNL     1      63.222 -31.026  13.099  1.00  0.00    -0.545 OA
ENDBRANCH   4   5
ENDBRANCH   2   3
ENDBRANCH   1   2
BRANCH   1   8
ATOM      8  C   UNL     1      62.805 -28.816  15.781  1.00  0.00     0.000 C 
BRANCH   8   9
ATOM      9  C   UNL     1      61.822 -28.133  14.812  1.00  0.00    -0.000 C 
BRANCH   9  10
ATOM     10  C   UNL     1      62.484 -27.705  13.494  1.00  0.00    -0.003 C 
ATOM     11  C   UNL     1      62.496 -26.185  13.354  1.00  0.00     0.004 C 
ENDBRANCH   9  10
ENDBRANCH   8   9
ENDBRANCH   1   8
TORSDOF 6
ENDMDL
MODEL 6
REMARK VINA RESULT:    -3.627     13.291     14.378
REMARK INTER + INTRA:          -5.342
REMARK INTER:                  -5.165
REMARK INTRA:                  -0.176
REMARK UNBOUND:                -0.442
REMARK SMILES CCCCCCC=CC(=O)[O-]
REMARK SMILES IDX 5 1 6 2 7 3 8 4 9 5 10 6 11 7 4 8 3 9 2 10 1 11
REMARK H PARENT
REMARK Flexibility Score: inf
ROOT
ATOM      1  C   UNL     1      73.592 -36.362   7.766  1.00  0.00     0.004 C 
ENDROOT
BRANCH   1   2
ATOM      2  C   UNL     1      74.710 -36.735   8.757  1.00  0.00     0.027 C 
BRANCH   2   3
ATOM      3  C   UNL     1      74.176 -37.276  10.058  1.00  0.00    -0.025 C 
ATOM      4  C   UNL     1      74.857 -37.382  11.211  1.00  0.00     0.020 C 
BRANCH   4   5
ATOM      5  C   UNL     1      76.281 -37.053  11.424  1.00  0.00     0.064 C 
ATOM      6  O   UNL     1      76.665 -35.867  11.248  1.00  0.00    -0.545 OA
ATOM      7  O   UNL     1      77.204 -37.998  11.851  1.00  0.00    -0.545 OA
ENDBRANCH   4   5
ENDBRANCH   2   3
ENDBRANCH   1   2
BRANCH   1   8
ATOM      8  C   UNL     1      74.093 -35.909   6.379  1.00  0.00     0.000 C 
BRANCH   8   9
ATOM      9  C   UNL     1      73.301 -34.752   5.744  1.00  0.00    -0.000 C 
BRANCH   9  10
ATOM     10  C   UNL     1      71.926 -34.542   6.392  1.00  0.00    -0.003 C 
ATOM     11  C   UNL     1      71.860 -33.203   7.121  1.00  0.00     0.004 C 
ENDBRANCH   9  10
ENDBRANCH   8   9
ENDBRANCH   1   8
TORSDOF 6
ENDMDL
MODEL 7
REMARK VINA RESULT:    -3.599     10.922     11.928
REMARK INTER + INTRA:          -5.303
REMARK INTER:                  -5.017
REMARK INTRA:                  -0.287
REMARK UNBOUND:                -0.442
REMARK SMILES CCCCCCC=CC(=O)[O-]
REMARK SMILES IDX 5 1 6 2 7 3 8 4 9 5 10 6 11 7 4 8 3 9 2 10 1 11
REMARK H PARENT
REMARK Flexibility Score: inf
ROOT
ATOM      1  C   UNL     1      72.995 -36.012   8.205  1.00  0.00     0.004 C 
ENDROOT
BRANCH   1   2
ATOM      2  C   UNL     1      72.156 -36.730   9.279  1.00  0.00     0.027 C 
BRANCH   2   3
ATOM      3  C   UNL     1      72.984 -37.190  10.450  1.00  0.00    -0.025 C 
ATOM      4  C   UNL     1      72.585 -38.027  11.422  1.00  0.00     0.020 C 
BRANCH   4   5
ATOM      5  C   UNL     1      71.239 -38.615  11.578  1.00  0.00     0.064 C 
ATOM      6  O   UNL     1      70.290 -37.873  11.947  1.00  0.00    -0.545 OA
ATOM      7  O   UNL     1      70.974 -39.947  11.295  1.00  0.00    -0.545 OA
ENDBRANCH   4   5
ENDBRANCH   2   3
ENDBRANCH   1   2
BRANCH   1   8
ATOM      8  C   UNL     1      72.197 -35.032   7.321  1.00  0.00     0.000 C 
BRANCH   8   9
ATOM      9  C   UNL     1      70.677 -35.269   7.288  1.00  0.00    -0.000 C 
BRANCH   9  10
ATOM     10  C   UNL     1      69.882 -34.004   6.937  1.00  0.00    -0.003 C 
ATOM     11  C   UNL     1      70.790 -32.932   6.341  1.00  0.00     0.004 C 
ENDBRANCH   9  10
ENDBRANCH   8   9
ENDBRANCH   1   8
TORSDOF 6
ENDMDL
MODEL 8
REMARK VINA RESULT:    -3.592     12.106     13.012
REMARK INTER + INTRA:          -5.294
REMARK INTER:                  -4.536
REMARK INTRA:                  -0.758
REMARK UNBOUND:                -0.442
REMARK SMILES CCCCCCC=CC(=O)[O-]
REMARK SMILES IDX 5 1 6 2 7 3 8 4 9 5 10 6 11 7 4 8 3 9 2 10 1 11
REMARK H PARENT
REMARK Flexibility Score: inf
ROOT
ATOM      1  C   UNL     1      69.957 -35.919   6.470  1.00  0.00     0.004 C 
ENDROOT
BRANCH   1   2
ATOM      2  C   UNL     1      70.843 -36.860   7.307  1.00  0.00     0.027 C 
BRANCH   2   3
ATOM      3  C   UNL     1      71.857 -36.117   8.137  1.00  0.00    -0.025 C 
ATOM      4  C   UNL     1      73.152 -35.937   7.830  1.00  0.00     0.020 C 
BRANCH   4   5
ATOM      5  C   UNL     1      73.861 -36.483   6.655  1.00  0.00     0.064 C 
ATOM      6  O   UNL     1      74.825 -37.272   6.839  1.00  0.00    -0.545 OA
ATOM      7  O   UNL     1      73.478 -36.188   5.354  1.00  0.00    -0.545 OA
ENDBRANCH   4   5
ENDBRANCH   2   3
ENDBRANCH   1   2
BRANCH   1   8
ATOM      8  C   UNL     1      69.329 -34.757   7.266  1.00  0.00     0.000 C 
BRANCH   8   9
ATOM      9  C   UNL     1      69.827 -33.353   6.877  1.00  0.00    -0.000 C 
BRANCH   9  10
ATOM     10  C   UNL     1      70.600 -33.339   5.551  1.00  0.00    -0.003 C 
ATOM     11  C   UNL     1      72.068 -32.986   5.773  1.00  0.00     0.004 C 
ENDBRANCH   9  10
ENDBRANCH   8   9
ENDBRANCH   1   8
TORSDOF 6
ENDMDL
MODEL 9
REMARK VINA RESULT:    -3.465     11.533     13.037
REMARK INTER + INTRA:          -5.123
REMARK INTER:                  -4.799
REMARK INTRA:                  -0.324
REMARK UNBOUND:                -0.442
REMARK SMILES CCCCCCC=CC(=O)[O-]
REMARK SMILES IDX 5 1 6 2 7 3 8 4 9 5 10 6 11 7 4 8 3 9 2 10 1 11
REMARK H PARENT
REMARK Flexibility Score: inf
ROOT
ATOM      1  C   UNL     1      72.232 -32.312  21.596  1.00  0.00     0.004 C 
ENDROOT
BRANCH   1   2
ATOM      2  C   UNL     1      71.736 -32.233  20.139  1.00  0.00     0.027 C 
BRANCH   2   3
ATOM      3  C   UNL     1      72.780 -31.689  19.200  1.00  0.00    -0.025 C 
ATOM      4  C   UNL     1      72.627 -30.649  18.363  1.00  0.00     0.020 C 
BRANCH   4   5
ATOM      5  C   UNL     1      71.392 -29.869  18.146  1.00  0.00     0.064 C 
ATOM      6  O   UNL     1      70.501 -30.339  17.391  1.00  0.00    -0.545 OA
ATOM      7  O   UNL     1      71.161 -28.654  18.777  1.00  0.00    -0.545 OA
ENDBRANCH   4   5
ENDBRANCH   2   3
ENDBRANCH   1   2
BRANCH   1   8
ATOM      8  C   UNL     1      72.981 -33.614  21.946  1.00  0.00     0.000 C 
BRANCH   8   9
ATOM      9  C   UNL     1      74.512 -33.481  22.045  1.00  0.00    -0.000 C 
BRANCH   9  10
ATOM     10  C   UNL     1      75.215 -34.826  22.276  1.00  0.00    -0.003 C 
ATOM     11  C   UNL     1      74.257 -35.850  22.882  1.00  0.00     0.004 C 
ENDBRANCH   9  10
ENDBRANCH   8   9
ENDBRANCH   1   8
TORSDOF 6
ENDMDL
