MODEL 1
REMARK VINA RESULT:    -4.741      0.000      0.000
REMARK INTER + INTRA:          -6.113
REMARK INTER:                  -5.712
REMARK INTRA:                  -0.402
REMARK UNBOUND:                -0.402
REMARK SMILES O=c1c(O)c(-c2ccc(O)cc2O)oc2cc(O)cc(O)c12
REMARK SMILES IDX 5 1 3 2 2 3 1 4 22 5 20 6 19 7 17 8 16 9 15 10 14 11 6 12
REMARK SMILES IDX 8 13 7 14 9 15 11 16 12 17 10 18 13 20 4 22 21 24 18 26
REMARK H PARENT 10 19 13 21 4 23 21 25 18 27
REMARK Flexibility Score: inf
ROOT
ATOM      1  C   UNL     1      48.129  15.377  67.401  1.00  0.00     0.184 A 
ATOM      2  C   UNL     1      49.157  15.883  66.589  1.00  0.00     0.208 A 
ATOM      3  C   UNL     1      49.235  15.467  65.251  1.00  0.00     0.238 A 
ATOM      4  O   UNL     1      50.125  15.967  64.514  1.00  0.00    -0.285 OA
ATOM      5  C   UNL     1      48.298  14.534  64.747  1.00  0.00     0.111 A 
ATOM      6  C   UNL     1      48.307  14.012  63.419  1.00  0.00     0.134 A 
ATOM      7  C   UNL     1      47.254  13.192  62.991  1.00  0.00     0.093 A 
ATOM      8  C   UNL     1      46.229  12.823  63.865  1.00  0.00     0.123 A 
ATOM      9  C   UNL     1      46.243  13.280  65.180  1.00  0.00     0.094 A 
ATOM     10  C   UNL     1      47.259  14.128  65.625  1.00  0.00     0.146 A 
ATOM     11  O   UNL     1      47.228  14.550  66.884  1.00  0.00    -0.451 OA
ENDROOT
BRANCH   1  12
ATOM     12  C   UNL     1      48.001  15.756  68.828  1.00  0.00     0.063 A 
ATOM     13  C   UNL     1      47.124  17.242  70.545  1.00  0.00     0.047 A 
ATOM     14  C   UNL     1      47.224  16.867  69.203  1.00  0.00     0.020 A 
ATOM     15  C   UNL     1      47.808  16.519  71.530  1.00  0.00     0.119 A 
ATOM     16  C   UNL     1      48.594  15.422  71.165  1.00  0.00     0.093 A 
ATOM     17  C   UNL     1      48.697  15.037  69.821  1.00  0.00     0.130 A 
BRANCH  15  18
ATOM     18  O   UNL     1      47.717  16.885  72.871  1.00  0.00    -0.508 OA
ATOM     19  H   UNL     1      48.528  16.878  73.479  1.00  0.00     0.293 HD
ENDBRANCH  15  18
BRANCH  17  20
ATOM     20  O   UNL     1      49.480  13.935  69.473  1.00  0.00    -0.507 OA
ATOM     21  H   UNL     1      49.626  13.672  68.505  1.00  0.00     0.293 HD
ENDBRANCH  17  20
ENDBRANCH   1  12
BRANCH   2  22
ATOM     22  O   UNL     1      50.063  16.815  67.105  1.00  0.00    -0.502 OA
ATOM     23  H   UNL     1      49.793  17.520  67.779  1.00  0.00     0.293 HD
ENDBRANCH   2  22
BRANCH   6  24
ATOM     24  O   UNL     1      49.331  14.243  62.496  1.00  0.00    -0.507 OA
ATOM     25  H   UNL     1      49.350  13.880  61.555  1.00  0.00     0.293 HD
ENDBRANCH   6  24
BRANCH   8  26
ATOM     26  O   UNL     1      45.194  11.994  63.437  1.00  0.00    -0.508 OA
ATOM     27  H   UNL     1      45.154  11.646  62.485  1.00  0.00     0.293 HD
ENDBRANCH   8  26
TORSDOF 6
ENDMDL
MODEL 2
REMARK VINA RESULT:    -4.634      1.850      6.919
REMARK INTER + INTRA:          -5.984
REMARK INTER:                  -5.560
REMARK INTRA:                  -0.424
REMARK UNBOUND:                -0.402
REMARK SMILES O=c1c(O)c(-c2ccc(O)cc2O)oc2cc(O)cc(O)c12
REMARK SMILES IDX 5 1 3 2 2 3 1 4 22 5 20 6 19 7 17 8 16 9 15 10 14 11 6 12
REMARK SMILES IDX 8 13 7 14 9 15 11 16 12 17 10 18 13 20 4 22 21 24 18 26
REMARK H PARENT 10 19 13 21 4 23 21 25 18 27
REMARK Flexibility Score: inf
ROOT
ATOM      1  C   UNL     1      48.711  15.580  68.584  1.00  0.00     0.184 A 
ATOM      2  C   UNL     1      49.302  16.815  68.897  1.00  0.00     0.208 A 
ATOM      3  C   UNL     1      49.544  17.133  70.242  1.00  0.00     0.238 A 
ATOM      4  O   UNL     1      50.125  18.217  70.512  1.00  0.00    -0.285 OA
ATOM      5  C   UNL     1      49.171  16.222  71.260  1.00  0.00     0.111 A 
ATOM      6  C   UNL     1      49.332  16.459  72.658  1.00  0.00     0.134 A 
ATOM      7  C   UNL     1      49.046  15.433  73.569  1.00  0.00     0.093 A 
ATOM      8  C   UNL     1      48.544  14.204  73.135  1.00  0.00     0.123 A 
ATOM      9  C   UNL     1      48.328  13.985  71.777  1.00  0.00     0.094 A 
ATOM     10  C   UNL     1      48.638  14.975  70.842  1.00  0.00     0.146 A 
ATOM     11  O   UNL     1      48.428  14.720  69.556  1.00  0.00    -0.451 OA
ENDROOT
BRANCH   1  12
ATOM     12  C   UNL     1      48.407  15.190  67.187  1.00  0.00     0.063 A 
ATOM     13  C   UNL     1      49.154  14.413  65.005  1.00  0.00     0.047 A 
ATOM     14  C   UNL     1      49.433  14.756  66.330  1.00  0.00     0.020 A 
ATOM     15  C   UNL     1      47.845  14.511  64.514  1.00  0.00     0.119 A 
ATOM     16  C   UNL     1      46.821  14.955  65.355  1.00  0.00     0.093 A 
ATOM     17  C   UNL     1      47.093  15.297  66.688  1.00  0.00     0.130 A 
BRANCH  15  18
ATOM     18  O   UNL     1      47.555  14.173  63.194  1.00  0.00    -0.508 OA
ATOM     19  H   UNL     1      47.874  13.301  62.788  1.00  0.00     0.293 HD
ENDBRANCH  15  18
BRANCH  17  20
ATOM     20  O   UNL     1      46.059  15.732  67.517  1.00  0.00    -0.507 OA
ATOM     21  H   UNL     1      45.732  16.692  67.501  1.00  0.00     0.293 HD
ENDBRANCH  17  20
ENDBRANCH   1  12
BRANCH   2  22
ATOM     22  O   UNL     1      49.674  17.693  67.874  1.00  0.00    -0.502 OA
ATOM     23  H   UNL     1      50.624  17.753  67.528  1.00  0.00     0.293 HD
ENDBRANCH   2  22
BRANCH   6  24
ATOM     24  O   UNL     1      49.738  17.680  73.202  1.00  0.00    -0.507 OA
ATOM     25  H   UNL     1      49.293  18.567  73.020  1.00  0.00     0.293 HD
ENDBRANCH   6  24
BRANCH   8  26
ATOM     26  O   UNL     1      48.247  13.196  74.049  1.00  0.00    -0.508 OA
ATOM     27  H   UNL     1      48.352  12.216  73.810  1.00  0.00     0.293 HD
ENDBRANCH   8  26
TORSDOF 6
ENDMDL
MODEL 3
REMARK VINA RESULT:    -4.615      3.991      6.596
REMARK INTER + INTRA:          -5.961
REMARK INTER:                  -5.548
REMARK INTRA:                  -0.413
REMARK UNBOUND:                -0.402
REMARK SMILES O=c1c(O)c(-c2ccc(O)cc2O)oc2cc(O)cc(O)c12
REMARK SMILES IDX 5 1 3 2 2 3 1 4 22 5 20 6 19 7 17 8 16 9 15 10 14 11 6 12
REMARK SMILES IDX 8 13 7 14 9 15 11 16 12 17 10 18 13 20 4 22 21 24 18 26
REMARK H PARENT 10 19 13 21 4 23 21 25 18 27
REMARK Flexibility Score: inf
ROOT
ATOM      1  C   UNL     1      49.073  16.994  70.045  1.00  0.00     0.184 A 
ATOM      2  C   UNL     1      49.252  15.946  69.127  1.00  0.00     0.208 A 
ATOM      3  C   UNL     1      49.323  14.628  69.603  1.00  0.00     0.238 A 
ATOM      4  O   UNL     1      49.427  13.689  68.771  1.00  0.00    -0.285 OA
ATOM      5  C   UNL     1      49.236  14.375  70.994  1.00  0.00     0.111 A 
ATOM      6  C   UNL     1      49.336  13.082  71.590  1.00  0.00     0.134 A 
ATOM      7  C   UNL     1      49.106  12.937  72.965  1.00  0.00     0.093 A 
ATOM      8  C   UNL     1      48.845  14.046  73.773  1.00  0.00     0.123 A 
ATOM      9  C   UNL     1      48.804  15.318  73.209  1.00  0.00     0.094 A 
ATOM     10  C   UNL     1      48.993  15.491  71.836  1.00  0.00     0.146 A 
ATOM     11  O   UNL     1      48.933  16.721  71.337  1.00  0.00    -0.451 OA
ENDROOT
BRANCH   1  12
ATOM     12  C   UNL     1      49.013  18.410  69.614  1.00  0.00     0.063 A 
ATOM     13  C   UNL     1      50.080  20.358  68.619  1.00  0.00     0.047 A 
ATOM     14  C   UNL     1      50.125  19.016  69.001  1.00  0.00     0.020 A 
ATOM     15  C   UNL     1      48.927  21.118  68.853  1.00  0.00     0.119 A 
ATOM     16  C   UNL     1      47.823  20.529  69.473  1.00  0.00     0.093 A 
ATOM     17  C   UNL     1      47.858  19.181  69.858  1.00  0.00     0.130 A 
BRANCH  15  18
ATOM     18  O   UNL     1      48.872  22.459  68.476  1.00  0.00    -0.508 OA
ATOM     19  H   UNL     1      48.053  23.027  68.660  1.00  0.00     0.293 HD
ENDBRANCH  15  18
BRANCH  17  20
ATOM     20  O   UNL     1      46.745  18.604  70.471  1.00  0.00    -0.507 OA
ATOM     21  H   UNL     1      46.719  18.429  71.469  1.00  0.00     0.293 HD
ENDBRANCH  17  20
ENDBRANCH   1  12
BRANCH   2  22
ATOM     22  O   UNL     1      49.322  16.218  67.757  1.00  0.00    -0.502 OA
ATOM     23  H   UNL     1      48.506  16.463  67.210  1.00  0.00     0.293 HD
ENDBRANCH   2  22
BRANCH   6  24
ATOM     24  O   UNL     1      49.682  11.924  70.890  1.00  0.00    -0.507 OA
ATOM     25  H   UNL     1      49.381  11.707  69.952  1.00  0.00     0.293 HD
ENDBRANCH   6  24
BRANCH   8  26
ATOM     26  O   UNL     1      48.633  13.894  75.141  1.00  0.00    -0.508 OA
ATOM     27  H   UNL     1      49.325  14.190  75.821  1.00  0.00     0.293 HD
ENDBRANCH   8  26
TORSDOF 6
ENDMDL
MODEL 4
REMARK VINA RESULT:    -4.578      1.857      6.698
REMARK INTER + INTRA:          -5.916
REMARK INTER:                  -5.460
REMARK INTRA:                  -0.457
REMARK UNBOUND:                -0.402
REMARK SMILES O=c1c(O)c(-c2ccc(O)cc2O)oc2cc(O)cc(O)c12
REMARK SMILES IDX 5 1 3 2 2 3 1 4 22 5 20 6 19 7 17 8 16 9 15 10 14 11 6 12
REMARK SMILES IDX 8 13 7 14 9 15 11 16 12 17 10 18 13 20 4 22 21 24 18 26
REMARK H PARENT 10 19 13 21 4 23 21 25 18 27
REMARK Flexibility Score: inf
ROOT
ATOM      1  C   UNL     1      48.192  15.317  68.366  1.00  0.00     0.184 A 
ATOM      2  C   UNL     1      48.968  16.487  68.405  1.00  0.00     0.208 A 
ATOM      3  C   UNL     1      49.381  16.990  69.648  1.00  0.00     0.238 A 
ATOM      4  O   UNL     1      50.123  18.007  69.672  1.00  0.00    -0.285 OA
ATOM      5  C   UNL     1      48.996  16.329  70.839  1.00  0.00     0.111 A 
ATOM      6  C   UNL     1      49.325  16.773  72.155  1.00  0.00     0.134 A 
ATOM      7  C   UNL     1      48.999  15.970  73.256  1.00  0.00     0.093 A 
ATOM      8  C   UNL     1      48.301  14.771  73.092  1.00  0.00     0.123 A 
ATOM      9  C   UNL     1      47.925  14.359  71.816  1.00  0.00     0.094 A 
ATOM     10  C   UNL     1      48.266  15.121  70.696  1.00  0.00     0.146 A 
ATOM     11  O   UNL     1      47.898  14.684  69.496  1.00  0.00    -0.451 OA
ENDROOT
BRANCH   1  12
ATOM     12  C   UNL     1      47.703  14.744  67.091  1.00  0.00     0.063 A 
ATOM     13  C   UNL     1      46.027  14.649  65.328  1.00  0.00     0.047 A 
ATOM     14  C   UNL     1      46.505  15.206  66.516  1.00  0.00     0.020 A 
ATOM     15  C   UNL     1      46.734  13.614  64.702  1.00  0.00     0.119 A 
ATOM     16  C   UNL     1      47.918  13.139  65.273  1.00  0.00     0.093 A 
ATOM     17  C   UNL     1      48.406  13.695  66.465  1.00  0.00     0.130 A 
BRANCH  15  18
ATOM     18  O   UNL     1      46.266  13.050  63.517  1.00  0.00    -0.508 OA
ATOM     19  H   UNL     1      46.885  12.554  62.886  1.00  0.00     0.293 HD
ENDBRANCH  15  18
BRANCH  17  20
ATOM     20  O   UNL     1      49.592  13.215  67.019  1.00  0.00    -0.507 OA
ATOM     21  H   UNL     1      50.087  13.726  67.741  1.00  0.00     0.293 HD
ENDBRANCH  17  20
ENDBRANCH   1  12
BRANCH   2  22
ATOM     22  O   UNL     1      49.348  17.115  67.214  1.00  0.00    -0.502 OA
ATOM     23  H   UNL     1      50.152  17.727  67.156  1.00  0.00     0.293 HD
ENDBRANCH   2  22
BRANCH   6  24
ATOM     24  O   UNL     1      49.939  17.996  72.436  1.00  0.00    -0.507 OA
ATOM     25  H   UNL     1      49.481  18.783  72.872  1.00  0.00     0.293 HD
ENDBRANCH   6  24
BRANCH   8  26
ATOM     26  O   UNL     1      47.968  13.986  74.193  1.00  0.00    -0.508 OA
ATOM     27  H   UNL     1      47.063  13.535  74.269  1.00  0.00     0.293 HD
ENDBRANCH   8  26
TORSDOF 6
ENDMDL
MODEL 5
REMARK VINA RESULT:    -4.529      3.845      6.838
REMARK INTER + INTRA:          -5.857
REMARK INTER:                  -5.613
REMARK INTRA:                  -0.244
REMARK UNBOUND:                -0.402
REMARK SMILES O=c1c(O)c(-c2ccc(O)cc2O)oc2cc(O)cc(O)c12
REMARK SMILES IDX 5 1 3 2 2 3 1 4 22 5 20 6 19 7 17 8 16 9 15 10 14 11 6 12
REMARK SMILES IDX 8 13 7 14 9 15 11 16 12 17 10 18 13 20 4 22 21 24 18 26
REMARK H PARENT 10 19 13 21 4 23 21 25 18 27
REMARK Flexibility Score: inf
ROOT
ATOM      1  C   UNL     1      48.875  13.494  72.977  1.00  0.00     0.184 A 
ATOM      2  C   UNL     1      49.426  12.895  71.832  1.00  0.00     0.208 A 
ATOM      3  C   UNL     1      49.294  13.542  70.594  1.00  0.00     0.238 A 
ATOM      4  O   UNL     1      49.838  13.027  69.582  1.00  0.00    -0.285 OA
ATOM      5  C   UNL     1      48.594  14.770  70.511  1.00  0.00     0.111 A 
ATOM      6  C   UNL     1      48.365  15.492  69.302  1.00  0.00     0.134 A 
ATOM      7  C   UNL     1      47.771  16.760  69.357  1.00  0.00     0.093 A 
ATOM      8  C   UNL     1      47.341  17.302  70.571  1.00  0.00     0.123 A 
ATOM      9  C   UNL     1      47.507  16.578  71.749  1.00  0.00     0.094 A 
ATOM     10  C   UNL     1      48.128  15.327  71.730  1.00  0.00     0.146 A 
ATOM     11  O   UNL     1      48.278  14.676  72.878  1.00  0.00    -0.451 OA
ENDROOT
BRANCH   1  12
ATOM     12  C   UNL     1      48.958  12.855  74.311  1.00  0.00     0.063 A 
ATOM     13  C   UNL     1      48.629  10.915  75.744  1.00  0.00     0.047 A 
ATOM     14  C   UNL     1      48.578  11.512  74.482  1.00  0.00     0.020 A 
ATOM     15  C   UNL     1      49.050  11.656  76.855  1.00  0.00     0.119 A 
ATOM     16  C   UNL     1      49.416  12.996  76.698  1.00  0.00     0.093 A 
ATOM     17  C   UNL     1      49.371  13.601  75.434  1.00  0.00     0.130 A 
BRANCH  15  18
ATOM     18  O   UNL     1      49.104  11.072  78.119  1.00  0.00    -0.508 OA
ATOM     19  H   UNL     1      49.574  11.526  78.893  1.00  0.00     0.293 HD
ENDBRANCH  15  18
BRANCH  17  20
ATOM     20  O   UNL     1      49.745  14.938  75.291  1.00  0.00    -0.507 OA
ATOM     21  H   UNL     1      50.351  15.395  75.963  1.00  0.00     0.293 HD
ENDBRANCH  17  20
ENDBRANCH   1  12
BRANCH   2  22
ATOM     22  O   UNL     1      50.125  11.688  71.940  1.00  0.00    -0.502 OA
ATOM     23  H   UNL     1      50.161  11.012  71.187  1.00  0.00     0.293 HD
ENDBRANCH   2  22
BRANCH   6  24
ATOM     24  O   UNL     1      48.672  15.003  68.030  1.00  0.00    -0.507 OA
ATOM     25  H   UNL     1      48.635  14.031  67.763  1.00  0.00     0.293 HD
ENDBRANCH   6  24
BRANCH   8  26
ATOM     26  O   UNL     1      46.738  18.556  70.615  1.00  0.00    -0.508 OA
ATOM     27  H   UNL     1      46.349  18.987  69.784  1.00  0.00     0.293 HD
ENDBRANCH   8  26
TORSDOF 6
ENDMDL
MODEL 6
REMARK VINA RESULT:    -4.511      1.892      2.975
REMARK INTER + INTRA:          -5.836
REMARK INTER:                  -5.460
REMARK INTRA:                  -0.376
REMARK UNBOUND:                -0.402
REMARK SMILES O=c1c(O)c(-c2ccc(O)cc2O)oc2cc(O)cc(O)c12
REMARK SMILES IDX 5 1 3 2 2 3 1 4 22 5 20 6 19 7 17 8 16 9 15 10 14 11 6 12
REMARK SMILES IDX 8 13 7 14 9 15 11 16 12 17 10 18 13 20 4 22 21 24 18 26
REMARK H PARENT 10 19 13 21 4 23 21 25 18 27
REMARK Flexibility Score: inf
ROOT
ATOM      1  C   UNL     1      48.107  15.166  67.266  1.00  0.00     0.184 A 
ATOM      2  C   UNL     1      46.770  15.265  66.847  1.00  0.00     0.208 A 
ATOM      3  C   UNL     1      46.330  14.470  65.778  1.00  0.00     0.238 A 
ATOM      4  O   UNL     1      45.118  14.522  65.444  1.00  0.00    -0.285 OA
ATOM      5  C   UNL     1      47.239  13.601  65.126  1.00  0.00     0.111 A 
ATOM      6  C   UNL     1      46.912  12.780  64.005  1.00  0.00     0.134 A 
ATOM      7  C   UNL     1      47.856  11.864  63.521  1.00  0.00     0.093 A 
ATOM      8  C   UNL     1      49.135  11.788  64.077  1.00  0.00     0.123 A 
ATOM      9  C   UNL     1      49.482  12.627  65.133  1.00  0.00     0.094 A 
ATOM     10  C   UNL     1      48.551  13.525  65.660  1.00  0.00     0.146 A 
ATOM     11  O   UNL     1      48.920  14.298  66.675  1.00  0.00    -0.451 OA
ENDROOT
BRANCH   1  12
ATOM     12  C   UNL     1      48.644  15.992  68.373  1.00  0.00     0.063 A 
ATOM     13  C   UNL     1      48.632  16.637  70.720  1.00  0.00     0.047 A 
ATOM     14  C   UNL     1      48.147  15.840  69.680  1.00  0.00     0.020 A 
ATOM     15  C   UNL     1      49.612  17.605  70.466  1.00  0.00     0.119 A 
ATOM     16  C   UNL     1      50.101  17.773  69.168  1.00  0.00     0.093 A 
ATOM     17  C   UNL     1      49.622  16.975  68.119  1.00  0.00     0.130 A 
BRANCH  15  18
ATOM     18  O   UNL     1      50.102  18.406  71.496  1.00  0.00    -0.508 OA
ATOM     19  H   UNL     1      49.479  18.903  72.122  1.00  0.00     0.293 HD
ENDBRANCH  15  18
BRANCH  17  20
ATOM     20  O   UNL     1      50.125  17.149  66.829  1.00  0.00    -0.507 OA
ATOM     21  H   UNL     1      50.787  16.497  66.424  1.00  0.00     0.293 HD
ENDBRANCH  17  20
ENDBRANCH   1  12
BRANCH   2  22
ATOM     22  O   UNL     1      45.888  16.120  67.516  1.00  0.00    -0.502 OA
ATOM     23  H   UNL     1      44.912  15.891  67.657  1.00  0.00     0.293 HD
ENDBRANCH   2  22
BRANCH   6  24
ATOM     24  O   UNL     1      45.697  12.843  63.319  1.00  0.00    -0.507 OA
ATOM     25  H   UNL     1      45.549  12.510  62.377  1.00  0.00     0.293 HD
ENDBRANCH   6  24
BRANCH   8  26
ATOM     26  O   UNL     1      50.073  10.886  63.580  1.00  0.00    -0.508 OA
ATOM     27  H   UNL     1      50.532  10.211  64.183  1.00  0.00     0.293 HD
ENDBRANCH   8  26
TORSDOF 6
ENDMDL
MODEL 7
REMARK VINA RESULT:    -4.430      1.810      6.928
REMARK INTER + INTRA:          -5.738
REMARK INTER:                  -5.649
REMARK INTRA:                  -0.089
REMARK UNBOUND:                -0.402
REMARK SMILES O=c1c(O)c(-c2ccc(O)cc2O)oc2cc(O)cc(O)c12
REMARK SMILES IDX 5 1 3 2 2 3 1 4 22 5 20 6 19 7 17 8 16 9 15 10 14 11 6 12
REMARK SMILES IDX 8 13 7 14 9 15 11 16 12 17 10 18 13 20 4 22 21 24 18 26
REMARK H PARENT 10 19 13 21 4 23 21 25 18 27
REMARK Flexibility Score: inf
ROOT
ATOM      1  C   UNL     1      48.405  14.747  68.158  1.00  0.00     0.184 A 
ATOM      2  C   UNL     1      49.279  13.902  68.862  1.00  0.00     0.208 A 
ATOM      3  C   UNL     1      49.382  14.037  70.255  1.00  0.00     0.238 A 
ATOM      4  O   UNL     1      50.124  13.241  70.887  1.00  0.00    -0.285 OA
ATOM      5  C   UNL     1      48.626  15.030  70.925  1.00  0.00     0.111 A 
ATOM      6  C   UNL     1      48.682  15.283  72.328  1.00  0.00     0.134 A 
ATOM      7  C   UNL     1      47.795  16.204  72.900  1.00  0.00     0.093 A 
ATOM      8  C   UNL     1      46.899  16.927  72.109  1.00  0.00     0.123 A 
ATOM      9  C   UNL     1      46.878  16.730  70.731  1.00  0.00     0.094 A 
ATOM     10  C   UNL     1      47.725  15.793  70.136  1.00  0.00     0.146 A 
ATOM     11  O   UNL     1      47.664  15.627  68.820  1.00  0.00    -0.451 OA
ENDROOT
BRANCH   1  12
ATOM     12  C   UNL     1      48.265  14.674  66.685  1.00  0.00     0.063 A 
ATOM     13  C   UNL     1      49.271  14.457  64.479  1.00  0.00     0.047 A 
ATOM     14  C   UNL     1      49.398  14.499  65.869  1.00  0.00     0.020 A 
ATOM     15  C   UNL     1      48.012  14.602  63.883  1.00  0.00     0.119 A 
ATOM     16  C   UNL     1      46.883  14.790  64.684  1.00  0.00     0.093 A 
ATOM     17  C   UNL     1      47.001  14.830  66.081  1.00  0.00     0.130 A 
BRANCH  15  18
ATOM     18  O   UNL     1      47.875  14.563  62.497  1.00  0.00    -0.508 OA
ATOM     19  H   UNL     1      48.670  14.687  61.882  1.00  0.00     0.293 HD
ENDBRANCH  15  18
BRANCH  17  20
ATOM     20  O   UNL     1      45.863  15.012  66.868  1.00  0.00    -0.507 OA
ATOM     21  H   UNL     1      45.528  15.937  67.112  1.00  0.00     0.293 HD
ENDBRANCH  17  20
ENDBRANCH   1  12
BRANCH   2  22
ATOM     22  O   UNL     1      50.005  12.920  68.182  1.00  0.00    -0.502 OA
ATOM     23  H   UNL     1      50.307  13.035  67.222  1.00  0.00     0.293 HD
ENDBRANCH   2  22
BRANCH   6  24
ATOM     24  O   UNL     1      49.601  14.683  73.193  1.00  0.00    -0.507 OA
ATOM     25  H   UNL     1      49.362  14.228  74.062  1.00  0.00     0.293 HD
ENDBRANCH   6  24
BRANCH   8  26
ATOM     26  O   UNL     1      46.031  17.852  72.684  1.00  0.00    -0.508 OA
ATOM     27  H   UNL     1      45.077  17.606  72.926  1.00  0.00     0.293 HD
ENDBRANCH   8  26
TORSDOF 6
ENDMDL
MODEL 8
REMARK VINA RESULT:    -4.133      3.450      6.231
REMARK INTER + INTRA:          -5.380
REMARK INTER:                  -5.305
REMARK INTRA:                  -0.074
REMARK UNBOUND:                -0.402
REMARK SMILES O=c1c(O)c(-c2ccc(O)cc2O)oc2cc(O)cc(O)c12
REMARK SMILES IDX 5 1 3 2 2 3 1 4 22 5 20 6 19 7 17 8 16 9 15 10 14 11 6 12
REMARK SMILES IDX 8 13 7 14 9 15 11 16 12 17 10 18 13 20 4 22 21 24 18 26
REMARK H PARENT 10 19 13 21 4 23 21 25 18 27
REMARK Flexibility Score: inf
ROOT
ATOM      1  C   UNL     1      48.671  13.947  72.436  1.00  0.00     0.184 A 
ATOM      2  C   UNL     1      47.662  14.922  72.509  1.00  0.00     0.208 A 
ATOM      3  C   UNL     1      47.347  15.663  71.360  1.00  0.00     0.238 A 
ATOM      4  O   UNL     1      46.405  16.496  71.417  1.00  0.00    -0.285 OA
ATOM      5  C   UNL     1      48.059  15.435  70.157  1.00  0.00     0.111 A 
ATOM      6  C   UNL     1      47.851  16.156  68.943  1.00  0.00     0.134 A 
ATOM      7  C   UNL     1      48.524  15.759  67.780  1.00  0.00     0.093 A 
ATOM      8  C   UNL     1      49.444  14.709  67.804  1.00  0.00     0.123 A 
ATOM      9  C   UNL     1      49.698  14.038  68.997  1.00  0.00     0.094 A 
ATOM     10  C   UNL     1      49.016  14.387  70.165  1.00  0.00     0.146 A 
ATOM     11  O   UNL     1      49.279  13.713  71.279  1.00  0.00    -0.451 OA
ENDROOT
BRANCH   1  12
ATOM     12  C   UNL     1      49.070  13.145  73.616  1.00  0.00     0.063 A 
ATOM     13  C   UNL     1      49.324  10.985  74.709  1.00  0.00     0.047 A 
ATOM     14  C   UNL     1      48.975  11.741  73.589  1.00  0.00     0.020 A 
ATOM     15  C   UNL     1      49.763  11.620  75.878  1.00  0.00     0.119 A 
ATOM     16  C   UNL     1      49.848  13.014  75.919  1.00  0.00     0.093 A 
ATOM     17  C   UNL     1      49.502  13.781  74.797  1.00  0.00     0.130 A 
BRANCH  15  18
ATOM     18  O   UNL     1      50.114  10.875  77.002  1.00  0.00    -0.508 OA
ATOM     19  H   UNL     1      50.252   9.873  76.951  1.00  0.00     0.293 HD
ENDBRANCH  15  18
BRANCH  17  20
ATOM     20  O   UNL     1      49.597  15.172  74.851  1.00  0.00    -0.507 OA
ATOM     21  H   UNL     1      49.825  15.722  74.030  1.00  0.00     0.293 HD
ENDBRANCH  17  20
ENDBRANCH   1  12
BRANCH   2  22
ATOM     22  O   UNL     1      46.963  15.120  73.704  1.00  0.00    -0.502 OA
ATOM     23  H   UNL     1      46.867  14.394  74.403  1.00  0.00     0.293 HD
ENDBRANCH   2  22
BRANCH   6  24
ATOM     24  O   UNL     1      47.024  17.277  68.832  1.00  0.00    -0.507 OA
ATOM     25  H   UNL     1      47.239  18.099  68.287  1.00  0.00     0.293 HD
ENDBRANCH   6  24
BRANCH   8  26
ATOM     26  O   UNL     1      50.120  14.330  66.646  1.00  0.00    -0.508 OA
ATOM     27  H   UNL     1      51.081  14.609  66.478  1.00  0.00     0.293 HD
ENDBRANCH   8  26
TORSDOF 6
ENDMDL
MODEL 9
REMARK VINA RESULT:    -3.897      1.823      7.026
REMARK INTER + INTRA:          -5.096
REMARK INTER:                  -4.701
REMARK INTRA:                  -0.395
REMARK UNBOUND:                -0.402
REMARK SMILES O=c1c(O)c(-c2ccc(O)cc2O)oc2cc(O)cc(O)c12
REMARK SMILES IDX 5 1 3 2 2 3 1 4 22 5 20 6 19 7 17 8 16 9 15 10 14 11 6 12
REMARK SMILES IDX 8 13 7 14 9 15 11 16 12 17 10 18 13 20 4 22 21 24 18 26
REMARK H PARENT 10 19 13 21 4 23 21 25 18 27
REMARK Flexibility Score: inf
ROOT
ATOM      1  C   UNL     1      48.752  14.527  68.557  1.00  0.00     0.184 A 
ATOM      2  C   UNL     1      49.406  13.550  69.325  1.00  0.00     0.208 A 
ATOM      3  C   UNL     1      49.296  13.596  70.723  1.00  0.00     0.238 A 
ATOM      4  O   UNL     1      49.838  12.685  71.402  1.00  0.00    -0.285 OA
ATOM      5  C   UNL     1      48.551  14.631  71.337  1.00  0.00     0.111 A 
ATOM      6  C   UNL     1      48.406  14.798  72.747  1.00  0.00     0.134 A 
ATOM      7  C   UNL     1      47.540  15.783  73.240  1.00  0.00     0.093 A 
ATOM      8  C   UNL     1      46.865  16.647  72.375  1.00  0.00     0.123 A 
ATOM      9  C   UNL     1      47.046  16.530  71.000  1.00  0.00     0.094 A 
ATOM     10  C   UNL     1      47.875  15.535  70.477  1.00  0.00     0.146 A 
ATOM     11  O   UNL     1      48.010  15.450  69.158  1.00  0.00    -0.451 OA
ENDROOT
BRANCH   1  12
ATOM     12  C   UNL     1      48.845  14.551  67.078  1.00  0.00     0.063 A 
ATOM     13  C   UNL     1      48.387  13.524  64.919  1.00  0.00     0.047 A 
ATOM     14  C   UNL     1      48.277  13.518  66.312  1.00  0.00     0.020 A 
ATOM     15  C   UNL     1      49.076  14.558  64.273  1.00  0.00     0.119 A 
ATOM     16  C   UNL     1      49.655  15.582  65.027  1.00  0.00     0.093 A 
ATOM     17  C   UNL     1      49.547  15.585  66.425  1.00  0.00     0.130 A 
BRANCH  15  18
ATOM     18  O   UNL     1      49.192  14.575  62.885  1.00  0.00    -0.508 OA
ATOM     19  H   UNL     1      49.561  13.780  62.375  1.00  0.00     0.293 HD
ENDBRANCH  15  18
BRANCH  17  20
ATOM     20  O   UNL     1      50.125  16.617  67.164  1.00  0.00    -0.507 OA
ATOM     21  H   UNL     1      49.712  16.948  68.029  1.00  0.00     0.293 HD
ENDBRANCH  17  20
ENDBRANCH   1  12
BRANCH   2  22
ATOM     22  O   UNL     1      50.125  12.529  68.695  1.00  0.00    -0.502 OA
ATOM     23  H   UNL     1      49.676  11.813  68.137  1.00  0.00     0.293 HD
ENDBRANCH   2  22
BRANCH   6  24
ATOM     24  O   UNL     1      49.105  14.050  73.698  1.00  0.00    -0.507 OA
ATOM     25  H   UNL     1      48.824  13.141  74.035  1.00  0.00     0.293 HD
ENDBRANCH   6  24
BRANCH   8  26
ATOM     26  O   UNL     1      46.018  17.634  72.874  1.00  0.00    -0.508 OA
ATOM     27  H   UNL     1      45.010  17.566  72.780  1.00  0.00     0.293 HD
ENDBRANCH   8  26
TORSDOF 6
ENDMDL
