MODEL 1
REMARK VINA RESULT:    -4.668      0.000      0.000
REMARK INTER + INTRA:          -8.643
REMARK INTER:                  -7.943
REMARK INTRA:                  -0.700
REMARK UNBOUND:                -0.700
REMARK SMILES CCCCCCCCCCCCCC(=O)[O-]
REMARK SMILES IDX 8 1 9 2 10 3 11 4 12 5 13 6 14 7 15 8 16 9 7 10 6 11 5 12
REMARK SMILES IDX 4 13 3 14 2 15 1 16
REMARK H PARENT
REMARK Flexibility Score: inf
ROOT
ATOM      1  C   UNL     1      -0.342   5.140  16.867  1.00  0.00     0.000 C 
ENDROOT
BRANCH   1   2
ATOM      2  C   UNL     1      -1.005   3.761  17.019  1.00  0.00     0.000 C 
BRANCH   2   3
ATOM      3  C   UNL     1      -2.392   3.697  16.354  1.00  0.00     0.000 C 
BRANCH   3   4
ATOM      4  C   UNL     1      -2.869   5.068  15.850  1.00  0.00     0.000 C 
BRANCH   4   5
ATOM      5  C   UNL     1      -4.397   5.215  15.895  1.00  0.00     0.006 C 
BRANCH   5   6
ATOM      6  C   UNL     1      -4.826   6.131  17.046  1.00  0.00     0.053 C 
BRANCH   6   7
ATOM      7  C   UNL     1      -6.274   6.484  16.923  1.00  0.00     0.041 C 
ATOM      8  O   UNL     1      -6.861   6.376  15.814  1.00  0.00    -0.550 OA
ATOM      9  O   UNL     1      -6.965   6.982  18.021  1.00  0.00    -0.550 OA
ENDBRANCH   6   7
ENDBRANCH   5   6
ENDBRANCH   4   5
ENDBRANCH   3   4
ENDBRANCH   2   3
ENDBRANCH   1   2
BRANCH   1  10
ATOM     10  C   UNL     1      -0.129   5.845  18.214  1.00  0.00     0.000 C 
BRANCH  10  11
ATOM     11  C   UNL     1       0.778   7.072  18.056  1.00  0.00    -0.000 C 
BRANCH  11  12
ATOM     12  C   UNL     1       0.605   8.040  19.236  1.00  0.00    -0.000 C 
BRANCH  12  13
ATOM     13  C   UNL     1       0.216   7.325  20.539  1.00  0.00    -0.000 C 
BRANCH  13  14
ATOM     14  C   UNL     1       1.426   7.062  21.453  1.00  0.00    -0.000 C 
BRANCH  14  15
ATOM     15  C   UNL     1       1.016   6.766  22.903  1.00  0.00    -0.003 C 
ATOM     16  C   UNL     1      -0.498   6.646  23.079  1.00  0.00     0.004 C 
ENDBRANCH  14  15
ENDBRANCH  13  14
ENDBRANCH  12  13
ENDBRANCH  11  12
ENDBRANCH  10  11
ENDBRANCH   1  10
TORSDOF 12
ENDMDL
MODEL 2
REMARK VINA RESULT:    -4.657      4.617      8.177
REMARK INTER + INTRA:          -8.625
REMARK INTER:                  -6.902
REMARK INTRA:                  -1.723
REMARK UNBOUND:                -0.700
REMARK SMILES CCCCCCCCCCCCCC(=O)[O-]
REMARK SMILES IDX 8 1 9 2 10 3 11 4 12 5 13 6 14 7 15 8 16 9 7 10 6 11 5 12
REMARK SMILES IDX 4 13 3 14 2 15 1 16
REMARK H PARENT
REMARK Flexibility Score: inf
ROOT
ATOM      1  C   UNL     1      -6.849   7.371  16.426  1.00  0.00     0.000 C 
ENDROOT
BRANCH   1   2
ATOM      2  C   UNL     1      -5.470   6.692  16.444  1.00  0.00     0.000 C 
BRANCH   2   3
ATOM      3  C   UNL     1      -5.511   5.290  17.079  1.00  0.00     0.000 C 
BRANCH   3   4
ATOM      4  C   UNL     1      -4.594   4.290  16.357  1.00  0.00     0.000 C 
BRANCH   4   5
ATOM      5  C   UNL     1      -3.337   4.953  15.776  1.00  0.00     0.006 C 
BRANCH   5   6
ATOM      6  C   UNL     1      -2.287   3.902  15.399  1.00  0.00     0.053 C 
BRANCH   6   7
ATOM      7  C   UNL     1      -1.375   3.636  16.555  1.00  0.00     0.041 C 
ATOM      8  O   UNL     1      -1.346   2.496  17.090  1.00  0.00    -0.550 OA
ATOM      9  O   UNL     1      -0.593   4.660  17.074  1.00  0.00    -0.550 OA
ENDBRANCH   6   7
ENDBRANCH   5   6
ENDBRANCH   4   5
ENDBRANCH   3   4
ENDBRANCH   2   3
ENDBRANCH   1   2
BRANCH   1  10
ATOM     10  C   UNL     1      -7.959   6.442  15.916  1.00  0.00     0.000 C 
BRANCH  10  11
ATOM     11  C   UNL     1      -8.425   6.858  14.515  1.00  0.00    -0.000 C 
BRANCH  11  12
ATOM     12  C   UNL     1      -8.438   5.656  13.559  1.00  0.00    -0.000 C 
BRANCH  12  13
ATOM     13  C   UNL     1      -7.275   4.684  13.811  1.00  0.00    -0.000 C 
BRANCH  13  14
ATOM     14  C   UNL     1      -6.237   4.697  12.675  1.00  0.00    -0.000 C 
BRANCH  14  15
ATOM     15  C   UNL     1      -5.306   5.917  12.742  1.00  0.00    -0.003 C 
ATOM     16  C   UNL     1      -5.039   6.536  11.369  1.00  0.00     0.004 C 
ENDBRANCH  14  15
ENDBRANCH  13  14
ENDBRANCH  12  13
ENDBRANCH  11  12
ENDBRANCH  10  11
ENDBRANCH   1  10
TORSDOF 12
ENDMDL
MODEL 3
REMARK VINA RESULT:    -4.642      4.723      7.364
REMARK INTER + INTRA:          -8.600
REMARK INTER:                  -6.687
REMARK INTRA:                  -1.912
REMARK UNBOUND:                -0.700
REMARK SMILES CCCCCCCCCCCCCC(=O)[O-]
REMARK SMILES IDX 8 1 9 2 10 3 11 4 12 5 13 6 14 7 15 8 16 9 7 10 6 11 5 12
REMARK SMILES IDX 4 13 3 14 2 15 1 16
REMARK H PARENT
REMARK Flexibility Score: inf
ROOT
ATOM      1  C   UNL     1      -7.326   4.956  13.774  1.00  0.00     0.000 C 
ENDROOT
BRANCH   1   2
ATOM      2  C   UNL     1      -6.058   4.648  12.960  1.00  0.00     0.000 C 
BRANCH   2   3
ATOM      3  C   UNL     1      -4.847   4.326  13.854  1.00  0.00     0.000 C 
BRANCH   3   4
ATOM      4  C   UNL     1      -5.253   3.983  15.296  1.00  0.00     0.000 C 
BRANCH   4   5
ATOM      5  C   UNL     1      -4.043   3.817  16.227  1.00  0.00     0.006 C 
BRANCH   5   6
ATOM      6  C   UNL     1      -2.731   3.985  15.454  1.00  0.00     0.053 C 
BRANCH   6   7
ATOM      7  C   UNL     1      -1.560   3.690  16.339  1.00  0.00     0.041 C 
ATOM      8  O   UNL     1      -1.376   2.525  16.779  1.00  0.00    -0.550 OA
ATOM      9  O   UNL     1      -0.701   4.713  16.720  1.00  0.00    -0.550 OA
ENDBRANCH   6   7
ENDBRANCH   5   6
ENDBRANCH   4   5
ENDBRANCH   3   4
ENDBRANCH   2   3
ENDBRANCH   1   2
BRANCH   1  10
ATOM     10  C   UNL     1      -7.992   6.274  13.355  1.00  0.00     0.000 C 
BRANCH  10  11
ATOM     11  C   UNL     1      -8.538   7.027  14.574  1.00  0.00    -0.000 C 
BRANCH  11  12
ATOM     12  C   UNL     1      -8.108   6.344  15.881  1.00  0.00    -0.000 C 
BRANCH  12  13
ATOM     13  C   UNL     1      -7.391   7.303  16.845  1.00  0.00    -0.000 C 
BRANCH  13  14
ATOM     14  C   UNL     1      -5.863   7.295  16.657  1.00  0.00    -0.000 C 
BRANCH  14  15
ATOM     15  C   UNL     1      -5.374   8.446  15.765  1.00  0.00    -0.003 C 
ATOM     16  C   UNL     1      -4.721   7.958  14.471  1.00  0.00     0.004 C 
ENDBRANCH  14  15
ENDBRANCH  13  14
ENDBRANCH  12  13
ENDBRANCH  11  12
ENDBRANCH  10  11
ENDBRANCH   1  10
TORSDOF 12
ENDMDL
MODEL 4
REMARK VINA RESULT:    -4.589      3.365      7.540
REMARK INTER + INTRA:          -8.508
REMARK INTER:                  -7.530
REMARK INTRA:                  -0.979
REMARK UNBOUND:                -0.700
REMARK SMILES CCCCCCCCCCCCCC(=O)[O-]
REMARK SMILES IDX 8 1 9 2 10 3 11 4 12 5 13 6 14 7 15 8 16 9 7 10 6 11 5 12
REMARK SMILES IDX 4 13 3 14 2 15 1 16
REMARK H PARENT
REMARK Flexibility Score: inf
ROOT
ATOM      1  C   UNL     1      -3.282   3.489  16.259  1.00  0.00     0.000 C 
ENDROOT
BRANCH   1   2
ATOM      2  C   UNL     1      -2.199   4.520  15.905  1.00  0.00     0.000 C 
BRANCH   2   3
ATOM      3  C   UNL     1      -0.907   4.322  16.720  1.00  0.00     0.000 C 
BRANCH   3   4
ATOM      4  C   UNL     1      -0.301   5.652  17.196  1.00  0.00     0.000 C 
BRANCH   4   5
ATOM      5  C   UNL     1       0.044   5.642  18.692  1.00  0.00     0.006 C 
BRANCH   5   6
ATOM      6  C   UNL     1       0.095   7.068  19.252  1.00  0.00     0.053 C 
BRANCH   6   7
ATOM      7  C   UNL     1       0.383   7.044  20.720  1.00  0.00     0.041 C 
ATOM      8  O   UNL     1      -0.554   6.887  21.547  1.00  0.00    -0.550 OA
ATOM      9  O   UNL     1       1.678   7.246  21.179  1.00  0.00    -0.550 OA
ENDBRANCH   6   7
ENDBRANCH   5   6
ENDBRANCH   4   5
ENDBRANCH   3   4
ENDBRANCH   2   3
ENDBRANCH   1   2
BRANCH   1  10
ATOM     10  C   UNL     1      -4.660   4.130  16.479  1.00  0.00     0.000 C 
BRANCH  10  11
ATOM     11  C   UNL     1      -4.530   5.633  16.754  1.00  0.00    -0.000 C 
BRANCH  11  12
ATOM     12  C   UNL     1      -5.851   6.362  16.466  1.00  0.00    -0.000 C 
BRANCH  12  13
ATOM     13  C   UNL     1      -6.831   5.512  15.641  1.00  0.00    -0.000 C 
BRANCH  13  14
ATOM     14  C   UNL     1      -6.957   6.002  14.187  1.00  0.00    -0.000 C 
BRANCH  14  15
ATOM     15  C   UNL     1      -6.955   4.846  13.175  1.00  0.00    -0.003 C 
ATOM     16  C   UNL     1      -5.550   4.331  12.864  1.00  0.00     0.004 C 
ENDBRANCH  14  15
ENDBRANCH  13  14
ENDBRANCH  12  13
ENDBRANCH  11  12
ENDBRANCH  10  11
ENDBRANCH   1  10
TORSDOF 12
ENDMDL
MODEL 5
REMARK VINA RESULT:    -4.540      3.922      5.965
REMARK INTER + INTRA:          -8.426
REMARK INTER:                  -6.679
REMARK INTRA:                  -1.747
REMARK UNBOUND:                -0.700
REMARK SMILES CCCCCCCCCCCCCC(=O)[O-]
REMARK SMILES IDX 8 1 9 2 10 3 11 4 12 5 13 6 14 7 15 8 16 9 7 10 6 11 5 12
REMARK SMILES IDX 4 13 3 14 2 15 1 16
REMARK H PARENT
REMARK Flexibility Score: inf
ROOT
ATOM      1  C   UNL     1      -4.439   7.104  14.755  1.00  0.00     0.000 C 
ENDROOT
BRANCH   1   2
ATOM      2  C   UNL     1      -5.199   7.031  13.420  1.00  0.00     0.000 C 
BRANCH   2   3
ATOM      3  C   UNL     1      -5.459   5.583  12.967  1.00  0.00     0.000 C 
BRANCH   3   4
ATOM      4  C   UNL     1      -6.936   5.328  12.625  1.00  0.00     0.000 C 
BRANCH   4   5
ATOM      5  C   UNL     1      -7.742   4.822  13.830  1.00  0.00     0.006 C 
BRANCH   5   6
ATOM      6  C   UNL     1      -9.070   5.577  13.956  1.00  0.00     0.053 C 
BRANCH   6   7
ATOM      7  C   UNL     1      -8.924   6.741  14.885  1.00  0.00     0.041 C 
ATOM      8  O   UNL     1      -8.818   6.553  16.126  1.00  0.00    -0.550 OA
ATOM      9  O   UNL     1      -8.956   8.037  14.386  1.00  0.00    -0.550 OA
ENDBRANCH   6   7
ENDBRANCH   5   6
ENDBRANCH   4   5
ENDBRANCH   3   4
ENDBRANCH   2   3
ENDBRANCH   1   2
BRANCH   1  10
ATOM     10  C   UNL     1      -5.370   6.994  15.971  1.00  0.00     0.000 C 
BRANCH  10  11
ATOM     11  C   UNL     1      -4.857   5.942  16.963  1.00  0.00    -0.000 C 
BRANCH  11  12
ATOM     12  C   UNL     1      -5.624   4.620  16.808  1.00  0.00    -0.000 C 
BRANCH  12  13
ATOM     13  C   UNL     1      -4.873   3.596  15.942  1.00  0.00    -0.000 C 
BRANCH  13  14
ATOM     14  C   UNL     1      -3.495   3.230  16.521  1.00  0.00    -0.000 C 
BRANCH  14  15
ATOM     15  C   UNL     1      -2.339   3.655  15.603  1.00  0.00    -0.003 C 
ATOM     16  C   UNL     1      -1.094   4.089  16.379  1.00  0.00     0.004 C 
ENDBRANCH  14  15
ENDBRANCH  13  14
ENDBRANCH  12  13
ENDBRANCH  11  12
ENDBRANCH  10  11
ENDBRANCH   1  10
TORSDOF 12
ENDMDL
MODEL 6
REMARK VINA RESULT:    -4.527      5.478      8.076
REMARK INTER + INTRA:          -8.403
REMARK INTER:                  -6.384
REMARK INTRA:                  -2.019
REMARK UNBOUND:                -0.700
REMARK SMILES CCCCCCCCCCCCCC(=O)[O-]
REMARK SMILES IDX 8 1 9 2 10 3 11 4 12 5 13 6 14 7 15 8 16 9 7 10 6 11 5 12
REMARK SMILES IDX 4 13 3 14 2 15 1 16
REMARK H PARENT
REMARK Flexibility Score: inf
ROOT
ATOM      1  C   UNL     1      -8.779   7.372  15.479  1.00  0.00     0.000 C 
ENDROOT
BRANCH   1   2
ATOM      2  C   UNL     1      -7.741   6.933  16.524  1.00  0.00     0.000 C 
BRANCH   2   3
ATOM      3  C   UNL     1      -6.370   7.600  16.311  1.00  0.00     0.000 C 
BRANCH   3   4
ATOM      4  C   UNL     1      -5.210   6.592  16.356  1.00  0.00     0.000 C 
BRANCH   4   5
ATOM      5  C   UNL     1      -5.643   5.216  16.882  1.00  0.00     0.006 C 
BRANCH   5   6
ATOM      6  C   UNL     1      -5.225   4.104  15.915  1.00  0.00     0.053 C 
BRANCH   6   7
ATOM      7  C   UNL     1      -4.533   3.001  16.652  1.00  0.00     0.041 C 
ATOM      8  O   UNL     1      -5.202   2.163  17.313  1.00  0.00    -0.550 OA
ATOM      9  O   UNL     1      -3.146   2.927  16.652  1.00  0.00    -0.550 OA
ENDBRANCH   6   7
ENDBRANCH   5   6
ENDBRANCH   4   5
ENDBRANCH   3   4
ENDBRANCH   2   3
ENDBRANCH   1   2
BRANCH   1  10
ATOM     10  C   UNL     1      -8.489   6.804  14.083  1.00  0.00     0.000 C 
BRANCH  10  11
ATOM     11  C   UNL     1      -8.413   5.272  14.116  1.00  0.00    -0.000 C 
BRANCH  11  12
ATOM     12  C   UNL     1      -7.347   4.752  13.140  1.00  0.00    -0.000 C 
BRANCH  12  13
ATOM     13  C   UNL     1      -6.753   5.864  12.261  1.00  0.00    -0.000 C 
BRANCH  13  14
ATOM     14  C   UNL     1      -5.259   6.104  12.541  1.00  0.00    -0.000 C 
BRANCH  14  15
ATOM     15  C   UNL     1      -4.946   7.577  12.844  1.00  0.00    -0.003 C 
ATOM     16  C   UNL     1      -3.480   7.810  13.209  1.00  0.00     0.004 C 
ENDBRANCH  14  15
ENDBRANCH  13  14
ENDBRANCH  12  13
ENDBRANCH  11  12
ENDBRANCH  10  11
ENDBRANCH   1  10
TORSDOF 12
ENDMDL
MODEL 7
REMARK VINA RESULT:    -4.426      4.953      7.097
REMARK INTER + INTRA:          -8.231
REMARK INTER:                  -6.420
REMARK INTRA:                  -1.811
REMARK UNBOUND:                -0.700
REMARK SMILES CCCCCCCCCCCCCC(=O)[O-]
REMARK SMILES IDX 8 1 9 2 10 3 11 4 12 5 13 6 14 7 15 8 16 9 7 10 6 11 5 12
REMARK SMILES IDX 4 13 3 14 2 15 1 16
REMARK H PARENT
REMARK Flexibility Score: inf
ROOT
ATOM      1  C   UNL     1      -4.844   6.816  12.662  1.00  0.00     0.000 C 
ENDROOT
BRANCH   1   2
ATOM      2  C   UNL     1      -5.863   5.665  12.667  1.00  0.00     0.000 C 
BRANCH   2   3
ATOM      3  C   UNL     1      -5.318   4.396  13.347  1.00  0.00     0.000 C 
BRANCH   3   4
ATOM      4  C   UNL     1      -5.759   4.278  14.815  1.00  0.00     0.000 C 
BRANCH   4   5
ATOM      5  C   UNL     1      -4.586   3.996  15.764  1.00  0.00     0.006 C 
BRANCH   5   6
ATOM      6  C   UNL     1      -3.258   4.439  15.140  1.00  0.00     0.053 C 
BRANCH   6   7
ATOM      7  C   UNL     1      -2.107   3.793  15.844  1.00  0.00     0.041 C 
ATOM      8  O   UNL     1      -2.290   2.763  16.546  1.00  0.00    -0.550 OA
ATOM      9  O   UNL     1      -0.839   4.356  15.767  1.00  0.00    -0.550 OA
ENDBRANCH   6   7
ENDBRANCH   5   6
ENDBRANCH   4   5
ENDBRANCH   3   4
ENDBRANCH   2   3
ENDBRANCH   1   2
BRANCH   1  10
ATOM     10  C   UNL     1      -5.422   8.120  13.231  1.00  0.00     0.000 C 
BRANCH  10  11
ATOM     11  C   UNL     1      -4.638   8.576  14.468  1.00  0.00    -0.000 C 
BRANCH  11  12
ATOM     12  C   UNL     1      -5.571   8.764  15.673  1.00  0.00    -0.000 C 
BRANCH  12  13
ATOM     13  C   UNL     1      -5.684   7.500  16.540  1.00  0.00    -0.000 C 
BRANCH  13  14
ATOM     14  C   UNL     1      -7.143   7.071  16.773  1.00  0.00    -0.000 C 
BRANCH  14  15
ATOM     15  C   UNL     1      -8.026   7.291  15.535  1.00  0.00    -0.003 C 
ATOM     16  C   UNL     1      -9.357   6.542  15.614  1.00  0.00     0.004 C 
ENDBRANCH  14  15
ENDBRANCH  13  14
ENDBRANCH  12  13
ENDBRANCH  11  12
ENDBRANCH  10  11
ENDBRANCH   1  10
TORSDOF 12
ENDMDL
MODEL 8
REMARK VINA RESULT:    -4.419      5.464      8.031
REMARK INTER + INTRA:          -8.220
REMARK INTER:                  -6.003
REMARK INTRA:                  -2.216
REMARK UNBOUND:                -0.700
REMARK SMILES CCCCCCCCCCCCCC(=O)[O-]
REMARK SMILES IDX 8 1 9 2 10 3 11 4 12 5 13 6 14 7 15 8 16 9 7 10 6 11 5 12
REMARK SMILES IDX 4 13 3 14 2 15 1 16
REMARK H PARENT
REMARK Flexibility Score: inf
ROOT
ATOM      1  C   UNL     1      -5.600   8.557  14.466  1.00  0.00     0.000 C 
ENDROOT
BRANCH   1   2
ATOM      2  C   UNL     1      -4.456   7.595  14.105  1.00  0.00     0.000 C 
BRANCH   2   3
ATOM      3  C   UNL     1      -4.328   6.429  15.102  1.00  0.00     0.000 C 
BRANCH   3   4
ATOM      4  C   UNL     1      -5.270   6.578  16.308  1.00  0.00     0.000 C 
BRANCH   4   5
ATOM      5  C   UNL     1      -5.703   5.225  16.890  1.00  0.00     0.006 C 
BRANCH   5   6
ATOM      6  C   UNL     1      -5.351   4.080  15.935  1.00  0.00     0.053 C 
BRANCH   6   7
ATOM      7  C   UNL     1      -4.570   3.023  16.649  1.00  0.00     0.041 C 
ATOM      8  O   UNL     1      -3.313   3.001  16.571  1.00  0.00    -0.550 OA
ATOM      9  O   UNL     1      -5.232   2.029  17.360  1.00  0.00    -0.550 OA
ENDBRANCH   6   7
ENDBRANCH   5   6
ENDBRANCH   4   5
ENDBRANCH   3   4
ENDBRANCH   2   3
ENDBRANCH   1   2
BRANCH   1  10
ATOM     10  C   UNL     1      -6.605   8.738  13.320  1.00  0.00     0.000 C 
BRANCH  10  11
ATOM     11  C   UNL     1      -6.349   7.724  12.198  1.00  0.00    -0.000 C 
BRANCH  11  12
ATOM     12  C   UNL     1      -7.485   6.693  12.117  1.00  0.00    -0.000 C 
BRANCH  12  13
ATOM     13  C   UNL     1      -7.178   5.408  12.901  1.00  0.00    -0.000 C 
BRANCH  13  14
ATOM     14  C   UNL     1      -8.274   5.064  13.925  1.00  0.00    -0.000 C 
BRANCH  14  15
ATOM     15  C   UNL     1      -9.178   6.265  14.244  1.00  0.00    -0.003 C 
ATOM     16  C   UNL     1      -8.941   6.831  15.644  1.00  0.00     0.004 C 
ENDBRANCH  14  15
ENDBRANCH  13  14
ENDBRANCH  12  13
ENDBRANCH  11  12
ENDBRANCH  10  11
ENDBRANCH   1  10
TORSDOF 12
ENDMDL
