MODEL 1
REMARK VINA RESULT:    -5.706      0.000      0.000
REMARK INTER + INTRA:          -8.618
REMARK INTER:                  -7.707
REMARK INTRA:                  -0.911
REMARK UNBOUND:                -0.911
REMARK SMILES CC(=O)CCC=C(C)CCC=C(C)C
REMARK SMILES IDX 7 1 6 2 8 3 9 4 10 5 11 6 13 7 12 8 14 9 5 10 4 11 2 12 3 13
REMARK SMILES IDX 1 14
REMARK H PARENT
REMARK Flexibility Score: inf
ROOT
ATOM      1  C   UNL     1     122.002 179.135 127.474  1.00  0.00    -0.077 C 
ATOM      2  C   UNL     1     120.771 179.405 126.981  1.00  0.00    -0.028 C 
ATOM      3  C   UNL     1     123.257 179.440 126.690  1.00  0.00     0.039 C 
ENDROOT
BRANCH   1   4
ATOM      4  C   UNL     1     122.121 178.491 128.839  1.00  0.00     0.034 C 
BRANCH   4   5
ATOM      5  C   UNL     1     121.700 177.018 128.786  1.00  0.00     0.032 C 
BRANCH   5   6
ATOM      6  C   UNL     1     120.506 176.758 129.671  1.00  0.00    -0.028 C 
ATOM      7  C   UNL     1     119.013 176.403 127.701  1.00  0.00     0.039 C 
ATOM      8  C   UNL     1     119.278 176.477 129.186  1.00  0.00    -0.080 C 
ATOM      9  C   UNL     1     118.153 176.232 130.158  1.00  0.00     0.039 C 
ENDBRANCH   5   6
ENDBRANCH   4   5
ENDBRANCH   1   4
BRANCH   2  10
ATOM     10  C   UNL     1     120.511 180.086 125.661  1.00  0.00     0.035 C 
BRANCH  10  11
ATOM     11  C   UNL     1     119.963 179.089 124.636  1.00  0.00     0.079 C 
BRANCH  11  12
ATOM     12  C   UNL     1     120.955 178.868 123.525  1.00  0.00     0.130 C 
ATOM     13  O   UNL     1     121.918 178.139 123.714  1.00  0.00    -0.300 OA
ATOM     14  C   UNL     1     120.793 179.530 122.188  1.00  0.00     0.087 C 
ENDBRANCH  11  12
ENDBRANCH  10  11
ENDBRANCH   2  10
TORSDOF 6
ENDMDL
MODEL 2
REMARK VINA RESULT:    -5.569      2.539      6.095
REMARK INTER + INTRA:          -8.433
REMARK INTER:                  -7.421
REMARK INTRA:                  -1.013
REMARK UNBOUND:                -0.911
REMARK SMILES CC(=O)CCC=C(C)CCC=C(C)C
REMARK SMILES IDX 7 1 6 2 8 3 9 4 10 5 11 6 13 7 12 8 14 9 5 10 4 11 2 12 3 13
REMARK SMILES IDX 1 14
REMARK H PARENT
REMARK Flexibility Score: inf
ROOT
ATOM      1  C   UNL     1     119.910 177.760 127.490  1.00  0.00    -0.077 C 
ATOM      2  C   UNL     1     120.848 177.811 128.464  1.00  0.00    -0.028 C 
ATOM      3  C   UNL     1     119.382 176.446 126.963  1.00  0.00     0.039 C 
ENDROOT
BRANCH   1   4
ATOM      4  C   UNL     1     119.392 179.054 126.900  1.00  0.00     0.034 C 
BRANCH   4   5
ATOM      5  C   UNL     1     120.527 179.844 126.239  1.00  0.00     0.032 C 
BRANCH   5   6
ATOM      6  C   UNL     1     120.316 179.962 124.749  1.00  0.00    -0.028 C 
ATOM      7  C   UNL     1     121.881 178.071 124.290  1.00  0.00     0.039 C 
ATOM      8  C   UNL     1     120.928 179.158 123.853  1.00  0.00    -0.080 C 
ATOM      9  C   UNL     1     120.646 179.360 122.387  1.00  0.00     0.039 C 
ENDBRANCH   5   6
ENDBRANCH   4   5
ENDBRANCH   1   4
BRANCH   2  10
ATOM     10  C   UNL     1     121.413 176.604 129.170  1.00  0.00     0.035 C 
BRANCH  10  11
ATOM     11  C   UNL     1     120.852 176.496 130.590  1.00  0.00     0.079 C 
BRANCH  11  12
ATOM     12  C   UNL     1     119.654 175.585 130.622  1.00  0.00     0.130 C 
ATOM     13  O   UNL     1     119.814 174.387 130.809  1.00  0.00    -0.300 OA
ATOM     14  C   UNL     1     118.264 176.112 130.421  1.00  0.00     0.087 C 
ENDBRANCH  11  12
ENDBRANCH  10  11
ENDBRANCH   2  10
TORSDOF 6
ENDMDL
MODEL 3
REMARK VINA RESULT:    -5.486      1.695      1.949
REMARK INTER + INTRA:          -8.322
REMARK INTER:                  -7.473
REMARK INTRA:                  -0.849
REMARK UNBOUND:                -0.911
REMARK SMILES CC(=O)CCC=C(C)CCC=C(C)C
REMARK SMILES IDX 7 1 6 2 8 3 9 4 10 5 11 6 13 7 12 8 14 9 5 10 4 11 2 12 3 13
REMARK SMILES IDX 1 14
REMARK H PARENT
REMARK Flexibility Score: inf
ROOT
ATOM      1  C   UNL     1     122.493 178.980 128.629  1.00  0.00    -0.077 C 
ATOM      2  C   UNL     1     121.414 178.960 127.813  1.00  0.00    -0.028 C 
ATOM      3  C   UNL     1     123.903 178.955 128.085  1.00  0.00     0.039 C 
ENDROOT
BRANCH   1   4
ATOM      4  C   UNL     1     122.280 179.006 130.128  1.00  0.00     0.034 C 
BRANCH   4   5
ATOM      5  C   UNL     1     122.607 177.644 130.749  1.00  0.00     0.032 C 
BRANCH   5   6
ATOM      6  C   UNL     1     121.350 176.869 131.060  1.00  0.00    -0.028 C 
ATOM      7  C   UNL     1     121.671 175.382 129.080  1.00  0.00     0.039 C 
ATOM      8  C   UNL     1     120.916 175.836 130.305  1.00  0.00    -0.080 C 
ATOM      9  C   UNL     1     119.647 175.129 130.706  1.00  0.00     0.039 C 
ENDBRANCH   5   6
ENDBRANCH   4   5
ENDBRANCH   1   4
BRANCH   2  10
ATOM     10  C   UNL     1     121.483 178.982 126.307  1.00  0.00     0.035 C 
BRANCH  10  11
ATOM     11  C   UNL     1     120.456 179.961 125.732  1.00  0.00     0.079 C 
BRANCH  11  12
ATOM     12  C   UNL     1     119.855 179.420 124.462  1.00  0.00     0.130 C 
ATOM     13  O   UNL     1     118.701 179.020 124.465  1.00  0.00    -0.300 OA
ATOM     14  C   UNL     1     120.647 179.352 123.189  1.00  0.00     0.087 C 
ENDBRANCH  11  12
ENDBRANCH  10  11
ENDBRANCH   2  10
TORSDOF 6
ENDMDL
MODEL 4
REMARK VINA RESULT:    -5.372      2.311      4.156
REMARK INTER + INTRA:          -8.168
REMARK INTER:                  -7.109
REMARK INTRA:                  -1.059
REMARK UNBOUND:                -0.911
REMARK SMILES CC(=O)CCC=C(C)CCC=C(C)C
REMARK SMILES IDX 7 1 6 2 8 3 9 4 10 5 11 6 13 7 12 8 14 9 5 10 4 11 2 12 3 13
REMARK SMILES IDX 1 14
REMARK H PARENT
REMARK Flexibility Score: inf
ROOT
ATOM      1  C   UNL     1     120.695 178.773 127.395  1.00  0.00    -0.077 C 
ATOM      2  C   UNL     1     120.073 179.830 126.824  1.00  0.00    -0.028 C 
ATOM      3  C   UNL     1     119.983 177.460 127.624  1.00  0.00     0.039 C 
ENDROOT
BRANCH   1   4
ATOM      4  C   UNL     1     122.136 178.918 127.833  1.00  0.00     0.034 C 
BRANCH   4   5
ATOM      5  C   UNL     1     123.018 179.376 126.667  1.00  0.00     0.032 C 
BRANCH   5   6
ATOM      6  C   UNL     1     123.744 178.212 126.039  1.00  0.00    -0.028 C 
ATOM      7  C   UNL     1     122.081 178.062 124.183  1.00  0.00     0.039 C 
ATOM      8  C   UNL     1     123.325 177.607 124.907  1.00  0.00    -0.080 C 
ATOM      9  C   UNL     1     124.125 176.452 124.364  1.00  0.00     0.039 C 
ENDBRANCH   5   6
ENDBRANCH   4   5
ENDBRANCH   1   4
BRANCH   2  10
ATOM     10  C   UNL     1     118.659 179.807 126.299  1.00  0.00     0.035 C 
BRANCH  10  11
ATOM     11  C   UNL     1     118.651 179.672 124.774  1.00  0.00     0.079 C 
BRANCH  11  12
ATOM     12  C   UNL     1     117.685 178.602 124.338  1.00  0.00     0.130 C 
ATOM     13  O   UNL     1     117.477 177.646 125.070  1.00  0.00    -0.300 OA
ATOM     14  C   UNL     1     116.976 178.678 123.018  1.00  0.00     0.087 C 
ENDBRANCH  11  12
ENDBRANCH  10  11
ENDBRANCH   2  10
TORSDOF 6
ENDMDL
MODEL 5
REMARK VINA RESULT:    -5.368      1.813      1.948
REMARK INTER + INTRA:          -8.163
REMARK INTER:                  -7.316
REMARK INTRA:                  -0.847
REMARK UNBOUND:                -0.911
REMARK SMILES CC(=O)CCC=C(C)CCC=C(C)C
REMARK SMILES IDX 7 1 6 2 8 3 9 4 10 5 11 6 13 7 12 8 14 9 5 10 4 11 2 12 3 13
REMARK SMILES IDX 1 14
REMARK H PARENT
REMARK Flexibility Score: inf
ROOT
ATOM      1  C   UNL     1     121.703 178.995 127.708  1.00  0.00    -0.077 C 
ATOM      2  C   UNL     1     120.462 179.354 127.306  1.00  0.00    -0.028 C 
ATOM      3  C   UNL     1     122.852 178.874 126.734  1.00  0.00     0.039 C 
ENDROOT
BRANCH   1   4
ATOM      4  C   UNL     1     121.941 178.687 129.171  1.00  0.00     0.034 C 
BRANCH   4   5
ATOM      5  C   UNL     1     121.770 177.189 129.448  1.00  0.00     0.032 C 
BRANCH   5   6
ATOM      6  C   UNL     1     120.433 176.898 130.084  1.00  0.00    -0.028 C 
ATOM      7  C   UNL     1     119.534 175.934 127.963  1.00  0.00     0.039 C 
ATOM      8  C   UNL     1     119.408 176.327 129.416  1.00  0.00    -0.080 C 
ATOM      9  C   UNL     1     118.115 176.080 130.147  1.00  0.00     0.039 C 
ENDBRANCH   5   6
ENDBRANCH   4   5
ENDBRANCH   1   4
BRANCH   2  10
ATOM     10  C   UNL     1     120.100 179.733 125.892  1.00  0.00     0.035 C 
BRANCH  10  11
ATOM     11  C   UNL     1     118.599 180.014 125.776  1.00  0.00     0.079 C 
BRANCH  11  12
ATOM     12  C   UNL     1     117.903 178.899 125.040  1.00  0.00     0.130 C 
ATOM     13  O   UNL     1     117.858 177.785 125.539  1.00  0.00    -0.300 OA
ATOM     14  C   UNL     1     117.270 179.123 123.698  1.00  0.00     0.087 C 
ENDBRANCH  11  12
ENDBRANCH  10  11
ENDBRANCH   2  10
TORSDOF 6
ENDMDL
MODEL 6
REMARK VINA RESULT:    -5.357      2.902      5.591
REMARK INTER + INTRA:          -8.147
REMARK INTER:                  -7.326
REMARK INTRA:                  -0.822
REMARK UNBOUND:                -0.911
REMARK SMILES CC(=O)CCC=C(C)CCC=C(C)C
REMARK SMILES IDX 7 1 6 2 8 3 9 4 10 5 11 6 13 7 12 8 14 9 5 10 4 11 2 12 3 13
REMARK SMILES IDX 1 14
REMARK H PARENT
REMARK Flexibility Score: inf
ROOT
ATOM      1  C   UNL     1     121.699 178.967 126.354  1.00  0.00    -0.077 C 
ATOM      2  C   UNL     1     123.020 179.075 126.629  1.00  0.00    -0.028 C 
ATOM      3  C   UNL     1     120.645 179.197 127.412  1.00  0.00     0.039 C 
ENDROOT
BRANCH   1   4
ATOM      4  C   UNL     1     121.269 178.587 124.954  1.00  0.00     0.034 C 
BRANCH   4   5
ATOM      5  C   UNL     1     120.410 179.691 124.328  1.00  0.00     0.032 C 
BRANCH   5   6
ATOM      6  C   UNL     1     119.329 179.112 123.448  1.00  0.00    -0.028 C 
ATOM      7  C   UNL     1     117.572 179.553 125.168  1.00  0.00     0.039 C 
ATOM      8  C   UNL     1     118.033 179.045 123.822  1.00  0.00    -0.080 C 
ATOM      9  C   UNL     1     117.033 178.448 122.867  1.00  0.00     0.039 C 
ENDBRANCH   5   6
ENDBRANCH   4   5
ENDBRANCH   1   4
BRANCH   2  10
ATOM     10  C   UNL     1     123.582 179.492 127.964  1.00  0.00     0.035 C 
BRANCH  10  11
ATOM     11  C   UNL     1     124.126 178.279 128.724  1.00  0.00     0.079 C 
BRANCH  11  12
ATOM     12  C   UNL     1     123.263 177.968 129.919  1.00  0.00     0.130 C 
ATOM     13  O   UNL     1     123.099 176.805 130.256  1.00  0.00    -0.300 OA
ATOM     14  C   UNL     1     122.590 179.056 130.702  1.00  0.00     0.087 C 
ENDBRANCH  11  12
ENDBRANCH  10  11
ENDBRANCH   2  10
TORSDOF 6
ENDMDL
MODEL 7
REMARK VINA RESULT:    -5.356      2.296      3.690
REMARK INTER + INTRA:          -8.146
REMARK INTER:                  -7.165
REMARK INTRA:                  -0.981
REMARK UNBOUND:                -0.911
REMARK SMILES CC(=O)CCC=C(C)CCC=C(C)C
REMARK SMILES IDX 7 1 6 2 8 3 9 4 10 5 11 6 13 7 12 8 14 9 5 10 4 11 2 12 3 13
REMARK SMILES IDX 1 14
REMARK H PARENT
REMARK Flexibility Score: inf
ROOT
ATOM      1  C   UNL     1     122.207 178.687 125.349  1.00  0.00    -0.077 C 
ATOM      2  C   UNL     1     121.376 179.589 125.921  1.00  0.00    -0.028 C 
ATOM      3  C   UNL     1     121.903 178.065 124.006  1.00  0.00     0.039 C 
ENDROOT
BRANCH   1   4
ATOM      4  C   UNL     1     123.465 178.278 126.084  1.00  0.00     0.034 C 
BRANCH   4   5
ATOM      5  C   UNL     1     123.743 179.224 127.257  1.00  0.00     0.032 C 
BRANCH   5   6
ATOM      6  C   UNL     1     124.117 178.457 128.503  1.00  0.00    -0.028 C 
ATOM      7  C   UNL     1     121.875 178.858 129.527  1.00  0.00     0.039 C 
ATOM      8  C   UNL     1     123.272 178.285 129.542  1.00  0.00    -0.080 C 
ATOM      9  C   UNL     1     123.746 177.500 130.738  1.00  0.00     0.039 C 
ENDBRANCH   5   6
ENDBRANCH   4   5
ENDBRANCH   1   4
BRANCH   2  10
ATOM     10  C   UNL     1     120.119 180.119 125.278  1.00  0.00     0.035 C 
BRANCH  10  11
ATOM     11  C   UNL     1     118.894 179.794 126.137  1.00  0.00     0.079 C 
BRANCH  11  12
ATOM     12  C   UNL     1     118.301 178.468 125.739  1.00  0.00     0.130 C 
ATOM     13  O   UNL     1     117.457 178.428 124.855  1.00  0.00    -0.300 OA
ATOM     14  C   UNL     1     118.716 177.192 126.409  1.00  0.00     0.087 C 
ENDBRANCH  11  12
ENDBRANCH  10  11
ENDBRANCH   2  10
TORSDOF 6
ENDMDL
MODEL 8
REMARK VINA RESULT:    -5.354      1.590      3.510
REMARK INTER + INTRA:          -8.143
REMARK INTER:                  -7.039
REMARK INTRA:                  -1.104
REMARK UNBOUND:                -0.911
REMARK SMILES CC(=O)CCC=C(C)CCC=C(C)C
REMARK SMILES IDX 7 1 6 2 8 3 9 4 10 5 11 6 13 7 12 8 14 9 5 10 4 11 2 12 3 13
REMARK SMILES IDX 1 14
REMARK H PARENT
REMARK Flexibility Score: inf
ROOT
ATOM      1  C   UNL     1     119.424 177.991 127.299  1.00  0.00    -0.077 C 
ATOM      2  C   UNL     1     119.630 179.312 127.094  1.00  0.00    -0.028 C 
ATOM      3  C   UNL     1     118.610 177.155 126.339  1.00  0.00     0.039 C 
ENDROOT
BRANCH   1   4
ATOM      4  C   UNL     1     120.009 177.339 128.534  1.00  0.00     0.034 C 
BRANCH   4   5
ATOM      5  C   UNL     1     121.526 177.547 128.594  1.00  0.00     0.032 C 
BRANCH   5   6
ATOM      6  C   UNL     1     122.186 177.138 127.299  1.00  0.00    -0.028 C 
ATOM      7  C   UNL     1     123.299 179.360 127.062  1.00  0.00     0.039 C 
ATOM      8  C   UNL     1     122.996 177.957 126.595  1.00  0.00    -0.080 C 
ATOM      9  C   UNL     1     123.605 177.447 125.314  1.00  0.00     0.039 C 
ENDBRANCH   5   6
ENDBRANCH   4   5
ENDBRANCH   1   4
BRANCH   2  10
ATOM     10  C   UNL     1     119.147 180.074 125.886  1.00  0.00     0.035 C 
BRANCH  10  11
ATOM     11  C   UNL     1     120.234 180.125 124.808  1.00  0.00     0.079 C 
BRANCH  11  12
ATOM     12  C   UNL     1     119.774 179.432 123.553  1.00  0.00     0.130 C 
ATOM     13  O   UNL     1     118.635 178.993 123.492  1.00  0.00    -0.300 OA
ATOM     14  C   UNL     1     120.686 179.258 122.375  1.00  0.00     0.087 C 
ENDBRANCH  11  12
ENDBRANCH  10  11
ENDBRANCH   2  10
TORSDOF 6
ENDMDL
MODEL 9
REMARK VINA RESULT:    -5.299      2.106      2.496
REMARK INTER + INTRA:          -8.069
REMARK INTER:                  -6.813
REMARK INTRA:                  -1.256
REMARK UNBOUND:                -0.911
REMARK SMILES CC(=O)CCC=C(C)CCC=C(C)C
REMARK SMILES IDX 7 1 6 2 8 3 9 4 10 5 11 6 13 7 12 8 14 9 5 10 4 11 2 12 3 13
REMARK SMILES IDX 1 14
REMARK H PARENT
REMARK Flexibility Score: inf
ROOT
ATOM      1  C   UNL     1     122.569 178.892 129.011  1.00  0.00    -0.077 C 
ATOM      2  C   UNL     1     121.490 179.000 128.201  1.00  0.00    -0.028 C 
ATOM      3  C   UNL     1     123.972 178.789 128.458  1.00  0.00     0.039 C 
ENDROOT
BRANCH   1   4
ATOM      4  C   UNL     1     122.361 178.852 130.509  1.00  0.00     0.034 C 
BRANCH   4   5
ATOM      5  C   UNL     1     122.479 177.418 131.038  1.00  0.00     0.032 C 
BRANCH   5   6
ATOM      6  C   UNL     1     121.126 176.754 131.124  1.00  0.00    -0.028 C 
ATOM      7  C   UNL     1     121.578 175.372 129.094  1.00  0.00     0.039 C 
ATOM      8  C   UNL     1     120.707 175.821 130.243  1.00  0.00    -0.080 C 
ATOM      9  C   UNL     1     119.337 175.219 130.422  1.00  0.00     0.039 C 
ENDBRANCH   5   6
ENDBRANCH   4   5
ENDBRANCH   1   4
BRANCH   2  10
ATOM     10  C   UNL     1     121.558 179.099 126.698  1.00  0.00     0.035 C 
BRANCH  10  11
ATOM     11  C   UNL     1     121.225 177.752 126.051  1.00  0.00     0.079 C 
BRANCH  11  12
ATOM     12  C   UNL     1     122.466 177.105 125.496  1.00  0.00     0.130 C 
ATOM     13  O   UNL     1     123.363 177.806 125.053  1.00  0.00    -0.300 OA
ATOM     14  C   UNL     1     122.624 175.613 125.467  1.00  0.00     0.087 C 
ENDBRANCH  11  12
ENDBRANCH  10  11
ENDBRANCH   2  10
TORSDOF 6
ENDMDL
