MODEL 1
REMARK VINA RESULT:    -3.897      0.000      0.000
REMARK INTER + INTRA:          -7.549
REMARK INTER:                  -5.947
REMARK INTRA:                  -1.601
REMARK UNBOUND:                -1.601
REMARK SMILES CCCCCCCCCC=CC(=O)[O-]
REMARK SMILES IDX 7 1 8 2 9 3 10 4 11 5 12 6 13 7 14 8 6 9 5 10 4 11 3 12 2 13
REMARK SMILES IDX 1 14
REMARK H PARENT
REMARK Flexibility Score: inf
ROOT
ATOM      1  C   UNL     1      97.806   2.890 -29.288  1.00  0.00     0.000 C 
ENDROOT
BRANCH   1   2
ATOM      2  C   UNL     1      98.588   1.608 -29.623  1.00  0.00     0.004 C 
BRANCH   2   3
ATOM      3  C   UNL     1     100.017   1.639 -29.057  1.00  0.00     0.027 C 
BRANCH   3   4
ATOM      4  C   UNL     1     100.084   1.131 -27.644  1.00  0.00    -0.025 C 
ATOM      5  C   UNL     1      99.223   0.215 -27.188  1.00  0.00     0.020 C 
BRANCH   5   6
ATOM      6  C   UNL     1      99.274  -0.286 -25.807  1.00  0.00     0.064 C 
ATOM      7  O   UNL     1      98.539  -1.248 -25.467  1.00  0.00    -0.545 OA
ATOM      8  O   UNL     1     100.125   0.288 -24.869  1.00  0.00    -0.545 OA
ENDBRANCH   5   6
ENDBRANCH   3   4
ENDBRANCH   2   3
ENDBRANCH   1   2
BRANCH   1   9
ATOM      9  C   UNL     1      98.626   4.165 -29.540  1.00  0.00     0.000 C 
BRANCH   9  10
ATOM     10  C   UNL     1      98.726   5.058 -28.295  1.00  0.00     0.000 C 
BRANCH  10  11
ATOM     11  C   UNL     1      97.860   4.505 -27.153  1.00  0.00    -0.000 C 
BRANCH  11  12
ATOM     12  C   UNL     1      98.689   4.101 -25.923  1.00  0.00    -0.000 C 
BRANCH  12  13
ATOM     13  C   UNL     1      97.960   3.090 -25.024  1.00  0.00    -0.003 C 
ATOM     14  C   UNL     1      96.680   2.590 -25.688  1.00  0.00     0.004 C 
ENDBRANCH  12  13
ENDBRANCH  11  12
ENDBRANCH  10  11
ENDBRANCH   9  10
ENDBRANCH   1   9
TORSDOF 9
ENDMDL
MODEL 2
REMARK VINA RESULT:    -3.779      1.168      1.890
REMARK INTER + INTRA:          -7.369
REMARK INTER:                  -6.183
REMARK INTRA:                  -1.186
REMARK UNBOUND:                -1.601
REMARK SMILES CCCCCCCCCC=CC(=O)[O-]
REMARK SMILES IDX 7 1 8 2 9 3 10 4 11 5 12 6 13 7 14 8 6 9 5 10 4 11 3 12 2 13
REMARK SMILES IDX 1 14
REMARK H PARENT
REMARK Flexibility Score: inf
ROOT
ATOM      1  C   UNL     1      99.241   1.778 -29.687  1.00  0.00     0.000 C 
ENDROOT
BRANCH   1   2
ATOM      2  C   UNL     1      99.172   0.767 -28.530  1.00  0.00     0.004 C 
BRANCH   2   3
ATOM      3  C   UNL     1     100.120   1.139 -27.379  1.00  0.00     0.027 C 
BRANCH   3   4
ATOM      4  C   UNL     1      99.798   0.398 -26.111  1.00  0.00    -0.025 C 
ATOM      5  C   UNL     1      98.949  -0.636 -26.101  1.00  0.00     0.020 C 
BRANCH   5   6
ATOM      6  C   UNL     1      98.622  -1.366 -24.867  1.00  0.00     0.064 C 
ATOM      7  O   UNL     1      97.419  -1.605 -24.586  1.00  0.00    -0.545 OA
ATOM      8  O   UNL     1      99.623  -1.799 -24.005  1.00  0.00    -0.545 OA
ENDBRANCH   5   6
ENDBRANCH   3   4
ENDBRANCH   2   3
ENDBRANCH   1   2
BRANCH   1   9
ATOM      9  C   UNL     1      97.915   2.526 -29.899  1.00  0.00     0.000 C 
BRANCH   9  10
ATOM     10  C   UNL     1      98.005   4.009 -29.510  1.00  0.00     0.000 C 
BRANCH  10  11
ATOM     11  C   UNL     1      99.427   4.370 -29.051  1.00  0.00    -0.000 C 
BRANCH  11  12
ATOM     12  C   UNL     1      99.478   4.817 -27.581  1.00  0.00    -0.000 C 
BRANCH  12  13
ATOM     13  C   UNL     1      98.180   4.503 -26.821  1.00  0.00    -0.003 C 
ATOM     14  C   UNL     1      98.474   3.774 -25.514  1.00  0.00     0.004 C 
ENDBRANCH  12  13
ENDBRANCH  11  12
ENDBRANCH  10  11
ENDBRANCH   9  10
ENDBRANCH   1   9
TORSDOF 9
ENDMDL
MODEL 3
REMARK VINA RESULT:    -3.731      2.732      4.370
REMARK INTER + INTRA:          -7.296
REMARK INTER:                  -6.130
REMARK INTRA:                  -1.166
REMARK UNBOUND:                -1.601
REMARK SMILES CCCCCCCCCC=CC(=O)[O-]
REMARK SMILES IDX 7 1 8 2 9 3 10 4 11 5 12 6 13 7 14 8 6 9 5 10 4 11 3 12 2 13
REMARK SMILES IDX 1 14
REMARK H PARENT
REMARK Flexibility Score: inf
ROOT
ATOM      1  C   UNL     1      99.345   0.075 -25.160  1.00  0.00     0.000 C 
ENDROOT
BRANCH   1   2
ATOM      2  C   UNL     1      99.065   0.138 -26.672  1.00  0.00     0.004 C 
BRANCH   2   3
ATOM      3  C   UNL     1     100.093   1.006 -27.414  1.00  0.00     0.027 C 
BRANCH   3   4
ATOM      4  C   UNL     1      99.858   1.025 -28.899  1.00  0.00    -0.025 C 
ATOM      5  C   UNL     1      98.681   1.391 -29.417  1.00  0.00     0.020 C 
BRANCH   5   6
ATOM      6  C   UNL     1      98.438   1.409 -30.867  1.00  0.00     0.064 C 
ATOM      7  O   UNL     1      99.400   1.247 -31.661  1.00  0.00    -0.545 OA
ATOM      8  O   UNL     1      97.158   1.600 -31.375  1.00  0.00    -0.545 OA
ENDBRANCH   5   6
ENDBRANCH   3   4
ENDBRANCH   2   3
ENDBRANCH   1   2
BRANCH   1   9
ATOM      9  C   UNL     1      99.372   1.464 -24.506  1.00  0.00     0.000 C 
BRANCH   9  10
ATOM     10  C   UNL     1      98.083   2.261 -24.757  1.00  0.00     0.000 C 
BRANCH  10  11
ATOM     11  C   UNL     1      98.404   3.704 -25.176  1.00  0.00    -0.000 C 
BRANCH  11  12
ATOM     12  C   UNL     1      98.069   3.981 -26.650  1.00  0.00    -0.000 C 
BRANCH  12  13
ATOM     13  C   UNL     1      99.214   4.684 -27.395  1.00  0.00    -0.003 C 
ATOM     14  C   UNL     1      98.699   5.404 -28.638  1.00  0.00     0.004 C 
ENDBRANCH  12  13
ENDBRANCH  11  12
ENDBRANCH  10  11
ENDBRANCH   9  10
ENDBRANCH   1   9
TORSDOF 9
ENDMDL
MODEL 4
REMARK VINA RESULT:    -3.706      2.697      4.546
REMARK INTER + INTRA:          -7.257
REMARK INTER:                  -5.774
REMARK INTRA:                  -1.484
REMARK UNBOUND:                -1.601
REMARK SMILES CCCCCCCCCC=CC(=O)[O-]
REMARK SMILES IDX 7 1 8 2 9 3 10 4 11 5 12 6 13 7 14 8 6 9 5 10 4 11 3 12 2 13
REMARK SMILES IDX 1 14
REMARK H PARENT
REMARK Flexibility Score: inf
ROOT
ATOM      1  C   UNL     1      99.188   0.499 -26.662  1.00  0.00     0.000 C 
ENDROOT
BRANCH   1   2
ATOM      2  C   UNL     1      98.621   1.198 -25.415  1.00  0.00     0.004 C 
BRANCH   2   3
ATOM      3  C   UNL     1      98.706   2.729 -25.521  1.00  0.00     0.027 C 
BRANCH   3   4
ATOM      4  C   UNL     1      97.355   3.367 -25.683  1.00  0.00    -0.025 C 
ATOM      5  C   UNL     1      96.390   2.789 -26.405  1.00  0.00     0.020 C 
BRANCH   5   6
ATOM      6  C   UNL     1      95.066   3.405 -26.575  1.00  0.00     0.064 C 
ATOM      7  O   UNL     1      94.468   3.301 -27.678  1.00  0.00    -0.545 OA
ATOM      8  O   UNL     1      94.460   4.100 -25.534  1.00  0.00    -0.545 OA
ENDBRANCH   5   6
ENDBRANCH   3   4
ENDBRANCH   2   3
ENDBRANCH   1   2
BRANCH   1   9
ATOM      9  C   UNL     1      99.931   1.468 -27.595  1.00  0.00     0.000 C 
BRANCH   9  10
ATOM     10  C   UNL     1      99.227   1.640 -28.949  1.00  0.00     0.000 C 
BRANCH  10  11
ATOM     11  C   UNL     1      99.480   3.043 -29.523  1.00  0.00    -0.000 C 
BRANCH  11  12
ATOM     12  C   UNL     1      98.260   3.968 -29.385  1.00  0.00    -0.000 C 
BRANCH  12  13
ATOM     13  C   UNL     1      98.571   5.240 -28.582  1.00  0.00    -0.003 C 
ATOM     14  C   UNL     1      99.998   5.213 -28.044  1.00  0.00     0.004 C 
ENDBRANCH  12  13
ENDBRANCH  11  12
ENDBRANCH  10  11
ENDBRANCH   9  10
ENDBRANCH   1   9
TORSDOF 9
ENDMDL
MODEL 5
REMARK VINA RESULT:    -3.667      2.468      4.132
REMARK INTER + INTRA:          -7.198
REMARK INTER:                  -6.105
REMARK INTRA:                  -1.093
REMARK UNBOUND:                -1.601
REMARK SMILES CCCCCCCCCC=CC(=O)[O-]
REMARK SMILES IDX 7 1 8 2 9 3 10 4 11 5 12 6 13 7 14 8 6 9 5 10 4 11 3 12 2 13
REMARK SMILES IDX 1 14
REMARK H PARENT
REMARK Flexibility Score: inf
ROOT
ATOM      1  C   UNL     1      97.965   4.235 -27.306  1.00  0.00     0.000 C 
ENDROOT
BRANCH   1   2
ATOM      2  C   UNL     1      98.794   5.156 -28.218  1.00  0.00     0.004 C 
BRANCH   2   3
ATOM      3  C   UNL     1      99.843   4.375 -29.026  1.00  0.00     0.027 C 
BRANCH   3   4
ATOM      4  C   UNL     1      99.230   3.276 -29.848  1.00  0.00    -0.025 C 
ATOM      5  C   UNL     1      99.809   2.075 -29.955  1.00  0.00     0.020 C 
BRANCH   5   6
ATOM      6  C   UNL     1      99.222   0.994 -30.759  1.00  0.00     0.064 C 
ATOM      7  O   UNL     1      99.199   1.094 -32.013  1.00  0.00    -0.545 OA
ATOM      8  O   UNL     1      98.692  -0.141 -30.155  1.00  0.00    -0.545 OA
ENDBRANCH   5   6
ENDBRANCH   3   4
ENDBRANCH   2   3
ENDBRANCH   1   2
BRANCH   1   9
ATOM      9  C   UNL     1      98.615   4.027 -25.929  1.00  0.00     0.000 C 
BRANCH   9  10
ATOM     10  C   UNL     1      98.649   2.549 -25.511  1.00  0.00     0.000 C 
BRANCH  10  11
ATOM     11  C   UNL     1      98.240   1.639 -26.679  1.00  0.00    -0.000 C 
BRANCH  11  12
ATOM     12  C   UNL     1      99.085   0.357 -26.755  1.00  0.00    -0.000 C 
BRANCH  12  13
ATOM     13  C   UNL     1      99.489  -0.168 -25.369  1.00  0.00    -0.003 C 
ATOM     14  C   UNL     1      98.710  -1.431 -25.014  1.00  0.00     0.004 C 
ENDBRANCH  12  13
ENDBRANCH  11  12
ENDBRANCH  10  11
ENDBRANCH   9  10
ENDBRANCH   1   9
TORSDOF 9
ENDMDL
MODEL 6
REMARK VINA RESULT:    -3.636      3.281      4.948
REMARK INTER + INTRA:          -7.150
REMARK INTER:                  -5.822
REMARK INTRA:                  -1.329
REMARK UNBOUND:                -1.601
REMARK SMILES CCCCCCCCCC=CC(=O)[O-]
REMARK SMILES IDX 7 1 8 2 9 3 10 4 11 5 12 6 13 7 14 8 6 9 5 10 4 11 3 12 2 13
REMARK SMILES IDX 1 14
REMARK H PARENT
REMARK Flexibility Score: inf
ROOT
ATOM      1  C   UNL     1      98.637   4.360 -26.217  1.00  0.00     0.000 C 
ENDROOT
BRANCH   1   2
ATOM      2  C   UNL     1      98.612   2.854 -25.904  1.00  0.00     0.004 C 
BRANCH   2   3
ATOM      3  C   UNL     1      97.180   2.295 -25.867  1.00  0.00     0.027 C 
BRANCH   3   4
ATOM      4  C   UNL     1      96.166   3.292 -26.355  1.00  0.00    -0.025 C 
ATOM      5  C   UNL     1      94.859   3.006 -26.378  1.00  0.00     0.020 C 
BRANCH   5   6
ATOM      6  C   UNL     1      93.858   3.970 -26.858  1.00  0.00     0.064 C 
ATOM      7  O   UNL     1      93.223   3.731 -27.918  1.00  0.00    -0.545 OA
ATOM      8  O   UNL     1      93.599   5.142 -26.157  1.00  0.00    -0.545 OA
ENDBRANCH   5   6
ENDBRANCH   3   4
ENDBRANCH   2   3
ENDBRANCH   1   2
BRANCH   1   9
ATOM      9  C   UNL     1      99.425   4.683 -27.497  1.00  0.00     0.000 C 
BRANCH   9  10
ATOM     10  C   UNL     1      98.532   5.244 -28.613  1.00  0.00     0.000 C 
BRANCH  10  11
ATOM     11  C   UNL     1      98.007   4.115 -29.515  1.00  0.00    -0.000 C 
BRANCH  11  12
ATOM     12  C   UNL     1      99.066   3.035 -29.787  1.00  0.00    -0.000 C 
BRANCH  12  13
ATOM     13  C   UNL     1      98.454   1.634 -29.945  1.00  0.00    -0.003 C 
ATOM     14  C   UNL     1      98.888   0.715 -28.807  1.00  0.00     0.004 C 
ENDBRANCH  12  13
ENDBRANCH  11  12
ENDBRANCH  10  11
ENDBRANCH   9  10
ENDBRANCH   1   9
TORSDOF 9
ENDMDL
MODEL 7
REMARK VINA RESULT:    -3.560      1.214      3.220
REMARK INTER + INTRA:          -7.034
REMARK INTER:                  -5.774
REMARK INTRA:                  -1.260
REMARK UNBOUND:                -1.601
REMARK SMILES CCCCCCCCCC=CC(=O)[O-]
REMARK SMILES IDX 7 1 8 2 9 3 10 4 11 5 12 6 13 7 14 8 6 9 5 10 4 11 3 12 2 13
REMARK SMILES IDX 1 14
REMARK H PARENT
REMARK Flexibility Score: inf
ROOT
ATOM      1  C   UNL     1      97.691   4.122 -27.502  1.00  0.00     0.000 C 
ENDROOT
BRANCH   1   2
ATOM      2  C   UNL     1      97.209   3.488 -26.186  1.00  0.00     0.004 C 
BRANCH   2   3
ATOM      3  C   UNL     1      98.307   3.485 -25.111  1.00  0.00     0.027 C 
BRANCH   3   4
ATOM      4  C   UNL     1      98.859   2.109 -24.861  1.00  0.00    -0.025 C 
ATOM      5  C   UNL     1      98.056   1.060 -24.655  1.00  0.00     0.020 C 
BRANCH   5   6
ATOM      6  C   UNL     1      98.583  -0.290 -24.405  1.00  0.00     0.064 C 
ATOM      7  O   UNL     1      98.107  -1.270 -25.034  1.00  0.00    -0.545 OA
ATOM      8  O   UNL     1      99.604  -0.500 -23.485  1.00  0.00    -0.545 OA
ENDBRANCH   5   6
ENDBRANCH   3   4
ENDBRANCH   2   3
ENDBRANCH   1   2
BRANCH   1   9
ATOM      9  C   UNL     1      99.023   4.872 -27.345  1.00  0.00     0.000 C 
BRANCH   9  10
ATOM     10  C   UNL     1     100.124   4.318 -28.262  1.00  0.00     0.000 C 
BRANCH  10  11
ATOM     11  C   UNL     1      99.529   3.796 -29.579  1.00  0.00    -0.000 C 
BRANCH  11  12
ATOM     12  C   UNL     1      99.894   2.328 -29.853  1.00  0.00    -0.000 C 
BRANCH  12  13
ATOM     13  C   UNL     1      98.740   1.364 -29.544  1.00  0.00    -0.003 C 
ATOM     14  C   UNL     1      98.989   0.610 -28.241  1.00  0.00     0.004 C 
ENDBRANCH  12  13
ENDBRANCH  11  12
ENDBRANCH  10  11
ENDBRANCH   9  10
ENDBRANCH   1   9
TORSDOF 9
ENDMDL
MODEL 8
REMARK VINA RESULT:    -3.455      1.974      3.749
REMARK INTER + INTRA:          -6.875
REMARK INTER:                  -6.090
REMARK INTRA:                  -0.785
REMARK UNBOUND:                -1.601
REMARK SMILES CCCCCCCCCC=CC(=O)[O-]
REMARK SMILES IDX 7 1 8 2 9 3 10 4 11 5 12 6 13 7 14 8 6 9 5 10 4 11 3 12 2 13
REMARK SMILES IDX 1 14
REMARK H PARENT
REMARK Flexibility Score: inf
ROOT
ATOM      1  C   UNL     1      98.567   1.487 -26.494  1.00  0.00     0.000 C 
ENDROOT
BRANCH   1   2
ATOM      2  C   UNL     1      99.861   0.663 -26.388  1.00  0.00     0.004 C 
BRANCH   2   3
ATOM      3  C   UNL     1      99.788  -0.386 -25.267  1.00  0.00     0.027 C 
BRANCH   3   4
ATOM      4  C   UNL     1      98.470  -1.110 -25.248  1.00  0.00    -0.025 C 
ATOM      5  C   UNL     1      97.942  -1.571 -24.109  1.00  0.00     0.020 C 
BRANCH   5   6
ATOM      6  C   UNL     1      96.657  -2.285 -24.077  1.00  0.00     0.064 C 
ATOM      7  O   UNL     1      96.640  -3.540 -24.160  1.00  0.00    -0.545 OA
ATOM      8  O   UNL     1      95.457  -1.593 -23.954  1.00  0.00    -0.545 OA
ENDBRANCH   5   6
ENDBRANCH   3   4
ENDBRANCH   2   3
ENDBRANCH   1   2
BRANCH   1   9
ATOM      9  C   UNL     1      98.661   2.834 -25.760  1.00  0.00     0.000 C 
BRANCH   9  10
ATOM     10  C   UNL     1      98.040   3.988 -26.562  1.00  0.00     0.000 C 
BRANCH  10  11
ATOM     11  C   UNL     1      99.132   4.860 -27.202  1.00  0.00    -0.000 C 
BRANCH  11  12
ATOM     12  C   UNL     1      98.840   5.189 -28.674  1.00  0.00    -0.000 C 
BRANCH  12  13
ATOM     13  C   UNL     1      98.262   3.993 -29.444  1.00  0.00    -0.003 C 
ATOM     14  C   UNL     1      99.368   3.038 -29.884  1.00  0.00     0.004 C 
ENDBRANCH  12  13
ENDBRANCH  11  12
ENDBRANCH  10  11
ENDBRANCH   9  10
ENDBRANCH   1   9
TORSDOF 9
ENDMDL
MODEL 9
REMARK VINA RESULT:    -3.414      2.833      4.648
REMARK INTER + INTRA:          -6.811
REMARK INTER:                  -5.776
REMARK INTRA:                  -1.035
REMARK UNBOUND:                -1.601
REMARK SMILES CCCCCCCCCC=CC(=O)[O-]
REMARK SMILES IDX 7 1 8 2 9 3 10 4 11 5 12 6 13 7 14 8 6 9 5 10 4 11 3 12 2 13
REMARK SMILES IDX 1 14
REMARK H PARENT
REMARK Flexibility Score: inf
ROOT
ATOM      1  C   UNL     1      99.589   4.731 -27.623  1.00  0.00     0.000 C 
ENDROOT
BRANCH   1   2
ATOM      2  C   UNL     1      98.134   4.511 -27.174  1.00  0.00     0.004 C 
BRANCH   2   3
ATOM      3  C   UNL     1      98.037   3.554 -25.975  1.00  0.00     0.027 C 
BRANCH   3   4
ATOM      4  C   UNL     1      96.614   3.294 -25.565  1.00  0.00    -0.025 C 
ATOM      5  C   UNL     1      95.584   3.744 -26.290  1.00  0.00     0.020 C 
BRANCH   5   6
ATOM      6  C   UNL     1      94.188   3.501 -25.897  1.00  0.00     0.064 C 
ATOM      7  O   UNL     1      93.628   4.275 -25.079  1.00  0.00    -0.545 OA
ATOM      8  O   UNL     1      93.475   2.427 -26.418  1.00  0.00    -0.545 OA
ENDBRANCH   5   6
ENDBRANCH   3   4
ENDBRANCH   2   3
ENDBRANCH   1   2
BRANCH   1   9
ATOM      9  C   UNL     1      99.782   4.512 -29.131  1.00  0.00     0.000 C 
BRANCH   9  10
ATOM     10  C   UNL     1      99.056   3.259 -29.643  1.00  0.00     0.000 C 
BRANCH  10  11
ATOM     11  C   UNL     1      99.998   2.045 -29.655  1.00  0.00    -0.000 C 
BRANCH  11  12
ATOM     12  C   UNL     1     100.125   1.380 -28.276  1.00  0.00    -0.000 C 
BRANCH  12  13
ATOM     13  C   UNL     1      98.914   0.500 -27.930  1.00  0.00    -0.003 C 
ATOM     14  C   UNL     1      99.006  -0.020 -26.498  1.00  0.00     0.004 C 
ENDBRANCH  12  13
ENDBRANCH  11  12
ENDBRANCH  10  11
ENDBRANCH   9  10
ENDBRANCH   1   9
TORSDOF 9
ENDMDL
