MODEL 1
REMARK VINA RESULT:    -5.245      0.000      0.000
REMARK INTER + INTRA:          -8.089
REMARK INTER:                  -7.085
REMARK INTRA:                  -1.004
REMARK UNBOUND:                -1.004
REMARK SMILES CC(=O)CCC=C(C)CCC=C(C)C
REMARK SMILES IDX 7 1 6 2 8 3 9 4 10 5 11 6 13 7 12 8 14 9 5 10 4 11 2 12 3 13
REMARK SMILES IDX 1 14
REMARK H PARENT
REMARK Flexibility Score: inf
ROOT
ATOM      1  C   UNL     1      19.390  11.028 -25.660  1.00  0.00    -0.077 C 
ATOM      2  C   UNL     1      20.162  10.006 -25.233  1.00  0.00    -0.028 C 
ATOM      3  C   UNL     1      18.028  10.785 -26.268  1.00  0.00     0.039 C 
ENDROOT
BRANCH   1   4
ATOM      4  C   UNL     1      19.898  12.449 -25.527  1.00  0.00     0.034 C 
BRANCH   4   5
ATOM      5  C   UNL     1      20.413  13.001 -26.865  1.00  0.00     0.032 C 
BRANCH   5   6
ATOM      6  C   UNL     1      21.693  12.322 -27.294  1.00  0.00    -0.028 C 
ATOM      7  C   UNL     1      23.124  10.787 -28.569  1.00  0.00     0.039 C 
ATOM      8  C   UNL     1      21.783  11.415 -28.291  1.00  0.00    -0.080 C 
ATOM      9  C   UNL     1      20.592  11.033 -29.139  1.00  0.00     0.039 C 
ENDBRANCH   5   6
ENDBRANCH   4   5
ENDBRANCH   1   4
BRANCH   2  10
ATOM     10  C   UNL     1      19.743   8.559 -25.332  1.00  0.00     0.035 C 
BRANCH  10  11
ATOM     11  C   UNL     1      19.228   8.037 -23.987  1.00  0.00     0.079 C 
BRANCH  11  12
ATOM     12  C   UNL     1      17.983   7.214 -24.175  1.00  0.00     0.130 C 
ATOM     13  O   UNL     1      18.044   5.996 -24.104  1.00  0.00    -0.300 OA
ATOM     14  C   UNL     1      16.672   7.876 -24.472  1.00  0.00     0.087 C 
ENDBRANCH  11  12
ENDBRANCH  10  11
ENDBRANCH   2  10
TORSDOF 6
ENDMDL
MODEL 2
REMARK VINA RESULT:    -5.228      1.789      3.035
REMARK INTER + INTRA:          -8.066
REMARK INTER:                  -6.647
REMARK INTRA:                  -1.419
REMARK UNBOUND:                -1.004
REMARK SMILES CC(=O)CCC=C(C)CCC=C(C)C
REMARK SMILES IDX 7 1 6 2 8 3 9 4 10 5 11 6 13 7 12 8 14 9 5 10 4 11 2 12 3 13
REMARK SMILES IDX 1 14
REMARK H PARENT
REMARK Flexibility Score: inf
ROOT
ATOM      1  C   UNL     1      21.765   9.234 -25.804  1.00  0.00    -0.077 C 
ATOM      2  C   UNL     1      20.955   9.220 -24.724  1.00  0.00    -0.028 C 
ATOM      3  C   UNL     1      21.402   8.494 -27.070  1.00  0.00     0.039 C 
ENDROOT
BRANCH   1   4
ATOM      4  C   UNL     1      23.067  10.007 -25.747  1.00  0.00     0.034 C 
BRANCH   4   5
ATOM      5  C   UNL     1      22.829  11.522 -25.649  1.00  0.00     0.032 C 
BRANCH   5   6
ATOM      6  C   UNL     1      21.992  12.032 -26.799  1.00  0.00    -0.028 C 
ATOM      7  C   UNL     1      20.022  12.976 -27.921  1.00  0.00     0.039 C 
ATOM      8  C   UNL     1      20.753  12.556 -26.672  1.00  0.00    -0.080 C 
ATOM      9  C   UNL     1      20.097  12.747 -25.325  1.00  0.00     0.039 C 
ENDBRANCH   5   6
ENDBRANCH   4   5
ENDBRANCH   1   4
BRANCH   2  10
ATOM     10  C   UNL     1      19.644   8.472 -24.686  1.00  0.00     0.035 C 
BRANCH  10  11
ATOM     11  C   UNL     1      18.463   9.409 -24.952  1.00  0.00     0.079 C 
BRANCH  11  12
ATOM     12  C   UNL     1      17.906   9.190 -26.332  1.00  0.00     0.130 C 
ATOM     13  O   UNL     1      17.879   8.063 -26.804  1.00  0.00    -0.300 OA
ATOM     14  C   UNL     1      17.405  10.347 -27.142  1.00  0.00     0.087 C 
ENDBRANCH  11  12
ENDBRANCH  10  11
ENDBRANCH   2  10
TORSDOF 6
ENDMDL
MODEL 3
REMARK VINA RESULT:    -5.147      2.353      6.251
REMARK INTER + INTRA:          -7.956
REMARK INTER:                  -7.184
REMARK INTRA:                  -0.772
REMARK UNBOUND:                -1.004
REMARK SMILES CC(=O)CCC=C(C)CCC=C(C)C
REMARK SMILES IDX 7 1 6 2 8 3 9 4 10 5 11 6 13 7 12 8 14 9 5 10 4 11 2 12 3 13
REMARK SMILES IDX 1 14
REMARK H PARENT
REMARK Flexibility Score: inf
ROOT
ATOM      1  C   UNL     1      20.108   9.686 -25.192  1.00  0.00    -0.077 C 
ATOM      2  C   UNL     1      19.492  10.835 -25.544  1.00  0.00    -0.028 C 
ATOM      3  C   UNL     1      21.563   9.664 -24.789  1.00  0.00     0.039 C 
ENDROOT
BRANCH   1   4
ATOM      4  C   UNL     1      19.322   8.390 -25.201  1.00  0.00     0.034 C 
BRANCH   4   5
ATOM      5  C   UNL     1      18.186   8.402 -24.168  1.00  0.00     0.032 C 
BRANCH   5   6
ATOM      6  C   UNL     1      17.299   7.185 -24.297  1.00  0.00    -0.028 C 
ATOM      7  C   UNL     1      15.337   5.876 -24.981  1.00  0.00     0.039 C 
ATOM      8  C   UNL     1      16.137   7.152 -24.986  1.00  0.00    -0.080 C 
ATOM      9  C   UNL     1      15.634   8.343 -25.767  1.00  0.00     0.039 C 
ENDBRANCH   5   6
ENDBRANCH   4   5
ENDBRANCH   1   4
BRANCH   2  10
ATOM     10  C   UNL     1      20.195  12.171 -25.573  1.00  0.00     0.035 C 
BRANCH  10  11
ATOM     11  C   UNL     1      20.371  12.675 -27.008  1.00  0.00     0.079 C 
BRANCH  11  12
ATOM     12  C   UNL     1      21.593  12.067 -27.642  1.00  0.00     0.130 C 
ATOM     13  O   UNL     1      21.475  11.351 -28.624  1.00  0.00    -0.300 OA
ATOM     14  C   UNL     1      22.952  12.317 -27.062  1.00  0.00     0.087 C 
ENDBRANCH  11  12
ENDBRANCH  10  11
ENDBRANCH   2  10
TORSDOF 6
ENDMDL
MODEL 4
REMARK VINA RESULT:    -5.021      2.689      6.239
REMARK INTER + INTRA:          -7.787
REMARK INTER:                  -6.939
REMARK INTRA:                  -0.848
REMARK UNBOUND:                -1.004
REMARK SMILES CC(=O)CCC=C(C)CCC=C(C)C
REMARK SMILES IDX 7 1 6 2 8 3 9 4 10 5 11 6 13 7 12 8 14 9 5 10 4 11 2 12 3 13
REMARK SMILES IDX 1 14
REMARK H PARENT
REMARK Flexibility Score: inf
ROOT
ATOM      1  C   UNL     1      19.712   8.562 -25.150  1.00  0.00    -0.077 C 
ATOM      2  C   UNL     1      20.779   9.151 -24.570  1.00  0.00    -0.028 C 
ATOM      3  C   UNL     1      19.673   8.288 -26.635  1.00  0.00     0.039 C 
ENDROOT
BRANCH   1   4
ATOM      4  C   UNL     1      18.526   8.166 -24.294  1.00  0.00     0.034 C 
BRANCH   4   5
ATOM      5  C   UNL     1      18.273   6.651 -24.332  1.00  0.00     0.032 C 
BRANCH   5   6
ATOM      6  C   UNL     1      16.807   6.325 -24.164  1.00  0.00    -0.028 C 
ATOM      7  C   UNL     1      14.494   5.875 -24.856  1.00  0.00     0.039 C 
ATOM      8  C   UNL     1      15.940   6.146 -25.184  1.00  0.00    -0.080 C 
ATOM      9  C   UNL     1      16.379   6.192 -26.628  1.00  0.00     0.039 C 
ENDBRANCH   5   6
ENDBRANCH   4   5
ENDBRANCH   1   4
BRANCH   2  10
ATOM     10  C   UNL     1      22.001   9.587 -25.343  1.00  0.00     0.035 C 
BRANCH  10  11
ATOM     11  C   UNL     1      22.212  11.101 -25.241  1.00  0.00     0.079 C 
BRANCH  11  12
ATOM     12  C   UNL     1      21.270  11.835 -26.156  1.00  0.00     0.130 C 
ATOM     13  O   UNL     1      21.419  11.761 -27.367  1.00  0.00    -0.300 OA
ATOM     14  C   UNL     1      20.163  12.673 -25.593  1.00  0.00     0.087 C 
ENDBRANCH  11  12
ENDBRANCH  10  11
ENDBRANCH   2  10
TORSDOF 6
ENDMDL
MODEL 5
REMARK VINA RESULT:    -5.005      2.242      4.694
REMARK INTER + INTRA:          -7.765
REMARK INTER:                  -6.399
REMARK INTRA:                  -1.367
REMARK UNBOUND:                -1.004
REMARK SMILES CC(=O)CCC=C(C)CCC=C(C)C
REMARK SMILES IDX 7 1 6 2 8 3 9 4 10 5 11 6 13 7 12 8 14 9 5 10 4 11 2 12 3 13
REMARK SMILES IDX 1 14
REMARK H PARENT
REMARK Flexibility Score: inf
ROOT
ATOM      1  C   UNL     1      21.644  12.199 -27.472  1.00  0.00    -0.077 C 
ATOM      2  C   UNL     1      21.383  11.462 -28.573  1.00  0.00    -0.028 C 
ATOM      3  C   UNL     1      23.021  12.226 -26.851  1.00  0.00     0.039 C 
ENDROOT
BRANCH   1   4
ATOM      4  C   UNL     1      20.534  13.018 -26.845  1.00  0.00     0.034 C 
BRANCH   4   5
ATOM      5  C   UNL     1      20.111  12.457 -25.479  1.00  0.00     0.032 C 
BRANCH   5   6
ATOM      6  C   UNL     1      19.224  11.242 -25.623  1.00  0.00    -0.028 C 
ATOM      7  C   UNL     1      18.627   8.860 -25.610  1.00  0.00     0.039 C 
ATOM      8  C   UNL     1      19.613   9.974 -25.370  1.00  0.00    -0.080 C 
ATOM      9  C   UNL     1      20.990   9.648 -24.841  1.00  0.00     0.039 C 
ENDBRANCH   5   6
ENDBRANCH   4   5
ENDBRANCH   1   4
BRANCH   2  10
ATOM     10  C   UNL     1      22.423  10.611 -29.261  1.00  0.00     0.035 C 
BRANCH  10  11
ATOM     11  C   UNL     1      21.889   9.203 -29.541  1.00  0.00     0.079 C 
BRANCH  11  12
ATOM     12  C   UNL     1      21.976   8.343 -28.308  1.00  0.00     0.130 C 
ATOM     13  O   UNL     1      22.909   8.485 -27.534  1.00  0.00    -0.300 OA
ATOM     14  C   UNL     1      20.935   7.299 -28.037  1.00  0.00     0.087 C 
ENDBRANCH  11  12
ENDBRANCH  10  11
ENDBRANCH   2  10
TORSDOF 6
ENDMDL
MODEL 6
REMARK VINA RESULT:    -4.907      1.670      2.453
REMARK INTER + INTRA:          -7.632
REMARK INTER:                  -6.352
REMARK INTRA:                  -1.280
REMARK UNBOUND:                -1.004
REMARK SMILES CC(=O)CCC=C(C)CCC=C(C)C
REMARK SMILES IDX 7 1 6 2 8 3 9 4 10 5 11 6 13 7 12 8 14 9 5 10 4 11 2 12 3 13
REMARK SMILES IDX 1 14
REMARK H PARENT
REMARK Flexibility Score: inf
ROOT
ATOM      1  C   UNL     1      19.579  12.023 -27.106  1.00  0.00    -0.077 C 
ATOM      2  C   UNL     1      18.880  11.373 -26.152  1.00  0.00    -0.028 C 
ATOM      3  C   UNL     1      19.300  11.803 -28.575  1.00  0.00     0.039 C 
ENDROOT
BRANCH   1   4
ATOM      4  C   UNL     1      20.667  12.996 -26.698  1.00  0.00     0.034 C 
BRANCH   4   5
ATOM      5  C   UNL     1      22.064  12.484 -27.077  1.00  0.00     0.032 C 
BRANCH   5   6
ATOM      6  C   UNL     1      22.559  11.437 -26.106  1.00  0.00    -0.028 C 
ATOM      7  C   UNL     1      23.078   9.186 -25.273  1.00  0.00     0.039 C 
ATOM      8  C   UNL     1      22.606  10.112 -26.364  1.00  0.00    -0.080 C 
ATOM      9  C   UNL     1      22.218   9.543 -27.708  1.00  0.00     0.039 C 
ENDBRANCH   5   6
ENDBRANCH   4   5
ENDBRANCH   1   4
BRANCH   2  10
ATOM     10  C   UNL     1      17.785  10.381 -26.464  1.00  0.00     0.035 C 
BRANCH  10  11
ATOM     11  C   UNL     1      18.263   8.941 -26.252  1.00  0.00     0.079 C 
BRANCH  11  12
ATOM     12  C   UNL     1      18.304   8.602 -24.786  1.00  0.00     0.130 C 
ATOM     13  O   UNL     1      17.276   8.632 -24.127  1.00  0.00    -0.300 OA
ATOM     14  C   UNL     1      19.601   8.249 -24.125  1.00  0.00     0.087 C 
ENDBRANCH  11  12
ENDBRANCH  10  11
ENDBRANCH   2  10
TORSDOF 6
ENDMDL
MODEL 7
REMARK VINA RESULT:    -4.903      1.582      2.413
REMARK INTER + INTRA:          -7.628
REMARK INTER:                  -6.575
REMARK INTRA:                  -1.052
REMARK UNBOUND:                -1.004
REMARK SMILES CC(=O)CCC=C(C)CCC=C(C)C
REMARK SMILES IDX 7 1 6 2 8 3 9 4 10 5 11 6 13 7 12 8 14 9 5 10 4 11 2 12 3 13
REMARK SMILES IDX 1 14
REMARK H PARENT
REMARK Flexibility Score: inf
ROOT
ATOM      1  C   UNL     1      18.746   9.305 -25.978  1.00  0.00    -0.077 C 
ATOM      2  C   UNL     1      18.202   8.992 -24.783  1.00  0.00    -0.028 C 
ATOM      3  C   UNL     1      19.474   8.272 -26.807  1.00  0.00     0.039 C 
ENDROOT
BRANCH   1   4
ATOM      4  C   UNL     1      18.624  10.722 -26.502  1.00  0.00     0.034 C 
BRANCH   4   5
ATOM      5  C   UNL     1      19.428  11.717 -25.652  1.00  0.00     0.032 C 
BRANCH   5   6
ATOM      6  C   UNL     1      20.643  12.228 -26.391  1.00  0.00    -0.028 C 
ATOM      7  C   UNL     1      23.016  12.400 -27.000  1.00  0.00     0.039 C 
ATOM      8  C   UNL     1      21.897  11.752 -26.227  1.00  0.00    -0.080 C 
ATOM      9  C   UNL     1      22.200  10.587 -25.314  1.00  0.00     0.039 C 
ENDBRANCH   5   6
ENDBRANCH   4   5
ENDBRANCH   1   4
BRANCH   2  10
ATOM     10  C   UNL     1      18.280   7.610 -24.178  1.00  0.00     0.035 C 
BRANCH  10  11
ATOM     11  C   UNL     1      16.889   6.986 -24.038  1.00  0.00     0.079 C 
BRANCH  11  12
ATOM     12  C   UNL     1      16.319   6.642 -25.388  1.00  0.00     0.130 C 
ATOM     13  O   UNL     1      16.923   5.875 -26.124  1.00  0.00    -0.300 OA
ATOM     14  C   UNL     1      15.029   7.250 -25.845  1.00  0.00     0.087 C 
ENDBRANCH  11  12
ENDBRANCH  10  11
ENDBRANCH   2  10
TORSDOF 6
ENDMDL
MODEL 8
REMARK VINA RESULT:    -4.793     16.266     17.777
REMARK INTER + INTRA:          -7.478
REMARK INTER:                  -7.004
REMARK INTRA:                  -0.475
REMARK UNBOUND:                -1.004
REMARK SMILES CC(=O)CCC=C(C)CCC=C(C)C
REMARK SMILES IDX 7 1 6 2 8 3 9 4 10 5 11 6 13 7 12 8 14 9 5 10 4 11 2 12 3 13
REMARK SMILES IDX 1 14
REMARK H PARENT
REMARK Flexibility Score: inf
ROOT
ATOM      1  C   UNL     1       8.562  21.878 -22.162  1.00  0.00    -0.077 C 
ATOM      2  C   UNL     1       9.528  21.461 -21.315  1.00  0.00    -0.028 C 
ATOM      3  C   UNL     1       7.308  21.066 -22.388  1.00  0.00     0.039 C 
ENDROOT
BRANCH   1   4
ATOM      4  C   UNL     1       8.738  23.189 -22.901  1.00  0.00     0.034 C 
BRANCH   4   5
ATOM      5  C   UNL     1       8.063  24.357 -22.165  1.00  0.00     0.032 C 
BRANCH   5   6
ATOM      6  C   UNL     1       6.970  24.986 -22.997  1.00  0.00    -0.028 C 
ATOM      7  C   UNL     1       4.762  25.943 -23.483  1.00  0.00     0.039 C 
ATOM      8  C   UNL     1       5.770  25.377 -22.517  1.00  0.00    -0.080 C 
ATOM      9  C   UNL     1       5.423  25.282 -21.050  1.00  0.00     0.039 C 
ENDBRANCH   5   6
ENDBRANCH   4   5
ENDBRANCH   1   4
BRANCH   2  10
ATOM     10  C   UNL     1       9.444  20.167 -20.542  1.00  0.00     0.035 C 
BRANCH  10  11
ATOM     11  C   UNL     1      10.517  20.101 -19.452  1.00  0.00     0.079 C 
BRANCH  11  12
ATOM     12  C   UNL     1      10.380  18.840 -18.642  1.00  0.00     0.130 C 
ATOM     13  O   UNL     1      10.038  18.904 -17.471  1.00  0.00    -0.300 OA
ATOM     14  C   UNL     1      10.682  17.507 -19.257  1.00  0.00     0.087 C 
ENDBRANCH  11  12
ENDBRANCH  10  11
ENDBRANCH   2  10
TORSDOF 6
ENDMDL
MODEL 9
REMARK VINA RESULT:    -4.748     15.987     17.820
REMARK INTER + INTRA:          -7.417
REMARK INTER:                  -6.714
REMARK INTRA:                  -0.703
REMARK UNBOUND:                -1.004
REMARK SMILES CC(=O)CCC=C(C)CCC=C(C)C
REMARK SMILES IDX 7 1 6 2 8 3 9 4 10 5 11 6 13 7 12 8 14 9 5 10 4 11 2 12 3 13
REMARK SMILES IDX 1 14
REMARK H PARENT
REMARK Flexibility Score: inf
ROOT
ATOM      1  C   UNL     1       8.817  22.310 -22.399  1.00  0.00    -0.077 C 
ATOM      2  C   UNL     1       8.105  23.336 -21.885  1.00  0.00    -0.028 C 
ATOM      3  C   UNL     1       9.479  22.411 -23.753  1.00  0.00     0.039 C 
ENDROOT
BRANCH   1   4
ATOM      4  C   UNL     1       8.954  21.028 -21.602  1.00  0.00     0.034 C 
BRANCH   4   5
ATOM      5  C   UNL     1      10.358  20.878 -20.997  1.00  0.00     0.032 C 
BRANCH   5   6
ATOM      6  C   UNL     1      10.301  20.431 -19.555  1.00  0.00    -0.028 C 
ATOM      7  C   UNL     1      10.253  18.852 -17.675  1.00  0.00     0.039 C 
ATOM      8  C   UNL     1      10.376  19.145 -19.147  1.00  0.00    -0.080 C 
ATOM      9  C   UNL     1      10.599  18.008 -20.116  1.00  0.00     0.039 C 
ENDBRANCH   5   6
ENDBRANCH   4   5
ENDBRANCH   1   4
BRANCH   2  10
ATOM     10  C   UNL     1       7.908  24.646 -22.609  1.00  0.00     0.035 C 
BRANCH  10  11
ATOM     11  C   UNL     1       6.420  24.970 -22.774  1.00  0.00     0.079 C 
BRANCH  11  12
ATOM     12  C   UNL     1       5.775  24.034 -23.760  1.00  0.00     0.130 C 
ATOM     13  O   UNL     1       4.844  23.327 -23.406  1.00  0.00    -0.300 OA
ATOM     14  C   UNL     1       6.282  23.946 -25.167  1.00  0.00     0.087 C 
ENDBRANCH  11  12
ENDBRANCH  10  11
ENDBRANCH   2  10
TORSDOF 6
ENDMDL
