MODEL 1
REMARK VINA RESULT:    -6.474      0.000      0.000
REMARK INTER + INTRA:          -7.875
REMARK INTER:                  -7.609
REMARK INTRA:                  -0.266
REMARK UNBOUND:                -0.266
REMARK SMILES O=c1c(O)c(-c2ccc(O)cc2)oc2cc(O)cc(O)c12
REMARK SMILES IDX 5 1 3 2 2 3 1 4 21 5 19 6 18 7 16 8 15 9 14 10 13 11 6 12
REMARK SMILES IDX 7 13 8 14 9 15 12 16 11 17 10 18 4 20 20 22 17 24
REMARK H PARENT 10 19 4 21 20 23 17 25
REMARK Flexibility Score: inf
ROOT
ATOM      1  C   UNL     1     136.233 135.983 141.904  1.00  0.00     0.180 A 
ATOM      2  C   UNL     1     135.577 136.634 142.967  1.00  0.00     0.208 A 
ATOM      3  C   UNL     1     134.173 136.650 142.990  1.00  0.00     0.238 A 
ATOM      4  O   UNL     1     133.575 137.240 143.930  1.00  0.00    -0.285 OA
ATOM      5  C   UNL     1     133.452 136.001 141.967  1.00  0.00     0.111 A 
ATOM      6  C   UNL     1     132.037 135.968 141.918  1.00  0.00     0.134 A 
ATOM      7  C   UNL     1     131.393 135.293 140.870  1.00  0.00     0.093 A 
ATOM      8  C   UNL     1     132.136 134.652 139.873  1.00  0.00     0.123 A 
ATOM      9  C   UNL     1     133.531 134.683 139.916  1.00  0.00     0.094 A 
ATOM     10  C   UNL     1     134.192 135.351 140.951  1.00  0.00     0.146 A 
ATOM     11  O   UNL     1     135.520 135.369 140.964  1.00  0.00    -0.452 OA
ENDROOT
BRANCH   1  12
ATOM     12  C   UNL     1     137.709 135.939 141.799  1.00  0.00     0.021 A 
ATOM     13  C   UNL     1     138.469 135.014 142.540  1.00  0.00     0.016 A 
ATOM     14  C   UNL     1     139.864 135.007 142.443  1.00  0.00     0.047 A 
ATOM     15  C   UNL     1     140.517 135.932 141.617  1.00  0.00     0.115 A 
ATOM     16  C   UNL     1     138.373 136.875 140.991  1.00  0.00     0.016 A 
ATOM     17  C   UNL     1     139.769 136.866 140.895  1.00  0.00     0.047 A 
BRANCH  15  18
ATOM     18  O   UNL     1     141.906 135.933 141.511  1.00  0.00    -0.508 OA
ATOM     19  H   UNL     1     142.378 136.405 140.748  1.00  0.00     0.293 HD
ENDBRANCH  15  18
ENDBRANCH   1  12
BRANCH   2  20
ATOM     20  O   UNL     1     136.314 137.227 143.995  1.00  0.00    -0.502 OA
ATOM     21  H   UNL     1     136.936 138.010 143.835  1.00  0.00     0.293 HD
ENDBRANCH   2  20
BRANCH   6  22
ATOM     22  O   UNL     1     131.270 136.597 142.898  1.00  0.00    -0.507 OA
ATOM     23  H   UNL     1     130.486 137.193 142.661  1.00  0.00     0.293 HD
ENDBRANCH   6  22
BRANCH   8  24
ATOM     24  O   UNL     1     131.497 133.980 138.832  1.00  0.00    -0.508 OA
ATOM     25  H   UNL     1     130.813 134.443 138.244  1.00  0.00     0.293 HD
ENDBRANCH   8  24
TORSDOF 5
ENDMDL
MODEL 2
REMARK VINA RESULT:    -6.455      1.745      6.630
REMARK INTER + INTRA:          -7.853
REMARK INTER:                  -7.583
REMARK INTRA:                  -0.270
REMARK UNBOUND:                -0.266
REMARK SMILES O=c1c(O)c(-c2ccc(O)cc2)oc2cc(O)cc(O)c12
REMARK SMILES IDX 5 1 3 2 2 3 1 4 21 5 19 6 18 7 16 8 15 9 14 10 13 11 6 12
REMARK SMILES IDX 7 13 8 14 9 15 12 16 11 17 10 18 4 20 20 22 17 24
REMARK H PARENT 10 19 4 21 20 23 17 25
REMARK Flexibility Score: inf
ROOT
ATOM      1  C   UNL     1     134.809 136.298 142.664  1.00  0.00     0.180 A 
ATOM      2  C   UNL     1     134.894 137.584 143.233  1.00  0.00     0.208 A 
ATOM      3  C   UNL     1     136.162 138.129 143.490  1.00  0.00     0.238 A 
ATOM      4  O   UNL     1     136.250 139.275 144.010  1.00  0.00    -0.285 OA
ATOM      5  C   UNL     1     137.317 137.393 143.157  1.00  0.00     0.111 A 
ATOM      6  C   UNL     1     138.631 137.872 143.380  1.00  0.00     0.134 A 
ATOM      7  C   UNL     1     139.731 137.082 143.014  1.00  0.00     0.093 A 
ATOM      8  C   UNL     1     139.541 135.825 142.429  1.00  0.00     0.123 A 
ATOM      9  C   UNL     1     138.248 135.349 142.207  1.00  0.00     0.094 A 
ATOM     10  C   UNL     1     137.139 136.120 142.567  1.00  0.00     0.146 A 
ATOM     11  O   UNL     1     135.920 135.639 142.350  1.00  0.00    -0.452 OA
ENDROOT
BRANCH   1  12
ATOM     12  C   UNL     1     133.509 135.647 142.380  1.00  0.00     0.021 A 
ATOM     13  C   UNL     1     132.927 135.699 141.100  1.00  0.00     0.016 A 
ATOM     14  C   UNL     1     131.688 135.097 140.862  1.00  0.00     0.047 A 
ATOM     15  C   UNL     1     131.008 134.450 141.902  1.00  0.00     0.115 A 
ATOM     16  C   UNL     1     132.811 135.014 143.421  1.00  0.00     0.016 A 
ATOM     17  C   UNL     1     131.572 134.412 143.181  1.00  0.00     0.047 A 
BRANCH  15  18
ATOM     18  O   UNL     1     129.773 133.846 141.677  1.00  0.00    -0.508 OA
ATOM     19  H   UNL     1     129.496 133.007 142.174  1.00  0.00     0.293 HD
ENDBRANCH  15  18
ENDBRANCH   1  12
BRANCH   2  20
ATOM     20  O   UNL     1     133.734 138.313 143.507  1.00  0.00    -0.502 OA
ATOM     21  H   UNL     1     132.834 137.870 143.643  1.00  0.00     0.293 HD
ENDBRANCH   2  20
BRANCH   6  22
ATOM     22  O   UNL     1     138.851 139.121 143.961  1.00  0.00    -0.507 OA
ATOM     23  H   UNL     1     139.010 139.949 143.400  1.00  0.00     0.293 HD
ENDBRANCH   6  22
BRANCH   8  24
ATOM     24  O   UNL     1     140.634 135.041 142.062  1.00  0.00    -0.508 OA
ATOM     25  H   UNL     1     140.642 134.039 142.216  1.00  0.00     0.293 HD
ENDBRANCH   8  24
TORSDOF 5
ENDMDL
MODEL 3
REMARK VINA RESULT:    -6.133      1.765      3.346
REMARK INTER + INTRA:          -7.475
REMARK INTER:                  -7.176
REMARK INTRA:                  -0.299
REMARK UNBOUND:                -0.266
REMARK SMILES O=c1c(O)c(-c2ccc(O)cc2)oc2cc(O)cc(O)c12
REMARK SMILES IDX 5 1 3 2 2 3 1 4 21 5 19 6 18 7 16 8 15 9 14 10 13 11 6 12
REMARK SMILES IDX 7 13 8 14 9 15 12 16 11 17 10 18 4 20 20 22 17 24
REMARK H PARENT 10 19 4 21 20 23 17 25
REMARK Flexibility Score: inf
ROOT
ATOM      1  C   UNL     1     134.664 136.128 141.384  1.00  0.00     0.180 A 
ATOM      2  C   UNL     1     133.890 135.153 140.725  1.00  0.00     0.208 A 
ATOM      3  C   UNL     1     132.490 135.247 140.781  1.00  0.00     0.238 A 
ATOM      4  O   UNL     1     131.786 134.373 140.204  1.00  0.00    -0.285 OA
ATOM      5  C   UNL     1     131.891 136.319 141.472  1.00  0.00     0.111 A 
ATOM      6  C   UNL     1     130.488 136.488 141.572  1.00  0.00     0.134 A 
ATOM      7  C   UNL     1     129.968 137.588 142.272  1.00  0.00     0.093 A 
ATOM      8  C   UNL     1     130.823 138.519 142.871  1.00  0.00     0.123 A 
ATOM      9  C   UNL     1     132.206 138.356 142.775  1.00  0.00     0.094 A 
ATOM     10  C   UNL     1     132.744 137.267 142.084  1.00  0.00     0.146 A 
ATOM     11  O   UNL     1     134.063 137.133 142.014  1.00  0.00    -0.452 OA
ENDROOT
BRANCH   1  12
ATOM     12  C   UNL     1     136.144 136.088 141.387  1.00  0.00     0.021 A 
ATOM     13  C   UNL     1     136.855 135.350 142.353  1.00  0.00     0.016 A 
ATOM     14  C   UNL     1     138.253 135.347 142.350  1.00  0.00     0.047 A 
ATOM     15  C   UNL     1     138.958 136.090 141.394  1.00  0.00     0.115 A 
ATOM     16  C   UNL     1     136.859 136.846 140.446  1.00  0.00     0.016 A 
ATOM     17  C   UNL     1     138.257 136.840 140.445  1.00  0.00     0.047 A 
BRANCH  15  18
ATOM     18  O   UNL     1     140.351 136.092 141.380  1.00  0.00    -0.508 OA
ATOM     19  H   UNL     1     140.874 135.594 140.670  1.00  0.00     0.293 HD
ENDBRANCH  15  18
ENDBRANCH   1  12
BRANCH   2  20
ATOM     20  O   UNL     1     134.509 134.128 140.005  1.00  0.00    -0.502 OA
ATOM     21  H   UNL     1     134.047 133.249 139.806  1.00  0.00     0.293 HD
ENDBRANCH   2  20
BRANCH   6  22
ATOM     22  O   UNL     1     129.611 135.577 140.985  1.00  0.00    -0.507 OA
ATOM     23  H   UNL     1     128.864 135.140 141.511  1.00  0.00     0.293 HD
ENDBRANCH   6  22
BRANCH   8  24
ATOM     24  O   UNL     1     130.308 139.613 143.565  1.00  0.00    -0.508 OA
ATOM     25  H   UNL     1     130.768 140.516 143.548  1.00  0.00     0.293 HD
ENDBRANCH   8  24
TORSDOF 5
ENDMDL
MODEL 4
REMARK VINA RESULT:    -6.117      1.484      3.236
REMARK INTER + INTRA:          -7.456
REMARK INTER:                  -7.336
REMARK INTRA:                  -0.119
REMARK UNBOUND:                -0.266
REMARK SMILES O=c1c(O)c(-c2ccc(O)cc2)oc2cc(O)cc(O)c12
REMARK SMILES IDX 5 1 3 2 2 3 1 4 21 5 19 6 18 7 16 8 15 9 14 10 13 11 6 12
REMARK SMILES IDX 7 13 8 14 9 15 12 16 11 17 10 18 4 20 20 22 17 24
REMARK H PARENT 10 19 4 21 20 23 17 25
REMARK Flexibility Score: inf
ROOT
ATOM      1  C   UNL     1     135.732 135.776 141.505  1.00  0.00     0.180 A 
ATOM      2  C   UNL     1     135.009 135.193 140.445  1.00  0.00     0.208 A 
ATOM      3  C   UNL     1     133.655 134.880 140.640  1.00  0.00     0.238 A 
ATOM      4  O   UNL     1     133.001 134.348 139.702  1.00  0.00    -0.285 OA
ATOM      5  C   UNL     1     133.043 135.171 141.876  1.00  0.00     0.111 A 
ATOM      6  C   UNL     1     131.682 134.890 142.152  1.00  0.00     0.134 A 
ATOM      7  C   UNL     1     131.145 135.218 143.405  1.00  0.00     0.093 A 
ATOM      8  C   UNL     1     131.940 135.821 144.386  1.00  0.00     0.123 A 
ATOM      9  C   UNL     1     133.282 136.099 144.119  1.00  0.00     0.094 A 
ATOM     10  C   UNL     1     133.837 135.779 142.877  1.00  0.00     0.146 A 
ATOM     11  O   UNL     1     135.118 136.049 142.652  1.00  0.00    -0.452 OA
ENDROOT
BRANCH   1  12
ATOM     12  C   UNL     1     137.168 136.118 141.384  1.00  0.00     0.021 A 
ATOM     13  C   UNL     1     137.618 137.074 140.454  1.00  0.00     0.016 A 
ATOM     14  C   UNL     1     138.981 137.363 140.342  1.00  0.00     0.047 A 
ATOM     15  C   UNL     1     139.912 136.691 141.145  1.00  0.00     0.115 A 
ATOM     16  C   UNL     1     138.110 135.435 142.171  1.00  0.00     0.016 A 
ATOM     17  C   UNL     1     139.473 135.726 142.057  1.00  0.00     0.047 A 
BRANCH  15  18
ATOM     18  O   UNL     1     141.273 136.972 141.044  1.00  0.00    -0.508 OA
ATOM     19  H   UNL     1     141.609 137.917 140.898  1.00  0.00     0.293 HD
ENDBRANCH  15  18
ENDBRANCH   1  12
BRANCH   2  20
ATOM     20  O   UNL     1     135.627 134.961 139.213  1.00  0.00    -0.502 OA
ATOM     21  H   UNL     1     135.766 135.694 138.530  1.00  0.00     0.293 HD
ENDBRANCH   2  20
BRANCH   6  22
ATOM     22  O   UNL     1     130.865 134.291 141.194  1.00  0.00    -0.507 OA
ATOM     23  H   UNL     1     131.239 133.930 140.324  1.00  0.00     0.293 HD
ENDBRANCH   6  22
BRANCH   8  24
ATOM     24  O   UNL     1     131.406 136.148 145.631  1.00  0.00    -0.508 OA
ATOM     25  H   UNL     1     130.545 135.730 145.964  1.00  0.00     0.293 HD
ENDBRANCH   8  24
TORSDOF 5
ENDMDL
MODEL 5
REMARK VINA RESULT:    -6.106      1.126      1.500
REMARK INTER + INTRA:          -7.444
REMARK INTER:                  -7.166
REMARK INTRA:                  -0.278
REMARK UNBOUND:                -0.266
REMARK SMILES O=c1c(O)c(-c2ccc(O)cc2)oc2cc(O)cc(O)c12
REMARK SMILES IDX 5 1 3 2 2 3 1 4 21 5 19 6 18 7 16 8 15 9 14 10 13 11 6 12
REMARK SMILES IDX 7 13 8 14 9 15 12 16 11 17 10 18 4 20 20 22 17 24
REMARK H PARENT 10 19 4 21 20 23 17 25
REMARK Flexibility Score: inf
ROOT
ATOM      1  C   UNL     1     137.537 136.178 142.231  1.00  0.00     0.180 A 
ATOM      2  C   UNL     1     137.088 137.077 143.218  1.00  0.00     0.208 A 
ATOM      3  C   UNL     1     135.708 137.293 143.361  1.00  0.00     0.238 A 
ATOM      4  O   UNL     1     135.294 138.105 144.234  1.00  0.00    -0.285 OA
ATOM      5  C   UNL     1     134.804 136.596 142.534  1.00  0.00     0.111 A 
ATOM      6  C   UNL     1     133.399 136.754 142.616  1.00  0.00     0.134 A 
ATOM      7  C   UNL     1     132.565 136.017 141.762  1.00  0.00     0.093 A 
ATOM      8  C   UNL     1     133.109 135.126 140.830  1.00  0.00     0.123 A 
ATOM      9  C   UNL     1     134.493 134.968 140.745  1.00  0.00     0.094 A 
ATOM     10  C   UNL     1     135.341 135.694 141.586  1.00  0.00     0.146 A 
ATOM     11  O   UNL     1     136.654 135.527 141.479  1.00  0.00    -0.452 OA
ENDROOT
BRANCH   1  12
ATOM     12  C   UNL     1     138.976 135.911 142.006  1.00  0.00     0.021 A 
ATOM     13  C   UNL     1     139.624 134.822 142.619  1.00  0.00     0.016 A 
ATOM     14  C   UNL     1     140.989 134.604 142.411  1.00  0.00     0.047 A 
ATOM     15  C   UNL     1     141.727 135.477 141.601  1.00  0.00     0.115 A 
ATOM     16  C   UNL     1     139.727 136.793 141.213  1.00  0.00     0.016 A 
ATOM     17  C   UNL     1     141.093 136.573 141.006  1.00  0.00     0.047 A 
BRANCH  15  18
ATOM     18  O   UNL     1     143.087 135.269 141.385  1.00  0.00    -0.508 OA
ATOM     19  H   UNL     1     143.616 134.608 141.941  1.00  0.00     0.293 HD
ENDBRANCH  15  18
ENDBRANCH   1  12
BRANCH   2  20
ATOM     20  O   UNL     1     138.002 137.718 144.059  1.00  0.00    -0.502 OA
ATOM     21  H   UNL     1     137.764 138.550 144.584  1.00  0.00     0.293 HD
ENDBRANCH   2  20
BRANCH   6  22
ATOM     22  O   UNL     1     132.828 137.634 143.536  1.00  0.00    -0.507 OA
ATOM     23  H   UNL     1     133.393 138.267 144.088  1.00  0.00     0.293 HD
ENDBRANCH   6  22
BRANCH   8  24
ATOM     24  O   UNL     1     132.281 134.392 139.983  1.00  0.00    -0.508 OA
ATOM     25  H   UNL     1     131.755 133.592 140.317  1.00  0.00     0.293 HD
ENDBRANCH   8  24
TORSDOF 5
ENDMDL
MODEL 6
REMARK VINA RESULT:    -6.075      2.634      6.552
REMARK INTER + INTRA:          -7.407
REMARK INTER:                  -7.142
REMARK INTRA:                  -0.265
REMARK UNBOUND:                -0.266
REMARK SMILES O=c1c(O)c(-c2ccc(O)cc2)oc2cc(O)cc(O)c12
REMARK SMILES IDX 5 1 3 2 2 3 1 4 21 5 19 6 18 7 16 8 15 9 14 10 13 11 6 12
REMARK SMILES IDX 7 13 8 14 9 15 12 16 11 17 10 18 4 20 20 22 17 24
REMARK H PARENT 10 19 4 21 20 23 17 25
REMARK Flexibility Score: inf
ROOT
ATOM      1  C   UNL     1     133.438 135.717 142.410  1.00  0.00     0.180 A 
ATOM      2  C   UNL     1     132.861 136.225 141.230  1.00  0.00     0.208 A 
ATOM      3  C   UNL     1     133.703 136.718 140.221  1.00  0.00     0.238 A 
ATOM      4  O   UNL     1     133.197 137.185 139.164  1.00  0.00    -0.285 OA
ATOM      5  C   UNL     1     135.101 136.678 140.399  1.00  0.00     0.111 A 
ATOM      6  C   UNL     1     136.018 137.151 139.429  1.00  0.00     0.134 A 
ATOM      7  C   UNL     1     137.397 137.069 139.677  1.00  0.00     0.093 A 
ATOM      8  C   UNL     1     137.873 136.522 140.874  1.00  0.00     0.123 A 
ATOM      9  C   UNL     1     136.973 136.055 141.832  1.00  0.00     0.094 A 
ATOM     10  C   UNL     1     135.596 136.129 141.605  1.00  0.00     0.146 A 
ATOM     11  O   UNL     1     134.762 135.682 142.537  1.00  0.00    -0.452 OA
ENDROOT
BRANCH   1  12
ATOM     12  C   UNL     1     132.617 135.197 143.527  1.00  0.00     0.021 A 
ATOM     13  C   UNL     1     132.370 135.969 144.678  1.00  0.00     0.016 A 
ATOM     14  C   UNL     1     131.612 135.447 145.730  1.00  0.00     0.047 A 
ATOM     15  C   UNL     1     131.104 134.144 145.653  1.00  0.00     0.115 A 
ATOM     16  C   UNL     1     132.121 133.884 143.468  1.00  0.00     0.016 A 
ATOM     17  C   UNL     1     131.362 133.364 144.521  1.00  0.00     0.047 A 
BRANCH  15  18
ATOM     18  O   UNL     1     130.345 133.613 146.694  1.00  0.00    -0.508 OA
ATOM     19  H   UNL     1     129.421 133.968 146.910  1.00  0.00     0.293 HD
ENDBRANCH  15  18
ENDBRANCH   1  12
BRANCH   2  20
ATOM     20  O   UNL     1     131.474 136.207 141.058  1.00  0.00    -0.502 OA
ATOM     21  H   UNL     1     131.039 135.925 140.188  1.00  0.00     0.293 HD
ENDBRANCH   2  20
BRANCH   6  22
ATOM     22  O   UNL     1     135.573 137.701 138.227  1.00  0.00    -0.507 OA
ATOM     23  H   UNL     1     135.601 138.698 138.054  1.00  0.00     0.293 HD
ENDBRANCH   6  22
BRANCH   8  24
ATOM     24  O   UNL     1     139.243 136.438 141.121  1.00  0.00    -0.508 OA
ATOM     25  H   UNL     1     139.830 135.773 140.630  1.00  0.00     0.293 HD
ENDBRANCH   8  24
TORSDOF 5
ENDMDL
MODEL 7
REMARK VINA RESULT:    -5.854      5.681      6.543
REMARK INTER + INTRA:          -7.147
REMARK INTER:                  -6.866
REMARK INTRA:                  -0.281
REMARK UNBOUND:                -0.266
REMARK SMILES O=c1c(O)c(-c2ccc(O)cc2)oc2cc(O)cc(O)c12
REMARK SMILES IDX 5 1 3 2 2 3 1 4 21 5 19 6 18 7 16 8 15 9 14 10 13 11 6 12
REMARK SMILES IDX 7 13 8 14 9 15 12 16 11 17 10 18 4 20 20 22 17 24
REMARK H PARENT 10 19 4 21 20 23 17 25
REMARK Flexibility Score: inf
ROOT
ATOM      1  C   UNL     1     140.994 138.499 142.218  1.00  0.00     0.180 A 
ATOM      2  C   UNL     1     140.305 139.550 141.582  1.00  0.00     0.208 A 
ATOM      3  C   UNL     1     139.131 140.047 142.171  1.00  0.00     0.238 A 
ATOM      4  O   UNL     1     138.500 140.980 141.604  1.00  0.00    -0.285 OA
ATOM      5  C   UNL     1     138.680 139.503 143.391  1.00  0.00     0.111 A 
ATOM      6  C   UNL     1     137.510 139.949 144.052  1.00  0.00     0.134 A 
ATOM      7  C   UNL     1     137.131 139.362 145.268  1.00  0.00     0.093 A 
ATOM      8  C   UNL     1     137.899 138.339 145.835  1.00  0.00     0.123 A 
ATOM      9  C   UNL     1     139.053 137.895 145.186  1.00  0.00     0.094 A 
ATOM     10  C   UNL     1     139.447 138.466 143.973  1.00  0.00     0.146 A 
ATOM     11  O   UNL     1     140.546 138.020 143.376  1.00  0.00    -0.452 OA
ENDROOT
BRANCH   1  12
ATOM     12  C   UNL     1     142.227 137.908 141.650  1.00  0.00     0.021 A 
ATOM     13  C   UNL     1     142.190 136.727 140.886  1.00  0.00     0.016 A 
ATOM     14  C   UNL     1     143.370 136.175 140.380  1.00  0.00     0.047 A 
ATOM     15  C   UNL     1     144.603 136.787 140.643  1.00  0.00     0.115 A 
ATOM     16  C   UNL     1     143.469 138.503 141.926  1.00  0.00     0.016 A 
ATOM     17  C   UNL     1     144.649 137.950 141.419  1.00  0.00     0.047 A 
BRANCH  15  18
ATOM     18  O   UNL     1     145.786 136.248 140.143  1.00  0.00    -0.508 OA
ATOM     19  H   UNL     1     146.426 136.801 139.585  1.00  0.00     0.293 HD
ENDBRANCH  15  18
ENDBRANCH   1  12
BRANCH   2  20
ATOM     20  O   UNL     1     140.800 140.105 140.399  1.00  0.00    -0.502 OA
ATOM     21  H   UNL     1     140.220 140.250 139.583  1.00  0.00     0.293 HD
ENDBRANCH   2  20
BRANCH   6  22
ATOM     22  O   UNL     1     136.724 140.968 143.511  1.00  0.00    -0.507 OA
ATOM     23  H   UNL     1     136.519 141.013 142.521  1.00  0.00     0.293 HD
ENDBRANCH   6  22
BRANCH   8  24
ATOM     24  O   UNL     1     137.524 137.756 147.044  1.00  0.00    -0.508 OA
ATOM     25  H   UNL     1     136.977 136.903 147.074  1.00  0.00     0.293 HD
ENDBRANCH   8  24
TORSDOF 5
ENDMDL
MODEL 8
REMARK VINA RESULT:    -5.807      4.508      6.663
REMARK INTER + INTRA:          -7.092
REMARK INTER:                  -6.793
REMARK INTRA:                  -0.298
REMARK UNBOUND:                -0.266
REMARK SMILES O=c1c(O)c(-c2ccc(O)cc2)oc2cc(O)cc(O)c12
REMARK SMILES IDX 5 1 3 2 2 3 1 4 21 5 19 6 18 7 16 8 15 9 14 10 13 11 6 12
REMARK SMILES IDX 7 13 8 14 9 15 12 16 11 17 10 18 4 20 20 22 17 24
REMARK H PARENT 10 19 4 21 20 23 17 25
REMARK Flexibility Score: inf
ROOT
ATOM      1  C   UNL     1     136.043 138.993 141.502  1.00  0.00     0.180 A 
ATOM      2  C   UNL     1     137.248 139.199 142.203  1.00  0.00     0.208 A 
ATOM      3  C   UNL     1     137.589 140.503 142.595  1.00  0.00     0.238 A 
ATOM      4  O   UNL     1     138.671 140.701 143.214  1.00  0.00    -0.285 OA
ATOM      5  C   UNL     1     136.717 141.570 142.300  1.00  0.00     0.111 A 
ATOM      6  C   UNL     1     136.986 142.912 142.663  1.00  0.00     0.134 A 
ATOM      7  C   UNL     1     136.063 143.918 142.340  1.00  0.00     0.093 A 
ATOM      8  C   UNL     1     134.879 143.607 141.663  1.00  0.00     0.123 A 
ATOM      9  C   UNL     1     134.610 142.286 141.303  1.00  0.00     0.094 A 
ATOM     10  C   UNL     1     135.517 141.269 141.614  1.00  0.00     0.146 A 
ATOM     11  O   UNL     1     135.239 140.022 141.254  1.00  0.00    -0.452 OA
ENDROOT
BRANCH   1  12
ATOM     12  C   UNL     1     135.622 137.651 141.038  1.00  0.00     0.021 A 
ATOM     13  C   UNL     1     136.048 137.136 139.799  1.00  0.00     0.016 A 
ATOM     14  C   UNL     1     135.618 135.876 139.372  1.00  0.00     0.047 A 
ATOM     15  C   UNL     1     134.747 135.122 140.169  1.00  0.00     0.115 A 
ATOM     16  C   UNL     1     134.733 136.897 141.821  1.00  0.00     0.016 A 
ATOM     17  C   UNL     1     134.304 135.636 141.392  1.00  0.00     0.047 A 
BRANCH  15  18
ATOM     18  O   UNL     1     134.313 133.865 139.755  1.00  0.00    -0.508 OA
ATOM     19  H   UNL     1     133.992 133.170 140.420  1.00  0.00     0.293 HD
ENDBRANCH  15  18
ENDBRANCH   1  12
BRANCH   2  20
ATOM     20  O   UNL     1     138.071 138.117 142.527  1.00  0.00    -0.502 OA
ATOM     21  H   UNL     1     138.877 138.210 143.131  1.00  0.00     0.293 HD
ENDBRANCH   2  20
BRANCH   6  22
ATOM     22  O   UNL     1     138.158 143.253 143.339  1.00  0.00    -0.507 OA
ATOM     23  H   UNL     1     138.588 144.163 143.234  1.00  0.00     0.293 HD
ENDBRANCH   6  22
BRANCH   8  24
ATOM     24  O   UNL     1     133.961 144.606 141.343  1.00  0.00    -0.508 OA
ATOM     25  H   UNL     1     133.101 144.397 140.847  1.00  0.00     0.293 HD
ENDBRANCH   8  24
TORSDOF 5
ENDMDL
MODEL 9
REMARK VINA RESULT:    -5.766      4.869      6.947
REMARK INTER + INTRA:          -7.043
REMARK INTER:                  -6.760
REMARK INTRA:                  -0.284
REMARK UNBOUND:                -0.266
REMARK SMILES O=c1c(O)c(-c2ccc(O)cc2)oc2cc(O)cc(O)c12
REMARK SMILES IDX 5 1 3 2 2 3 1 4 21 5 19 6 18 7 16 8 15 9 14 10 13 11 6 12
REMARK SMILES IDX 7 13 8 14 9 15 12 16 11 17 10 18 4 20 20 22 17 24
REMARK H PARENT 10 19 4 21 20 23 17 25
REMARK Flexibility Score: inf
ROOT
ATOM      1  C   UNL     1     131.612 139.554 139.830  1.00  0.00     0.180 A 
ATOM      2  C   UNL     1     130.344 139.214 140.341  1.00  0.00     0.208 A 
ATOM      3  C   UNL     1     130.070 137.869 140.635  1.00  0.00     0.238 A 
ATOM      4  O   UNL     1     128.934 137.552 141.082  1.00  0.00    -0.285 OA
ATOM      5  C   UNL     1     131.067 136.894 140.433  1.00  0.00     0.111 A 
ATOM      6  C   UNL     1     130.873 135.519 140.708  1.00  0.00     0.134 A 
ATOM      7  C   UNL     1     131.919 134.610 140.489  1.00  0.00     0.093 A 
ATOM      8  C   UNL     1     133.155 135.052 140.002  1.00  0.00     0.123 A 
ATOM      9  C   UNL     1     133.351 136.406 139.730  1.00  0.00     0.094 A 
ATOM     10  C   UNL     1     132.321 137.327 139.940  1.00  0.00     0.146 A 
ATOM     11  O   UNL     1     132.534 138.609 139.667  1.00  0.00    -0.452 OA
ENDROOT
BRANCH   1  12
ATOM     12  C   UNL     1     131.972 140.946 139.478  1.00  0.00     0.021 A 
ATOM     13  C   UNL     1     132.616 141.793 140.400  1.00  0.00     0.016 A 
ATOM     14  C   UNL     1     132.924 143.112 140.053  1.00  0.00     0.047 A 
ATOM     15  C   UNL     1     132.580 143.606 138.788  1.00  0.00     0.115 A 
ATOM     16  C   UNL     1     131.612 141.457 138.220  1.00  0.00     0.016 A 
ATOM     17  C   UNL     1     131.921 142.776 137.875  1.00  0.00     0.047 A 
BRANCH  15  18
ATOM     18  O   UNL     1     132.883 144.918 138.431  1.00  0.00    -0.508 OA
ATOM     19  H   UNL     1     133.798 145.172 138.079  1.00  0.00     0.293 HD
ENDBRANCH  15  18
ENDBRANCH   1  12
BRANCH   2  20
ATOM     20  O   UNL     1     129.389 140.207 140.578  1.00  0.00    -0.502 OA
ATOM     21  H   UNL     1     128.658 140.101 141.270  1.00  0.00     0.293 HD
ENDBRANCH   2  20
BRANCH   6  22
ATOM     22  O   UNL     1     129.652 135.049 141.194  1.00  0.00    -0.507 OA
ATOM     23  H   UNL     1     129.266 134.162 140.897  1.00  0.00     0.293 HD
ENDBRANCH   6  22
BRANCH   8  24
ATOM     24  O   UNL     1     134.195 134.150 139.786  1.00  0.00    -0.508 OA
ATOM     25  H   UNL     1     135.025 134.148 140.369  1.00  0.00     0.293 HD
ENDBRANCH   8  24
TORSDOF 5
ENDMDL
