MODEL 1
REMARK VINA RESULT:    -1.283      0.000      0.000
REMARK INTER + INTRA:          -1.476
REMARK INTER:                  -1.433
REMARK INTRA:                  -0.043
REMARK UNBOUND:                -0.043
REMARK SMILES CCCC(=O)[O-]
REMARK SMILES IDX 3 1 4 2 5 3 6 4 2 5 1 6
REMARK H PARENT
REMARK Flexibility Score: inf
ROOT
ATOM      1  C   UNL     1      12.837 -34.128  -1.087  1.00  0.00     0.052 C 
ENDROOT
BRANCH   1   2
ATOM      2  C   UNL     1      12.440 -32.689  -1.007  1.00  0.00     0.041 C 
ATOM      3  O   UNL     1      12.181 -32.044  -2.056  1.00  0.00    -0.550 OA
ATOM      4  O   UNL     1      12.403 -32.045   0.224  1.00  0.00    -0.550 OA
ENDBRANCH   1   2
BRANCH   1   5
ATOM      5  C   UNL     1      14.338 -34.255  -1.358  1.00  0.00     0.003 C 
ATOM      6  C   UNL     1      15.124 -34.395  -0.056  1.00  0.00     0.004 C 
ENDBRANCH   1   5
TORSDOF 2
ENDMDL
MODEL 2
REMARK VINA RESULT:    -1.227      9.190      9.638
REMARK INTER + INTRA:          -1.414
REMARK INTER:                  -1.369
REMARK INTRA:                  -0.045
REMARK UNBOUND:                -0.043
REMARK SMILES CCCC(=O)[O-]
REMARK SMILES IDX 3 1 4 2 5 3 6 4 2 5 1 6
REMARK H PARENT
REMARK Flexibility Score: inf
ROOT
ATOM      1  C   UNL     1      20.546 -28.399  -1.744  1.00  0.00     0.052 C 
ENDROOT
BRANCH   1   2
ATOM      2  C   UNL     1      21.417 -27.213  -1.479  1.00  0.00     0.041 C 
ATOM      3  O   UNL     1      22.661 -27.288  -1.655  1.00  0.00    -0.550 OA
ATOM      4  O   UNL     1      20.860 -26.036  -0.992  1.00  0.00    -0.550 OA
ENDBRANCH   1   2
BRANCH   1   5
ATOM      5  C   UNL     1      19.928 -28.911  -0.441  1.00  0.00     0.003 C 
ATOM      6  C   UNL     1      20.794 -29.997   0.191  1.00  0.00     0.004 C 
ENDBRANCH   1   5
TORSDOF 2
ENDMDL
MODEL 3
REMARK VINA RESULT:    -1.202      8.071      8.485
REMARK INTER + INTRA:          -1.386
REMARK INTER:                  -1.373
REMARK INTRA:                  -0.013
REMARK UNBOUND:                -0.043
REMARK SMILES CCCC(=O)[O-]
REMARK SMILES IDX 3 1 4 2 5 3 6 4 2 5 1 6
REMARK H PARENT
REMARK Flexibility Score: inf
ROOT
ATOM      1  C   UNL     1      19.998 -29.070  -0.138  1.00  0.00     0.052 C 
ENDROOT
BRANCH   1   2
ATOM      2  C   UNL     1      20.641 -28.897  -1.477  1.00  0.00     0.041 C 
ATOM      3  O   UNL     1      21.263 -29.852  -2.009  1.00  0.00    -0.550 OA
ATOM      4  O   UNL     1      20.593 -27.664  -2.116  1.00  0.00    -0.550 OA
ENDBRANCH   1   2
BRANCH   1   5
ATOM      5  C   UNL     1      20.481 -30.363   0.525  1.00  0.00     0.003 C 
ATOM      6  C   UNL     1      19.618 -30.720   1.732  1.00  0.00     0.004 C 
ENDBRANCH   1   5
TORSDOF 2
ENDMDL
MODEL 4
REMARK VINA RESULT:    -1.195      2.060      2.699
REMARK INTER + INTRA:          -1.378
REMARK INTER:                  -1.365
REMARK INTRA:                  -0.013
REMARK UNBOUND:                -0.043
REMARK SMILES CCCC(=O)[O-]
REMARK SMILES IDX 3 1 4 2 5 3 6 4 2 5 1 6
REMARK H PARENT
REMARK Flexibility Score: inf
ROOT
ATOM      1  C   UNL     1      14.805 -34.237   0.207  1.00  0.00     0.052 C 
ENDROOT
BRANCH   1   2
ATOM      2  C   UNL     1      14.286 -34.177  -1.195  1.00  0.00     0.041 C 
ATOM      3  O   UNL     1      14.771 -34.927  -2.082  1.00  0.00    -0.550 OA
ATOM      4  O   UNL     1      13.300 -33.259  -1.532  1.00  0.00    -0.550 OA
ENDBRANCH   1   2
BRANCH   1   5
ATOM      5  C   UNL     1      16.231 -34.794   0.227  1.00  0.00     0.003 C 
ATOM      6  C   UNL     1      17.062 -34.144   1.329  1.00  0.00     0.004 C 
ENDBRANCH   1   5
TORSDOF 2
ENDMDL
MODEL 5
REMARK VINA RESULT:    -1.171      8.701      9.140
REMARK INTER + INTRA:          -1.352
REMARK INTER:                  -1.302
REMARK INTRA:                  -0.050
REMARK UNBOUND:                -0.043
REMARK SMILES CCCC(=O)[O-]
REMARK SMILES IDX 3 1 4 2 5 3 6 4 2 5 1 6
REMARK H PARENT
REMARK Flexibility Score: inf
ROOT
ATOM      1  C   UNL     1      19.861 -28.980  -0.269  1.00  0.00     0.052 C 
ENDROOT
BRANCH   1   2
ATOM      2  C   UNL     1      20.603 -28.107   0.692  1.00  0.00     0.041 C 
ATOM      3  O   UNL     1      21.193 -28.613   1.682  1.00  0.00    -0.550 OA
ATOM      4  O   UNL     1      20.603 -26.728   0.521  1.00  0.00    -0.550 OA
ENDBRANCH   1   2
BRANCH   1   5
ATOM      5  C   UNL     1      20.543 -28.969  -1.639  1.00  0.00     0.003 C 
ATOM      6  C   UNL     1      21.681 -29.985  -1.697  1.00  0.00     0.004 C 
ENDBRANCH   1   5
TORSDOF 2
ENDMDL
MODEL 6
REMARK VINA RESULT:    -1.166      9.086      9.406
REMARK INTER + INTRA:          -1.345
REMARK INTER:                  -1.291
REMARK INTRA:                  -0.054
REMARK UNBOUND:                -0.043
REMARK SMILES CCCC(=O)[O-]
REMARK SMILES IDX 3 1 4 2 5 3 6 4 2 5 1 6
REMARK H PARENT
REMARK Flexibility Score: inf
ROOT
ATOM      1  C   UNL     1      20.124 -28.662  -0.689  1.00  0.00     0.052 C 
ENDROOT
BRANCH   1   2
ATOM      2  C   UNL     1      20.867 -27.443  -0.244  1.00  0.00     0.041 C 
ATOM      3  O   UNL     1      20.871 -26.408  -0.960  1.00  0.00    -0.550 OA
ATOM      4  O   UNL     1      21.594 -27.465   0.940  1.00  0.00    -0.550 OA
ENDBRANCH   1   2
BRANCH   1   5
ATOM      5  C   UNL     1      20.572 -29.080  -2.092  1.00  0.00     0.003 C 
ATOM      6  C   UNL     1      21.799 -29.985  -2.033  1.00  0.00     0.004 C 
ENDBRANCH   1   5
TORSDOF 2
ENDMDL
MODEL 7
REMARK VINA RESULT:    -1.161      8.143      8.826
REMARK INTER + INTRA:          -1.340
REMARK INTER:                  -1.304
REMARK INTRA:                  -0.036
REMARK UNBOUND:                -0.043
REMARK SMILES CCCC(=O)[O-]
REMARK SMILES IDX 3 1 4 2 5 3 6 4 2 5 1 6
REMARK H PARENT
REMARK Flexibility Score: inf
ROOT
ATOM      1  C   UNL     1      19.882 -29.044  -0.270  1.00  0.00     0.052 C 
ENDROOT
BRANCH   1   2
ATOM      2  C   UNL     1      20.531 -30.175   0.464  1.00  0.00     0.041 C 
ATOM      3  O   UNL     1      19.844 -30.928   1.202  1.00  0.00    -0.550 OA
ATOM      4  O   UNL     1      21.904 -30.368   0.370  1.00  0.00    -0.550 OA
ENDBRANCH   1   2
BRANCH   1   5
ATOM      5  C   UNL     1      20.508 -28.878  -1.657  1.00  0.00     0.003 C 
ATOM      6  C   UNL     1      21.086 -27.476  -1.837  1.00  0.00     0.004 C 
ENDBRANCH   1   5
TORSDOF 2
ENDMDL
MODEL 8
REMARK VINA RESULT:    -1.157      9.392      9.948
REMARK INTER + INTRA:          -1.335
REMARK INTER:                  -1.298
REMARK INTRA:                  -0.038
REMARK UNBOUND:                -0.043
REMARK SMILES CCCC(=O)[O-]
REMARK SMILES IDX 3 1 4 2 5 3 6 4 2 5 1 6
REMARK H PARENT
REMARK Flexibility Score: inf
ROOT
ATOM      1  C   UNL     1      21.315 -27.705  -0.109  1.00  0.00     0.052 C 
ENDROOT
BRANCH   1   2
ATOM      2  C   UNL     1      20.904 -26.268  -0.066  1.00  0.00     0.041 C 
ATOM      3  O   UNL     1      20.433 -25.776   0.992  1.00  0.00    -0.550 OA
ATOM      4  O   UNL     1      20.998 -25.483  -1.209  1.00  0.00    -0.550 OA
ENDBRANCH   1   2
BRANCH   1   5
ATOM      5  C   UNL     1      20.210 -28.559  -0.735  1.00  0.00     0.003 C 
ATOM      6  C   UNL     1      20.611 -29.050  -2.124  1.00  0.00     0.004 C 
ENDBRANCH   1   5
TORSDOF 2
ENDMDL
MODEL 9
REMARK VINA RESULT:    -1.148      2.968      3.855
REMARK INTER + INTRA:          -1.326
REMARK INTER:                  -1.317
REMARK INTRA:                  -0.008
REMARK UNBOUND:                -0.043
REMARK SMILES CCCC(=O)[O-]
REMARK SMILES IDX 3 1 4 2 5 3 6 4 2 5 1 6
REMARK H PARENT
REMARK Flexibility Score: inf
ROOT
ATOM      1  C   UNL     1      14.305 -34.060   0.160  1.00  0.00     0.052 C 
ENDROOT
BRANCH   1   2
ATOM      2  C   UNL     1      15.735 -34.489   0.244  1.00  0.00     0.041 C 
ATOM      3  O   UNL     1      16.453 -34.116   1.207  1.00  0.00    -0.550 OA
ATOM      4  O   UNL     1      16.289 -35.264  -0.768  1.00  0.00    -0.550 OA
ENDBRANCH   1   2
BRANCH   1   5
ATOM      5  C   UNL     1      13.863 -33.953  -1.301  1.00  0.00     0.003 C 
ATOM      6  C   UNL     1      12.712 -32.962  -1.458  1.00  0.00     0.004 C 
ENDBRANCH   1   5
TORSDOF 2
ENDMDL
