MODEL 1
REMARK VINA RESULT:    -6.992      0.000      0.000
REMARK INTER + INTRA:          -7.662
REMARK INTER:                  -7.606
REMARK INTRA:                  -0.057
REMARK UNBOUND:                -0.057
REMARK SMILES CC1(C)[C@@H]2CC=C(CO)[C@H]1C2
REMARK SMILES IDX 8 1 7 2 1 3 2 4 4 5 3 6 10 7 5 8 11 9 6 10 9 11
REMARK H PARENT 9 12
REMARK Flexibility Score: inf
ROOT
ATOM      1  C   UNL     1      11.863 -19.581  39.192  1.00  0.00     0.187 C 
ENDROOT
BRANCH   1   2
ATOM      2  C   UNL     1      11.630 -18.189  39.704  1.00  0.00    -0.045 C 
ATOM      3  C   UNL     1      13.580 -15.999  39.325  1.00  0.00     0.012 C 
ATOM      4  C   UNL     1      12.064 -15.797  39.048  1.00  0.00    -0.026 C 
ATOM      5  C   UNL     1      11.115 -15.543  40.251  1.00  0.00    -0.000 C 
ATOM      6  C   UNL     1      11.910 -14.719  37.945  1.00  0.00     0.012 C 
ATOM      7  C   UNL     1      11.191 -17.050  38.772  1.00  0.00     0.023 C 
ATOM      8  C   UNL     1      11.541 -16.424  41.477  1.00  0.00     0.031 C 
ATOM      9  C   UNL     1      10.031 -16.353  39.511  1.00  0.00     0.013 C 
ATOM     10  C   UNL     1      11.773 -17.880  41.027  1.00  0.00    -0.025 C 
ENDBRANCH   1   2
BRANCH   1  11
ATOM     11  O   UNL     1      12.207 -19.530  37.836  1.00  0.00    -0.392 OA
ATOM     12  H   UNL     1      11.514 -18.970  37.398  1.00  0.00     0.211 HD
ENDBRANCH   1  11
TORSDOF 2
ENDMDL
MODEL 2
REMARK VINA RESULT:    -5.848      1.042      2.684
REMARK INTER + INTRA:          -6.418
REMARK INTER:                  -6.394
REMARK INTRA:                  -0.023
REMARK UNBOUND:                -0.057
REMARK SMILES CC1(C)[C@@H]2CC=C(CO)[C@H]1C2
REMARK SMILES IDX 8 1 7 2 1 3 2 4 4 5 3 6 10 7 5 8 11 9 6 10 9 11
REMARK H PARENT 9 12
REMARK Flexibility Score: inf
ROOT
ATOM      1  C   UNL     1      11.641 -19.057  39.104  1.00  0.00     0.187 C 
ENDROOT
BRANCH   1   2
ATOM      2  C   UNL     1      11.577 -17.606  38.725  1.00  0.00    -0.045 C 
ATOM      3  C   UNL     1       9.314 -15.855  39.470  1.00  0.00     0.012 C 
ATOM      4  C   UNL     1      10.790 -15.403  39.657  1.00  0.00    -0.026 C 
ATOM      5  C   UNL     1      11.568 -14.872  38.422  1.00  0.00    -0.000 C 
ATOM      6  C   UNL     1      10.849 -14.419  40.853  1.00  0.00     0.012 C 
ATOM      7  C   UNL     1      11.891 -16.493  39.737  1.00  0.00     0.023 C 
ATOM      8  C   UNL     1      11.195 -15.703  37.144  1.00  0.00     0.031 C 
ATOM      9  C   UNL     1      12.839 -15.532  38.993  1.00  0.00     0.013 C 
ATOM     10  C   UNL     1      11.264 -17.211  37.456  1.00  0.00    -0.025 C 
ENDBRANCH   1   2
BRANCH   1  11
ATOM     11  O   UNL     1      12.169 -19.796  38.039  1.00  0.00    -0.392 OA
ATOM     12  H   UNL     1      13.139 -19.895  38.228  1.00  0.00     0.211 HD
ENDBRANCH   1  11
TORSDOF 2
ENDMDL
MODEL 3
REMARK VINA RESULT:    -5.763      1.702      3.460
REMARK INTER + INTRA:          -6.324
REMARK INTER:                  -6.259
REMARK INTRA:                  -0.065
REMARK UNBOUND:                -0.057
REMARK SMILES CC1(C)[C@@H]2CC=C(CO)[C@H]1C2
REMARK SMILES IDX 8 1 7 2 1 3 2 4 4 5 3 6 10 7 5 8 11 9 6 10 9 11
REMARK H PARENT 9 12
REMARK Flexibility Score: inf
ROOT
ATOM      1  C   UNL     1      11.558 -14.307  38.281  1.00  0.00     0.187 C 
ENDROOT
BRANCH   1   2
ATOM      2  C   UNL     1      11.724 -15.381  39.316  1.00  0.00    -0.045 C 
ATOM      3  C   UNL     1       9.960 -17.748  39.462  1.00  0.00     0.012 C 
ATOM      4  C   UNL     1      11.506 -17.878  39.556  1.00  0.00    -0.026 C 
ATOM      5  C   UNL     1      12.198 -17.570  40.912  1.00  0.00    -0.000 C 
ATOM      6  C   UNL     1      11.913 -19.263  38.992  1.00  0.00     0.012 C 
ATOM      7  C   UNL     1      12.378 -16.730  38.982  1.00  0.00     0.023 C 
ATOM      8  C   UNL     1      11.504 -16.350  41.614  1.00  0.00     0.031 C 
ATOM      9  C   UNL     1      13.384 -16.980  40.123  1.00  0.00     0.013 C 
ATOM     10  C   UNL     1      11.324 -15.195  40.609  1.00  0.00    -0.025 C 
ENDBRANCH   1   2
BRANCH   1  11
ATOM     11  O   UNL     1      10.720 -14.768  37.258  1.00  0.00    -0.392 OA
ATOM     12  H   UNL     1       9.920 -14.181  37.273  1.00  0.00     0.211 HD
ENDBRANCH   1  11
TORSDOF 2
ENDMDL
MODEL 4
REMARK VINA RESULT:    -5.761      1.631      2.817
REMARK INTER + INTRA:          -6.322
REMARK INTER:                  -6.299
REMARK INTRA:                  -0.023
REMARK UNBOUND:                -0.057
REMARK SMILES CC1(C)[C@@H]2CC=C(CO)[C@H]1C2
REMARK SMILES IDX 8 1 7 2 1 3 2 4 4 5 3 6 10 7 5 8 11 9 6 10 9 11
REMARK H PARENT 9 12
REMARK Flexibility Score: inf
ROOT
ATOM      1  C   UNL     1      11.827 -18.364  42.332  1.00  0.00     0.187 C 
ENDROOT
BRANCH   1   2
ATOM      2  C   UNL     1      11.870 -17.808  40.939  1.00  0.00    -0.045 C 
ATOM      3  C   UNL     1       9.639 -16.264  39.764  1.00  0.00     0.012 C 
ATOM      4  C   UNL     1      11.113 -15.784  39.647  1.00  0.00    -0.026 C 
ATOM      5  C   UNL     1      12.022 -16.428  38.564  1.00  0.00    -0.000 C 
ATOM      6  C   UNL     1      11.116 -14.236  39.568  1.00  0.00     0.012 C 
ATOM      7  C   UNL     1      12.148 -16.322  40.671  1.00  0.00     0.023 C 
ATOM      8  C   UNL     1      11.723 -17.963  38.444  1.00  0.00     0.031 C 
ATOM      9  C   UNL     1      13.203 -16.308  39.548  1.00  0.00     0.013 C 
ATOM     10  C   UNL     1      11.689 -18.606  39.845  1.00  0.00    -0.025 C 
ENDBRANCH   1   2
BRANCH   1  11
ATOM     11  O   UNL     1      12.489 -19.598  42.365  1.00  0.00    -0.392 OA
ATOM     12  H   UNL     1      13.243 -19.522  41.724  1.00  0.00     0.211 HD
ENDBRANCH   1  11
TORSDOF 2
ENDMDL
MODEL 5
REMARK VINA RESULT:    -5.659      1.494      2.378
REMARK INTER + INTRA:          -6.211
REMARK INTER:                  -6.156
REMARK INTRA:                  -0.055
REMARK UNBOUND:                -0.057
REMARK SMILES CC1(C)[C@@H]2CC=C(CO)[C@H]1C2
REMARK SMILES IDX 8 1 7 2 1 3 2 4 4 5 3 6 10 7 5 8 11 9 6 10 9 11
REMARK H PARENT 9 12
REMARK Flexibility Score: inf
ROOT
ATOM      1  C   UNL     1      12.421 -19.395  41.784  1.00  0.00     0.187 C 
ENDROOT
BRANCH   1   2
ATOM      2  C   UNL     1      12.478 -18.105  41.018  1.00  0.00    -0.045 C 
ATOM      3  C   UNL     1      11.427 -17.830  38.269  1.00  0.00     0.012 C 
ATOM      4  C   UNL     1      11.111 -16.780  39.370  1.00  0.00    -0.026 C 
ATOM      5  C   UNL     1      12.182 -15.706  39.705  1.00  0.00    -0.000 C 
ATOM      6  C   UNL     1       9.729 -16.151  39.060  1.00  0.00     0.012 C 
ATOM      7  C   UNL     1      11.242 -17.208  40.857  1.00  0.00     0.023 C 
ATOM      8  C   UNL     1      13.618 -16.337  39.662  1.00  0.00     0.031 C 
ATOM      9  C   UNL     1      11.737 -15.784  41.179  1.00  0.00     0.013 C 
ATOM     10  C   UNL     1      13.639 -17.659  40.454  1.00  0.00    -0.025 C 
ENDBRANCH   1   2
BRANCH   1  11
ATOM     11  O   UNL     1      12.213 -20.458  40.897  1.00  0.00    -0.392 OA
ATOM     12  H   UNL     1      13.071 -20.957  40.861  1.00  0.00     0.211 HD
ENDBRANCH   1  11
TORSDOF 2
ENDMDL
MODEL 6
REMARK VINA RESULT:    -5.641      1.677      1.840
REMARK INTER + INTRA:          -6.193
REMARK INTER:                  -6.169
REMARK INTRA:                  -0.024
REMARK UNBOUND:                -0.057
REMARK SMILES CC1(C)[C@@H]2CC=C(CO)[C@H]1C2
REMARK SMILES IDX 8 1 7 2 1 3 2 4 4 5 3 6 10 7 5 8 11 9 6 10 9 11
REMARK H PARENT 9 12
REMARK Flexibility Score: inf
ROOT
ATOM      1  C   UNL     1      12.617 -18.672  40.938  1.00  0.00     0.187 C 
ENDROOT
BRANCH   1   2
ATOM      2  C   UNL     1      11.854 -17.453  40.507  1.00  0.00    -0.045 C 
ATOM      3  C   UNL     1      12.951 -15.466  38.613  1.00  0.00     0.012 C 
ATOM      4  C   UNL     1      11.506 -16.019  38.467  1.00  0.00    -0.026 C 
ATOM      5  C   UNL     1      10.387 -15.425  39.366  1.00  0.00    -0.000 C 
ATOM      6  C   UNL     1      11.124 -15.992  36.965  1.00  0.00     0.012 C 
ATOM      7  C   UNL     1      11.164 -17.376  39.137  1.00  0.00     0.023 C 
ATOM      8  C   UNL     1      10.939 -15.143  40.808  1.00  0.00     0.031 C 
ATOM      9  C   UNL     1       9.753 -16.829  39.430  1.00  0.00     0.013 C 
ATOM     10  C   UNL     1      11.716 -16.369  41.325  1.00  0.00    -0.025 C 
ENDBRANCH   1   2
BRANCH   1  11
ATOM     11  O   UNL     1      12.261 -19.008  42.250  1.00  0.00    -0.392 OA
ATOM     12  H   UNL     1      11.827 -19.899  42.197  1.00  0.00     0.211 HD
ENDBRANCH   1  11
TORSDOF 2
ENDMDL
MODEL 7
REMARK VINA RESULT:    -5.440      1.787      2.371
REMARK INTER + INTRA:          -5.974
REMARK INTER:                  -5.926
REMARK INTRA:                  -0.048
REMARK UNBOUND:                -0.057
REMARK SMILES CC1(C)[C@@H]2CC=C(CO)[C@H]1C2
REMARK SMILES IDX 8 1 7 2 1 3 2 4 4 5 3 6 10 7 5 8 11 9 6 10 9 11
REMARK H PARENT 9 12
REMARK Flexibility Score: inf
ROOT
ATOM      1  C   UNL     1      13.403 -17.782  40.456  1.00  0.00     0.187 C 
ENDROOT
BRANCH   1   2
ATOM      2  C   UNL     1      12.197 -17.193  39.783  1.00  0.00    -0.045 C 
ATOM      3  C   UNL     1      10.906 -14.700  40.711  1.00  0.00     0.012 C 
ATOM      4  C   UNL     1      11.217 -14.946  39.208  1.00  0.00    -0.026 C 
ATOM      5  C   UNL     1      10.252 -15.842  38.384  1.00  0.00    -0.000 C 
ATOM      6  C   UNL     1      11.461 -13.573  38.532  1.00  0.00     0.012 C 
ATOM      7  C   UNL     1      12.310 -15.985  38.841  1.00  0.00     0.023 C 
ATOM      8  C   UNL     1       9.755 -17.050  39.253  1.00  0.00     0.031 C 
ATOM      9  C   UNL     1      11.474 -16.364  37.603  1.00  0.00     0.013 C 
ATOM     10  C   UNL     1      10.950 -17.721  39.958  1.00  0.00    -0.025 C 
ENDBRANCH   1   2
BRANCH   1  11
ATOM     11  O   UNL     1      14.549 -17.082  40.061  1.00  0.00    -0.392 OA
ATOM     12  H   UNL     1      14.850 -17.504  39.214  1.00  0.00     0.211 HD
ENDBRANCH   1  11
TORSDOF 2
ENDMDL
MODEL 8
REMARK VINA RESULT:    -4.958      2.380      3.800
REMARK INTER + INTRA:          -5.450
REMARK INTER:                  -5.426
REMARK INTRA:                  -0.024
REMARK UNBOUND:                -0.057
REMARK SMILES CC1(C)[C@@H]2CC=C(CO)[C@H]1C2
REMARK SMILES IDX 8 1 7 2 1 3 2 4 4 5 3 6 10 7 5 8 11 9 6 10 9 11
REMARK H PARENT 9 12
REMARK Flexibility Score: inf
ROOT
ATOM      1  C   UNL     1      10.504 -14.345  40.885  1.00  0.00     0.187 C 
ENDROOT
BRANCH   1   2
ATOM      2  C   UNL     1      10.842 -15.412  39.885  1.00  0.00    -0.045 C 
ATOM      3  C   UNL     1      13.504 -16.690  39.746  1.00  0.00     0.012 C 
ATOM      4  C   UNL     1      12.196 -17.527  39.706  1.00  0.00    -0.026 C 
ATOM      5  C   UNL     1      11.418 -17.631  38.365  1.00  0.00    -0.000 C 
ATOM      6  C   UNL     1      12.490 -18.920  40.320  1.00  0.00     0.012 C 
ATOM      7  C   UNL     1      10.898 -16.896  40.276  1.00  0.00     0.023 C 
ATOM      8  C   UNL     1      11.451 -16.257  37.609  1.00  0.00     0.031 C 
ATOM      9  C   UNL     1      10.107 -17.630  39.176  1.00  0.00     0.013 C 
ATOM     10  C   UNL     1      11.088 -15.113  38.575  1.00  0.00    -0.025 C 
ENDBRANCH   1   2
BRANCH   1  11
ATOM     11  O   UNL     1      11.022 -13.117  40.453  1.00  0.00    -0.392 OA
ATOM     12  H   UNL     1      10.597 -12.424  41.023  1.00  0.00     0.211 HD
ENDBRANCH   1  11
TORSDOF 2
ENDMDL
MODEL 9
REMARK VINA RESULT:    -4.644      1.822      3.553
REMARK INTER + INTRA:          -5.107
REMARK INTER:                  -5.084
REMARK INTRA:                  -0.023
REMARK UNBOUND:                -0.057
REMARK SMILES CC1(C)[C@@H]2CC=C(CO)[C@H]1C2
REMARK SMILES IDX 8 1 7 2 1 3 2 4 4 5 3 6 10 7 5 8 11 9 6 10 9 11
REMARK H PARENT 9 12
REMARK Flexibility Score: inf
ROOT
ATOM      1  C   UNL     1      10.178 -15.745  38.502  1.00  0.00     0.187 C 
ENDROOT
BRANCH   1   2
ATOM      2  C   UNL     1      11.345 -16.384  39.197  1.00  0.00    -0.045 C 
ATOM      3  C   UNL     1      11.882 -16.024  42.082  1.00  0.00     0.012 C 
ATOM      4  C   UNL     1      11.934 -17.425  41.412  1.00  0.00    -0.026 C 
ATOM      5  C   UNL     1      13.209 -17.824  40.618  1.00  0.00    -0.000 C 
ATOM      6  C   UNL     1      11.552 -18.487  42.475  1.00  0.00     0.012 C 
ATOM      7  C   UNL     1      11.176 -17.633  40.075  1.00  0.00     0.023 C 
ATOM      8  C   UNL     1      13.761 -16.592  39.819  1.00  0.00     0.031 C 
ATOM      9  C   UNL     1      12.302 -18.588  39.632  1.00  0.00     0.013 C 
ATOM     10  C   UNL     1      12.614 -15.898  39.058  1.00  0.00    -0.025 C 
ENDBRANCH   1   2
BRANCH   1  11
ATOM     11  O   UNL     1      10.638 -14.733  37.650  1.00  0.00    -0.392 OA
ATOM     12  H   UNL     1      10.546 -13.884  38.157  1.00  0.00     0.211 HD
ENDBRANCH   1  11
TORSDOF 2
ENDMDL
