MODEL 1
REMARK VINA RESULT:    -4.611      0.000      0.000
REMARK INTER + INTRA:         -12.595
REMARK INTER:                 -10.002
REMARK INTRA:                  -2.593
REMARK UNBOUND:                -2.593
REMARK SMILES CCCCCCCCCCCCCCCCCCCCCC(=O)[O-]
REMARK SMILES IDX 12 1 11 2 10 3 9 4 8 5 7 6 6 7 5 8 4 9 3 10 2 11 1 12 13 13
REMARK SMILES IDX 14 14 15 15 16 16 17 17 18 18 19 19 20 20 21 21 22 22 23 23
REMARK SMILES IDX 24 24
REMARK H PARENT
REMARK Flexibility Score: inf
ROOT
ATOM      1  C   UNL     1     -11.860 -28.513 -33.285  1.00  0.00     0.000 C 
ENDROOT
BRANCH   1   2
ATOM      2  C   UNL     1     -11.777 -27.590 -34.520  1.00  0.00     0.000 C 
BRANCH   2   3
ATOM      3  C   UNL     1     -12.909 -26.548 -34.598  1.00  0.00     0.000 C 
BRANCH   3   4
ATOM      4  C   UNL     1     -13.486 -26.319 -36.005  1.00  0.00    -0.000 C 
BRANCH   4   5
ATOM      5  C   UNL     1     -13.278 -24.883 -36.508  1.00  0.00    -0.000 C 
BRANCH   5   6
ATOM      6  C   UNL     1     -12.482 -24.055 -35.488  1.00  0.00    -0.000 C 
BRANCH   6   7
ATOM      7  C   UNL     1     -12.509 -22.544 -35.799  1.00  0.00    -0.000 C 
BRANCH   7   8
ATOM      8  C   UNL     1     -13.287 -21.709 -34.764  1.00  0.00    -0.000 C 
BRANCH   8   9
ATOM      9  C   UNL     1     -13.472 -20.225 -35.130  1.00  0.00    -0.000 C 
BRANCH   9  10
ATOM     10  C   UNL     1     -12.526 -19.699 -36.231  1.00  0.00    -0.000 C 
BRANCH  10  11
ATOM     11  C   UNL     1     -11.253 -19.005 -35.714  1.00  0.00    -0.003 C 
ATOM     12  C   UNL     1      -9.971 -19.737 -36.111  1.00  0.00     0.004 C 
ENDBRANCH  10  11
ENDBRANCH   9  10
ENDBRANCH   8   9
ENDBRANCH   7   8
ENDBRANCH   6   7
ENDBRANCH   5   6
ENDBRANCH   4   5
ENDBRANCH   3   4
ENDBRANCH   2   3
ENDBRANCH   1   2
BRANCH   1  13
ATOM     13  C   UNL     1     -13.140 -28.277 -32.463  1.00  0.00     0.000 C 
BRANCH  13  14
ATOM     14  C   UNL     1     -12.937 -28.552 -30.965  1.00  0.00     0.000 C 
BRANCH  14  15
ATOM     15  C   UNL     1     -12.915 -27.262 -30.124  1.00  0.00     0.000 C 
BRANCH  15  16
ATOM     16  C   UNL     1     -13.439 -26.036 -30.895  1.00  0.00     0.000 C 
BRANCH  16  17
ATOM     17  C   UNL     1     -12.509 -24.807 -30.862  1.00  0.00     0.000 C 
BRANCH  17  18
ATOM     18  C   UNL     1     -11.350 -24.909 -31.869  1.00  0.00     0.000 C 
BRANCH  18  19
ATOM     19  C   UNL     1      -9.982 -25.092 -31.189  1.00  0.00     0.000 C 
BRANCH  19  20
ATOM     20  C   UNL     1      -9.698 -24.110 -30.037  1.00  0.00     0.006 C 
BRANCH  20  21
ATOM     21  C   UNL     1      -8.769 -22.958 -30.446  1.00  0.00     0.053 C 
BRANCH  21  22
ATOM     22  C   UNL     1      -9.534 -21.675 -30.532  1.00  0.00     0.041 C 
ATOM     23  O   UNL     1      -8.925 -20.584 -30.685  1.00  0.00    -0.550 OA
ATOM     24  O   UNL     1     -10.917 -21.678 -30.389  1.00  0.00    -0.550 OA
ENDBRANCH  21  22
ENDBRANCH  20  21
ENDBRANCH  19  20
ENDBRANCH  18  19
ENDBRANCH  17  18
ENDBRANCH  16  17
ENDBRANCH  15  16
ENDBRANCH  14  15
ENDBRANCH  13  14
ENDBRANCH   1  13
TORSDOF 20
ENDMDL
MODEL 2
REMARK VINA RESULT:    -4.609      1.552      3.108
REMARK INTER + INTRA:         -12.592
REMARK INTER:                 -10.372
REMARK INTRA:                  -2.220
REMARK UNBOUND:                -2.593
REMARK SMILES CCCCCCCCCCCCCCCCCCCCCC(=O)[O-]
REMARK SMILES IDX 12 1 11 2 10 3 9 4 8 5 7 6 6 7 5 8 4 9 3 10 2 11 1 12 13 13
REMARK SMILES IDX 14 14 15 15 16 16 17 17 18 18 19 19 20 20 21 21 22 22 23 23
REMARK SMILES IDX 24 24
REMARK H PARENT
REMARK Flexibility Score: inf
ROOT
ATOM      1  C   UNL     1     -11.763 -26.762 -35.240  1.00  0.00     0.000 C 
ENDROOT
BRANCH   1   2
ATOM      2  C   UNL     1     -11.579 -25.316 -35.748  1.00  0.00     0.000 C 
BRANCH   2   3
ATOM      3  C   UNL     1     -12.794 -24.405 -35.487  1.00  0.00     0.000 C 
BRANCH   3   4
ATOM      4  C   UNL     1     -12.639 -22.957 -35.981  1.00  0.00    -0.000 C 
BRANCH   4   5
ATOM      5  C   UNL     1     -12.653 -21.932 -34.836  1.00  0.00    -0.000 C 
BRANCH   5   6
ATOM      6  C   UNL     1     -13.830 -20.957 -34.988  1.00  0.00    -0.000 C 
BRANCH   6   7
ATOM      7  C   UNL     1     -13.386 -19.560 -35.473  1.00  0.00    -0.000 C 
BRANCH   7   8
ATOM      8  C   UNL     1     -11.923 -19.504 -35.953  1.00  0.00    -0.000 C 
BRANCH   8   9
ATOM      9  C   UNL     1     -10.933 -18.877 -34.954  1.00  0.00    -0.000 C 
BRANCH   9  10
ATOM     10  C   UNL     1      -9.443 -19.006 -35.340  1.00  0.00    -0.000 C 
BRANCH  10  11
ATOM     11  C   UNL     1      -9.179 -19.744 -36.665  1.00  0.00    -0.003 C 
ATOM     12  C   UNL     1      -7.827 -19.391 -37.285  1.00  0.00     0.004 C 
ENDBRANCH  10  11
ENDBRANCH   9  10
ENDBRANCH   8   9
ENDBRANCH   7   8
ENDBRANCH   6   7
ENDBRANCH   5   6
ENDBRANCH   4   5
ENDBRANCH   3   4
ENDBRANCH   2   3
ENDBRANCH   1   2
BRANCH   1  13
ATOM     13  C   UNL     1     -13.183 -27.297 -35.493  1.00  0.00     0.000 C 
BRANCH  13  14
ATOM     14  C   UNL     1     -13.833 -27.870 -34.225  1.00  0.00     0.000 C 
BRANCH  14  15
ATOM     15  C   UNL     1     -13.384 -27.137 -32.947  1.00  0.00     0.000 C 
BRANCH  15  16
ATOM     16  C   UNL     1     -12.923 -28.099 -31.836  1.00  0.00     0.000 C 
BRANCH  16  17
ATOM     17  C   UNL     1     -13.018 -27.528 -30.407  1.00  0.00     0.000 C 
BRANCH  17  18
ATOM     18  C   UNL     1     -13.646 -26.124 -30.367  1.00  0.00     0.000 C 
BRANCH  18  19
ATOM     19  C   UNL     1     -12.623 -25.021 -30.044  1.00  0.00     0.000 C 
BRANCH  19  20
ATOM     20  C   UNL     1     -12.371 -24.021 -31.189  1.00  0.00     0.006 C 
BRANCH  20  21
ATOM     21  C   UNL     1     -11.188 -24.417 -32.082  1.00  0.00     0.053 C 
BRANCH  21  22
ATOM     22  C   UNL     1     -10.068 -24.965 -31.254  1.00  0.00     0.041 C 
ATOM     23  O   UNL     1      -9.336 -24.188 -30.585  1.00  0.00    -0.550 OA
ATOM     24  O   UNL     1      -9.797 -26.328 -31.264  1.00  0.00    -0.550 OA
ENDBRANCH  21  22
ENDBRANCH  20  21
ENDBRANCH  19  20
ENDBRANCH  18  19
ENDBRANCH  17  18
ENDBRANCH  16  17
ENDBRANCH  15  16
ENDBRANCH  14  15
ENDBRANCH  13  14
ENDBRANCH   1  13
TORSDOF 20
ENDMDL
MODEL 3
REMARK VINA RESULT:    -4.561      2.257      6.124
REMARK INTER + INTRA:         -12.487
REMARK INTER:                  -9.914
REMARK INTRA:                  -2.572
REMARK UNBOUND:                -2.593
REMARK SMILES CCCCCCCCCCCCCCCCCCCCCC(=O)[O-]
REMARK SMILES IDX 12 1 11 2 10 3 9 4 8 5 7 6 6 7 5 8 4 9 3 10 2 11 1 12 13 13
REMARK SMILES IDX 14 14 15 15 16 16 17 17 18 18 19 19 20 20 21 21 22 22 23 23
REMARK SMILES IDX 24 24
REMARK H PARENT
REMARK Flexibility Score: inf
ROOT
ATOM      1  C   UNL     1     -13.081 -27.360 -35.544  1.00  0.00     0.000 C 
ENDROOT
BRANCH   1   2
ATOM      2  C   UNL     1     -13.962 -27.760 -34.340  1.00  0.00     0.000 C 
BRANCH   2   3
ATOM      3  C   UNL     1     -13.438 -27.243 -32.986  1.00  0.00     0.000 C 
BRANCH   3   4
ATOM      4  C   UNL     1     -13.031 -28.339 -31.986  1.00  0.00    -0.000 C 
BRANCH   4   5
ATOM      5  C   UNL     1     -12.955 -27.827 -30.540  1.00  0.00    -0.000 C 
BRANCH   5   6
ATOM      6  C   UNL     1     -11.504 -27.816 -30.038  1.00  0.00    -0.000 C 
BRANCH   6   7
ATOM      7  C   UNL     1     -10.484 -27.579 -31.173  1.00  0.00    -0.000 C 
BRANCH   7   8
ATOM      8  C   UNL     1      -9.583 -26.349 -30.954  1.00  0.00    -0.000 C 
BRANCH   8   9
ATOM      9  C   UNL     1     -10.332 -25.019 -30.760  1.00  0.00    -0.000 C 
BRANCH   9  10
ATOM     10  C   UNL     1     -11.147 -24.543 -31.982  1.00  0.00    -0.000 C 
BRANCH  10  11
ATOM     11  C   UNL     1     -12.579 -24.073 -31.664  1.00  0.00    -0.003 C 
ATOM     12  C   UNL     1     -12.917 -24.158 -30.176  1.00  0.00     0.004 C 
ENDBRANCH  10  11
ENDBRANCH   9  10
ENDBRANCH   8   9
ENDBRANCH   7   8
ENDBRANCH   6   7
ENDBRANCH   5   6
ENDBRANCH   4   5
ENDBRANCH   3   4
ENDBRANCH   2   3
ENDBRANCH   1   2
BRANCH   1  13
ATOM     13  C   UNL     1     -11.682 -26.885 -35.115  1.00  0.00     0.000 C 
BRANCH  13  14
ATOM     14  C   UNL     1     -11.465 -25.385 -35.368  1.00  0.00     0.000 C 
BRANCH  14  15
ATOM     15  C   UNL     1     -12.786 -24.624 -35.581  1.00  0.00     0.000 C 
BRANCH  15  16
ATOM     16  C   UNL     1     -12.571 -23.142 -35.941  1.00  0.00     0.000 C 
BRANCH  16  17
ATOM     17  C   UNL     1     -12.784 -22.156 -34.775  1.00  0.00     0.000 C 
BRANCH  17  18
ATOM     18  C   UNL     1     -13.457 -20.845 -35.218  1.00  0.00     0.000 C 
BRANCH  18  19
ATOM     19  C   UNL     1     -12.473 -19.665 -35.298  1.00  0.00     0.000 C 
BRANCH  19  20
ATOM     20  C   UNL     1     -11.009 -20.064 -35.567  1.00  0.00     0.006 C 
BRANCH  20  21
ATOM     21  C   UNL     1     -10.128 -18.876 -35.976  1.00  0.00     0.053 C 
BRANCH  21  22
ATOM     22  C   UNL     1      -9.018 -19.332 -36.869  1.00  0.00     0.041 C 
ATOM     23  O   UNL     1      -8.114 -20.085 -36.420  1.00  0.00    -0.550 OA
ATOM     24  O   UNL     1      -8.950 -18.880 -38.181  1.00  0.00    -0.550 OA
ENDBRANCH  21  22
ENDBRANCH  20  21
ENDBRANCH  19  20
ENDBRANCH  18  19
ENDBRANCH  17  18
ENDBRANCH  16  17
ENDBRANCH  15  16
ENDBRANCH  14  15
ENDBRANCH  13  14
ENDBRANCH   1  13
TORSDOF 20
ENDMDL
MODEL 4
REMARK VINA RESULT:    -4.502      1.301      2.496
REMARK INTER + INTRA:         -12.359
REMARK INTER:                 -10.189
REMARK INTRA:                  -2.170
REMARK UNBOUND:                -2.593
REMARK SMILES CCCCCCCCCCCCCCCCCCCCCC(=O)[O-]
REMARK SMILES IDX 12 1 11 2 10 3 9 4 8 5 7 6 6 7 5 8 4 9 3 10 2 11 1 12 13 13
REMARK SMILES IDX 14 14 15 15 16 16 17 17 18 18 19 19 20 20 21 21 22 22 23 23
REMARK SMILES IDX 24 24
REMARK H PARENT
REMARK Flexibility Score: inf
ROOT
ATOM      1  C   UNL     1     -13.624 -27.496 -35.641  1.00  0.00     0.000 C 
ENDROOT
BRANCH   1   2
ATOM      2  C   UNL     1     -13.733 -26.020 -36.079  1.00  0.00     0.000 C 
BRANCH   2   3
ATOM      3  C   UNL     1     -12.441 -25.208 -35.862  1.00  0.00     0.000 C 
BRANCH   3   4
ATOM      4  C   UNL     1     -12.560 -24.055 -34.851  1.00  0.00    -0.000 C 
BRANCH   4   5
ATOM      5  C   UNL     1     -12.557 -22.673 -35.521  1.00  0.00    -0.000 C 
BRANCH   5   6
ATOM      6  C   UNL     1     -13.313 -21.647 -34.664  1.00  0.00    -0.000 C 
BRANCH   6   7
ATOM      7  C   UNL     1     -12.802 -20.206 -34.873  1.00  0.00    -0.000 C 
BRANCH   7   8
ATOM      8  C   UNL     1     -12.121 -19.978 -36.237  1.00  0.00    -0.000 C 
BRANCH   8   9
ATOM      9  C   UNL     1     -10.868 -19.085 -36.198  1.00  0.00    -0.000 C 
BRANCH   9  10
ATOM     10  C   UNL     1      -9.528 -19.827 -36.404  1.00  0.00    -0.000 C 
BRANCH  10  11
ATOM     11  C   UNL     1      -8.583 -19.185 -37.435  1.00  0.00    -0.003 C 
ATOM     12  C   UNL     1      -7.111 -19.499 -37.173  1.00  0.00     0.004 C 
ENDBRANCH  10  11
ENDBRANCH   9  10
ENDBRANCH   8   9
ENDBRANCH   7   8
ENDBRANCH   6   7
ENDBRANCH   5   6
ENDBRANCH   4   5
ENDBRANCH   3   4
ENDBRANCH   2   3
ENDBRANCH   1   2
BRANCH   1  13
ATOM     13  C   UNL     1     -13.759 -27.668 -34.118  1.00  0.00     0.000 C 
BRANCH  13  14
ATOM     14  C   UNL     1     -12.524 -28.328 -33.486  1.00  0.00     0.000 C 
BRANCH  14  15
ATOM     15  C   UNL     1     -12.467 -28.137 -31.959  1.00  0.00     0.000 C 
BRANCH  15  16
ATOM     16  C   UNL     1     -11.142 -27.512 -31.484  1.00  0.00     0.000 C 
BRANCH  16  17
ATOM     17  C   UNL     1     -11.060 -25.980 -31.633  1.00  0.00     0.000 C 
BRANCH  17  18
ATOM     18  C   UNL     1     -12.418 -25.288 -31.430  1.00  0.00     0.000 C 
BRANCH  18  19
ATOM     19  C   UNL     1     -12.283 -23.792 -31.096  1.00  0.00     0.000 C 
BRANCH  19  20
ATOM     20  C   UNL     1     -11.187 -23.052 -31.886  1.00  0.00     0.006 C 
BRANCH  20  21
ATOM     21  C   UNL     1     -11.188 -21.537 -31.638  1.00  0.00     0.053 C 
BRANCH  21  22
ATOM     22  C   UNL     1      -9.861 -21.094 -31.107  1.00  0.00     0.041 C 
ATOM     23  O   UNL     1      -9.375 -19.987 -31.461  1.00  0.00    -0.550 OA
ATOM     24  O   UNL     1      -9.135 -21.928 -30.265  1.00  0.00    -0.550 OA
ENDBRANCH  21  22
ENDBRANCH  20  21
ENDBRANCH  19  20
ENDBRANCH  18  19
ENDBRANCH  17  18
ENDBRANCH  16  17
ENDBRANCH  15  16
ENDBRANCH  14  15
ENDBRANCH  13  14
ENDBRANCH   1  13
TORSDOF 20
ENDMDL
MODEL 5
REMARK VINA RESULT:    -4.485      2.172      6.244
REMARK INTER + INTRA:         -12.322
REMARK INTER:                 -10.103
REMARK INTRA:                  -2.219
REMARK UNBOUND:                -2.593
REMARK SMILES CCCCCCCCCCCCCCCCCCCCCC(=O)[O-]
REMARK SMILES IDX 12 1 11 2 10 3 9 4 8 5 7 6 6 7 5 8 4 9 3 10 2 11 1 12 13 13
REMARK SMILES IDX 14 14 15 15 16 16 17 17 18 18 19 19 20 20 21 21 22 22 23 23
REMARK SMILES IDX 24 24
REMARK H PARENT
REMARK Flexibility Score: inf
ROOT
ATOM      1  C   UNL     1     -11.675 -25.420 -35.845  1.00  0.00     0.000 C 
ENDROOT
BRANCH   1   2
ATOM      2  C   UNL     1     -11.131 -26.565 -34.964  1.00  0.00     0.000 C 
BRANCH   2   3
ATOM      3  C   UNL     1     -11.943 -27.871 -35.067  1.00  0.00     0.000 C 
BRANCH   3   4
ATOM      4  C   UNL     1     -13.445 -27.727 -34.771  1.00  0.00    -0.000 C 
BRANCH   4   5
ATOM      5  C   UNL     1     -13.740 -27.514 -33.279  1.00  0.00    -0.000 C 
BRANCH   5   6
ATOM      6  C   UNL     1     -12.941 -28.501 -32.416  1.00  0.00    -0.000 C 
BRANCH   6   7
ATOM      7  C   UNL     1     -13.028 -28.179 -30.909  1.00  0.00    -0.000 C 
BRANCH   7   8
ATOM      8  C   UNL     1     -12.017 -27.113 -30.441  1.00  0.00    -0.000 C 
BRANCH   8   9
ATOM      9  C   UNL     1     -12.600 -25.702 -30.246  1.00  0.00    -0.000 C 
BRANCH   9  10
ATOM     10  C   UNL     1     -12.302 -24.707 -31.389  1.00  0.00    -0.000 C 
BRANCH  10  11
ATOM     11  C   UNL     1     -10.820 -24.612 -31.795  1.00  0.00    -0.003 C 
ATOM     12  C   UNL     1      -9.902 -24.260 -30.625  1.00  0.00     0.004 C 
ENDBRANCH  10  11
ENDBRANCH   9  10
ENDBRANCH   8   9
ENDBRANCH   7   8
ENDBRANCH   6   7
ENDBRANCH   5   6
ENDBRANCH   4   5
ENDBRANCH   3   4
ENDBRANCH   2   3
ENDBRANCH   1   2
BRANCH   1  13
ATOM     13  C   UNL     1     -12.294 -24.283 -35.012  1.00  0.00     0.000 C 
BRANCH  13  14
ATOM     14  C   UNL     1     -12.773 -23.110 -35.880  1.00  0.00     0.000 C 
BRANCH  14  15
ATOM     15  C   UNL     1     -13.089 -21.851 -35.052  1.00  0.00     0.000 C 
BRANCH  15  16
ATOM     16  C   UNL     1     -12.097 -21.632 -33.894  1.00  0.00     0.000 C 
BRANCH  16  17
ATOM     17  C   UNL     1     -11.411 -20.252 -33.883  1.00  0.00     0.000 C 
BRANCH  17  18
ATOM     18  C   UNL     1     -11.949 -19.310 -34.975  1.00  0.00     0.000 C 
BRANCH  18  19
ATOM     19  C   UNL     1     -11.089 -19.321 -36.251  1.00  0.00     0.000 C 
BRANCH  19  20
ATOM     20  C   UNL     1      -9.613 -18.937 -36.036  1.00  0.00     0.006 C 
BRANCH  20  21
ATOM     21  C   UNL     1      -8.662 -19.640 -37.014  1.00  0.00     0.053 C 
BRANCH  21  22
ATOM     22  C   UNL     1      -7.238 -19.415 -36.611  1.00  0.00     0.041 C 
ATOM     23  O   UNL     1      -6.302 -19.716 -37.398  1.00  0.00    -0.550 OA
ATOM     24  O   UNL     1      -6.943 -18.925 -35.344  1.00  0.00    -0.550 OA
ENDBRANCH  21  22
ENDBRANCH  20  21
ENDBRANCH  19  20
ENDBRANCH  18  19
ENDBRANCH  17  18
ENDBRANCH  16  17
ENDBRANCH  15  16
ENDBRANCH  14  15
ENDBRANCH  13  14
ENDBRANCH   1  13
TORSDOF 20
ENDMDL
MODEL 6
REMARK VINA RESULT:    -4.347      1.490      5.676
REMARK INTER + INTRA:         -12.024
REMARK INTER:                  -9.568
REMARK INTRA:                  -2.456
REMARK UNBOUND:                -2.593
REMARK SMILES CCCCCCCCCCCCCCCCCCCCCC(=O)[O-]
REMARK SMILES IDX 12 1 11 2 10 3 9 4 8 5 7 6 6 7 5 8 4 9 3 10 2 11 1 12 13 13
REMARK SMILES IDX 14 14 15 15 16 16 17 17 18 18 19 19 20 20 21 21 22 22 23 23
REMARK SMILES IDX 24 24
REMARK H PARENT
REMARK Flexibility Score: inf
ROOT
ATOM      1  C   UNL     1     -11.532 -25.788 -35.731  1.00  0.00     0.000 C 
ENDROOT
BRANCH   1   2
ATOM      2  C   UNL     1     -11.677 -27.170 -35.057  1.00  0.00     0.000 C 
BRANCH   2   3
ATOM      3  C   UNL     1     -13.005 -27.883 -35.376  1.00  0.00     0.000 C 
BRANCH   3   4
ATOM      4  C   UNL     1     -14.116 -27.686 -34.331  1.00  0.00    -0.000 C 
BRANCH   4   5
ATOM      5  C   UNL     1     -13.585 -27.159 -32.990  1.00  0.00    -0.000 C 
BRANCH   5   6
ATOM      6  C   UNL     1     -13.193 -28.318 -32.061  1.00  0.00    -0.000 C 
BRANCH   6   7
ATOM      7  C   UNL     1     -12.615 -27.832 -30.715  1.00  0.00    -0.000 C 
BRANCH   7   8
ATOM      8  C   UNL     1     -11.120 -28.157 -30.526  1.00  0.00    -0.000 C 
BRANCH   8   9
ATOM      9  C   UNL     1     -10.167 -26.961 -30.699  1.00  0.00    -0.000 C 
BRANCH   9  10
ATOM     10  C   UNL     1     -10.640 -25.887 -31.702  1.00  0.00    -0.000 C 
BRANCH  10  11
ATOM     11  C   UNL     1     -10.932 -24.507 -31.085  1.00  0.00    -0.003 C 
ATOM     12  C   UNL     1     -12.257 -23.910 -31.559  1.00  0.00     0.004 C 
ENDBRANCH  10  11
ENDBRANCH   9  10
ENDBRANCH   8   9
ENDBRANCH   7   8
ENDBRANCH   6   7
ENDBRANCH   5   6
ENDBRANCH   4   5
ENDBRANCH   3   4
ENDBRANCH   2   3
ENDBRANCH   1   2
BRANCH   1  13
ATOM     13  C   UNL     1     -12.223 -24.670 -34.930  1.00  0.00     0.000 C 
BRANCH  13  14
ATOM     14  C   UNL     1     -12.614 -23.471 -35.807  1.00  0.00     0.000 C 
BRANCH  14  15
ATOM     15  C   UNL     1     -12.984 -22.227 -34.979  1.00  0.00     0.000 C 
BRANCH  15  16
ATOM     16  C   UNL     1     -12.648 -20.908 -35.698  1.00  0.00     0.000 C 
BRANCH  16  17
ATOM     17  C   UNL     1     -13.690 -19.787 -35.512  1.00  0.00     0.000 C 
BRANCH  17  18
ATOM     18  C   UNL     1     -13.860 -19.368 -34.042  1.00  0.00     0.000 C 
BRANCH  18  19
ATOM     19  C   UNL     1     -12.535 -18.940 -33.386  1.00  0.00     0.000 C 
BRANCH  19  20
ATOM     20  C   UNL     1     -12.132 -19.766 -32.150  1.00  0.00     0.006 C 
BRANCH  20  21
ATOM     21  C   UNL     1     -10.828 -20.551 -32.352  1.00  0.00     0.053 C 
BRANCH  21  22
ATOM     22  C   UNL     1     -10.141 -20.770 -31.041  1.00  0.00     0.041 C 
ATOM     23  O   UNL     1      -8.888 -20.677 -30.959  1.00  0.00    -0.550 OA
ATOM     24  O   UNL     1     -10.880 -21.130 -29.920  1.00  0.00    -0.550 OA
ENDBRANCH  21  22
ENDBRANCH  20  21
ENDBRANCH  19  20
ENDBRANCH  18  19
ENDBRANCH  17  18
ENDBRANCH  16  17
ENDBRANCH  15  16
ENDBRANCH  14  15
ENDBRANCH  13  14
ENDBRANCH   1  13
TORSDOF 20
ENDMDL
MODEL 7
REMARK VINA RESULT:    -4.345      1.623      6.114
REMARK INTER + INTRA:         -12.019
REMARK INTER:                  -8.695
REMARK INTRA:                  -3.324
REMARK UNBOUND:                -2.593
REMARK SMILES CCCCCCCCCCCCCCCCCCCCCC(=O)[O-]
REMARK SMILES IDX 12 1 11 2 10 3 9 4 8 5 7 6 6 7 5 8 4 9 3 10 2 11 1 12 13 13
REMARK SMILES IDX 14 14 15 15 16 16 17 17 18 18 19 19 20 20 21 21 22 22 23 23
REMARK SMILES IDX 24 24
REMARK H PARENT
REMARK Flexibility Score: inf
ROOT
ATOM      1  C   UNL     1     -12.125 -24.533 -34.208  1.00  0.00     0.000 C 
ENDROOT
BRANCH   1   2
ATOM      2  C   UNL     1     -12.296 -23.849 -32.835  1.00  0.00     0.000 C 
BRANCH   2   3
ATOM      3  C   UNL     1     -11.067 -23.982 -31.915  1.00  0.00     0.000 C 
BRANCH   3   4
ATOM      4  C   UNL     1     -11.370 -24.488 -30.494  1.00  0.00    -0.000 C 
BRANCH   4   5
ATOM      5  C   UNL     1     -10.589 -25.760 -30.135  1.00  0.00    -0.000 C 
BRANCH   5   6
ATOM      6  C   UNL     1     -10.405 -26.657 -31.368  1.00  0.00    -0.000 C 
BRANCH   6   7
ATOM      7  C   UNL     1     -11.257 -27.943 -31.300  1.00  0.00    -0.000 C 
BRANCH   7   8
ATOM      8  C   UNL     1     -12.776 -27.687 -31.348  1.00  0.00    -0.000 C 
BRANCH   8   9
ATOM      9  C   UNL     1     -13.380 -27.616 -32.761  1.00  0.00    -0.000 C 
BRANCH   9  10
ATOM     10  C   UNL     1     -12.541 -28.294 -33.867  1.00  0.00    -0.000 C 
BRANCH  10  11
ATOM     11  C   UNL     1     -12.945 -27.924 -35.306  1.00  0.00    -0.003 C 
ATOM     12  C   UNL     1     -14.419 -27.539 -35.431  1.00  0.00     0.004 C 
ENDBRANCH  10  11
ENDBRANCH   9  10
ENDBRANCH   8   9
ENDBRANCH   7   8
ENDBRANCH   6   7
ENDBRANCH   5   6
ENDBRANCH   4   5
ENDBRANCH   3   4
ENDBRANCH   2   3
ENDBRANCH   1   2
BRANCH   1  13
ATOM     13  C   UNL     1     -12.926 -23.829 -35.318  1.00  0.00     0.000 C 
BRANCH  13  14
ATOM     14  C   UNL     1     -12.238 -22.551 -35.822  1.00  0.00     0.000 C 
BRANCH  14  15
ATOM     15  C   UNL     1     -12.963 -21.270 -35.370  1.00  0.00     0.000 C 
BRANCH  15  16
ATOM     16  C   UNL     1     -11.993 -20.134 -34.995  1.00  0.00     0.000 C 
BRANCH  16  17
ATOM     17  C   UNL     1     -11.200 -20.364 -33.695  1.00  0.00     0.000 C 
BRANCH  17  18
ATOM     18  C   UNL     1     -12.069 -20.227 -32.433  1.00  0.00     0.000 C 
BRANCH  18  19
ATOM     19  C   UNL     1     -11.238 -20.064 -31.148  1.00  0.00     0.000 C 
BRANCH  19  20
ATOM     20  C   UNL     1      -9.773 -20.525 -31.266  1.00  0.00     0.006 C 
BRANCH  20  21
ATOM     21  C   UNL     1      -9.303 -21.346 -30.058  1.00  0.00     0.053 C 
BRANCH  21  22
ATOM     22  C   UNL     1      -8.003 -22.022 -30.360  1.00  0.00     0.041 C 
ATOM     23  O   UNL     1      -7.903 -23.274 -30.264  1.00  0.00    -0.550 OA
ATOM     24  O   UNL     1      -6.885 -21.266 -30.694  1.00  0.00    -0.550 OA
ENDBRANCH  21  22
ENDBRANCH  20  21
ENDBRANCH  19  20
ENDBRANCH  18  19
ENDBRANCH  17  18
ENDBRANCH  16  17
ENDBRANCH  15  16
ENDBRANCH  14  15
ENDBRANCH  13  14
ENDBRANCH   1  13
TORSDOF 20
ENDMDL
MODEL 8
REMARK VINA RESULT:    -4.299      2.439      4.979
REMARK INTER + INTRA:         -11.918
REMARK INTER:                  -9.723
REMARK INTRA:                  -2.195
REMARK UNBOUND:                -2.593
REMARK SMILES CCCCCCCCCCCCCCCCCCCCCC(=O)[O-]
REMARK SMILES IDX 12 1 11 2 10 3 9 4 8 5 7 6 6 7 5 8 4 9 3 10 2 11 1 12 13 13
REMARK SMILES IDX 14 14 15 15 16 16 17 17 18 18 19 19 20 20 21 21 22 22 23 23
REMARK SMILES IDX 24 24
REMARK H PARENT
REMARK Flexibility Score: inf
ROOT
ATOM      1  C   UNL     1     -12.097 -24.136 -31.914  1.00  0.00     0.000 C 
ENDROOT
BRANCH   1   2
ATOM      2  C   UNL     1     -12.163 -22.808 -32.699  1.00  0.00     0.000 C 
BRANCH   2   3
ATOM      3  C   UNL     1     -11.134 -21.758 -32.235  1.00  0.00     0.000 C 
BRANCH   3   4
ATOM      4  C   UNL     1     -11.738 -20.480 -31.629  1.00  0.00    -0.000 C 
BRANCH   4   5
ATOM      5  C   UNL     1     -12.233 -19.492 -32.696  1.00  0.00    -0.000 C 
BRANCH   5   6
ATOM      6  C   UNL     1     -13.750 -19.279 -32.584  1.00  0.00    -0.000 C 
BRANCH   6   7
ATOM      7  C   UNL     1     -14.442 -19.198 -33.962  1.00  0.00    -0.000 C 
BRANCH   7   8
ATOM      8  C   UNL     1     -13.702 -19.964 -35.076  1.00  0.00    -0.000 C 
BRANCH   8   9
ATOM      9  C   UNL     1     -13.261 -19.106 -36.275  1.00  0.00    -0.000 C 
BRANCH   9  10
ATOM     10  C   UNL     1     -11.736 -18.902 -36.408  1.00  0.00    -0.000 C 
BRANCH  10  11
ATOM     11  C   UNL     1     -10.878 -20.075 -35.900  1.00  0.00    -0.003 C 
ATOM     12  C   UNL     1      -9.421 -19.991 -36.355  1.00  0.00     0.004 C 
ENDBRANCH  10  11
ENDBRANCH   9  10
ENDBRANCH   8   9
ENDBRANCH   7   8
ENDBRANCH   6   7
ENDBRANCH   5   6
ENDBRANCH   4   5
ENDBRANCH   3   4
ENDBRANCH   2   3
ENDBRANCH   1   2
BRANCH   1  13
ATOM     13  C   UNL     1     -10.731 -24.352 -31.240  1.00  0.00     0.000 C 
BRANCH  13  14
ATOM     14  C   UNL     1     -10.403 -25.839 -31.035  1.00  0.00     0.000 C 
BRANCH  14  15
ATOM     15  C   UNL     1     -11.547 -26.609 -30.350  1.00  0.00     0.000 C 
BRANCH  15  16
ATOM     16  C   UNL     1     -11.549 -28.109 -30.695  1.00  0.00     0.000 C 
BRANCH  16  17
ATOM     17  C   UNL     1     -12.839 -28.616 -31.368  1.00  0.00     0.000 C 
BRANCH  17  18
ATOM     18  C   UNL     1     -13.209 -27.815 -32.628  1.00  0.00     0.000 C 
BRANCH  18  19
ATOM     19  C   UNL     1     -12.105 -27.841 -33.699  1.00  0.00     0.000 C 
BRANCH  19  20
ATOM     20  C   UNL     1     -12.617 -27.858 -35.152  1.00  0.00     0.006 C 
BRANCH  20  21
ATOM     21  C   UNL     1     -13.416 -26.601 -35.522  1.00  0.00     0.053 C 
BRANCH  21  22
ATOM     22  C   UNL     1     -12.495 -25.444 -35.746  1.00  0.00     0.041 C 
ATOM     23  O   UNL     1     -12.959 -24.277 -35.854  1.00  0.00    -0.550 OA
ATOM     24  O   UNL     1     -11.129 -25.659 -35.891  1.00  0.00    -0.550 OA
ENDBRANCH  21  22
ENDBRANCH  20  21
ENDBRANCH  19  20
ENDBRANCH  18  19
ENDBRANCH  17  18
ENDBRANCH  16  17
ENDBRANCH  15  16
ENDBRANCH  14  15
ENDBRANCH  13  14
ENDBRANCH   1  13
TORSDOF 20
ENDMDL
MODEL 9
REMARK VINA RESULT:    -4.267     15.954     18.082
REMARK INTER + INTRA:         -11.850
REMARK INTER:                  -9.534
REMARK INTRA:                  -2.316
REMARK UNBOUND:                -2.593
REMARK SMILES CCCCCCCCCCCCCCCCCCCCCC(=O)[O-]
REMARK SMILES IDX 12 1 11 2 10 3 9 4 8 5 7 6 6 7 5 8 4 9 3 10 2 11 1 12 13 13
REMARK SMILES IDX 14 14 15 15 16 16 17 17 18 18 19 19 20 20 21 21 22 22 23 23
REMARK SMILES IDX 24 24
REMARK H PARENT
REMARK Flexibility Score: inf
ROOT
ATOM      1  C   UNL     1      -9.905 -34.609 -44.115  1.00  0.00     0.000 C 
ENDROOT
BRANCH   1   2
ATOM      2  C   UNL     1      -8.936 -35.217 -45.151  1.00  0.00     0.000 C 
BRANCH   2   3
ATOM      3  C   UNL     1      -8.758 -34.358 -46.418  1.00  0.00     0.000 C 
BRANCH   3   4
ATOM      4  C   UNL     1      -9.384 -34.944 -47.694  1.00  0.00    -0.000 C 
BRANCH   4   5
ATOM      5  C   UNL     1     -10.308 -33.951 -48.415  1.00  0.00    -0.000 C 
BRANCH   5   6
ATOM      6  C   UNL     1      -9.929 -32.503 -48.072  1.00  0.00    -0.000 C 
BRANCH   6   7
ATOM      7  C   UNL     1      -9.828 -31.603 -49.322  1.00  0.00    -0.000 C 
BRANCH   7   8
ATOM      8  C   UNL     1      -8.459 -30.913 -49.483  1.00  0.00    -0.000 C 
BRANCH   8   9
ATOM      9  C   UNL     1      -7.429 -31.246 -48.389  1.00  0.00    -0.000 C 
BRANCH   9  10
ATOM     10  C   UNL     1      -6.099 -30.467 -48.484  1.00  0.00    -0.000 C 
BRANCH  10  11
ATOM     11  C   UNL     1      -6.247 -28.967 -48.799  1.00  0.00    -0.003 C 
ATOM     12  C   UNL     1      -5.412 -28.079 -47.876  1.00  0.00     0.004 C 
ENDBRANCH  10  11
ENDBRANCH   9  10
ENDBRANCH   8   9
ENDBRANCH   7   8
ENDBRANCH   6   7
ENDBRANCH   5   6
ENDBRANCH   4   5
ENDBRANCH   3   4
ENDBRANCH   2   3
ENDBRANCH   1   2
BRANCH   1  13
ATOM     13  C   UNL     1     -11.188 -34.059 -44.763  1.00  0.00     0.000 C 
BRANCH  13  14
ATOM     14  C   UNL     1     -12.462 -34.551 -44.060  1.00  0.00     0.000 C 
BRANCH  14  15
ATOM     15  C   UNL     1     -13.417 -35.291 -45.015  1.00  0.00     0.000 C 
BRANCH  15  16
ATOM     16  C   UNL     1     -12.739 -35.711 -46.332  1.00  0.00     0.000 C 
BRANCH  16  17
ATOM     17  C   UNL     1     -13.630 -36.533 -47.284  1.00  0.00     0.000 C 
BRANCH  17  18
ATOM     18  C   UNL     1     -14.352 -35.661 -48.326  1.00  0.00     0.000 C 
BRANCH  18  19
ATOM     19  C   UNL     1     -15.809 -35.351 -47.940  1.00  0.00     0.000 C 
BRANCH  19  20
ATOM     20  C   UNL     1     -16.585 -36.541 -47.344  1.00  0.00     0.006 C 
BRANCH  20  21
ATOM     21  C   UNL     1     -16.961 -36.335 -45.870  1.00  0.00     0.053 C 
BRANCH  21  22
ATOM     22  C   UNL     1     -16.856 -37.624 -45.119  1.00  0.00     0.041 C 
ATOM     23  O   UNL     1     -15.729 -38.150 -44.917  1.00  0.00    -0.550 OA
ATOM     24  O   UNL     1     -18.007 -38.275 -44.690  1.00  0.00    -0.550 OA
ENDBRANCH  21  22
ENDBRANCH  20  21
ENDBRANCH  19  20
ENDBRANCH  18  19
ENDBRANCH  17  18
ENDBRANCH  16  17
ENDBRANCH  15  16
ENDBRANCH  14  15
ENDBRANCH  13  14
ENDBRANCH   1  13
TORSDOF 20
ENDMDL
