MODEL 1
REMARK VINA RESULT:    -2.931      0.000      0.000
REMARK INTER + INTRA:          -4.120
REMARK INTER:                  -3.873
REMARK INTRA:                  -0.248
REMARK UNBOUND:                -0.248
REMARK SMILES CCCCCCCO
REMARK SMILES IDX 5 1 4 2 3 3 2 4 1 5 6 6 7 7 8 8
REMARK H PARENT 8 9
REMARK Flexibility Score: inf
ROOT
ATOM      1  C   UNL     1     128.301 143.389 119.777  1.00  0.00     0.002 C 
ENDROOT
BRANCH   1   2
ATOM      2  C   UNL     1     127.756 144.417 118.772  1.00  0.00     0.000 C 
BRANCH   2   3
ATOM      3  C   UNL     1     127.183 145.668 119.458  1.00  0.00    -0.000 C 
BRANCH   3   4
ATOM      4  C   UNL     1     127.963 146.052 120.727  1.00  0.00    -0.003 C 
ATOM      5  C   UNL     1     127.074 146.140 121.966  1.00  0.00     0.004 C 
ENDBRANCH   3   4
ENDBRANCH   2   3
ENDBRANCH   1   2
BRANCH   1   6
ATOM      6  C   UNL     1     127.196 142.505 120.379  1.00  0.00     0.028 C 
BRANCH   6   7
ATOM      7  C   UNL     1     127.692 141.722 121.599  1.00  0.00     0.156 C 
BRANCH   7   8
ATOM      8  O   UNL     1     127.418 142.421 122.783  1.00  0.00    -0.396 OA
ATOM      9  H   UNL     1     128.275 142.817 123.090  1.00  0.00     0.210 HD
ENDBRANCH   7   8
ENDBRANCH   6   7
ENDBRANCH   1   6
TORSDOF 6
ENDMDL
MODEL 2
REMARK VINA RESULT:    -2.893     20.692     21.878
REMARK INTER + INTRA:          -4.071
REMARK INTER:                  -3.761
REMARK INTRA:                  -0.310
REMARK UNBOUND:                -0.248
REMARK SMILES CCCCCCCO
REMARK SMILES IDX 5 1 4 2 3 3 2 4 1 5 6 6 7 7 8 8
REMARK H PARENT 8 9
REMARK Flexibility Score: inf
ROOT
ATOM      1  C   UNL     1     146.011 132.716 120.001  1.00  0.00     0.002 C 
ENDROOT
BRANCH   1   2
ATOM      2  C   UNL     1     144.500 132.556 120.234  1.00  0.00     0.000 C 
BRANCH   2   3
ATOM      3  C   UNL     1     143.752 132.104 118.968  1.00  0.00    -0.000 C 
BRANCH   3   4
ATOM      4  C   UNL     1     144.041 130.638 118.605  1.00  0.00    -0.003 C 
ATOM      5  C   UNL     1     143.607 129.660 119.696  1.00  0.00     0.004 C 
ENDBRANCH   3   4
ENDBRANCH   2   3
ENDBRANCH   1   2
BRANCH   1   6
ATOM      6  C   UNL     1     146.849 131.759 120.864  1.00  0.00     0.028 C 
BRANCH   6   7
ATOM      7  C   UNL     1     146.147 131.413 122.181  1.00  0.00     0.156 C 
BRANCH   7   8
ATOM      8  O   UNL     1     146.697 130.253 122.747  1.00  0.00    -0.396 OA
ATOM      9  H   UNL     1     147.198 129.790 122.026  1.00  0.00     0.210 HD
ENDBRANCH   7   8
ENDBRANCH   6   7
ENDBRANCH   1   6
TORSDOF 6
ENDMDL
MODEL 3
REMARK VINA RESULT:    -2.866      1.635      2.384
REMARK INTER + INTRA:          -4.034
REMARK INTER:                  -3.854
REMARK INTRA:                  -0.180
REMARK UNBOUND:                -0.248
REMARK SMILES CCCCCCCO
REMARK SMILES IDX 5 1 4 2 3 3 2 4 1 5 6 6 7 7 8 8
REMARK H PARENT 8 9
REMARK Flexibility Score: inf
ROOT
ATOM      1  C   UNL     1     127.536 142.100 121.299  1.00  0.00     0.002 C 
ENDROOT
BRANCH   1   2
ATOM      2  C   UNL     1     127.595 143.532 120.745  1.00  0.00     0.000 C 
BRANCH   2   3
ATOM      3  C   UNL     1     128.346 143.616 119.405  1.00  0.00    -0.000 C 
BRANCH   3   4
ATOM      4  C   UNL     1     127.936 144.845 118.577  1.00  0.00    -0.003 C 
ATOM      5  C   UNL     1     126.950 145.753 119.311  1.00  0.00     0.004 C 
ENDBRANCH   3   4
ENDBRANCH   2   3
ENDBRANCH   1   2
BRANCH   1   6
ATOM      6  C   UNL     1     128.069 141.056 120.304  1.00  0.00     0.028 C 
BRANCH   6   7
ATOM      7  C   UNL     1     127.471 139.668 120.557  1.00  0.00     0.156 C 
BRANCH   7   8
ATOM      8  O   UNL     1     126.875 139.608 121.825  1.00  0.00    -0.396 OA
ATOM      9  H   UNL     1     126.135 138.948 121.765  1.00  0.00     0.210 HD
ENDBRANCH   7   8
ENDBRANCH   6   7
ENDBRANCH   1   6
TORSDOF 6
ENDMDL
MODEL 4
REMARK VINA RESULT:    -2.844      2.225      3.842
REMARK INTER + INTRA:          -4.007
REMARK INTER:                  -3.837
REMARK INTRA:                  -0.170
REMARK UNBOUND:                -0.248
REMARK SMILES CCCCCCCO
REMARK SMILES IDX 5 1 4 2 3 3 2 4 1 5 6 6 7 7 8 8
REMARK H PARENT 8 9
REMARK Flexibility Score: inf
ROOT
ATOM      1  C   UNL     1     127.207 145.762 121.615  1.00  0.00     0.002 C 
ENDROOT
BRANCH   1   2
ATOM      2  C   UNL     1     126.934 146.377 120.233  1.00  0.00     0.000 C 
BRANCH   2   3
ATOM      3  C   UNL     1     127.177 145.382 119.086  1.00  0.00    -0.000 C 
BRANCH   3   4
ATOM      4  C   UNL     1     127.617 143.998 119.590  1.00  0.00    -0.003 C 
ATOM      5  C   UNL     1     129.054 143.653 119.202  1.00  0.00     0.004 C 
ENDBRANCH   3   4
ENDBRANCH   2   3
ENDBRANCH   1   2
BRANCH   1   6
ATOM      6  C   UNL     1     127.124 146.795 122.751  1.00  0.00     0.028 C 
BRANCH   6   7
ATOM      7  C   UNL     1     128.348 146.733 123.671  1.00  0.00     0.156 C 
BRANCH   7   8
ATOM      8  O   UNL     1     129.534 146.805 122.924  1.00  0.00    -0.396 OA
ATOM      9  H   UNL     1     130.203 147.271 123.491  1.00  0.00     0.210 HD
ENDBRANCH   7   8
ENDBRANCH   6   7
ENDBRANCH   1   6
TORSDOF 6
ENDMDL
MODEL 5
REMARK VINA RESULT:    -2.791      2.020      3.227
REMARK INTER + INTRA:          -3.936
REMARK INTER:                  -3.562
REMARK INTRA:                  -0.374
REMARK UNBOUND:                -0.248
REMARK SMILES CCCCCCCO
REMARK SMILES IDX 5 1 4 2 3 3 2 4 1 5 6 6 7 7 8 8
REMARK H PARENT 8 9
REMARK Flexibility Score: inf
ROOT
ATOM      1  C   UNL     1     126.971 145.146 119.805  1.00  0.00     0.002 C 
ENDROOT
BRANCH   1   2
ATOM      2  C   UNL     1     128.175 145.022 118.857  1.00  0.00     0.000 C 
BRANCH   2   3
ATOM      3  C   UNL     1     129.323 144.198 119.466  1.00  0.00    -0.000 C 
BRANCH   3   4
ATOM      4  C   UNL     1     130.285 145.057 120.302  1.00  0.00    -0.003 C 
ATOM      5  C   UNL     1     130.578 146.413 119.663  1.00  0.00     0.004 C 
ENDBRANCH   3   4
ENDBRANCH   2   3
ENDBRANCH   1   2
BRANCH   1   6
ATOM      6  C   UNL     1     126.875 146.532 120.464  1.00  0.00     0.028 C 
BRANCH   6   7
ATOM      7  C   UNL     1     126.892 146.440 121.993  1.00  0.00     0.156 C 
BRANCH   7   8
ATOM      8  O   UNL     1     127.195 145.135 122.408  1.00  0.00    -0.396 OA
ATOM      9  H   UNL     1     127.052 144.542 121.624  1.00  0.00     0.210 HD
ENDBRANCH   7   8
ENDBRANCH   6   7
ENDBRANCH   1   6
TORSDOF 6
ENDMDL
MODEL 6
REMARK VINA RESULT:    -2.767     17.037     17.644
REMARK INTER + INTRA:          -3.905
REMARK INTER:                  -3.698
REMARK INTRA:                  -0.206
REMARK UNBOUND:                -0.248
REMARK SMILES CCCCCCCO
REMARK SMILES IDX 5 1 4 2 3 3 2 4 1 5 6 6 7 7 8 8
REMARK H PARENT 8 9
REMARK Flexibility Score: inf
ROOT
ATOM      1  C   UNL     1     145.160 142.035 118.912  1.00  0.00     0.002 C 
ENDROOT
BRANCH   1   2
ATOM      2  C   UNL     1     143.707 142.230 119.373  1.00  0.00     0.000 C 
BRANCH   2   3
ATOM      3  C   UNL     1     143.433 143.658 119.876  1.00  0.00    -0.000 C 
BRANCH   3   4
ATOM      4  C   UNL     1     144.719 144.394 120.286  1.00  0.00    -0.003 C 
ATOM      5  C   UNL     1     145.005 145.617 119.416  1.00  0.00     0.004 C 
ENDBRANCH   3   4
ENDBRANCH   2   3
ENDBRANCH   1   2
BRANCH   1   6
ATOM      6  C   UNL     1     145.854 140.858 119.617  1.00  0.00     0.028 C 
BRANCH   6   7
ATOM      7  C   UNL     1     145.731 140.951 121.141  1.00  0.00     0.156 C 
BRANCH   7   8
ATOM      8  O   UNL     1     146.972 140.725 121.754  1.00  0.00    -0.396 OA
ATOM      9  H   UNL     1     147.428 140.016 121.229  1.00  0.00     0.210 HD
ENDBRANCH   7   8
ENDBRANCH   6   7
ENDBRANCH   1   6
TORSDOF 6
ENDMDL
MODEL 7
REMARK VINA RESULT:    -2.747      2.595      3.965
REMARK INTER + INTRA:          -3.878
REMARK INTER:                  -3.674
REMARK INTRA:                  -0.203
REMARK UNBOUND:                -0.248
REMARK SMILES CCCCCCCO
REMARK SMILES IDX 5 1 4 2 3 3 2 4 1 5 6 6 7 7 8 8
REMARK H PARENT 8 9
REMARK Flexibility Score: inf
ROOT
ATOM      1  C   UNL     1     127.220 146.557 122.492  1.00  0.00     0.002 C 
ENDROOT
BRANCH   1   2
ATOM      2  C   UNL     1     127.260 145.557 121.325  1.00  0.00     0.000 C 
BRANCH   2   3
ATOM      3  C   UNL     1     126.908 146.207 119.977  1.00  0.00    -0.000 C 
BRANCH   3   4
ATOM      4  C   UNL     1     127.324 145.339 118.778  1.00  0.00    -0.003 C 
ATOM      5  C   UNL     1     128.352 144.271 119.148  1.00  0.00     0.004 C 
ENDBRANCH   3   4
ENDBRANCH   2   3
ENDBRANCH   1   2
BRANCH   1   6
ATOM      6  C   UNL     1     128.513 146.550 123.324  1.00  0.00     0.028 C 
BRANCH   6   7
ATOM      7  C   UNL     1     129.691 145.955 122.545  1.00  0.00     0.156 C 
BRANCH   7   8
ATOM      8  O   UNL     1     130.708 146.907 122.379  1.00  0.00    -0.396 OA
ATOM      9  H   UNL     1     131.166 146.995 123.256  1.00  0.00     0.210 HD
ENDBRANCH   7   8
ENDBRANCH   6   7
ENDBRANCH   1   6
TORSDOF 6
ENDMDL
MODEL 8
REMARK VINA RESULT:    -2.730      2.599      3.614
REMARK INTER + INTRA:          -3.856
REMARK INTER:                  -3.550
REMARK INTRA:                  -0.306
REMARK UNBOUND:                -0.248
REMARK SMILES CCCCCCCO
REMARK SMILES IDX 5 1 4 2 3 3 2 4 1 5 6 6 7 7 8 8
REMARK H PARENT 8 9
REMARK Flexibility Score: inf
ROOT
ATOM      1  C   UNL     1     130.569 144.738 119.723  1.00  0.00     0.002 C 
ENDROOT
BRANCH   1   2
ATOM      2  C   UNL     1     129.164 144.185 120.010  1.00  0.00     0.000 C 
BRANCH   2   3
ATOM      3  C   UNL     1     128.211 144.343 118.813  1.00  0.00    -0.000 C 
BRANCH   3   4
ATOM      4  C   UNL     1     127.214 145.498 119.003  1.00  0.00    -0.003 C 
ATOM      5  C   UNL     1     127.009 145.870 120.471  1.00  0.00     0.004 C 
ENDBRANCH   3   4
ENDBRANCH   2   3
ENDBRANCH   1   2
BRANCH   1   6
ATOM      6  C   UNL     1     130.728 146.207 120.150  1.00  0.00     0.028 C 
BRANCH   6   7
ATOM      7  C   UNL     1     131.155 146.333 121.616  1.00  0.00     0.156 C 
BRANCH   7   8
ATOM      8  O   UNL     1     130.058 146.663 122.426  1.00  0.00    -0.396 OA
ATOM      9  H   UNL     1     130.322 147.459 122.958  1.00  0.00     0.210 HD
ENDBRANCH   7   8
ENDBRANCH   6   7
ENDBRANCH   1   6
TORSDOF 6
ENDMDL
