MODEL 1
REMARK VINA RESULT:    -5.129      0.000      0.000
REMARK INTER + INTRA:          -9.281
REMARK INTER:                  -8.727
REMARK INTRA:                  -0.554
REMARK UNBOUND:                -0.554
REMARK SMILES CCCCCCCCCCCCCC(=O)[O-]
REMARK SMILES IDX 8 1 9 2 10 3 11 4 12 5 13 6 14 7 15 8 16 9 7 10 6 11 5 12
REMARK SMILES IDX 4 13 3 14 2 15 1 16
REMARK H PARENT
REMARK Flexibility Score: inf
ROOT
ATOM      1  C   UNL     1      96.610 124.539 124.903  1.00  0.00     0.000 C 
ENDROOT
BRANCH   1   2
ATOM      2  C   UNL     1      95.495 123.897 124.064  1.00  0.00     0.000 C 
BRANCH   2   3
ATOM      3  C   UNL     1      94.400 123.236 124.922  1.00  0.00     0.000 C 
BRANCH   3   4
ATOM      4  C   UNL     1      93.042 123.054 124.218  1.00  0.00     0.000 C 
BRANCH   4   5
ATOM      5  C   UNL     1      93.118 123.285 122.701  1.00  0.00     0.006 C 
BRANCH   5   6
ATOM      6  C   UNL     1      92.493 122.114 121.937  1.00  0.00     0.053 C 
BRANCH   6   7
ATOM      7  C   UNL     1      92.821 122.204 120.481  1.00  0.00     0.041 C 
ATOM      8  O   UNL     1      92.137 122.938 119.720  1.00  0.00    -0.550 OA
ATOM      9  O   UNL     1      93.852 121.437 119.951  1.00  0.00    -0.550 OA
ENDBRANCH   6   7
ENDBRANCH   5   6
ENDBRANCH   4   5
ENDBRANCH   3   4
ENDBRANCH   2   3
ENDBRANCH   1   2
BRANCH   1  10
ATOM     10  C   UNL     1      97.170 123.539 125.925  1.00  0.00     0.000 C 
BRANCH  10  11
ATOM     11  C   UNL     1      98.497 124.004 126.546  1.00  0.00    -0.000 C 
BRANCH  11  12
ATOM     12  C   UNL     1      99.616 122.958 126.402  1.00  0.00    -0.000 C 
BRANCH  12  13
ATOM     13  C   UNL     1      99.127 121.528 126.684  1.00  0.00    -0.000 C 
BRANCH  13  14
ATOM     14  C   UNL     1     100.285 120.523 126.824  1.00  0.00    -0.000 C 
BRANCH  14  15
ATOM     15  C   UNL     1     101.503 120.907 125.969  1.00  0.00    -0.003 C 
ATOM     16  C   UNL     1     102.125 119.707 125.254  1.00  0.00     0.004 C 
ENDBRANCH  14  15
ENDBRANCH  13  14
ENDBRANCH  12  13
ENDBRANCH  11  12
ENDBRANCH  10  11
ENDBRANCH   1  10
TORSDOF 12
ENDMDL
MODEL 2
REMARK VINA RESULT:    -4.987      3.455      8.067
REMARK INTER + INTRA:          -9.039
REMARK INTER:                  -8.529
REMARK INTRA:                  -0.510
REMARK UNBOUND:                -0.554
REMARK SMILES CCCCCCCCCCCCCC(=O)[O-]
REMARK SMILES IDX 8 1 9 2 10 3 11 4 12 5 13 6 14 7 15 8 16 9 7 10 6 11 5 12
REMARK SMILES IDX 4 13 3 14 2 15 1 16
REMARK H PARENT
REMARK Flexibility Score: inf
ROOT
ATOM      1  C   UNL     1      95.377 124.118 124.042  1.00  0.00     0.000 C 
ENDROOT
BRANCH   1   2
ATOM      2  C   UNL     1      96.614 124.591 124.821  1.00  0.00     0.000 C 
BRANCH   2   3
ATOM      3  C   UNL     1      96.903 123.736 126.069  1.00  0.00     0.000 C 
BRANCH   3   4
ATOM      4  C   UNL     1      98.392 123.611 126.442  1.00  0.00     0.000 C 
BRANCH   4   5
ATOM      5  C   UNL     1      98.852 122.152 126.588  1.00  0.00     0.006 C 
BRANCH   5   6
ATOM      6  C   UNL     1     100.356 122.023 126.325  1.00  0.00     0.053 C 
BRANCH   6   7
ATOM      7  C   UNL     1     100.721 120.597 126.065  1.00  0.00     0.041 C 
ATOM      8  O   UNL     1     100.089 119.926 125.208  1.00  0.00    -0.550 OA
ATOM      9  O   UNL     1     101.730 119.991 126.805  1.00  0.00    -0.550 OA
ENDBRANCH   6   7
ENDBRANCH   5   6
ENDBRANCH   4   5
ENDBRANCH   3   4
ENDBRANCH   2   3
ENDBRANCH   1   2
BRANCH   1  10
ATOM     10  C   UNL     1      94.443 123.298 124.945  1.00  0.00     0.000 C 
BRANCH  10  11
ATOM     11  C   UNL     1      93.114 122.943 124.258  1.00  0.00    -0.000 C 
BRANCH  11  12
ATOM     12  C   UNL     1      93.122 123.262 122.754  1.00  0.00    -0.000 C 
BRANCH  12  13
ATOM     13  C   UNL     1      92.443 122.168 121.915  1.00  0.00    -0.000 C 
BRANCH  13  14
ATOM     14  C   UNL     1      93.007 122.081 120.485  1.00  0.00    -0.000 C 
BRANCH  14  15
ATOM     15  C   UNL     1      92.235 122.965 119.494  1.00  0.00    -0.003 C 
ATOM     16  C   UNL     1      91.972 122.267 118.159  1.00  0.00     0.004 C 
ENDBRANCH  14  15
ENDBRANCH  13  14
ENDBRANCH  12  13
ENDBRANCH  11  12
ENDBRANCH  10  11
ENDBRANCH   1  10
TORSDOF 12
ENDMDL
MODEL 3
REMARK VINA RESULT:    -4.856      0.675      1.309
REMARK INTER + INTRA:          -8.817
REMARK INTER:                  -8.299
REMARK INTRA:                  -0.518
REMARK UNBOUND:                -0.554
REMARK SMILES CCCCCCCCCCCCCC(=O)[O-]
REMARK SMILES IDX 8 1 9 2 10 3 11 4 12 5 13 6 14 7 15 8 16 9 7 10 6 11 5 12
REMARK SMILES IDX 4 13 3 14 2 15 1 16
REMARK H PARENT
REMARK Flexibility Score: inf
ROOT
ATOM      1  C   UNL     1      95.498 123.977 124.390  1.00  0.00     0.000 C 
ENDROOT
BRANCH   1   2
ATOM      2  C   UNL     1      94.559 123.060 125.189  1.00  0.00     0.000 C 
BRANCH   2   3
ATOM      3  C   UNL     1      93.175 122.898 124.533  1.00  0.00     0.000 C 
BRANCH   3   4
ATOM      4  C   UNL     1      93.054 123.487 123.115  1.00  0.00     0.000 C 
BRANCH   4   5
ATOM      5  C   UNL     1      92.774 122.420 122.045  1.00  0.00     0.006 C 
BRANCH   5   6
ATOM      6  C   UNL     1      92.398 123.068 120.710  1.00  0.00     0.053 C 
BRANCH   6   7
ATOM      7  C   UNL     1      92.782 122.180 119.570  1.00  0.00     0.041 C 
ATOM      8  O   UNL     1      92.080 122.150 118.525  1.00  0.00    -0.550 OA
ATOM      9  O   UNL     1      93.889 121.347 119.679  1.00  0.00    -0.550 OA
ENDBRANCH   6   7
ENDBRANCH   5   6
ENDBRANCH   4   5
ENDBRANCH   3   4
ENDBRANCH   2   3
ENDBRANCH   1   2
BRANCH   1  10
ATOM     10  C   UNL     1      96.627 124.514 125.282  1.00  0.00     0.000 C 
BRANCH  10  11
ATOM     11  C   UNL     1      97.347 123.402 126.063  1.00  0.00    -0.000 C 
BRANCH  11  12
ATOM     12  C   UNL     1      98.651 123.888 126.717  1.00  0.00    -0.000 C 
BRANCH  12  13
ATOM     13  C   UNL     1      99.821 122.915 126.495  1.00  0.00    -0.000 C 
BRANCH  13  14
ATOM     14  C   UNL     1      99.380 121.441 126.534  1.00  0.00    -0.000 C 
BRANCH  14  15
ATOM     15  C   UNL     1     100.539 120.490 126.872  1.00  0.00    -0.003 C 
ATOM     16  C   UNL     1     101.046 119.720 125.652  1.00  0.00     0.004 C 
ENDBRANCH  14  15
ENDBRANCH  13  14
ENDBRANCH  12  13
ENDBRANCH  11  12
ENDBRANCH  10  11
ENDBRANCH   1  10
TORSDOF 12
ENDMDL
MODEL 4
REMARK VINA RESULT:    -4.653      3.700      8.436
REMARK INTER + INTRA:          -8.471
REMARK INTER:                  -7.853
REMARK INTRA:                  -0.619
REMARK UNBOUND:                -0.554
REMARK SMILES CCCCCCCCCCCCCC(=O)[O-]
REMARK SMILES IDX 8 1 9 2 10 3 11 4 12 5 13 6 14 7 15 8 16 9 7 10 6 11 5 12
REMARK SMILES IDX 4 13 3 14 2 15 1 16
REMARK H PARENT
REMARK Flexibility Score: inf
ROOT
ATOM      1  C   UNL     1      93.122 123.440 123.009  1.00  0.00     0.000 C 
ENDROOT
BRANCH   1   2
ATOM      2  C   UNL     1      93.268 123.061 124.491  1.00  0.00     0.000 C 
BRANCH   2   3
ATOM      3  C   UNL     1      94.707 123.221 125.014  1.00  0.00     0.000 C 
BRANCH   3   4
ATOM      4  C   UNL     1      95.664 123.969 124.066  1.00  0.00     0.000 C 
BRANCH   4   5
ATOM      5  C   UNL     1      96.799 124.690 124.808  1.00  0.00     0.006 C 
BRANCH   5   6
ATOM      6  C   UNL     1      96.905 124.202 126.256  1.00  0.00     0.053 C 
BRANCH   6   7
ATOM      7  C   UNL     1      98.181 123.451 126.464  1.00  0.00     0.041 C 
ATOM      8  O   UNL     1      99.285 124.056 126.439  1.00  0.00    -0.550 OA
ATOM      9  O   UNL     1      98.156 122.072 126.635  1.00  0.00    -0.550 OA
ENDBRANCH   6   7
ENDBRANCH   5   6
ENDBRANCH   4   5
ENDBRANCH   3   4
ENDBRANCH   2   3
ENDBRANCH   1   2
BRANCH   1  10
ATOM     10  C   UNL     1      92.665 122.232 122.178  1.00  0.00     0.000 C 
BRANCH  10  11
ATOM     11  C   UNL     1      92.636 122.526 120.669  1.00  0.00    -0.000 C 
BRANCH  11  12
ATOM     12  C   UNL     1      93.567 121.600 119.869  1.00  0.00    -0.000 C 
BRANCH  12  13
ATOM     13  C   UNL     1      93.019 121.279 118.468  1.00  0.00    -0.000 C 
BRANCH  13  14
ATOM     14  C   UNL     1      92.042 122.352 117.954  1.00  0.00    -0.000 C 
BRANCH  14  15
ATOM     15  C   UNL     1      91.621 122.113 116.496  1.00  0.00    -0.003 C 
ATOM     16  C   UNL     1      92.248 120.852 115.899  1.00  0.00     0.004 C 
ENDBRANCH  14  15
ENDBRANCH  13  14
ENDBRANCH  12  13
ENDBRANCH  11  12
ENDBRANCH  10  11
ENDBRANCH   1  10
TORSDOF 12
ENDMDL
MODEL 5
REMARK VINA RESULT:    -4.580     12.824     15.271
REMARK INTER + INTRA:          -8.347
REMARK INTER:                  -7.651
REMARK INTRA:                  -0.695
REMARK UNBOUND:                -0.554
REMARK SMILES CCCCCCCCCCCCCC(=O)[O-]
REMARK SMILES IDX 8 1 9 2 10 3 11 4 12 5 13 6 14 7 15 8 16 9 7 10 6 11 5 12
REMARK SMILES IDX 4 13 3 14 2 15 1 16
REMARK H PARENT
REMARK Flexibility Score: inf
ROOT
ATOM      1  C   UNL     1      83.162 126.454 129.823  1.00  0.00     0.000 C 
ENDROOT
BRANCH   1   2
ATOM      2  C   UNL     1      82.303 125.234 129.455  1.00  0.00     0.000 C 
BRANCH   2   3
ATOM      3  C   UNL     1      83.089 124.154 128.690  1.00  0.00     0.000 C 
BRANCH   3   4
ATOM      4  C   UNL     1      84.189 124.691 127.753  1.00  0.00     0.000 C 
BRANCH   4   5
ATOM      5  C   UNL     1      84.475 123.756 126.568  1.00  0.00     0.006 C 
BRANCH   5   6
ATOM      6  C   UNL     1      83.346 123.820 125.535  1.00  0.00     0.053 C 
BRANCH   6   7
ATOM      7  C   UNL     1      83.418 122.650 124.607  1.00  0.00     0.041 C 
ATOM      8  O   UNL     1      82.449 122.380 123.849  1.00  0.00    -0.550 OA
ATOM      9  O   UNL     1      84.536 121.824 124.614  1.00  0.00    -0.550 OA
ENDBRANCH   6   7
ENDBRANCH   5   6
ENDBRANCH   4   5
ENDBRANCH   3   4
ENDBRANCH   2   3
ENDBRANCH   1   2
BRANCH   1  10
ATOM     10  C   UNL     1      82.362 127.447 130.679  1.00  0.00     0.000 C 
BRANCH  10  11
ATOM     11  C   UNL     1      82.828 128.901 130.494  1.00  0.00    -0.000 C 
BRANCH  11  12
ATOM     12  C   UNL     1      84.355 129.050 130.596  1.00  0.00    -0.000 C 
BRANCH  12  13
ATOM     13  C   UNL     1      84.824 129.356 132.028  1.00  0.00    -0.000 C 
BRANCH  13  14
ATOM     14  C   UNL     1      83.820 130.225 132.807  1.00  0.00    -0.000 C 
BRANCH  14  15
ATOM     15  C   UNL     1      83.996 131.725 132.520  1.00  0.00    -0.003 C 
ATOM     16  C   UNL     1      82.816 132.322 131.752  1.00  0.00     0.004 C 
ENDBRANCH  14  15
ENDBRANCH  13  14
ENDBRANCH  12  13
ENDBRANCH  11  12
ENDBRANCH  10  11
ENDBRANCH   1  10
TORSDOF 12
ENDMDL
MODEL 6
REMARK VINA RESULT:    -4.329     12.775     14.599
REMARK INTER + INTRA:          -7.920
REMARK INTER:                  -6.971
REMARK INTRA:                  -0.948
REMARK UNBOUND:                -0.554
REMARK SMILES CCCCCCCCCCCCCC(=O)[O-]
REMARK SMILES IDX 8 1 9 2 10 3 11 4 12 5 13 6 14 7 15 8 16 9 7 10 6 11 5 12
REMARK SMILES IDX 4 13 3 14 2 15 1 16
REMARK H PARENT
REMARK Flexibility Score: inf
ROOT
ATOM      1  C   UNL     1      84.128 124.719 128.020  1.00  0.00     0.000 C 
ENDROOT
BRANCH   1   2
ATOM      2  C   UNL     1      84.466 124.347 126.569  1.00  0.00     0.000 C 
BRANCH   2   3
ATOM      3  C   UNL     1      83.233 123.912 125.756  1.00  0.00     0.000 C 
BRANCH   3   4
ATOM      4  C   UNL     1      83.486 122.778 124.745  1.00  0.00     0.000 C 
BRANCH   4   5
ATOM      5  C   UNL     1      84.540 121.770 125.228  1.00  0.00     0.006 C 
BRANCH   5   6
ATOM      6  C   UNL     1      83.882 120.596 125.958  1.00  0.00     0.053 C 
BRANCH   6   7
ATOM      7  C   UNL     1      84.521 120.385 127.294  1.00  0.00     0.041 C 
ATOM      8  O   UNL     1      84.407 121.256 128.196  1.00  0.00    -0.550 OA
ATOM      9  O   UNL     1      85.286 119.249 127.528  1.00  0.00    -0.550 OA
ENDBRANCH   6   7
ENDBRANCH   5   6
ENDBRANCH   4   5
ENDBRANCH   3   4
ENDBRANCH   2   3
ENDBRANCH   1   2
BRANCH   1  10
ATOM     10  C   UNL     1      82.668 124.375 128.348  1.00  0.00     0.000 C 
BRANCH  10  11
ATOM     11  C   UNL     1      82.001 125.419 129.258  1.00  0.00    -0.000 C 
BRANCH  11  12
ATOM     12  C   UNL     1      83.013 126.163 130.145  1.00  0.00    -0.000 C 
BRANCH  12  13
ATOM     13  C   UNL     1      82.605 127.621 130.413  1.00  0.00    -0.000 C 
BRANCH  13  14
ATOM     14  C   UNL     1      83.746 128.616 130.137  1.00  0.00    -0.000 C 
BRANCH  14  15
ATOM     15  C   UNL     1      83.786 129.762 131.160  1.00  0.00    -0.003 C 
ATOM     16  C   UNL     1      84.861 129.563 132.229  1.00  0.00     0.004 C 
ENDBRANCH  14  15
ENDBRANCH  13  14
ENDBRANCH  12  13
ENDBRANCH  11  12
ENDBRANCH  10  11
ENDBRANCH   1  10
TORSDOF 12
ENDMDL
MODEL 7
REMARK VINA RESULT:    -4.304     13.834     16.110
REMARK INTER + INTRA:          -7.877
REMARK INTER:                  -7.396
REMARK INTRA:                  -0.482
REMARK UNBOUND:                -0.554
REMARK SMILES CCCCCCCCCCCCCC(=O)[O-]
REMARK SMILES IDX 8 1 9 2 10 3 11 4 12 5 13 6 14 7 15 8 16 9 7 10 6 11 5 12
REMARK SMILES IDX 4 13 3 14 2 15 1 16
REMARK H PARENT
REMARK Flexibility Score: inf
ROOT
ATOM      1  C   UNL     1      82.220 125.021 129.121  1.00  0.00     0.000 C 
ENDROOT
BRANCH   1   2
ATOM      2  C   UNL     1      81.924 126.335 129.861  1.00  0.00     0.000 C 
BRANCH   2   3
ATOM      3  C   UNL     1      83.159 126.915 130.574  1.00  0.00     0.000 C 
BRANCH   3   4
ATOM      4  C   UNL     1      83.531 128.353 130.165  1.00  0.00     0.000 C 
BRANCH   4   5
ATOM      5  C   UNL     1      82.574 129.407 130.742  1.00  0.00     0.006 C 
BRANCH   5   6
ATOM      6  C   UNL     1      83.040 129.871 132.125  1.00  0.00     0.053 C 
BRANCH   6   7
ATOM      7  C   UNL     1      83.283 131.346 132.129  1.00  0.00     0.041 C 
ATOM      8  O   UNL     1      82.539 132.114 131.463  1.00  0.00    -0.550 OA
ATOM      9  O   UNL     1      84.364 131.872 132.827  1.00  0.00    -0.550 OA
ENDBRANCH   6   7
ENDBRANCH   5   6
ENDBRANCH   4   5
ENDBRANCH   3   4
ENDBRANCH   2   3
ENDBRANCH   1   2
BRANCH   1  10
ATOM     10  C   UNL     1      83.654 125.015 128.571  1.00  0.00     0.000 C 
BRANCH  10  11
ATOM     11  C   UNL     1      83.985 123.733 127.788  1.00  0.00    -0.000 C 
BRANCH  11  12
ATOM     12  C   UNL     1      84.637 124.024 126.426  1.00  0.00    -0.000 C 
BRANCH  12  13
ATOM     13  C   UNL     1      83.664 123.828 125.252  1.00  0.00    -0.000 C 
BRANCH  13  14
ATOM     14  C   UNL     1      83.693 122.394 124.692  1.00  0.00    -0.000 C 
BRANCH  14  15
ATOM     15  C   UNL     1      82.364 121.994 124.033  1.00  0.00    -0.003 C 
ATOM     16  C   UNL     1      82.560 121.198 122.742  1.00  0.00     0.004 C 
ENDBRANCH  14  15
ENDBRANCH  13  14
ENDBRANCH  12  13
ENDBRANCH  11  12
ENDBRANCH  10  11
ENDBRANCH   1  10
TORSDOF 12
ENDMDL
MODEL 8
REMARK VINA RESULT:    -4.304     12.910     14.486
REMARK INTER + INTRA:          -7.877
REMARK INTER:                  -7.228
REMARK INTRA:                  -0.649
REMARK UNBOUND:                -0.554
REMARK SMILES CCCCCCCCCCCCCC(=O)[O-]
REMARK SMILES IDX 8 1 9 2 10 3 11 4 12 5 13 6 14 7 15 8 16 9 7 10 6 11 5 12
REMARK SMILES IDX 4 13 3 14 2 15 1 16
REMARK H PARENT
REMARK Flexibility Score: inf
ROOT
ATOM      1  C   UNL     1      84.018 124.309 128.312  1.00  0.00     0.000 C 
ENDROOT
BRANCH   1   2
ATOM      2  C   UNL     1      84.557 124.535 126.891  1.00  0.00     0.000 C 
BRANCH   2   3
ATOM      3  C   UNL     1      83.560 124.116 125.795  1.00  0.00     0.000 C 
BRANCH   3   4
ATOM      4  C   UNL     1      83.965 122.865 124.991  1.00  0.00     0.000 C 
BRANCH   4   5
ATOM      5  C   UNL     1      82.819 122.308 124.133  1.00  0.00     0.006 C 
BRANCH   5   6
ATOM      6  C   UNL     1      82.945 120.791 123.970  1.00  0.00     0.053 C 
BRANCH   6   7
ATOM      7  C   UNL     1      82.542 120.377 122.590  1.00  0.00     0.041 C 
ATOM      8  O   UNL     1      82.564 121.209 121.646  1.00  0.00    -0.550 OA
ATOM      9  O   UNL     1      82.092 119.083 122.356  1.00  0.00    -0.550 OA
ENDBRANCH   6   7
ENDBRANCH   5   6
ENDBRANCH   4   5
ENDBRANCH   3   4
ENDBRANCH   2   3
ENDBRANCH   1   2
BRANCH   1  10
ATOM     10  C   UNL     1      82.484 124.387 128.333  1.00  0.00     0.000 C 
BRANCH  10  11
ATOM     11  C   UNL     1      81.954 125.397 129.363  1.00  0.00    -0.000 C 
BRANCH  11  12
ATOM     12  C   UNL     1      83.084 126.147 130.090  1.00  0.00    -0.000 C 
BRANCH  12  13
ATOM     13  C   UNL     1      82.753 127.631 130.323  1.00  0.00    -0.000 C 
BRANCH  13  14
ATOM     14  C   UNL     1      83.936 128.560 129.999  1.00  0.00    -0.000 C 
BRANCH  14  15
ATOM     15  C   UNL     1      84.347 129.428 131.198  1.00  0.00    -0.003 C 
ATOM     16  C   UNL     1      84.760 128.599 132.415  1.00  0.00     0.004 C 
ENDBRANCH  14  15
ENDBRANCH  13  14
ENDBRANCH  12  13
ENDBRANCH  11  12
ENDBRANCH  10  11
ENDBRANCH   1  10
TORSDOF 12
ENDMDL
MODEL 9
REMARK VINA RESULT:    -4.135     12.184     13.370
REMARK INTER + INTRA:          -7.590
REMARK INTER:                  -5.837
REMARK INTRA:                  -1.753
REMARK UNBOUND:                -0.554
REMARK SMILES CCCCCCCCCCCCCC(=O)[O-]
REMARK SMILES IDX 8 1 9 2 10 3 11 4 12 5 13 6 14 7 15 8 16 9 7 10 6 11 5 12
REMARK SMILES IDX 4 13 3 14 2 15 1 16
REMARK H PARENT
REMARK Flexibility Score: inf
ROOT
ATOM      1  C   UNL     1      83.805 124.512 128.412  1.00  0.00     0.000 C 
ENDROOT
BRANCH   1   2
ATOM      2  C   UNL     1      84.776 124.463 127.222  1.00  0.00     0.000 C 
BRANCH   2   3
ATOM      3  C   UNL     1      84.079 124.136 125.889  1.00  0.00     0.000 C 
BRANCH   3   4
ATOM      4  C   UNL     1      84.544 122.831 125.215  1.00  0.00     0.000 C 
BRANCH   4   5
ATOM      5  C   UNL     1      83.405 121.817 125.022  1.00  0.00     0.006 C 
BRANCH   5   6
ATOM      6  C   UNL     1      82.605 122.128 123.755  1.00  0.00     0.053 C 
BRANCH   6   7
ATOM      7  C   UNL     1      82.594 120.946 122.839  1.00  0.00     0.041 C 
ATOM      8  O   UNL     1      82.441 121.105 121.599  1.00  0.00    -0.550 OA
ATOM      9  O   UNL     1      82.703 119.662 123.359  1.00  0.00    -0.550 OA
ENDBRANCH   6   7
ENDBRANCH   5   6
ENDBRANCH   4   5
ENDBRANCH   3   4
ENDBRANCH   2   3
ENDBRANCH   1   2
BRANCH   1  10
ATOM     10  C   UNL     1      82.372 124.188 127.962  1.00  0.00     0.000 C 
BRANCH  10  11
ATOM     11  C   UNL     1      81.918 122.784 128.391  1.00  0.00    -0.000 C 
BRANCH  11  12
ATOM     12  C   UNL     1      82.900 122.118 129.369  1.00  0.00    -0.000 C 
BRANCH  12  13
ATOM     13  C   UNL     1      83.436 120.775 128.846  1.00  0.00    -0.000 C 
BRANCH  13  14
ATOM     14  C   UNL     1      84.888 120.872 128.345  1.00  0.00    -0.000 C 
BRANCH  14  15
ATOM     15  C   UNL     1      85.869 121.266 129.460  1.00  0.00    -0.003 C 
ATOM     16  C   UNL     1      86.148 120.120 130.433  1.00  0.00     0.004 C 
ENDBRANCH  14  15
ENDBRANCH  13  14
ENDBRANCH  12  13
ENDBRANCH  11  12
ENDBRANCH  10  11
ENDBRANCH   1  10
TORSDOF 12
ENDMDL
