MODEL 1
REMARK VINA RESULT:    -3.223      0.000      0.000
REMARK INTER + INTRA:          -5.247
REMARK INTER:                  -4.542
REMARK INTRA:                  -0.705
REMARK UNBOUND:                -0.705
REMARK SMILES CCCCCCCCC(=O)[O-]
REMARK SMILES IDX 6 1 7 2 8 3 9 4 10 5 11 6 5 7 4 8 3 9 2 10 1 11
REMARK H PARENT
REMARK Flexibility Score: inf
ROOT
ATOM      1  C   UNL     1      -8.146  -4.412   9.004  1.00  0.00     0.000 C 
ENDROOT
BRANCH   1   2
ATOM      2  C   UNL     1      -9.590  -4.016   8.644  1.00  0.00     0.006 C 
BRANCH   2   3
ATOM      3  C   UNL     1      -9.752  -2.556   8.194  1.00  0.00     0.053 C 
BRANCH   3   4
ATOM      4  C   UNL     1      -8.769  -2.186   7.126  1.00  0.00     0.041 C 
ATOM      5  O   UNL     1      -8.950  -2.564   5.939  1.00  0.00    -0.550 OA
ATOM      6  O   UNL     1      -7.670  -1.396   7.438  1.00  0.00    -0.550 OA
ENDBRANCH   3   4
ENDBRANCH   2   3
ENDBRANCH   1   2
BRANCH   1   7
ATOM      7  C   UNL     1      -7.771  -5.815   8.502  1.00  0.00     0.000 C 
BRANCH   7   8
ATOM      8  C   UNL     1      -7.707  -5.851   6.970  1.00  0.00    -0.000 C 
BRANCH   8   9
ATOM      9  C   UNL     1      -8.250  -7.181   6.428  1.00  0.00    -0.000 C 
BRANCH   9  10
ATOM     10  C   UNL     1      -9.784  -7.259   6.481  1.00  0.00    -0.003 C 
ATOM     11  C   UNL     1     -10.461  -6.110   5.737  1.00  0.00     0.004 C 
ENDBRANCH   9  10
ENDBRANCH   8   9
ENDBRANCH   7   8
ENDBRANCH   1   7
TORSDOF 7
ENDMDL
MODEL 2
REMARK VINA RESULT:    -3.096     19.950     21.074
REMARK INTER + INTRA:          -5.068
REMARK INTER:                  -4.545
REMARK INTRA:                  -0.523
REMARK UNBOUND:                -0.705
REMARK SMILES CCCCCCCCC(=O)[O-]
REMARK SMILES IDX 6 1 7 2 8 3 9 4 10 5 11 6 5 7 4 8 3 9 2 10 1 11
REMARK H PARENT
REMARK Flexibility Score: inf
ROOT
ATOM      1  C   UNL     1       5.876  -6.351  -9.209  1.00  0.00     0.000 C 
ENDROOT
BRANCH   1   2
ATOM      2  C   UNL     1       5.272  -7.101  -8.007  1.00  0.00     0.006 C 
BRANCH   2   3
ATOM      3  C   UNL     1       5.909  -6.746  -6.655  1.00  0.00     0.053 C 
BRANCH   3   4
ATOM      4  C   UNL     1       4.950  -6.026  -5.756  1.00  0.00     0.041 C 
ATOM      5  O   UNL     1       4.186  -6.674  -4.994  1.00  0.00    -0.550 OA
ATOM      6  O   UNL     1       4.924  -4.637  -5.739  1.00  0.00    -0.550 OA
ENDBRANCH   3   4
ENDBRANCH   2   3
ENDBRANCH   1   2
BRANCH   1   7
ATOM      7  C   UNL     1       6.853  -5.242  -8.788  1.00  0.00     0.000 C 
BRANCH   7   8
ATOM      8  C   UNL     1       6.243  -3.855  -9.027  1.00  0.00    -0.000 C 
BRANCH   8   9
ATOM      9  C   UNL     1       4.988  -3.950  -9.908  1.00  0.00    -0.000 C 
BRANCH   9  10
ATOM     10  C   UNL     1       3.827  -3.098  -9.374  1.00  0.00    -0.003 C 
ATOM     11  C   UNL     1       3.964  -1.619  -9.733  1.00  0.00     0.004 C 
ENDBRANCH   9  10
ENDBRANCH   8   9
ENDBRANCH   7   8
ENDBRANCH   1   7
TORSDOF 7
ENDMDL
MODEL 3
REMARK VINA RESULT:    -3.089     12.168     13.965
REMARK INTER + INTRA:          -5.058
REMARK INTER:                  -4.315
REMARK INTRA:                  -0.743
REMARK UNBOUND:                -0.705
REMARK SMILES CCCCCCCCC(=O)[O-]
REMARK SMILES IDX 6 1 7 2 8 3 9 4 10 5 11 6 5 7 4 8 3 9 2 10 1 11
REMARK H PARENT
REMARK Flexibility Score: inf
ROOT
ATOM      1  C   UNL     1      -5.671   7.211  10.051  1.00  0.00     0.000 C 
ENDROOT
BRANCH   1   2
ATOM      2  C   UNL     1      -7.132   7.687   9.949  1.00  0.00     0.006 C 
BRANCH   2   3
ATOM      3  C   UNL     1      -7.850   7.253   8.661  1.00  0.00     0.053 C 
BRANCH   3   4
ATOM      4  C   UNL     1      -9.042   8.113   8.368  1.00  0.00     0.041 C 
ATOM      5  O   UNL     1      -8.893   9.334   8.105  1.00  0.00    -0.550 OA
ATOM      6  O   UNL     1     -10.314   7.555   8.354  1.00  0.00    -0.550 OA
ENDBRANCH   3   4
ENDBRANCH   2   3
ENDBRANCH   1   2
BRANCH   1   7
ATOM      7  C   UNL     1      -4.663   8.370  10.012  1.00  0.00     0.000 C 
BRANCH   7   8
ATOM      8  C   UNL     1      -5.383   9.720   9.912  1.00  0.00    -0.000 C 
BRANCH   8   9
ATOM      9  C   UNL     1      -4.740  10.609   8.837  1.00  0.00    -0.000 C 
BRANCH   9  10
ATOM     10  C   UNL     1      -5.622  10.759   7.589  1.00  0.00    -0.003 C 
ATOM     11  C   UNL     1      -5.596   9.522   6.693  1.00  0.00     0.004 C 
ENDBRANCH   9  10
ENDBRANCH   8   9
ENDBRANCH   7   8
ENDBRANCH   1   7
TORSDOF 7
ENDMDL
MODEL 4
REMARK VINA RESULT:    -3.078     18.580     20.252
REMARK INTER + INTRA:          -5.042
REMARK INTER:                  -4.467
REMARK INTRA:                  -0.575
REMARK UNBOUND:                -0.705
REMARK SMILES CCCCCCCCC(=O)[O-]
REMARK SMILES IDX 6 1 7 2 8 3 9 4 10 5 11 6 5 7 4 8 3 9 2 10 1 11
REMARK H PARENT
REMARK Flexibility Score: inf
ROOT
ATOM      1  C   UNL     1       6.511   6.220   6.830  1.00  0.00     0.000 C 
ENDROOT
BRANCH   1   2
ATOM      2  C   UNL     1       5.898   6.164   8.242  1.00  0.00     0.006 C 
BRANCH   2   3
ATOM      3  C   UNL     1       6.878   6.513   9.372  1.00  0.00     0.053 C 
BRANCH   3   4
ATOM      4  C   UNL     1       6.873   7.977   9.686  1.00  0.00     0.041 C 
ATOM      5  O   UNL     1       7.935   8.556  10.035  1.00  0.00    -0.550 OA
ATOM      6  O   UNL     1       5.699   8.710   9.562  1.00  0.00    -0.550 OA
ENDBRANCH   3   4
ENDBRANCH   2   3
ENDBRANCH   1   2
BRANCH   1   7
ATOM      7  C   UNL     1       5.879   7.309   5.950  1.00  0.00     0.000 C 
BRANCH   7   8
ATOM      8  C   UNL     1       6.910   7.896   4.978  1.00  0.00    -0.000 C 
BRANCH   8   9
ATOM      9  C   UNL     1       6.915   9.431   5.042  1.00  0.00    -0.000 C 
BRANCH   9  10
ATOM     10  C   UNL     1       6.950   9.962   6.483  1.00  0.00    -0.003 C 
ATOM     11  C   UNL     1       5.777  10.888   6.801  1.00  0.00     0.004 C 
ENDBRANCH   9  10
ENDBRANCH   8   9
ENDBRANCH   7   8
ENDBRANCH   1   7
TORSDOF 7
ENDMDL
MODEL 5
REMARK VINA RESULT:    -3.006     19.272     20.358
REMARK INTER + INTRA:          -4.941
REMARK INTER:                  -4.395
REMARK INTRA:                  -0.546
REMARK UNBOUND:                -0.705
REMARK SMILES CCCCCCCCC(=O)[O-]
REMARK SMILES IDX 6 1 7 2 8 3 9 4 10 5 11 6 5 7 4 8 3 9 2 10 1 11
REMARK H PARENT
REMARK Flexibility Score: inf
ROOT
ATOM      1  C   UNL     1       6.362   6.768   6.175  1.00  0.00     0.000 C 
ENDROOT
BRANCH   1   2
ATOM      2  C   UNL     1       6.362   7.785   5.018  1.00  0.00     0.006 C 
BRANCH   2   3
ATOM      3  C   UNL     1       7.146   9.074   5.309  1.00  0.00     0.053 C 
BRANCH   3   4
ATOM      4  C   UNL     1       6.273  10.289   5.240  1.00  0.00     0.041 C 
ATOM      5  O   UNL     1       6.047  10.847   4.135  1.00  0.00    -0.550 OA
ATOM      6  O   UNL     1       5.682  10.785   6.396  1.00  0.00    -0.550 OA
ENDBRANCH   3   4
ENDBRANCH   2   3
ENDBRANCH   1   2
BRANCH   1   7
ATOM      7  C   UNL     1       5.790   7.348   7.478  1.00  0.00     0.000 C 
BRANCH   7   8
ATOM      8  C   UNL     1       6.352   6.612   8.700  1.00  0.00    -0.000 C 
BRANCH   8   9
ATOM      9  C   UNL     1       6.698   7.599   9.825  1.00  0.00    -0.000 C 
BRANCH   9  10
ATOM     10  C   UNL     1       6.761   9.054   9.336  1.00  0.00    -0.003 C 
ATOM     11  C   UNL     1       5.813   9.977  10.101  1.00  0.00     0.004 C 
ENDBRANCH   9  10
ENDBRANCH   8   9
ENDBRANCH   7   8
ENDBRANCH   1   7
TORSDOF 7
ENDMDL
MODEL 6
REMARK VINA RESULT:    -2.998     14.573     15.891
REMARK INTER + INTRA:          -4.930
REMARK INTER:                  -4.389
REMARK INTRA:                  -0.541
REMARK UNBOUND:                -0.705
REMARK SMILES CCCCCCCCC(=O)[O-]
REMARK SMILES IDX 6 1 7 2 8 3 9 4 10 5 11 6 5 7 4 8 3 9 2 10 1 11
REMARK H PARENT
REMARK Flexibility Score: inf
ROOT
ATOM      1  C   UNL     1       6.487  -8.048   3.271  1.00  0.00     0.000 C 
ENDROOT
BRANCH   1   2
ATOM      2  C   UNL     1       5.359  -7.133   3.783  1.00  0.00     0.006 C 
BRANCH   2   3
ATOM      3  C   UNL     1       4.276  -6.819   2.740  1.00  0.00     0.053 C 
BRANCH   3   4
ATOM      4  C   UNL     1       3.516  -8.046   2.336  1.00  0.00     0.041 C 
ATOM      5  O   UNL     1       3.579  -8.469   1.152  1.00  0.00    -0.550 OA
ATOM      6  O   UNL     1       2.764  -8.739   3.276  1.00  0.00    -0.550 OA
ENDBRANCH   3   4
ENDBRANCH   2   3
ENDBRANCH   1   2
BRANCH   1   7
ATOM      7  C   UNL     1       7.864  -7.670   3.839  1.00  0.00     0.000 C 
BRANCH   7   8
ATOM      8  C   UNL     1       7.825  -6.286   4.498  1.00  0.00    -0.000 C 
BRANCH   8   9
ATOM      9  C   UNL     1       8.380  -6.343   5.929  1.00  0.00    -0.000 C 
BRANCH   9  10
ATOM     10  C   UNL     1       7.828  -7.532   6.731  1.00  0.00    -0.003 C 
ATOM     11  C   UNL     1       6.928  -7.100   7.887  1.00  0.00     0.004 C 
ENDBRANCH   9  10
ENDBRANCH   8   9
ENDBRANCH   7   8
ENDBRANCH   1   7
TORSDOF 7
ENDMDL
MODEL 7
REMARK VINA RESULT:    -2.936     18.740     20.220
REMARK INTER + INTRA:          -4.842
REMARK INTER:                  -4.189
REMARK INTRA:                  -0.653
REMARK UNBOUND:                -0.705
REMARK SMILES CCCCCCCCC(=O)[O-]
REMARK SMILES IDX 6 1 7 2 8 3 9 4 10 5 11 6 5 7 4 8 3 9 2 10 1 11
REMARK H PARENT
REMARK Flexibility Score: inf
ROOT
ATOM      1  C   UNL     1       6.395   9.534   5.084  1.00  0.00     0.000 C 
ENDROOT
BRANCH   1   2
ATOM      2  C   UNL     1       6.899  10.214   6.370  1.00  0.00     0.006 C 
BRANCH   2   3
ATOM      3  C   UNL     1       5.849  10.311   7.487  1.00  0.00     0.053 C 
BRANCH   3   4
ATOM      4  C   UNL     1       6.379   9.816   8.798  1.00  0.00     0.041 C 
ATOM      5  O   UNL     1       7.620   9.743   8.994  1.00  0.00    -0.550 OA
ATOM      6  O   UNL     1       5.499   9.464   9.814  1.00  0.00    -0.550 OA
ENDBRANCH   3   4
ENDBRANCH   2   3
ENDBRANCH   1   2
BRANCH   1   7
ATOM      7  C   UNL     1       6.936   8.105   4.915  1.00  0.00     0.000 C 
BRANCH   7   8
ATOM      8  C   UNL     1       5.997   7.082   5.565  1.00  0.00    -0.000 C 
BRANCH   8   9
ATOM      9  C   UNL     1       6.686   6.370   6.738  1.00  0.00    -0.000 C 
BRANCH   9  10
ATOM     10  C   UNL     1       5.859   6.426   8.032  1.00  0.00    -0.003 C 
ATOM     11  C   UNL     1       6.694   6.152   9.281  1.00  0.00     0.004 C 
ENDBRANCH   9  10
ENDBRANCH   8   9
ENDBRANCH   7   8
ENDBRANCH   1   7
TORSDOF 7
ENDMDL
MODEL 8
REMARK VINA RESULT:    -2.905     14.775     16.208
REMARK INTER + INTRA:          -4.798
REMARK INTER:                  -4.224
REMARK INTRA:                  -0.574
REMARK UNBOUND:                -0.705
REMARK SMILES CCCCCCCCC(=O)[O-]
REMARK SMILES IDX 6 1 7 2 8 3 9 4 10 5 11 6 5 7 4 8 3 9 2 10 1 11
REMARK H PARENT
REMARK Flexibility Score: inf
ROOT
ATOM      1  C   UNL     1       6.920  -8.405   2.653  1.00  0.00     0.000 C 
ENDROOT
BRANCH   1   2
ATOM      2  C   UNL     1       5.793  -9.112   1.878  1.00  0.00     0.006 C 
BRANCH   2   3
ATOM      3  C   UNL     1       4.656  -8.182   1.426  1.00  0.00     0.053 C 
BRANCH   3   4
ATOM      4  C   UNL     1       3.904  -7.610   2.588  1.00  0.00     0.041 C 
ATOM      5  O   UNL     1       3.972  -6.380   2.844  1.00  0.00    -0.550 OA
ATOM      6  O   UNL     1       3.103  -8.433   3.370  1.00  0.00    -0.550 OA
ENDBRANCH   3   4
ENDBRANCH   2   3
ENDBRANCH   1   2
BRANCH   1   7
ATOM      7  C   UNL     1       7.024  -8.874   4.113  1.00  0.00     0.000 C 
BRANCH   7   8
ATOM      8  C   UNL     1       6.671  -7.738   5.080  1.00  0.00    -0.000 C 
BRANCH   8   9
ATOM      9  C   UNL     1       7.160  -6.385   4.542  1.00  0.00    -0.000 C 
BRANCH   9  10
ATOM     10  C   UNL     1       8.625  -6.099   4.907  1.00  0.00    -0.003 C 
ATOM     11  C   UNL     1       9.035  -4.656   4.618  1.00  0.00     0.004 C 
ENDBRANCH   9  10
ENDBRANCH   8   9
ENDBRANCH   7   8
ENDBRANCH   1   7
TORSDOF 7
ENDMDL
MODEL 9
REMARK VINA RESULT:    -2.885     14.957     15.812
REMARK INTER + INTRA:          -4.771
REMARK INTER:                  -4.187
REMARK INTRA:                  -0.584
REMARK UNBOUND:                -0.705
REMARK SMILES CCCCCCCCC(=O)[O-]
REMARK SMILES IDX 6 1 7 2 8 3 9 4 10 5 11 6 5 7 4 8 3 9 2 10 1 11
REMARK H PARENT
REMARK Flexibility Score: inf
ROOT
ATOM      1  C   UNL     1     -10.231  -8.389  -8.693  1.00  0.00     0.000 C 
ENDROOT
BRANCH   1   2
ATOM      2  C   UNL     1     -10.895  -7.002  -8.768  1.00  0.00     0.006 C 
BRANCH   2   3
ATOM      3  C   UNL     1     -10.710  -6.144  -7.507  1.00  0.00     0.053 C 
BRANCH   3   4
ATOM      4  C   UNL     1      -9.927  -4.898  -7.787  1.00  0.00     0.041 C 
ATOM      5  O   UNL     1      -9.657  -4.095  -6.855  1.00  0.00    -0.550 OA
ATOM      6  O   UNL     1      -9.469  -4.639  -9.073  1.00  0.00    -0.550 OA
ENDBRANCH   3   4
ENDBRANCH   2   3
ENDBRANCH   1   2
BRANCH   1   7
ATOM      7  C   UNL     1      -8.729  -8.349  -9.017  1.00  0.00     0.000 C 
BRANCH   7   8
ATOM      8  C   UNL     1      -7.920  -9.117  -7.965  1.00  0.00    -0.000 C 
BRANCH   8   9
ATOM      9  C   UNL     1      -6.685  -8.317  -7.528  1.00  0.00    -0.000 C 
BRANCH   9  10
ATOM     10  C   UNL     1      -6.795  -6.824  -7.874  1.00  0.00    -0.003 C 
ATOM     11  C   UNL     1      -5.578  -6.020  -7.421  1.00  0.00     0.004 C 
ENDBRANCH   9  10
ENDBRANCH   8   9
ENDBRANCH   7   8
ENDBRANCH   1   7
TORSDOF 7
ENDMDL
