MODEL 1
REMARK VINA RESULT:    -4.166      0.000      0.000
REMARK INTER + INTRA:          -6.119
REMARK INTER:                  -5.627
REMARK INTRA:                  -0.493
REMARK UNBOUND:                -0.493
REMARK SMILES CCCCCCCC(=O)[O-]
REMARK SMILES IDX 5 1 6 2 7 3 8 4 9 5 10 6 4 7 3 8 2 9 1 10
REMARK H PARENT
REMARK Flexibility Score: inf
ROOT
ATOM      1  C   UNL     1      21.860 -23.196  33.065  1.00  0.00     0.000 C 
ENDROOT
BRANCH   1   2
ATOM      2  C   UNL     1      22.934 -22.121  33.305  1.00  0.00     0.006 C 
BRANCH   2   3
ATOM      3  C   UNL     1      23.877 -21.964  32.104  1.00  0.00     0.053 C 
BRANCH   3   4
ATOM      4  C   UNL     1      24.689 -23.200  31.868  1.00  0.00     0.041 C 
ATOM      5  O   UNL     1      25.465 -23.628  32.763  1.00  0.00    -0.550 OA
ATOM      6  O   UNL     1      24.568 -23.897  30.672  1.00  0.00    -0.550 OA
ENDBRANCH   3   4
ENDBRANCH   2   3
ENDBRANCH   1   2
BRANCH   1   7
ATOM      7  C   UNL     1      20.431 -22.653  33.228  1.00  0.00     0.000 C 
BRANCH   7   8
ATOM      8  C   UNL     1      20.382 -21.116  33.255  1.00  0.00    -0.000 C 
BRANCH   8   9
ATOM      9  C   UNL     1      19.674 -20.530  32.023  1.00  0.00    -0.003 C 
ATOM     10  C   UNL     1      20.632 -19.810  31.074  1.00  0.00     0.004 C 
ENDBRANCH   8   9
ENDBRANCH   7   8
ENDBRANCH   1   7
TORSDOF 6
ENDMDL
MODEL 2
REMARK VINA RESULT:    -4.001      1.760      2.221
REMARK INTER + INTRA:          -5.897
REMARK INTER:                  -5.481
REMARK INTRA:                  -0.416
REMARK UNBOUND:                -0.493
REMARK SMILES CCCCCCCC(=O)[O-]
REMARK SMILES IDX 5 1 6 2 7 3 8 4 9 5 10 6 4 7 3 8 2 9 1 10
REMARK H PARENT
REMARK Flexibility Score: inf
ROOT
ATOM      1  C   UNL     1      23.852 -21.962  32.329  1.00  0.00     0.000 C 
ENDROOT
BRANCH   1   2
ATOM      2  C   UNL     1      23.797 -22.732  33.660  1.00  0.00     0.006 C 
BRANCH   2   3
ATOM      3  C   UNL     1      24.055 -24.233  33.473  1.00  0.00     0.053 C 
BRANCH   3   4
ATOM      4  C   UNL     1      23.071 -24.854  32.530  1.00  0.00     0.041 C 
ATOM      5  O   UNL     1      21.850 -24.912  32.836  1.00  0.00    -0.550 OA
ATOM      6  O   UNL     1      23.495 -25.344  31.301  1.00  0.00    -0.550 OA
ENDBRANCH   3   4
ENDBRANCH   2   3
ENDBRANCH   1   2
BRANCH   1   7
ATOM      7  C   UNL     1      22.664 -21.003  32.149  1.00  0.00     0.000 C 
BRANCH   7   8
ATOM      8  C   UNL     1      21.470 -21.366  33.048  1.00  0.00    -0.000 C 
BRANCH   8   9
ATOM      9  C   UNL     1      20.135 -20.852  32.487  1.00  0.00    -0.003 C 
ATOM     10  C   UNL     1      20.311 -19.954  31.264  1.00  0.00     0.004 C 
ENDBRANCH   8   9
ENDBRANCH   7   8
ENDBRANCH   1   7
TORSDOF 6
ENDMDL
MODEL 3
REMARK VINA RESULT:    -3.962     10.795     12.373
REMARK INTER + INTRA:          -5.844
REMARK INTER:                  -5.303
REMARK INTRA:                  -0.541
REMARK UNBOUND:                -0.493
REMARK SMILES CCCCCCCC(=O)[O-]
REMARK SMILES IDX 5 1 6 2 7 3 8 4 9 5 10 6 4 7 3 8 2 9 1 10
REMARK H PARENT
REMARK Flexibility Score: inf
ROOT
ATOM      1  C   UNL     1      14.682 -13.119  37.328  1.00  0.00     0.000 C 
ENDROOT
BRANCH   1   2
ATOM      2  C   UNL     1      15.118 -12.784  38.765  1.00  0.00     0.006 C 
BRANCH   2   3
ATOM      3  C   UNL     1      15.876 -13.943  39.426  1.00  0.00     0.053 C 
BRANCH   3   4
ATOM      4  C   UNL     1      15.134 -15.238  39.301  1.00  0.00     0.041 C 
ATOM      5  O   UNL     1      15.587 -16.159  38.571  1.00  0.00    -0.550 OA
ATOM      6  O   UNL     1      13.958 -15.440  40.012  1.00  0.00    -0.550 OA
ENDBRANCH   3   4
ENDBRANCH   2   3
ENDBRANCH   1   2
BRANCH   1   7
ATOM      7  C   UNL     1      15.739 -12.729  36.282  1.00  0.00     0.000 C 
BRANCH   7   8
ATOM      8  C   UNL     1      16.395 -13.953  35.621  1.00  0.00    -0.000 C 
BRANCH   8   9
ATOM      9  C   UNL     1      17.929 -13.914  35.706  1.00  0.00    -0.003 C 
ATOM     10  C   UNL     1      18.465 -14.492  37.015  1.00  0.00     0.004 C 
ENDBRANCH   8   9
ENDBRANCH   7   8
ENDBRANCH   1   7
TORSDOF 6
ENDMDL
MODEL 4
REMARK VINA RESULT:    -3.940     10.396     11.898
REMARK INTER + INTRA:          -5.815
REMARK INTER:                  -5.355
REMARK INTRA:                  -0.460
REMARK UNBOUND:                -0.493
REMARK SMILES CCCCCCCC(=O)[O-]
REMARK SMILES IDX 5 1 6 2 7 3 8 4 9 5 10 6 4 7 3 8 2 9 1 10
REMARK H PARENT
REMARK Flexibility Score: inf
ROOT
ATOM      1  C   UNL     1      14.667 -13.143  37.305  1.00  0.00     0.000 C 
ENDROOT
BRANCH   1   2
ATOM      2  C   UNL     1      15.689 -12.752  36.223  1.00  0.00     0.006 C 
BRANCH   2   3
ATOM      3  C   UNL     1      16.368 -13.978  35.597  1.00  0.00     0.053 C 
BRANCH   3   4
ATOM      4  C   UNL     1      17.857 -13.931  35.751  1.00  0.00     0.041 C 
ATOM      5  O   UNL     1      18.394 -14.303  36.828  1.00  0.00    -0.550 OA
ATOM      6  O   UNL     1      18.654 -13.503  34.697  1.00  0.00    -0.550 OA
ENDBRANCH   3   4
ENDBRANCH   2   3
ENDBRANCH   1   2
BRANCH   1   7
ATOM      7  C   UNL     1      15.133 -12.773  38.723  1.00  0.00     0.000 C 
BRANCH   7   8
ATOM      8  C   UNL     1      15.900 -13.916  39.409  1.00  0.00    -0.000 C 
BRANCH   8   9
ATOM      9  C   UNL     1      15.281 -15.293  39.123  1.00  0.00    -0.003 C 
ATOM     10  C   UNL     1      14.058 -15.587  39.991  1.00  0.00     0.004 C 
ENDBRANCH   8   9
ENDBRANCH   7   8
ENDBRANCH   1   7
TORSDOF 6
ENDMDL
MODEL 5
REMARK VINA RESULT:    -3.930     10.028     11.486
REMARK INTER + INTRA:          -5.802
REMARK INTER:                  -5.186
REMARK INTRA:                  -0.616
REMARK UNBOUND:                -0.493
REMARK SMILES CCCCCCCC(=O)[O-]
REMARK SMILES IDX 5 1 6 2 7 3 8 4 9 5 10 6 4 7 3 8 2 9 1 10
REMARK H PARENT
REMARK Flexibility Score: inf
ROOT
ATOM      1  C   UNL     1      15.883 -13.038  37.021  1.00  0.00     0.000 C 
ENDROOT
BRANCH   1   2
ATOM      2  C   UNL     1      17.073 -14.011  36.944  1.00  0.00     0.006 C 
BRANCH   2   3
ATOM      3  C   UNL     1      16.913 -15.034  35.812  1.00  0.00     0.053 C 
BRANCH   3   4
ATOM      4  C   UNL     1      16.361 -16.334  36.310  1.00  0.00     0.041 C 
ATOM      5  O   UNL     1      15.326 -16.825  35.786  1.00  0.00    -0.550 OA
ATOM      6  O   UNL     1      17.005 -17.020  37.333  1.00  0.00    -0.550 OA
ENDBRANCH   3   4
ENDBRANCH   2   3
ENDBRANCH   1   2
BRANCH   1   7
ATOM      7  C   UNL     1      15.134 -13.121  38.361  1.00  0.00     0.000 C 
BRANCH   7   8
ATOM      8  C   UNL     1      15.929 -13.883  39.435  1.00  0.00    -0.000 C 
BRANCH   8   9
ATOM      9  C   UNL     1      15.156 -15.088  39.993  1.00  0.00    -0.003 C 
ATOM     10  C   UNL     1      13.945 -15.463  39.140  1.00  0.00     0.004 C 
ENDBRANCH   8   9
ENDBRANCH   7   8
ENDBRANCH   1   7
TORSDOF 6
ENDMDL
MODEL 6
REMARK VINA RESULT:    -3.869     10.076     11.534
REMARK INTER + INTRA:          -5.719
REMARK INTER:                  -5.183
REMARK INTRA:                  -0.536
REMARK UNBOUND:                -0.493
REMARK SMILES CCCCCCCC(=O)[O-]
REMARK SMILES IDX 5 1 6 2 7 3 8 4 9 5 10 6 4 7 3 8 2 9 1 10
REMARK H PARENT
REMARK Flexibility Score: inf
ROOT
ATOM      1  C   UNL     1      15.275 -13.341  38.442  1.00  0.00     0.000 C 
ENDROOT
BRANCH   1   2
ATOM      2  C   UNL     1      16.190 -13.401  37.206  1.00  0.00     0.006 C 
BRANCH   2   3
ATOM      3  C   UNL     1      17.354 -14.384  37.393  1.00  0.00     0.053 C 
BRANCH   3   4
ATOM      4  C   UNL     1      17.110 -15.679  36.683  1.00  0.00     0.041 C 
ATOM      5  O   UNL     1      16.583 -15.685  35.539  1.00  0.00    -0.550 OA
ATOM      6  O   UNL     1      17.490 -16.880  37.270  1.00  0.00    -0.550 OA
ENDBRANCH   3   4
ENDBRANCH   2   3
ENDBRANCH   1   2
BRANCH   1   7
ATOM      7  C   UNL     1      15.957 -13.875  39.712  1.00  0.00     0.000 C 
BRANCH   7   8
ATOM      8  C   UNL     1      15.151 -14.996  40.388  1.00  0.00    -0.000 C 
BRANCH   8   9
ATOM      9  C   UNL     1      14.554 -15.984  39.374  1.00  0.00    -0.003 C 
ATOM     10  C   UNL     1      14.980 -17.429  39.631  1.00  0.00     0.004 C 
ENDBRANCH   8   9
ENDBRANCH   7   8
ENDBRANCH   1   7
TORSDOF 6
ENDMDL
MODEL 7
REMARK VINA RESULT:    -3.784     10.811     12.071
REMARK INTER + INTRA:          -5.604
REMARK INTER:                  -5.188
REMARK INTRA:                  -0.416
REMARK UNBOUND:                -0.493
REMARK SMILES CCCCCCCC(=O)[O-]
REMARK SMILES IDX 5 1 6 2 7 3 8 4 9 5 10 6 4 7 3 8 2 9 1 10
REMARK H PARENT
REMARK Flexibility Score: inf
ROOT
ATOM      1  C   UNL     1      15.903 -13.893  39.655  1.00  0.00     0.000 C 
ENDROOT
BRANCH   1   2
ATOM      2  C   UNL     1      15.675 -14.009  38.138  1.00  0.00     0.006 C 
BRANCH   2   3
ATOM      3  C   UNL     1      16.982 -14.246  37.371  1.00  0.00     0.053 C 
BRANCH   3   4
ATOM      4  C   UNL     1      17.048 -13.430  36.116  1.00  0.00     0.041 C 
ATOM      5  O   UNL     1      17.853 -13.742  35.199  1.00  0.00    -0.550 OA
ATOM      6  O   UNL     1      16.202 -12.341  35.947  1.00  0.00    -0.550 OA
ENDBRANCH   3   4
ENDBRANCH   2   3
ENDBRANCH   1   2
BRANCH   1   7
ATOM      7  C   UNL     1      15.248 -15.039  40.443  1.00  0.00     0.000 C 
BRANCH   7   8
ATOM      8  C   UNL     1      14.033 -15.637  39.714  1.00  0.00    -0.000 C 
BRANCH   8   9
ATOM      9  C   UNL     1      14.051 -17.174  39.708  1.00  0.00    -0.003 C 
ATOM     10  C   UNL     1      15.408 -17.750  39.305  1.00  0.00     0.004 C 
ENDBRANCH   8   9
ENDBRANCH   7   8
ENDBRANCH   1   7
TORSDOF 6
ENDMDL
MODEL 8
REMARK VINA RESULT:    -3.782      9.729     11.174
REMARK INTER + INTRA:          -5.602
REMARK INTER:                  -5.016
REMARK INTRA:                  -0.586
REMARK UNBOUND:                -0.493
REMARK SMILES CCCCCCCC(=O)[O-]
REMARK SMILES IDX 5 1 6 2 7 3 8 4 9 5 10 6 4 7 3 8 2 9 1 10
REMARK H PARENT
REMARK Flexibility Score: inf
ROOT
ATOM      1  C   UNL     1      17.006 -14.964  35.668  1.00  0.00     0.000 C 
ENDROOT
BRANCH   1   2
ATOM      2  C   UNL     1      16.240 -16.283  35.874  1.00  0.00     0.006 C 
BRANCH   2   3
ATOM      3  C   UNL     1      16.754 -17.068  37.089  1.00  0.00     0.053 C 
BRANCH   3   4
ATOM      4  C   UNL     1      15.659 -17.354  38.071  1.00  0.00     0.041 C 
ATOM      5  O   UNL     1      14.532 -16.809  37.939  1.00  0.00    -0.550 OA
ATOM      6  O   UNL     1      15.875 -18.246  39.114  1.00  0.00    -0.550 OA
ENDBRANCH   3   4
ENDBRANCH   2   3
ENDBRANCH   1   2
BRANCH   1   7
ATOM      7  C   UNL     1      17.039 -14.093  36.935  1.00  0.00     0.000 C 
BRANCH   7   8
ATOM      8  C   UNL     1      15.875 -13.090  36.993  1.00  0.00    -0.000 C 
BRANCH   8   9
ATOM      9  C   UNL     1      15.104 -13.162  38.321  1.00  0.00    -0.003 C 
ATOM     10  C   UNL     1      15.886 -13.874  39.424  1.00  0.00     0.004 C 
ENDBRANCH   8   9
ENDBRANCH   7   8
ENDBRANCH   1   7
TORSDOF 6
ENDMDL
MODEL 9
REMARK VINA RESULT:    -3.781     10.326     11.759
REMARK INTER + INTRA:          -5.600
REMARK INTER:                  -5.074
REMARK INTRA:                  -0.526
REMARK UNBOUND:                -0.493
REMARK SMILES CCCCCCCC(=O)[O-]
REMARK SMILES IDX 5 1 6 2 7 3 8 4 9 5 10 6 4 7 3 8 2 9 1 10
REMARK H PARENT
REMARK Flexibility Score: inf
ROOT
ATOM      1  C   UNL     1      15.827 -14.143  39.411  1.00  0.00     0.000 C 
ENDROOT
BRANCH   1   2
ATOM      2  C   UNL     1      14.748 -15.128  39.895  1.00  0.00     0.006 C 
BRANCH   2   3
ATOM      3  C   UNL     1      15.101 -16.584  39.563  1.00  0.00     0.053 C 
BRANCH   3   4
ATOM      4  C   UNL     1      15.317 -16.784  38.094  1.00  0.00     0.041 C 
ATOM      5  O   UNL     1      16.387 -17.300  37.676  1.00  0.00    -0.550 OA
ATOM      6  O   UNL     1      14.325 -16.429  37.189  1.00  0.00    -0.550 OA
ENDBRANCH   3   4
ENDBRANCH   2   3
ENDBRANCH   1   2
BRANCH   1   7
ATOM      7  C   UNL     1      15.260 -13.048  38.491  1.00  0.00     0.000 C 
BRANCH   7   8
ATOM      8  C   UNL     1      15.813 -13.136  37.059  1.00  0.00    -0.000 C 
BRANCH   8   9
ATOM      9  C   UNL     1      17.168 -13.858  36.996  1.00  0.00    -0.003 C 
ATOM     10  C   UNL     1      17.801 -13.813  35.605  1.00  0.00     0.004 C 
ENDBRANCH   8   9
ENDBRANCH   7   8
ENDBRANCH   1   7
TORSDOF 6
ENDMDL
