MODEL 1
REMARK VINA RESULT:    -6.623      0.000      0.000
REMARK INTER + INTRA:          -8.764
REMARK INTER:                  -8.366
REMARK INTRA:                  -0.399
REMARK UNBOUND:                -0.399
REMARK SMILES O=C(C=Cc1ccc(O)cc1)c1ccc(O)cc1O
REMARK SMILES IDX 4 1 3 2 5 3 6 4 7 5 8 6 11 7 10 8 9 9 2 11 1 12 12 13 18 14
REMARK SMILES IDX 13 15 17 16 14 17 15 18 19 19 16 21
REMARK H PARENT 9 10 19 20 16 22
REMARK Flexibility Score: inf
ROOT
ATOM      1  C   UNL     1     -43.539  34.494  -6.267  1.00  0.00     0.012 C 
ATOM      2  C   UNL     1     -43.274  34.773  -7.551  1.00  0.00     0.053 C 
ENDROOT
BRANCH   1   3
ATOM      3  C   UNL     1     -42.541  34.619  -5.176  1.00  0.00    -0.025 A 
ATOM      4  C   UNL     1     -42.018  35.863  -4.767  1.00  0.00     0.012 A 
ATOM      5  C   UNL     1     -41.088  35.930  -3.724  1.00  0.00     0.047 A 
ATOM      6  C   UNL     1     -40.676  34.762  -3.070  1.00  0.00     0.115 A 
ATOM      7  C   UNL     1     -42.133  33.456  -4.501  1.00  0.00     0.012 A 
ATOM      8  C   UNL     1     -41.203  33.528  -3.460  1.00  0.00     0.047 A 
BRANCH   6   9
ATOM      9  O   UNL     1     -39.750  34.819  -2.031  1.00  0.00    -0.508 OA
ATOM     10  H   UNL     1     -39.626  35.659  -1.477  1.00  0.00     0.293 HD
ENDBRANCH   6   9
ENDBRANCH   1   3
BRANCH   2  11
ATOM     11  C   UNL     1     -44.289  34.621  -8.616  1.00  0.00     0.189 C 
ATOM     12  O   UNL     1     -44.919  35.633  -9.032  1.00  0.00    -0.289 OA
BRANCH  11  13
ATOM     13  C   UNL     1     -44.622  33.288  -9.173  1.00  0.00     0.064 A 
ATOM     14  C   UNL     1     -45.522  32.413  -8.525  1.00  0.00     0.130 A 
ATOM     15  C   UNL     1     -44.005  32.874 -10.366  1.00  0.00     0.020 A 
ATOM     16  C   UNL     1     -45.818  31.168  -9.097  1.00  0.00     0.093 A 
ATOM     17  C   UNL     1     -44.302  31.628 -10.925  1.00  0.00     0.047 A 
ATOM     18  C   UNL     1     -45.212  30.774 -10.294  1.00  0.00     0.119 A 
BRANCH  14  19
ATOM     19  O   UNL     1     -46.100  32.765  -7.305  1.00  0.00    -0.507 OA
ATOM     20  H   UNL     1     -45.691  32.486  -6.422  1.00  0.00     0.293 HD
ENDBRANCH  14  19
BRANCH  18  21
ATOM     21  O   UNL     1     -45.519  29.531 -10.844  1.00  0.00    -0.508 OA
ATOM     22  H   UNL     1     -46.251  29.424 -11.536  1.00  0.00     0.293 HD
ENDBRANCH  18  21
ENDBRANCH  11  13
ENDBRANCH   2  11
TORSDOF 6
ENDMDL
MODEL 2
REMARK VINA RESULT:    -6.575      0.839      1.601
REMARK INTER + INTRA:          -8.703
REMARK INTER:                  -8.178
REMARK INTRA:                  -0.525
REMARK UNBOUND:                -0.399
REMARK SMILES O=C(C=Cc1ccc(O)cc1)c1ccc(O)cc1O
REMARK SMILES IDX 4 1 3 2 5 3 6 4 7 5 8 6 11 7 10 8 9 9 2 11 1 12 12 13 18 14
REMARK SMILES IDX 13 15 17 16 14 17 15 18 19 19 16 21
REMARK H PARENT 9 10 19 20 16 22
REMARK Flexibility Score: inf
ROOT
ATOM      1  C   UNL     1     -43.583  34.442  -6.245  1.00  0.00     0.012 C 
ATOM      2  C   UNL     1     -43.273  34.783  -7.504  1.00  0.00     0.053 C 
ENDROOT
BRANCH   1   3
ATOM      3  C   UNL     1     -42.645  34.574  -5.103  1.00  0.00    -0.025 A 
ATOM      4  C   UNL     1     -42.176  35.824  -4.648  1.00  0.00     0.012 A 
ATOM      5  C   UNL     1     -41.302  35.897  -3.559  1.00  0.00     0.047 A 
ATOM      6  C   UNL     1     -40.893  34.730  -2.903  1.00  0.00     0.115 A 
ATOM      7  C   UNL     1     -42.239  33.411  -4.427  1.00  0.00     0.012 A 
ATOM      8  C   UNL     1     -41.365  33.489  -3.338  1.00  0.00     0.047 A 
BRANCH   6   9
ATOM      9  O   UNL     1     -40.021  34.793  -1.818  1.00  0.00    -0.508 OA
ATOM     10  H   UNL     1     -39.848  35.663  -1.328  1.00  0.00     0.293 HD
ENDBRANCH   6   9
ENDBRANCH   1   3
BRANCH   2  11
ATOM     11  C   UNL     1     -44.229  34.622  -8.622  1.00  0.00     0.189 C 
ATOM     12  O   UNL     1     -44.850  35.627  -9.066  1.00  0.00    -0.289 OA
BRANCH  11  13
ATOM     13  C   UNL     1     -44.511  33.288  -9.202  1.00  0.00     0.064 A 
ATOM     14  C   UNL     1     -43.918  32.861 -10.411  1.00  0.00     0.130 A 
ATOM     15  C   UNL     1     -45.414  32.435  -8.544  1.00  0.00     0.020 A 
ATOM     16  C   UNL     1     -44.204  31.584 -10.915  1.00  0.00     0.093 A 
ATOM     17  C   UNL     1     -45.696  31.167  -9.058  1.00  0.00     0.047 A 
ATOM     18  C   UNL     1     -45.089  30.736 -10.242  1.00  0.00     0.119 A 
BRANCH  14  19
ATOM     19  O   UNL     1     -43.071  33.708 -11.125  1.00  0.00    -0.507 OA
ATOM     20  H   UNL     1     -42.194  33.382 -11.512  1.00  0.00     0.293 HD
ENDBRANCH  14  19
BRANCH  18  21
ATOM     21  O   UNL     1     -45.360  29.472 -10.761  1.00  0.00    -0.508 OA
ATOM     22  H   UNL     1     -45.922  29.352 -11.596  1.00  0.00     0.293 HD
ENDBRANCH  18  21
ENDBRANCH  11  13
ENDBRANCH   2  11
TORSDOF 6
ENDMDL
MODEL 3
REMARK VINA RESULT:    -6.562      1.368      2.028
REMARK INTER + INTRA:          -8.687
REMARK INTER:                  -8.218
REMARK INTRA:                  -0.470
REMARK UNBOUND:                -0.399
REMARK SMILES O=C(C=Cc1ccc(O)cc1)c1ccc(O)cc1O
REMARK SMILES IDX 4 1 3 2 5 3 6 4 7 5 8 6 11 7 10 8 9 9 2 11 1 12 12 13 18 14
REMARK SMILES IDX 13 15 17 16 14 17 15 18 19 19 16 21
REMARK H PARENT 9 10 19 20 16 22
REMARK Flexibility Score: inf
ROOT
ATOM      1  C   UNL     1     -43.430  34.350  -5.999  1.00  0.00     0.012 C 
ATOM      2  C   UNL     1     -43.334  34.986  -7.175  1.00  0.00     0.053 C 
ENDROOT
BRANCH   1   3
ATOM      3  C   UNL     1     -42.449  34.509  -4.897  1.00  0.00    -0.025 A 
ATOM      4  C   UNL     1     -41.983  35.770  -4.472  1.00  0.00     0.012 A 
ATOM      5  C   UNL     1     -41.067  35.868  -3.419  1.00  0.00     0.047 A 
ATOM      6  C   UNL     1     -40.614  34.713  -2.770  1.00  0.00     0.115 A 
ATOM      7  C   UNL     1     -41.999  33.358  -4.227  1.00  0.00     0.012 A 
ATOM      8  C   UNL     1     -41.083  33.461  -3.175  1.00  0.00     0.047 A 
BRANCH   6   9
ATOM      9  O   UNL     1     -39.701  34.801  -1.722  1.00  0.00    -0.508 OA
ATOM     10  H   UNL     1     -39.540  34.022  -1.093  1.00  0.00     0.293 HD
ENDBRANCH   6   9
ENDBRANCH   1   3
BRANCH   2  11
ATOM     11  C   UNL     1     -44.323  34.792  -8.258  1.00  0.00     0.189 C 
ATOM     12  O   UNL     1     -44.386  35.624  -9.206  1.00  0.00    -0.289 OA
BRANCH  11  13
ATOM     13  C   UNL     1     -45.280  33.662  -8.228  1.00  0.00     0.064 A 
ATOM     14  C   UNL     1     -45.184  32.580  -9.133  1.00  0.00     0.130 A 
ATOM     15  C   UNL     1     -46.328  33.679  -7.291  1.00  0.00     0.020 A 
ATOM     16  C   UNL     1     -46.105  31.525  -9.057  1.00  0.00     0.093 A 
ATOM     17  C   UNL     1     -47.243  32.625  -7.228  1.00  0.00     0.047 A 
ATOM     18  C   UNL     1     -47.132  31.543  -8.108  1.00  0.00     0.119 A 
BRANCH  14  19
ATOM     19  O   UNL     1     -44.199  32.564 -10.119  1.00  0.00    -0.507 OA
ATOM     20  H   UNL     1     -44.265  33.142 -10.948  1.00  0.00     0.293 HD
ENDBRANCH  14  19
BRANCH  18  21
ATOM     21  O   UNL     1     -48.036  30.486  -8.052  1.00  0.00    -0.508 OA
ATOM     22  H   UNL     1     -49.004  30.600  -8.331  1.00  0.00     0.293 HD
ENDBRANCH  18  21
ENDBRANCH  11  13
ENDBRANCH   2  11
TORSDOF 6
ENDMDL
MODEL 4
REMARK VINA RESULT:    -6.519      2.168      3.091
REMARK INTER + INTRA:          -8.633
REMARK INTER:                  -8.107
REMARK INTRA:                  -0.525
REMARK UNBOUND:                -0.399
REMARK SMILES O=C(C=Cc1ccc(O)cc1)c1ccc(O)cc1O
REMARK SMILES IDX 4 1 3 2 5 3 6 4 7 5 8 6 11 7 10 8 9 9 2 11 1 12 12 13 18 14
REMARK SMILES IDX 13 15 17 16 14 17 15 18 19 19 16 21
REMARK H PARENT 9 10 19 20 16 22
REMARK Flexibility Score: inf
ROOT
ATOM      1  C   UNL     1     -44.214  34.483  -5.791  1.00  0.00     0.012 C 
ATOM      2  C   UNL     1     -44.228  34.018  -7.048  1.00  0.00     0.053 C 
ENDROOT
BRANCH   1   3
ATOM      3  C   UNL     1     -42.984  34.585  -4.966  1.00  0.00    -0.025 A 
ATOM      4  C   UNL     1     -42.376  35.820  -4.661  1.00  0.00     0.012 A 
ATOM      5  C   UNL     1     -41.224  35.865  -3.869  1.00  0.00     0.047 A 
ATOM      6  C   UNL     1     -40.670  34.683  -3.363  1.00  0.00     0.115 A 
ATOM      7  C   UNL     1     -42.428  33.407  -4.439  1.00  0.00     0.012 A 
ATOM      8  C   UNL     1     -41.276  33.456  -3.648  1.00  0.00     0.047 A 
BRANCH   6   9
ATOM      9  O   UNL     1     -39.523  34.717  -2.574  1.00  0.00    -0.508 OA
ATOM     10  H   UNL     1     -39.103  35.594  -2.287  1.00  0.00     0.293 HD
ENDBRANCH   6   9
ENDBRANCH   1   3
BRANCH   2  11
ATOM     11  C   UNL     1     -45.476  33.916  -7.835  1.00  0.00     0.189 C 
ATOM     12  O   UNL     1     -45.574  34.521  -8.939  1.00  0.00    -0.289 OA
BRANCH  11  13
ATOM     13  C   UNL     1     -46.641  33.152  -7.329  1.00  0.00     0.064 A 
ATOM     14  C   UNL     1     -46.797  31.772  -7.588  1.00  0.00     0.130 A 
ATOM     15  C   UNL     1     -47.630  33.825  -6.592  1.00  0.00     0.020 A 
ATOM     16  C   UNL     1     -47.909  31.087  -7.076  1.00  0.00     0.093 A 
ATOM     17  C   UNL     1     -48.737  33.135  -6.091  1.00  0.00     0.047 A 
ATOM     18  C   UNL     1     -48.877  31.764  -6.328  1.00  0.00     0.119 A 
BRANCH  14  19
ATOM     19  O   UNL     1     -45.869  31.087  -8.373  1.00  0.00    -0.507 OA
ATOM     20  H   UNL     1     -45.787  31.254  -9.369  1.00  0.00     0.293 HD
ENDBRANCH  14  19
BRANCH  18  21
ATOM     21  O   UNL     1     -49.975  31.065  -5.830  1.00  0.00    -0.508 OA
ATOM     22  H   UNL     1     -49.917  30.078  -5.608  1.00  0.00     0.293 HD
ENDBRANCH  18  21
ENDBRANCH  11  13
ENDBRANCH   2  11
TORSDOF 6
ENDMDL
MODEL 5
REMARK VINA RESULT:    -6.515      1.857      2.900
REMARK INTER + INTRA:          -8.628
REMARK INTER:                  -7.934
REMARK INTRA:                  -0.694
REMARK UNBOUND:                -0.399
REMARK SMILES O=C(C=Cc1ccc(O)cc1)c1ccc(O)cc1O
REMARK SMILES IDX 4 1 3 2 5 3 6 4 7 5 8 6 11 7 10 8 9 9 2 11 1 12 12 13 18 14
REMARK SMILES IDX 13 15 17 16 14 17 15 18 19 19 16 21
REMARK H PARENT 9 10 19 20 16 22
REMARK Flexibility Score: inf
ROOT
ATOM      1  C   UNL     1     -43.754  33.746  -4.706  1.00  0.00     0.012 C 
ATOM      2  C   UNL     1     -45.018  34.193  -4.696  1.00  0.00     0.053 C 
ENDROOT
BRANCH   1   3
ATOM      3  C   UNL     1     -42.851  33.811  -3.530  1.00  0.00    -0.025 A 
ATOM      4  C   UNL     1     -41.831  34.777  -3.409  1.00  0.00     0.012 A 
ATOM      5  C   UNL     1     -41.013  34.804  -2.275  1.00  0.00     0.047 A 
ATOM      6  C   UNL     1     -41.207  33.878  -1.244  1.00  0.00     0.115 A 
ATOM      7  C   UNL     1     -43.046  32.896  -2.481  1.00  0.00     0.012 A 
ATOM      8  C   UNL     1     -42.225  32.927  -1.349  1.00  0.00     0.047 A 
BRANCH   6   9
ATOM      9  O   UNL     1     -40.397  33.897  -0.111  1.00  0.00    -0.508 OA
ATOM     10  H   UNL     1     -39.811  33.107   0.135  1.00  0.00     0.293 HD
ENDBRANCH   6   9
ENDBRANCH   1   3
BRANCH   2  11
ATOM     11  C   UNL     1     -45.886  34.127  -5.892  1.00  0.00     0.189 C 
ATOM     12  O   UNL     1     -47.131  33.972  -5.756  1.00  0.00    -0.289 OA
BRANCH  11  13
ATOM     13  C   UNL     1     -45.314  34.189  -7.258  1.00  0.00     0.064 A 
ATOM     14  C   UNL     1     -45.396  33.097  -8.150  1.00  0.00     0.130 A 
ATOM     15  C   UNL     1     -44.649  35.358  -7.667  1.00  0.00     0.020 A 
ATOM     16  C   UNL     1     -44.853  33.207  -9.439  1.00  0.00     0.093 A 
ATOM     17  C   UNL     1     -44.106  35.455  -8.950  1.00  0.00     0.047 A 
ATOM     18  C   UNL     1     -44.210  34.381  -9.841  1.00  0.00     0.119 A 
BRANCH  14  19
ATOM     19  O   UNL     1     -45.989  31.899  -7.754  1.00  0.00    -0.507 OA
ATOM     20  H   UNL     1     -45.437  31.106  -7.450  1.00  0.00     0.293 HD
ENDBRANCH  14  19
BRANCH  18  21
ATOM     21  O   UNL     1     -43.676  34.468 -11.125  1.00  0.00    -0.508 OA
ATOM     22  H   UNL     1     -43.890  33.778 -11.835  1.00  0.00     0.293 HD
ENDBRANCH  18  21
ENDBRANCH  11  13
ENDBRANCH   2  11
TORSDOF 6
ENDMDL
MODEL 6
REMARK VINA RESULT:    -6.504      1.304      1.960
REMARK INTER + INTRA:          -8.614
REMARK INTER:                  -8.042
REMARK INTRA:                  -0.572
REMARK UNBOUND:                -0.399
REMARK SMILES O=C(C=Cc1ccc(O)cc1)c1ccc(O)cc1O
REMARK SMILES IDX 4 1 3 2 5 3 6 4 7 5 8 6 11 7 10 8 9 9 2 11 1 12 12 13 18 14
REMARK SMILES IDX 13 15 17 16 14 17 15 18 19 19 16 21
REMARK H PARENT 9 10 19 20 16 22
REMARK Flexibility Score: inf
ROOT
ATOM      1  C   UNL     1     -43.556  34.432  -5.881  1.00  0.00     0.012 C 
ATOM      2  C   UNL     1     -43.324  34.835  -7.137  1.00  0.00     0.053 C 
ENDROOT
BRANCH   1   3
ATOM      3  C   UNL     1     -42.544  34.495  -4.797  1.00  0.00    -0.025 A 
ATOM      4  C   UNL     1     -42.089  33.347  -4.117  1.00  0.00     0.012 A 
ATOM      5  C   UNL     1     -41.123  33.457  -3.111  1.00  0.00     0.047 A 
ATOM      6  C   UNL     1     -40.593  34.709  -2.777  1.00  0.00     0.115 A 
ATOM      7  C   UNL     1     -41.992  35.744  -4.463  1.00  0.00     0.012 A 
ATOM      8  C   UNL     1     -41.028  35.850  -3.456  1.00  0.00     0.047 A 
BRANCH   6   9
ATOM      9  O   UNL     1     -39.632  34.829  -1.775  1.00  0.00    -0.508 OA
ATOM     10  H   UNL     1     -39.020  35.635  -1.722  1.00  0.00     0.293 HD
ENDBRANCH   6   9
ENDBRANCH   1   3
BRANCH   2  11
ATOM     11  C   UNL     1     -44.352  34.743  -8.197  1.00  0.00     0.189 C 
ATOM     12  O   UNL     1     -44.439  35.652  -9.068  1.00  0.00    -0.289 OA
BRANCH  11  13
ATOM     13  C   UNL     1     -45.322  33.623  -8.228  1.00  0.00     0.064 A 
ATOM     14  C   UNL     1     -46.574  33.704  -7.577  1.00  0.00     0.130 A 
ATOM     15  C   UNL     1     -44.977  32.438  -8.900  1.00  0.00     0.020 A 
ATOM     16  C   UNL     1     -47.467  32.624  -7.646  1.00  0.00     0.093 A 
ATOM     17  C   UNL     1     -45.870  31.366  -8.957  1.00  0.00     0.047 A 
ATOM     18  C   UNL     1     -47.119  31.458  -8.334  1.00  0.00     0.119 A 
BRANCH  14  19
ATOM     19  O   UNL     1     -46.922  34.838  -6.844  1.00  0.00    -0.507 OA
ATOM     20  H   UNL     1     -47.419  34.772  -5.964  1.00  0.00     0.293 HD
ENDBRANCH  14  19
BRANCH  18  21
ATOM     21  O   UNL     1     -48.020  30.396  -8.387  1.00  0.00    -0.508 OA
ATOM     22  H   UNL     1     -47.750  29.491  -8.753  1.00  0.00     0.293 HD
ENDBRANCH  18  21
ENDBRANCH  11  13
ENDBRANCH   2  11
TORSDOF 6
ENDMDL
MODEL 7
REMARK VINA RESULT:    -6.335      2.707      7.417
REMARK INTER + INTRA:          -8.400
REMARK INTER:                  -7.680
REMARK INTRA:                  -0.720
REMARK UNBOUND:                -0.399
REMARK SMILES O=C(C=Cc1ccc(O)cc1)c1ccc(O)cc1O
REMARK SMILES IDX 4 1 3 2 5 3 6 4 7 5 8 6 11 7 10 8 9 9 2 11 1 12 12 13 18 14
REMARK SMILES IDX 13 15 17 16 14 17 15 18 19 19 16 21
REMARK H PARENT 9 10 19 20 16 22
REMARK Flexibility Score: inf
ROOT
ATOM      1  C   UNL     1     -45.116  34.116  -5.458  1.00  0.00     0.012 C 
ATOM      2  C   UNL     1     -45.447  34.781  -4.342  1.00  0.00     0.053 C 
ENDROOT
BRANCH   1   3
ATOM      3  C   UNL     1     -45.880  34.209  -6.727  1.00  0.00    -0.025 A 
ATOM      4  C   UNL     1     -45.259  34.445  -7.970  1.00  0.00     0.012 A 
ATOM      5  C   UNL     1     -46.022  34.511  -9.141  1.00  0.00     0.047 A 
ATOM      6  C   UNL     1     -47.410  34.333  -9.088  1.00  0.00     0.115 A 
ATOM      7  C   UNL     1     -47.272  34.016  -6.689  1.00  0.00     0.012 A 
ATOM      8  C   UNL     1     -48.031  34.083  -7.862  1.00  0.00     0.047 A 
BRANCH   6   9
ATOM      9  O   UNL     1     -48.178  34.398 -10.249  1.00  0.00    -0.508 OA
ATOM     10  H   UNL     1     -48.517  35.282 -10.611  1.00  0.00     0.293 HD
ENDBRANCH   6   9
ENDBRANCH   1   3
BRANCH   2  11
ATOM     11  C   UNL     1     -44.671  34.653  -3.089  1.00  0.00     0.189 C 
ATOM     12  O   UNL     1     -45.268  34.661  -1.977  1.00  0.00    -0.289 OA
BRANCH  11  13
ATOM     13  C   UNL     1     -43.192  34.564  -3.110  1.00  0.00     0.064 A 
ATOM     14  C   UNL     1     -42.514  33.354  -2.841  1.00  0.00     0.130 A 
ATOM     15  C   UNL     1     -42.442  35.722  -3.379  1.00  0.00     0.020 A 
ATOM     16  C   UNL     1     -41.113  33.314  -2.887  1.00  0.00     0.093 A 
ATOM     17  C   UNL     1     -41.046  35.674  -3.416  1.00  0.00     0.047 A 
ATOM     18  C   UNL     1     -40.378  34.469  -3.174  1.00  0.00     0.119 A 
BRANCH  14  19
ATOM     19  O   UNL     1     -43.224  32.202  -2.504  1.00  0.00    -0.507 OA
ATOM     20  H   UNL     1     -43.810  32.160  -1.680  1.00  0.00     0.293 HD
ENDBRANCH  14  19
BRANCH  18  21
ATOM     21  O   UNL     1     -38.987  34.407  -3.212  1.00  0.00    -0.508 OA
ATOM     22  H   UNL     1     -38.482  34.370  -4.090  1.00  0.00     0.293 HD
ENDBRANCH  18  21
ENDBRANCH  11  13
ENDBRANCH   2  11
TORSDOF 6
ENDMDL
