MODEL 1
REMARK VINA RESULT:    -3.401      0.000      0.000
REMARK INTER + INTRA:          -1.568
REMARK INTER:                  -4.197
REMARK INTRA:                   2.628
REMARK UNBOUND:                 2.628
REMARK SMILES C=C1CC[C@H]2[C@H]([C@H]3[C@H](C)CC[C@H]13)C2(C)C
REMARK SMILES IDX 3 1 2 2 1 3 12 4 9 5 8 6 10 7 7 8 11 9 4 11 5 12 6 13 13 14
REMARK SMILES IDX 14 16 15 17
REMARK H PARENT
REMARK Flexibility Score: 80.00
ROOT
ATOM      1  C   UNL     1      11.347   6.097  17.056  1.00  0.00     0.031 C 
ENDROOT
BRANCH   1   2
ATOM      2  C   UNL     1      12.803   5.690  16.815  1.00  0.00    -0.074 C 
ATOM      3  C   UNL     1      13.569   6.402  15.973  1.00  0.00     0.008 C 
BRANCH   2   4
ATOM      4  C   UNL     1      13.395   4.621  17.730  1.00  0.00     0.018 C 
ATOM      5  C   UNL     1      15.869   4.420  20.559  1.00  0.00     0.008 C 
ATOM      6  C   UNL     1      14.687   4.037  19.660  1.00  0.00    -0.010 C 
ATOM      7  C   UNL     1      15.111   3.106  18.493  1.00  0.00     0.004 C 
ATOM      8  C   UNL     1      14.074   5.239  18.952  1.00  0.00     0.003 CG0
ATOM      9  C   UNL     1      14.442   3.645  17.209  1.00  0.00     0.008 C 
ATOM     10  G   UNL     1      13.228   6.307  19.705  1.00  0.00     0.000 G0
ENDBRANCH   2   4
ENDBRANCH   1   2
BRANCH   1  11
ATOM     11  C   UNL     1      11.111   6.793  18.426  1.00  0.00     0.009 C 
BRANCH  11  12
ATOM     12  C   UNL     1      11.695   5.936  19.566  1.00  0.00    -0.001 C 
ATOM     13  C   UNL     1      13.199   6.313  19.729  1.00  0.00     0.002 CG0
ATOM     14  C   UNL     1      12.232   6.362  20.919  1.00  0.00    -0.029 C 
ATOM     15  G   UNL     1      14.062   5.250  18.988  1.00  0.00     0.000 G0
ATOM     16  C   UNL     1      11.819   7.756  21.407  1.00  0.00     0.011 C 
ATOM     17  C   UNL     1      12.374   5.273  21.990  1.00  0.00     0.011 C 
ENDBRANCH  11  12
ENDBRANCH   1  11
TORSDOF 0
ENDMDL
MODEL 2
REMARK VINA RESULT:    -3.240      1.335      2.783
REMARK INTER + INTRA:          -1.369
REMARK INTER:                  -4.058
REMARK INTRA:                   2.689
REMARK UNBOUND:                 2.628
REMARK SMILES C=C1CC[C@H]2[C@H]([C@H]3[C@H](C)CC[C@H]13)C2(C)C
REMARK SMILES IDX 3 1 2 2 1 3 12 4 9 5 8 6 10 7 7 8 11 9 4 11 5 12 6 13 13 14
REMARK SMILES IDX 14 16 15 17
REMARK H PARENT
REMARK Flexibility Score: 80.00
ROOT
ATOM      1  C   UNL     1      15.007   4.861  16.041  1.00  0.00     0.031 C 
ENDROOT
BRANCH   1   2
ATOM      2  C   UNL     1      15.576   4.467  17.407  1.00  0.00    -0.074 C 
ATOM      3  C   UNL     1      16.836   4.798  17.730  1.00  0.00     0.008 C 
BRANCH   2   4
ATOM      4  C   UNL     1      14.598   3.914  18.442  1.00  0.00     0.018 C 
ATOM      5  C   UNL     1      13.001   5.040  21.659  1.00  0.00     0.008 C 
ATOM      6  C   UNL     1      13.195   4.262  20.352  1.00  0.00    -0.010 C 
ATOM      7  C   UNL     1      13.984   2.941  20.563  1.00  0.00     0.004 C 
ATOM      8  C   UNL     1      14.040   5.022  19.336  1.00  0.00     0.003 CG0
ATOM      9  C   UNL     1      15.043   2.855  19.442  1.00  0.00     0.008 C 
ATOM     10  G   UNL     1      13.505   6.272  18.577  1.00  0.00     0.000 G0
ENDBRANCH   2   4
ENDBRANCH   1   2
BRANCH   1  11
ATOM     11  C   UNL     1      14.017   6.060  16.098  1.00  0.00     0.009 C 
BRANCH  11  12
ATOM     12  C   UNL     1      12.937   5.808  17.169  1.00  0.00    -0.001 C 
ATOM     13  C   UNL     1      13.503   6.281  18.542  1.00  0.00     0.002 CG0
ATOM     14  C   UNL     1      12.161   6.802  18.012  1.00  0.00    -0.029 C 
ATOM     15  G   UNL     1      14.033   5.038  19.317  1.00  0.00     0.000 G0
ATOM     16  C   UNL     1      12.141   8.251  17.510  1.00  0.00     0.011 C 
ATOM     17  C   UNL     1      10.885   6.293  18.695  1.00  0.00     0.011 C 
ENDBRANCH  11  12
ENDBRANCH   1  11
TORSDOF 0
ENDMDL
MODEL 3
REMARK VINA RESULT:    -3.103      1.119      4.264
REMARK INTER + INTRA:          -1.200
REMARK INTER:                  -3.807
REMARK INTRA:                   2.607
REMARK UNBOUND:                 2.628
REMARK SMILES C=C1CC[C@H]2[C@H]([C@H]3[C@H](C)CC[C@H]13)C2(C)C
REMARK SMILES IDX 3 1 2 2 1 3 12 4 9 5 8 6 10 7 7 8 11 9 4 11 5 12 6 13 13 14
REMARK SMILES IDX 14 16 15 17
REMARK H PARENT
REMARK Flexibility Score: 80.00
ROOT
ATOM      1  C   UNL     1      11.839   5.915  21.672  1.00  0.00     0.031 C 
ENDROOT
BRANCH   1   2
ATOM      2  C   UNL     1      11.952   7.227  20.891  1.00  0.00    -0.074 C 
ATOM      3  C   UNL     1      12.376   8.341  21.509  1.00  0.00     0.008 C 
BRANCH   2   4
ATOM      4  C   UNL     1      11.802   7.156  19.373  1.00  0.00     0.018 C 
ATOM      5  C   UNL     1      13.998   7.442  16.330  1.00  0.00     0.008 C 
ATOM      6  C   UNL     1      12.803   7.036  17.200  1.00  0.00    -0.010 C 
ATOM      7  C   UNL     1      11.654   8.080  17.149  1.00  0.00     0.004 C 
ATOM      8  C   UNL     1      13.152   6.965  18.682  1.00  0.00     0.003 CG0
ATOM      9  C   UNL     1      11.178   8.311  18.600  1.00  0.00     0.008 C 
ATOM     10  G   UNL     1      14.040   5.831  19.275  1.00  0.00     0.000 G0
ENDBRANCH   2   4
ENDBRANCH   1   2
BRANCH   1  11
ATOM     11  C   UNL     1      12.983   4.906  21.370  1.00  0.00     0.009 C 
BRANCH  11  12
ATOM     12  C   UNL     1      13.111   4.686  19.849  1.00  0.00    -0.001 C 
ATOM     13  C   UNL     1      14.040   5.802  19.280  1.00  0.00     0.002 CG0
ATOM     14  C   UNL     1      14.330   4.316  19.026  1.00  0.00    -0.029 C 
ATOM     15  G   UNL     1      13.153   6.925  18.668  1.00  0.00     0.000 G0
ATOM     16  C   UNL     1      15.512   3.709  19.792  1.00  0.00     0.011 C 
ATOM     17  C   UNL     1      14.081   3.780  17.610  1.00  0.00     0.011 C 
ENDBRANCH  11  12
ENDBRANCH   1  11
TORSDOF 0
ENDMDL
MODEL 4
REMARK VINA RESULT:    -3.053      1.709      4.637
REMARK INTER + INTRA:          -1.139
REMARK INTER:                  -3.781
REMARK INTRA:                   2.642
REMARK UNBOUND:                 2.628
REMARK SMILES C=C1CC[C@H]2[C@H]([C@H]3[C@H](C)CC[C@H]13)C2(C)C
REMARK SMILES IDX 3 1 2 2 1 3 12 4 9 5 8 6 10 7 7 8 11 9 4 11 5 12 6 13 13 14
REMARK SMILES IDX 14 16 15 17
REMARK H PARENT
REMARK Flexibility Score: 80.00
ROOT
ATOM      1  C   UNL     1      14.148   3.002  19.880  1.00  0.00     0.031 C 
ENDROOT
BRANCH   1   2
ATOM      2  C   UNL     1      13.278   4.232  19.611  1.00  0.00    -0.074 C 
ATOM      3  C   UNL     1      12.762   4.926  20.639  1.00  0.00     0.008 C 
BRANCH   2   4
ATOM      4  C   UNL     1      13.229   4.760  18.179  1.00  0.00     0.018 C 
ATOM      5  C   UNL     1      14.565   7.689  16.232  1.00  0.00     0.008 C 
ATOM      6  C   UNL     1      14.019   6.284  16.510  1.00  0.00    -0.010 C 
ATOM      7  C   UNL     1      12.471   6.223  16.417  1.00  0.00     0.004 C 
ATOM      8  C   UNL     1      14.309   5.812  17.930  1.00  0.00     0.003 CG0
ATOM      9  C   UNL     1      11.968   5.424  17.639  1.00  0.00     0.008 C 
ATOM     10  G   UNL     1      15.739   5.410  18.398  1.00  0.00     0.000 G0
ENDBRANCH   2   4
ENDBRANCH   1   2
BRANCH   1  11
ATOM     11  C   UNL     1      15.669   3.254  19.674  1.00  0.00     0.009 C 
BRANCH  11  12
ATOM     12  C   UNL     1      15.924   3.870  18.285  1.00  0.00    -0.001 C 
ATOM     13  C   UNL     1      15.749   5.415  18.405  1.00  0.00     0.002 CG0
ATOM     14  C   UNL     1      17.031   4.800  17.827  1.00  0.00    -0.029 C 
ATOM     15  G   UNL     1      14.326   5.796  17.902  1.00  0.00     0.000 G0
ATOM     16  C   UNL     1      18.279   4.862  18.717  1.00  0.00     0.011 C 
ATOM     17  C   UNL     1      17.258   4.927  16.315  1.00  0.00     0.011 C 
ENDBRANCH  11  12
ENDBRANCH   1  11
TORSDOF 0
ENDMDL
MODEL 5
REMARK VINA RESULT:    -3.043      1.121      4.402
REMARK INTER + INTRA:          -1.126
REMARK INTER:                  -3.818
REMARK INTRA:                   2.692
REMARK UNBOUND:                 2.628
REMARK SMILES C=C1CC[C@H]2[C@H]([C@H]3[C@H](C)CC[C@H]13)C2(C)C
REMARK SMILES IDX 3 1 2 2 1 3 12 4 9 5 8 6 10 7 7 8 11 9 4 11 5 12 6 13 13 14
REMARK SMILES IDX 14 16 15 17
REMARK H PARENT
REMARK Flexibility Score: 80.00
ROOT
ATOM      1  C   UNL     1      14.728   2.521  19.913  1.00  0.00     0.031 C 
ENDROOT
BRANCH   1   2
ATOM      2  C   UNL     1      14.681   3.459  21.122  1.00  0.00    -0.074 C 
ATOM      3  C   UNL     1      15.821   3.861  21.704  1.00  0.00     0.008 C 
BRANCH   2   4
ATOM      4  C   UNL     1      13.334   4.090  21.470  1.00  0.00     0.018 C 
ATOM      5  C   UNL     1      11.687   7.466  21.242  1.00  0.00     0.008 C 
ATOM      6  C   UNL     1      11.821   5.942  21.329  1.00  0.00    -0.010 C 
ATOM      7  C   UNL     1      11.830   5.432  22.795  1.00  0.00     0.004 C 
ATOM      8  C   UNL     1      13.146   5.436  20.769  1.00  0.00     0.003 CG0
ATOM      9  C   UNL     1      12.972   4.400  22.917  1.00  0.00     0.008 C 
ATOM     10  G   UNL     1      13.458   5.432  19.243  1.00  0.00     0.000 G0
ENDBRANCH   2   4
ENDBRANCH   1   2
BRANCH   1  11
ATOM     11  C   UNL     1      14.440   3.231  18.559  1.00  0.00     0.009 C 
BRANCH  11  12
ATOM     12  C   UNL     1      13.124   4.029  18.646  1.00  0.00    -0.001 C 
ATOM     13  C   UNL     1      13.452   5.433  19.239  1.00  0.00     0.002 CG0
ATOM     14  C   UNL     1      12.705   5.286  17.906  1.00  0.00    -0.029 C 
ATOM     15  G   UNL     1      13.112   5.423  20.758  1.00  0.00     0.000 G0
ATOM     16  C   UNL     1      13.497   5.626  16.638  1.00  0.00     0.011 C 
ATOM     17  C   UNL     1      11.209   5.623  17.894  1.00  0.00     0.011 C 
ENDBRANCH  11  12
ENDBRANCH   1  11
TORSDOF 0
ENDMDL
MODEL 6
REMARK VINA RESULT:    -2.992      1.247      4.629
REMARK INTER + INTRA:          -1.063
REMARK INTER:                  -3.695
REMARK INTRA:                   2.632
REMARK UNBOUND:                 2.628
REMARK SMILES C=C1CC[C@H]2[C@H]([C@H]3[C@H](C)CC[C@H]13)C2(C)C
REMARK SMILES IDX 3 1 2 2 1 3 12 4 9 5 8 6 10 7 7 8 11 9 4 11 5 12 6 13 13 14
REMARK SMILES IDX 14 16 15 17
REMARK H PARENT
REMARK Flexibility Score: 80.00
ROOT
ATOM      1  C   UNL     1      13.460   3.347  20.931  1.00  0.00     0.031 C 
ENDROOT
BRANCH   1   2
ATOM      2  C   UNL     1      13.523   4.801  21.406  1.00  0.00    -0.074 C 
ATOM      3  C   UNL     1      14.483   5.186  22.262  1.00  0.00     0.008 C 
BRANCH   2   4
ATOM      4  C   UNL     1      12.626   5.812  20.696  1.00  0.00     0.018 C 
ATOM      5  C   UNL     1      13.003   8.673  18.280  1.00  0.00     0.008 C 
ATOM      6  C   UNL     1      12.341   7.516  19.037  1.00  0.00    -0.010 C 
ATOM      7  C   UNL     1      11.642   7.987  20.342  1.00  0.00     0.004 C 
ATOM      8  C   UNL     1      13.347   6.481  19.527  1.00  0.00     0.003 CG0
ATOM      9  C   UNL     1      12.032   6.992  21.456  1.00  0.00     0.008 C 
ATOM     10  G   UNL     1      14.075   5.504  18.557  1.00  0.00     0.000 G0
ENDBRANCH   2   4
ENDBRANCH   1   2
BRANCH   1  11
ATOM     11  C   UNL     1      13.984   3.140  19.481  1.00  0.00     0.009 C 
BRANCH  11  12
ATOM     12  C   UNL     1      13.293   4.126  18.519  1.00  0.00    -0.001 C 
ATOM     13  C   UNL     1      14.081   5.471  18.562  1.00  0.00     0.002 CG0
ATOM     14  C   UNL     1      13.811   4.748  17.236  1.00  0.00    -0.029 C 
ATOM     15  G   UNL     1      13.336   6.454  19.512  1.00  0.00     0.000 G0
ATOM     16  C   UNL     1      15.011   4.054  16.579  1.00  0.00     0.011 C 
ATOM     17  C   UNL     1      12.773   5.369  16.292  1.00  0.00     0.011 C 
ENDBRANCH  11  12
ENDBRANCH   1  11
TORSDOF 0
ENDMDL
MODEL 7
REMARK VINA RESULT:    -2.888      2.348      4.436
REMARK INTER + INTRA:          -0.935
REMARK INTER:                  -3.592
REMARK INTRA:                   2.658
REMARK UNBOUND:                 2.628
REMARK SMILES C=C1CC[C@H]2[C@H]([C@H]3[C@H](C)CC[C@H]13)C2(C)C
REMARK SMILES IDX 3 1 2 2 1 3 12 4 9 5 8 6 10 7 7 8 11 9 4 11 5 12 6 13 13 14
REMARK SMILES IDX 14 16 15 17
REMARK H PARENT
REMARK Flexibility Score: 80.00
ROOT
ATOM      1  C   UNL     1      15.878   4.573  16.520  1.00  0.00     0.031 C 
ENDROOT
BRANCH   1   2
ATOM      2  C   UNL     1      14.741   4.420  17.534  1.00  0.00    -0.074 C 
ATOM      3  C   UNL     1      14.890   3.606  18.591  1.00  0.00     0.008 C 
BRANCH   2   4
ATOM      4  C   UNL     1      13.567   5.389  17.425  1.00  0.00     0.018 C 
ATOM      5  C   UNL     1      12.221   8.372  19.284  1.00  0.00     0.008 C 
ATOM      6  C   UNL     1      12.480   7.407  18.121  1.00  0.00    -0.010 C 
ATOM      7  C   UNL     1      11.411   6.284  18.037  1.00  0.00     0.004 C 
ATOM      8  C   UNL     1      13.789   6.641  18.274  1.00  0.00     0.003 CG0
ATOM      9  C   UNL     1      12.160   4.952  17.815  1.00  0.00     0.008 C 
ATOM     10  G   UNL     1      15.178   7.321  18.092  1.00  0.00     0.000 G0
ENDBRANCH   2   4
ENDBRANCH   1   2
BRANCH   1  11
ATOM     11  C   UNL     1      16.661   5.910  16.656  1.00  0.00     0.009 C 
BRANCH  11  12
ATOM     12  C   UNL     1      15.685   7.103  16.639  1.00  0.00    -0.001 C 
ATOM     13  C   UNL     1      15.186   7.335  18.098  1.00  0.00     0.002 CG0
ATOM     14  C   UNL     1      15.818   8.470  17.282  1.00  0.00    -0.029 C 
ATOM     15  G   UNL     1      13.787   6.671  18.257  1.00  0.00     0.000 G0
ATOM     16  C   UNL     1      17.235   8.896  17.688  1.00  0.00     0.011 C 
ATOM     17  C   UNL     1      14.887   9.577  16.771  1.00  0.00     0.011 C 
ENDBRANCH  11  12
ENDBRANCH   1  11
TORSDOF 0
ENDMDL
MODEL 8
REMARK VINA RESULT:    -2.839      1.910      3.730
REMARK INTER + INTRA:          -0.875
REMARK INTER:                  -3.541
REMARK INTRA:                   2.666
REMARK UNBOUND:                 2.628
REMARK SMILES C=C1CC[C@H]2[C@H]([C@H]3[C@H](C)CC[C@H]13)C2(C)C
REMARK SMILES IDX 3 1 2 2 1 3 12 4 9 5 8 6 10 7 7 8 11 9 4 11 5 12 6 13 13 14
REMARK SMILES IDX 14 16 15 17
REMARK H PARENT
REMARK Flexibility Score: 80.00
ROOT
ATOM      1  C   UNL     1      15.636   4.453  16.705  1.00  0.00     0.031 C 
ENDROOT
BRANCH   1   2
ATOM      2  C   UNL     1      16.237   5.576  17.556  1.00  0.00    -0.074 C 
ATOM      3  C   UNL     1      17.198   6.362  17.047  1.00  0.00     0.008 C 
BRANCH   2   4
ATOM      4  C   UNL     1      15.544   5.905  18.876  1.00  0.00     0.018 C 
ATOM      5  C   UNL     1      13.418   8.661  20.307  1.00  0.00     0.008 C 
ATOM      6  C   UNL     1      14.017   7.262  20.128  1.00  0.00    -0.010 C 
ATOM      7  C   UNL     1      15.295   7.053  20.984  1.00  0.00     0.004 C 
ATOM      8  C   UNL     1      14.498   7.007  18.704  1.00  0.00     0.003 CG0
ATOM      9  C   UNL     1      16.350   6.379  20.079  1.00  0.00     0.008 C 
ATOM     10  G   UNL     1      13.512   6.797  17.517  1.00  0.00     0.000 G0
ENDBRANCH   2   4
ENDBRANCH   1   2
BRANCH   1  11
ATOM     11  C   UNL     1      14.219   4.778  16.153  1.00  0.00     0.009 C 
BRANCH  11  12
ATOM     12  C   UNL     1      13.295   5.243  17.296  1.00  0.00    -0.001 C 
ATOM     13  C   UNL     1      13.511   6.773  17.496  1.00  0.00     0.002 CG0
ATOM     14  C   UNL     1      12.112   6.192  17.258  1.00  0.00    -0.029 C 
ATOM     15  G   UNL     1      14.483   6.986  18.694  1.00  0.00     0.000 G0
ATOM     16  C   UNL     1      11.490   6.450  15.879  1.00  0.00     0.011 C 
ATOM     17  C   UNL     1      11.148   6.156  18.451  1.00  0.00     0.011 C 
ENDBRANCH  11  12
ENDBRANCH   1  11
TORSDOF 0
ENDMDL
MODEL 9
REMARK VINA RESULT:    -2.556     11.172     14.042
REMARK INTER + INTRA:          -0.526
REMARK INTER:                  -3.276
REMARK INTRA:                   2.751
REMARK UNBOUND:                 2.628
REMARK SMILES C=C1CC[C@H]2[C@H]([C@H]3[C@H](C)CC[C@H]13)C2(C)C
REMARK SMILES IDX 3 1 2 2 1 3 12 4 9 5 8 6 10 7 7 8 11 9 4 11 5 12 6 13 13 14
REMARK SMILES IDX 14 16 15 17
REMARK H PARENT
REMARK Flexibility Score: 80.00
ROOT
ATOM      1  C   UNL     1      14.950   1.154  33.325  1.00  0.00     0.031 C 
ENDROOT
BRANCH   1   2
ATOM      2  C   UNL     1      15.864   2.291  33.791  1.00  0.00    -0.074 C 
ATOM      3  C   UNL     1      17.145   2.038  34.100  1.00  0.00     0.008 C 
BRANCH   2   4
ATOM      4  C   UNL     1      15.336   3.717  33.655  1.00  0.00     0.018 C 
ATOM      5  C   UNL     1      15.951   6.733  31.489  1.00  0.00     0.008 C 
ATOM      6  C   UNL     1      15.212   5.768  32.423  1.00  0.00    -0.010 C 
ATOM      7  C   UNL     1      15.428   6.114  33.921  1.00  0.00     0.004 C 
ATOM      8  C   UNL     1      15.723   4.335  32.312  1.00  0.00     0.003 CG0
ATOM      9  C   UNL     1      15.735   4.792  34.659  1.00  0.00     0.008 C 
ATOM     10  G   UNL     1      15.434   3.443  31.069  1.00  0.00     0.000 G0
ENDBRANCH   2   4
ENDBRANCH   1   2
BRANCH   1  11
ATOM     11  C   UNL     1      14.660   1.171  31.797  1.00  0.00     0.009 C 
BRANCH  11  12
ATOM     12  C   UNL     1      14.172   2.568  31.363  1.00  0.00    -0.001 C 
ATOM     13  C   UNL     1      15.426   3.441  31.057  1.00  0.00     0.002 CG0
ATOM     14  C   UNL     1      14.306   3.266  30.023  1.00  0.00    -0.029 C 
ATOM     15  G   UNL     1      15.722   4.338  32.295  1.00  0.00     0.000 G0
ATOM     16  C   UNL     1      14.622   2.371  28.818  1.00  0.00     0.011 C 
ATOM     17  C   UNL     1      13.387   4.467  29.766  1.00  0.00     0.011 C 
ENDBRANCH  11  12
ENDBRANCH   1  11
TORSDOF 0
ENDMDL
