MODEL 1
REMARK VINA RESULT:    -4.669      0.000      0.000
REMARK INTER + INTRA:          -5.113
REMARK INTER:                  -5.078
REMARK INTRA:                  -0.034
REMARK UNBOUND:                -0.034
REMARK SMILES COc1ccccc1O
REMARK SMILES IDX 3 1 4 2 5 3 6 4 7 5 8 6 2 7 1 8 9 9
REMARK H PARENT 9 10
REMARK Flexibility Score: inf
ROOT
ATOM      1  C   UNL     1     373.207 242.629 275.876  1.00  0.00     0.160 A 
ATOM      2  C   UNL     1     374.316 242.138 276.595  1.00  0.00     0.050 A 
ATOM      3  C   UNL     1     374.590 240.768 276.622  1.00  0.00     0.004 A 
ATOM      4  C   UNL     1     373.766 239.875 275.935  1.00  0.00     0.004 A 
ATOM      5  C   UNL     1     372.665 240.350 275.219  1.00  0.00     0.050 A 
ATOM      6  C   UNL     1     372.381 241.720 275.186  1.00  0.00     0.157 A 
ENDROOT
BRANCH   1   7
ATOM      7  O   UNL     1     372.900 243.998 275.826  1.00  0.00    -0.493 OA
ATOM      8  C   UNL     1     373.826 245.020 275.472  1.00  0.00     0.278 C 
ENDBRANCH   1   7
BRANCH   6   9
ATOM      9  O   UNL     1     371.273 242.160 274.461  1.00  0.00    -0.504 OA
ATOM     10  H   UNL     1     371.093 241.855 273.512  1.00  0.00     0.293 HD
ENDBRANCH   6   9
TORSDOF 2
ENDMDL
MODEL 2
REMARK VINA RESULT:    -4.644      1.472      3.166
REMARK INTER + INTRA:          -5.086
REMARK INTER:                  -5.079
REMARK INTRA:                  -0.007
REMARK UNBOUND:                -0.034
REMARK SMILES COc1ccccc1O
REMARK SMILES IDX 3 1 4 2 5 3 6 4 7 5 8 6 2 7 1 8 9 9
REMARK H PARENT 9 10
REMARK Flexibility Score: inf
ROOT
ATOM      1  C   UNL     1     372.455 241.582 275.887  1.00  0.00     0.160 A 
ATOM      2  C   UNL     1     373.792 241.292 276.228  1.00  0.00     0.050 A 
ATOM      3  C   UNL     1     374.637 242.304 276.691  1.00  0.00     0.004 A 
ATOM      4  C   UNL     1     374.161 243.610 276.821  1.00  0.00     0.004 A 
ATOM      5  C   UNL     1     372.839 243.908 276.486  1.00  0.00     0.050 A 
ATOM      6  C   UNL     1     371.984 242.903 276.020  1.00  0.00     0.157 A 
ENDROOT
BRANCH   1   7
ATOM      7  O   UNL     1     371.577 240.592 275.417  1.00  0.00    -0.493 OA
ATOM      8  C   UNL     1     370.653 239.880 276.233  1.00  0.00     0.278 C 
ENDBRANCH   1   7
BRANCH   6   9
ATOM      9  O   UNL     1     370.668 243.235 275.695  1.00  0.00    -0.504 OA
ATOM     10  H   UNL     1     370.292 243.098 274.764  1.00  0.00     0.293 HD
ENDBRANCH   6   9
TORSDOF 2
ENDMDL
MODEL 3
REMARK VINA RESULT:    -4.582      1.076      2.773
REMARK INTER + INTRA:          -5.019
REMARK INTER:                  -4.973
REMARK INTRA:                  -0.046
REMARK UNBOUND:                -0.034
REMARK SMILES COc1ccccc1O
REMARK SMILES IDX 3 1 4 2 5 3 6 4 7 5 8 6 2 7 1 8 9 9
REMARK H PARENT 9 10
REMARK Flexibility Score: inf
ROOT
ATOM      1  C   UNL     1     372.144 241.753 275.537  1.00  0.00     0.160 A 
ATOM      2  C   UNL     1     372.716 240.476 275.707  1.00  0.00     0.050 A 
ATOM      3  C   UNL     1     373.979 240.340 276.289  1.00  0.00     0.004 A 
ATOM      4  C   UNL     1     374.683 241.471 276.707  1.00  0.00     0.004 A 
ATOM      5  C   UNL     1     374.126 242.740 276.543  1.00  0.00     0.050 A 
ATOM      6  C   UNL     1     372.863 242.888 275.960  1.00  0.00     0.157 A 
ENDROOT
BRANCH   1   7
ATOM      7  O   UNL     1     370.877 241.929 274.955  1.00  0.00    -0.493 OA
ATOM      8  C   UNL     1     369.643 241.704 275.628  1.00  0.00     0.278 C 
ENDBRANCH   1   7
BRANCH   6   9
ATOM      9  O   UNL     1     372.336 244.172 275.811  1.00  0.00    -0.504 OA
ATOM     10  H   UNL     1     371.483 244.462 276.275  1.00  0.00     0.293 HD
ENDBRANCH   6   9
TORSDOF 2
ENDMDL
MODEL 4
REMARK VINA RESULT:    -4.480      1.771      2.916
REMARK INTER + INTRA:          -4.908
REMARK INTER:                  -4.881
REMARK INTRA:                  -0.026
REMARK UNBOUND:                -0.034
REMARK SMILES COc1ccccc1O
REMARK SMILES IDX 3 1 4 2 5 3 6 4 7 5 8 6 2 7 1 8 9 9
REMARK H PARENT 9 10
REMARK Flexibility Score: inf
ROOT
ATOM      1  C   UNL     1     371.682 242.476 275.889  1.00  0.00     0.160 A 
ATOM      2  C   UNL     1     372.124 243.743 276.321  1.00  0.00     0.050 A 
ATOM      3  C   UNL     1     373.452 243.930 276.716  1.00  0.00     0.004 A 
ATOM      4  C   UNL     1     374.350 242.862 276.683  1.00  0.00     0.004 A 
ATOM      5  C   UNL     1     373.922 241.603 276.257  1.00  0.00     0.050 A 
ATOM      6  C   UNL     1     372.595 241.403 275.861  1.00  0.00     0.157 A 
ENDROOT
BRANCH   1   7
ATOM      7  O   UNL     1     370.356 242.250 275.486  1.00  0.00    -0.493 OA
ATOM      8  C   UNL     1     369.240 243.023 275.913  1.00  0.00     0.278 C 
ENDBRANCH   1   7
BRANCH   6   9
ATOM      9  O   UNL     1     372.201 240.133 275.440  1.00  0.00    -0.504 OA
ATOM     10  H   UNL     1     371.453 239.994 274.771  1.00  0.00     0.293 HD
ENDBRANCH   6   9
TORSDOF 2
ENDMDL
MODEL 5
REMARK VINA RESULT:    -4.462      3.247      4.156
REMARK INTER + INTRA:          -4.888
REMARK INTER:                  -4.847
REMARK INTRA:                  -0.041
REMARK UNBOUND:                -0.034
REMARK SMILES COc1ccccc1O
REMARK SMILES IDX 3 1 4 2 5 3 6 4 7 5 8 6 2 7 1 8 9 9
REMARK H PARENT 9 10
REMARK Flexibility Score: inf
ROOT
ATOM      1  C   UNL     1     370.987 243.538 276.631  1.00  0.00     0.160 A 
ATOM      2  C   UNL     1     370.450 244.394 277.614  1.00  0.00     0.050 A 
ATOM      3  C   UNL     1     369.072 244.612 277.683  1.00  0.00     0.004 A 
ATOM      4  C   UNL     1     368.216 243.981 276.778  1.00  0.00     0.004 A 
ATOM      5  C   UNL     1     368.737 243.132 275.800  1.00  0.00     0.050 A 
ATOM      6  C   UNL     1     370.116 242.907 275.721  1.00  0.00     0.157 A 
ENDROOT
BRANCH   1   7
ATOM      7  O   UNL     1     372.367 243.295 276.530  1.00  0.00    -0.493 OA
ATOM      8  C   UNL     1     373.275 244.100 275.786  1.00  0.00     0.278 C 
ENDBRANCH   1   7
BRANCH   6   9
ATOM      9  O   UNL     1     370.604 242.051 274.732  1.00  0.00    -0.504 OA
ATOM     10  H   UNL     1     371.476 242.228 274.248  1.00  0.00     0.293 HD
ENDBRANCH   6   9
TORSDOF 2
ENDMDL
MODEL 6
REMARK VINA RESULT:    -4.412      2.016      2.499
REMARK INTER + INTRA:          -4.833
REMARK INTER:                  -4.797
REMARK INTRA:                  -0.036
REMARK UNBOUND:                -0.034
REMARK SMILES COc1ccccc1O
REMARK SMILES IDX 3 1 4 2 5 3 6 4 7 5 8 6 2 7 1 8 9 9
REMARK H PARENT 9 10
REMARK Flexibility Score: inf
ROOT
ATOM      1  C   UNL     1     371.755 243.268 276.370  1.00  0.00     0.160 A 
ATOM      2  C   UNL     1     372.827 244.088 276.777  1.00  0.00     0.050 A 
ATOM      3  C   UNL     1     374.127 243.577 276.828  1.00  0.00     0.004 A 
ATOM      4  C   UNL     1     374.373 242.249 276.474  1.00  0.00     0.004 A 
ATOM      5  C   UNL     1     373.318 241.428 276.069  1.00  0.00     0.050 A 
ATOM      6  C   UNL     1     372.013 241.929 276.016  1.00  0.00     0.157 A 
ENDROOT
BRANCH   1   7
ATOM      7  O   UNL     1     370.436 243.746 276.307  1.00  0.00    -0.493 OA
ATOM      8  C   UNL     1     369.743 244.344 277.397  1.00  0.00     0.278 C 
ENDBRANCH   1   7
BRANCH   6   9
ATOM      9  O   UNL     1     370.982 241.081 275.607  1.00  0.00    -0.504 OA
ATOM     10  H   UNL     1     370.678 240.294 276.166  1.00  0.00     0.293 HD
ENDBRANCH   6   9
TORSDOF 2
ENDMDL
MODEL 7
REMARK VINA RESULT:    -4.307      3.748      5.116
REMARK INTER + INTRA:          -4.719
REMARK INTER:                  -4.674
REMARK INTRA:                  -0.045
REMARK UNBOUND:                -0.034
REMARK SMILES COc1ccccc1O
REMARK SMILES IDX 3 1 4 2 5 3 6 4 7 5 8 6 2 7 1 8 9 9
REMARK H PARENT 9 10
REMARK Flexibility Score: inf
ROOT
ATOM      1  C   UNL     1     368.852 243.204 276.102  1.00  0.00     0.160 A 
ATOM      2  C   UNL     1     368.550 244.045 277.192  1.00  0.00     0.050 A 
ATOM      3  C   UNL     1     369.576 244.576 277.979  1.00  0.00     0.004 A 
ATOM      4  C   UNL     1     370.909 244.277 277.688  1.00  0.00     0.004 A 
ATOM      5  C   UNL     1     371.218 243.445 276.611  1.00  0.00     0.050 A 
ATOM      6  C   UNL     1     370.199 242.906 275.817  1.00  0.00     0.157 A 
ENDROOT
BRANCH   1   7
ATOM      7  O   UNL     1     367.848 242.651 275.290  1.00  0.00    -0.493 OA
ATOM      8  C   UNL     1     367.005 241.570 275.673  1.00  0.00     0.278 C 
ENDBRANCH   1   7
BRANCH   6   9
ATOM      9  O   UNL     1     370.543 242.079 274.748  1.00  0.00    -0.504 OA
ATOM     10  H   UNL     1     369.865 241.487 274.283  1.00  0.00     0.293 HD
ENDBRANCH   6   9
TORSDOF 2
ENDMDL
MODEL 8
REMARK VINA RESULT:    -4.290      1.799      3.182
REMARK INTER + INTRA:          -4.700
REMARK INTER:                  -4.674
REMARK INTRA:                  -0.026
REMARK UNBOUND:                -0.034
REMARK SMILES COc1ccccc1O
REMARK SMILES IDX 3 1 4 2 5 3 6 4 7 5 8 6 2 7 1 8 9 9
REMARK H PARENT 9 10
REMARK Flexibility Score: inf
ROOT
ATOM      1  C   UNL     1     373.646 241.588 276.233  1.00  0.00     0.160 A 
ATOM      2  C   UNL     1     374.409 242.695 276.657  1.00  0.00     0.050 A 
ATOM      3  C   UNL     1     373.836 243.969 276.711  1.00  0.00     0.004 A 
ATOM      4  C   UNL     1     372.501 244.152 276.346  1.00  0.00     0.004 A 
ATOM      5  C   UNL     1     371.737 243.063 275.925  1.00  0.00     0.050 A 
ATOM      6  C   UNL     1     372.300 241.784 275.865  1.00  0.00     0.157 A 
ENDROOT
BRANCH   1   7
ATOM      7  O   UNL     1     374.188 240.294 276.166  1.00  0.00    -0.493 OA
ATOM      8  C   UNL     1     375.363 239.875 276.852  1.00  0.00     0.278 C 
ENDBRANCH   1   7
BRANCH   6   9
ATOM      9  O   UNL     1     371.508 240.717 275.440  1.00  0.00    -0.504 OA
ATOM     10  H   UNL     1     370.614 240.506 275.867  1.00  0.00     0.293 HD
ENDBRANCH   6   9
TORSDOF 2
ENDMDL
MODEL 9
REMARK VINA RESULT:    -4.172      2.639      4.268
REMARK INTER + INTRA:          -4.572
REMARK INTER:                  -4.527
REMARK INTRA:                  -0.045
REMARK UNBOUND:                -0.034
REMARK SMILES COc1ccccc1O
REMARK SMILES IDX 3 1 4 2 5 3 6 4 7 5 8 6 2 7 1 8 9 9
REMARK H PARENT 9 10
REMARK Flexibility Score: inf
ROOT
ATOM      1  C   UNL     1     370.827 242.309 276.094  1.00  0.00     0.160 A 
ATOM      2  C   UNL     1     369.744 241.993 276.940  1.00  0.00     0.050 A 
ATOM      3  C   UNL     1     369.408 242.837 278.003  1.00  0.00     0.004 A 
ATOM      4  C   UNL     1     370.144 244.001 278.232  1.00  0.00     0.004 A 
ATOM      5  C   UNL     1     371.218 244.324 277.400  1.00  0.00     0.050 A 
ATOM      6  C   UNL     1     371.564 243.485 276.335  1.00  0.00     0.157 A 
ENDROOT
BRANCH   1   7
ATOM      7  O   UNL     1     371.193 241.485 275.018  1.00  0.00    -0.493 OA
ATOM      8  C   UNL     1     372.038 240.344 275.127  1.00  0.00     0.278 C 
ENDBRANCH   1   7
BRANCH   6   9
ATOM      9  O   UNL     1     372.643 243.837 275.523  1.00  0.00    -0.504 OA
ATOM     10  H   UNL     1     373.484 243.275 275.470  1.00  0.00     0.293 HD
ENDBRANCH   6   9
TORSDOF 2
ENDMDL
