MODEL 1
REMARK VINA RESULT:    -5.047      0.000      0.000
REMARK INTER + INTRA:          -8.294
REMARK INTER:                  -7.407
REMARK INTRA:                  -0.887
REMARK UNBOUND:                -0.887
REMARK SMILES CCCOC(=O)c1ccccc1C(=O)OCCC
REMARK SMILES IDX 7 1 8 2 9 3 10 4 11 5 12 6 5 7 6 8 4 9 3 10 2 11 1 12 13 13
REMARK SMILES IDX 14 14 15 15 16 16 17 17 18 18
REMARK H PARENT
REMARK Flexibility Score: inf
ROOT
ATOM      1  C   UNL     1     185.315 191.278 188.491  1.00  0.00     0.074 A 
ATOM      2  C   UNL     1     185.594 192.555 187.972  1.00  0.00     0.016 A 
ATOM      3  C   UNL     1     185.979 193.600 188.814  1.00  0.00     0.001 A 
ATOM      4  C   UNL     1     186.092 193.386 190.185  1.00  0.00     0.001 A 
ATOM      5  C   UNL     1     185.799 192.133 190.725  1.00  0.00     0.016 A 
ATOM      6  C   UNL     1     185.387 191.072 189.897  1.00  0.00     0.074 A 
ENDROOT
BRANCH   1   7
ATOM      7  C   UNL     1     185.025 190.189 187.531  1.00  0.00     0.339 C 
ATOM      8  O   UNL     1     183.883 190.093 187.004  1.00  0.00    -0.246 OA
BRANCH   7   9
ATOM      9  O   UNL     1     186.013 189.237 187.250  1.00  0.00    -0.462 OA
BRANCH   9  10
ATOM     10  C   UNL     1     187.182 189.521 186.484  1.00  0.00     0.233 C 
BRANCH  10  11
ATOM     11  C   UNL     1     186.809 189.811 185.027  1.00  0.00     0.038 C 
ATOM     12  C   UNL     1     187.572 191.019 184.492  1.00  0.00     0.007 C 
ENDBRANCH  10  11
ENDBRANCH   9  10
ENDBRANCH   7   9
ENDBRANCH   1   7
BRANCH   6  13
ATOM     13  C   UNL     1     184.985 189.804 190.546  1.00  0.00     0.339 C 
ATOM     14  O   UNL     1     185.859 188.967 190.900  1.00  0.00    -0.246 OA
BRANCH  13  15
ATOM     15  O   UNL     1     183.624 189.515 190.707  1.00  0.00    -0.462 OA
BRANCH  15  16
ATOM     16  C   UNL     1     183.120 188.196 190.908  1.00  0.00     0.233 C 
BRANCH  16  17
ATOM     17  C   UNL     1     183.160 187.402 189.599  1.00  0.00     0.038 C 
ATOM     18  C   UNL     1     182.519 186.028 189.766  1.00  0.00     0.007 C 
ENDBRANCH  16  17
ENDBRANCH  15  16
ENDBRANCH  13  15
ENDBRANCH   6  13
TORSDOF 8
ENDMDL
MODEL 2
REMARK VINA RESULT:    -5.010      0.358      5.072
REMARK INTER + INTRA:          -8.240
REMARK INTER:                  -7.533
REMARK INTRA:                  -0.706
REMARK UNBOUND:                -0.887
REMARK SMILES CCCOC(=O)c1ccccc1C(=O)OCCC
REMARK SMILES IDX 7 1 8 2 9 3 10 4 11 5 12 6 5 7 6 8 4 9 3 10 2 11 1 12 13 13
REMARK SMILES IDX 14 14 15 15 16 16 17 17 18 18
REMARK H PARENT
REMARK Flexibility Score: inf
ROOT
ATOM      1  C   UNL     1     185.358 190.942 189.793  1.00  0.00     0.074 A 
ATOM      2  C   UNL     1     185.750 191.921 190.724  1.00  0.00     0.016 A 
ATOM      3  C   UNL     1     186.043 193.221 190.311  1.00  0.00     0.001 A 
ATOM      4  C   UNL     1     185.949 193.564 188.965  1.00  0.00     0.001 A 
ATOM      5  C   UNL     1     185.583 192.603 188.021  1.00  0.00     0.016 A 
ATOM      6  C   UNL     1     185.306 191.281 188.412  1.00  0.00     0.074 A 
ENDROOT
BRANCH   1   7
ATOM      7  C   UNL     1     184.951 189.616 190.313  1.00  0.00     0.339 C 
ATOM      8  O   UNL     1     185.824 188.767 190.642  1.00  0.00    -0.246 OA
BRANCH   7   9
ATOM      9  O   UNL     1     183.590 189.295 190.390  1.00  0.00    -0.462 OA
BRANCH   9  10
ATOM     10  C   UNL     1     183.097 188.102 190.997  1.00  0.00     0.233 C 
BRANCH  10  11
ATOM     11  C   UNL     1     182.946 186.994 189.952  1.00  0.00     0.038 C 
ATOM     12  C   UNL     1     181.646 186.219 190.152  1.00  0.00     0.007 C 
ENDBRANCH  10  11
ENDBRANCH   9  10
ENDBRANCH   7   9
ENDBRANCH   1   7
BRANCH   6  13
ATOM     13  C   UNL     1     185.035 190.287 187.349  1.00  0.00     0.339 C 
ATOM     14  O   UNL     1     183.890 190.217 186.823  1.00  0.00    -0.246 OA
BRANCH  13  15
ATOM     15  O   UNL     1     186.040 189.386 186.977  1.00  0.00    -0.462 OA
BRANCH  15  16
ATOM     16  C   UNL     1     187.245 189.780 186.325  1.00  0.00     0.233 C 
BRANCH  16  17
ATOM     17  C   UNL     1     187.031 189.878 184.813  1.00  0.00     0.038 C 
ATOM     18  C   UNL     1     187.764 191.080 184.226  1.00  0.00     0.007 C 
ENDBRANCH  16  17
ENDBRANCH  15  16
ENDBRANCH  13  15
ENDBRANCH   6  13
TORSDOF 8
ENDMDL
MODEL 3
REMARK VINA RESULT:    -4.813      1.836      4.300
REMARK INTER + INTRA:          -7.951
REMARK INTER:                  -6.808
REMARK INTRA:                  -1.143
REMARK UNBOUND:                -0.887
REMARK SMILES CCCOC(=O)c1ccccc1C(=O)OCCC
REMARK SMILES IDX 7 1 8 2 9 3 10 4 11 5 12 6 5 7 6 8 4 9 3 10 2 11 1 12 13 13
REMARK SMILES IDX 14 14 15 15 16 16 17 17 18 18
REMARK H PARENT
REMARK Flexibility Score: inf
ROOT
ATOM      1  C   UNL     1     184.039 188.054 189.171  1.00  0.00     0.074 A 
ATOM      2  C   UNL     1     183.386 186.952 188.589  1.00  0.00     0.016 A 
ATOM      3  C   UNL     1     182.362 186.289 189.269  1.00  0.00     0.001 A 
ATOM      4  C   UNL     1     181.976 186.715 190.537  1.00  0.00     0.001 A 
ATOM      5  C   UNL     1     182.625 187.792 191.142  1.00  0.00     0.016 A 
ATOM      6  C   UNL     1     183.674 188.460 190.485  1.00  0.00     0.074 A 
ENDROOT
BRANCH   1   7
ATOM      7  C   UNL     1     185.034 188.780 188.350  1.00  0.00     0.339 C 
ATOM      8  O   UNL     1     186.266 188.670 188.598  1.00  0.00    -0.246 OA
BRANCH   7   9
ATOM      9  O   UNL     1     184.594 189.629 187.327  1.00  0.00    -0.462 OA
BRANCH   9  10
ATOM     10  C   UNL     1     184.323 191.016 187.519  1.00  0.00     0.233 C 
BRANCH  10  11
ATOM     11  C   UNL     1     185.599 191.841 187.329  1.00  0.00     0.038 C 
ATOM     12  C   UNL     1     185.780 192.848 188.461  1.00  0.00     0.007 C 
ENDBRANCH  10  11
ENDBRANCH   9  10
ENDBRANCH   7   9
ENDBRANCH   1   7
BRANCH   6  13
ATOM     13  C   UNL     1     184.392 189.519 191.228  1.00  0.00     0.339 C 
ATOM     14  O   UNL     1     184.310 190.722 190.858  1.00  0.00    -0.246 OA
BRANCH  13  15
ATOM     15  O   UNL     1     185.213 189.168 192.307  1.00  0.00    -0.462 OA
BRANCH  15  16
ATOM     16  C   UNL     1     186.283 188.230 192.206  1.00  0.00     0.233 C 
BRANCH  16  17
ATOM     17  C   UNL     1     185.901 186.906 192.874  1.00  0.00     0.038 C 
ATOM     18  C   UNL     1     185.724 185.798 191.841  1.00  0.00     0.007 C 
ENDBRANCH  16  17
ENDBRANCH  15  16
ENDBRANCH  13  15
ENDBRANCH   6  13
TORSDOF 8
ENDMDL
MODEL 4
REMARK VINA RESULT:    -4.797      1.862      5.940
REMARK INTER + INTRA:          -7.927
REMARK INTER:                  -6.766
REMARK INTRA:                  -1.161
REMARK UNBOUND:                -0.887
REMARK SMILES CCCOC(=O)c1ccccc1C(=O)OCCC
REMARK SMILES IDX 7 1 8 2 9 3 10 4 11 5 12 6 5 7 6 8 4 9 3 10 2 11 1 12 13 13
REMARK SMILES IDX 14 14 15 15 16 16 17 17 18 18
REMARK H PARENT
REMARK Flexibility Score: inf
ROOT
ATOM      1  C   UNL     1     183.828 188.318 190.614  1.00  0.00     0.074 A 
ATOM      2  C   UNL     1     182.707 187.715 191.213  1.00  0.00     0.016 A 
ATOM      3  C   UNL     1     181.990 186.721 190.547  1.00  0.00     0.001 A 
ATOM      4  C   UNL     1     182.379 186.313 189.273  1.00  0.00     0.001 A 
ATOM      5  C   UNL     1     183.474 186.914 188.651  1.00  0.00     0.016 A 
ATOM      6  C   UNL     1     184.198 187.934 189.295  1.00  0.00     0.074 A 
ENDROOT
BRANCH   1   7
ATOM      7  C   UNL     1     184.609 189.282 191.422  1.00  0.00     0.339 C 
ATOM      8  O   UNL     1     184.568 190.514 191.157  1.00  0.00    -0.246 OA
BRANCH   7   9
ATOM      9  O   UNL     1     185.434 188.808 192.451  1.00  0.00    -0.462 OA
BRANCH   9  10
ATOM     10  C   UNL     1     186.334 187.713 192.295  1.00  0.00     0.233 C 
BRANCH  10  11
ATOM     11  C   UNL     1     185.819 186.486 193.053  1.00  0.00     0.038 C 
ATOM     12  C   UNL     1     185.468 185.351 192.095  1.00  0.00     0.007 C 
ENDBRANCH  10  11
ENDBRANCH   9  10
ENDBRANCH   7   9
ENDBRANCH   1   7
BRANCH   6  13
ATOM     13  C   UNL     1     185.276 188.604 188.535  1.00  0.00     0.339 C 
ATOM     14  O   UNL     1     186.486 188.376 188.813  1.00  0.00    -0.246 OA
BRANCH  13  15
ATOM     15  O   UNL     1     184.944 189.538 187.546  1.00  0.00    -0.462 OA
BRANCH  15  16
ATOM     16  C   UNL     1     184.395 190.823 187.833  1.00  0.00     0.233 C 
BRANCH  16  17
ATOM     17  C   UNL     1     185.392 191.926 187.468  1.00  0.00     0.038 C 
ATOM     18  C   UNL     1     185.688 192.823 188.665  1.00  0.00     0.007 C 
ENDBRANCH  16  17
ENDBRANCH  15  16
ENDBRANCH  13  15
ENDBRANCH   6  13
TORSDOF 8
ENDMDL
MODEL 5
REMARK VINA RESULT:    -4.739      1.705      2.158
REMARK INTER + INTRA:          -7.842
REMARK INTER:                  -6.241
REMARK INTRA:                  -1.601
REMARK UNBOUND:                -0.887
REMARK SMILES CCCOC(=O)c1ccccc1C(=O)OCCC
REMARK SMILES IDX 7 1 8 2 9 3 10 4 11 5 12 6 5 7 6 8 4 9 3 10 2 11 1 12 13 13
REMARK SMILES IDX 14 14 15 15 16 16 17 17 18 18
REMARK H PARENT
REMARK Flexibility Score: inf
ROOT
ATOM      1  C   UNL     1     185.602 190.727 187.760  1.00  0.00     0.074 A 
ATOM      2  C   UNL     1     185.133 192.051 187.686  1.00  0.00     0.016 A 
ATOM      3  C   UNL     1     185.753 193.070 188.411  1.00  0.00     0.001 A 
ATOM      4  C   UNL     1     186.850 192.784 189.219  1.00  0.00     0.001 A 
ATOM      5  C   UNL     1     187.319 191.473 189.325  1.00  0.00     0.016 A 
ATOM      6  C   UNL     1     186.695 190.427 188.622  1.00  0.00     0.074 A 
ENDROOT
BRANCH   1   7
ATOM      7  C   UNL     1     184.971 189.719 186.878  1.00  0.00     0.339 C 
ATOM      8  O   UNL     1     184.136 188.898 187.346  1.00  0.00    -0.246 OA
BRANCH   7   9
ATOM      9  O   UNL     1     185.347 189.653 185.530  1.00  0.00    -0.462 OA
BRANCH   9  10
ATOM     10  C   UNL     1     186.684 189.408 185.098  1.00  0.00     0.233 C 
BRANCH  10  11
ATOM     11  C   UNL     1     187.383 190.725 184.751  1.00  0.00     0.038 C 
ATOM     12  C   UNL     1     188.701 190.867 185.507  1.00  0.00     0.007 C 
ENDBRANCH  10  11
ENDBRANCH   9  10
ENDBRANCH   7   9
ENDBRANCH   1   7
BRANCH   6  13
ATOM     13  C   UNL     1     187.172 189.048 188.866  1.00  0.00     0.339 C 
ATOM     14  O   UNL     1     188.238 188.640 188.330  1.00  0.00    -0.246 OA
BRANCH  13  15
ATOM     15  O   UNL     1     186.397 188.180 189.646  1.00  0.00    -0.462 OA
BRANCH  15  16
ATOM     16  C   UNL     1     186.005 188.469 190.986  1.00  0.00     0.233 C 
BRANCH  16  17
ATOM     17  C   UNL     1     184.489 188.322 191.145  1.00  0.00     0.038 C 
ATOM     18  C   UNL     1     183.766 189.608 190.761  1.00  0.00     0.007 C 
ENDBRANCH  16  17
ENDBRANCH  15  16
ENDBRANCH  13  15
ENDBRANCH   6  13
TORSDOF 8
ENDMDL
MODEL 6
REMARK VINA RESULT:    -4.732      0.999      4.287
REMARK INTER + INTRA:          -7.832
REMARK INTER:                  -7.175
REMARK INTRA:                  -0.657
REMARK UNBOUND:                -0.887
REMARK SMILES CCCOC(=O)c1ccccc1C(=O)OCCC
REMARK SMILES IDX 7 1 8 2 9 3 10 4 11 5 12 6 5 7 6 8 4 9 3 10 2 11 1 12 13 13
REMARK SMILES IDX 14 14 15 15 16 16 17 17 18 18
REMARK H PARENT
REMARK Flexibility Score: inf
ROOT
ATOM      1  C   UNL     1     184.129 188.584 188.590  1.00  0.00     0.074 A 
ATOM      2  C   UNL     1     183.387 187.517 188.054  1.00  0.00     0.016 A 
ATOM      3  C   UNL     1     182.714 186.624 188.889  1.00  0.00     0.001 A 
ATOM      4  C   UNL     1     182.772 186.782 190.271  1.00  0.00     0.001 A 
ATOM      5  C   UNL     1     183.520 187.821 190.826  1.00  0.00     0.016 A 
ATOM      6  C   UNL     1     184.225 188.719 190.004  1.00  0.00     0.074 A 
ENDROOT
BRANCH   1   7
ATOM      7  C   UNL     1     184.721 189.559 187.646  1.00  0.00     0.339 C 
ATOM      8  O   UNL     1     183.998 190.437 187.102  1.00  0.00    -0.246 OA
BRANCH   7   9
ATOM      9  O   UNL     1     186.081 189.466 187.324  1.00  0.00    -0.462 OA
BRANCH   9  10
ATOM     10  C   UNL     1     186.771 190.437 186.540  1.00  0.00     0.233 C 
BRANCH  10  11
ATOM     11  C   UNL     1     186.850 189.986 185.079  1.00  0.00     0.038 C 
ATOM     12  C   UNL     1     187.687 190.954 184.247  1.00  0.00     0.007 C 
ENDBRANCH  10  11
ENDBRANCH   9  10
ENDBRANCH   7   9
ENDBRANCH   1   7
BRANCH   6  13
ATOM     13  C   UNL     1     185.087 189.727 190.660  1.00  0.00     0.339 C 
ATOM     14  O   UNL     1     186.078 189.364 191.349  1.00  0.00    -0.246 OA
BRANCH  13  15
ATOM     15  O   UNL     1     184.756 191.085 190.559  1.00  0.00    -0.462 OA
BRANCH  15  16
ATOM     16  C   UNL     1     185.728 192.129 190.534  1.00  0.00     0.233 C 
BRANCH  16  17
ATOM     17  C   UNL     1     185.654 192.899 189.213  1.00  0.00     0.038 C 
ATOM     18  C   UNL     1     186.104 194.345 189.391  1.00  0.00     0.007 C 
ENDBRANCH  16  17
ENDBRANCH  15  16
ENDBRANCH  13  15
ENDBRANCH   6  13
TORSDOF 8
ENDMDL
MODEL 7
REMARK VINA RESULT:    -4.679      1.274      4.843
REMARK INTER + INTRA:          -7.754
REMARK INTER:                  -6.693
REMARK INTRA:                  -1.062
REMARK UNBOUND:                -0.887
REMARK SMILES CCCOC(=O)c1ccccc1C(=O)OCCC
REMARK SMILES IDX 7 1 8 2 9 3 10 4 11 5 12 6 5 7 6 8 4 9 3 10 2 11 1 12 13 13
REMARK SMILES IDX 14 14 15 15 16 16 17 17 18 18
REMARK H PARENT
REMARK Flexibility Score: inf
ROOT
ATOM      1  C   UNL     1     185.150 190.960 189.709  1.00  0.00     0.074 A 
ATOM      2  C   UNL     1     185.602 191.854 190.695  1.00  0.00     0.016 A 
ATOM      3  C   UNL     1     186.059 193.127 190.349  1.00  0.00     0.001 A 
ATOM      4  C   UNL     1     186.071 193.526 189.014  1.00  0.00     0.001 A 
ATOM      5  C   UNL     1     185.647 192.646 188.017  1.00  0.00     0.016 A 
ATOM      6  C   UNL     1     185.205 191.351 188.342  1.00  0.00     0.074 A 
ENDROOT
BRANCH   1   7
ATOM      7  C   UNL     1     184.572 189.672 190.156  1.00  0.00     0.339 C 
ATOM      8  O   UNL     1     183.386 189.621 190.583  1.00  0.00    -0.246 OA
BRANCH   7   9
ATOM      9  O   UNL     1     185.370 188.520 190.149  1.00  0.00    -0.462 OA
BRANCH   9  10
ATOM     10  C   UNL     1     185.544 187.678 191.286  1.00  0.00     0.233 C 
BRANCH  10  11
ATOM     11  C   UNL     1     186.096 188.481 192.467  1.00  0.00     0.038 C 
ATOM     12  C   UNL     1     187.528 188.939 192.203  1.00  0.00     0.007 C 
ENDBRANCH  10  11
ENDBRANCH   9  10
ENDBRANCH   7   9
ENDBRANCH   1   7
BRANCH   6  13
ATOM     13  C   UNL     1     184.876 190.432 187.229  1.00  0.00     0.339 C 
ATOM     14  O   UNL     1     183.772 190.534 186.626  1.00  0.00    -0.246 OA
BRANCH  13  15
ATOM     15  O   UNL     1     185.774 189.412 186.891  1.00  0.00    -0.462 OA
BRANCH  15  16
ATOM     16  C   UNL     1     187.084 189.656 186.382  1.00  0.00     0.233 C 
BRANCH  16  17
ATOM     17  C   UNL     1     187.050 189.797 184.858  1.00  0.00     0.038 C 
ATOM     18  C   UNL     1     187.598 191.150 184.416  1.00  0.00     0.007 C 
ENDBRANCH  16  17
ENDBRANCH  15  16
ENDBRANCH  13  15
ENDBRANCH   6  13
TORSDOF 8
ENDMDL
MODEL 8
REMARK VINA RESULT:    -4.642      1.652      2.664
REMARK INTER + INTRA:          -7.699
REMARK INTER:                  -6.474
REMARK INTRA:                  -1.226
REMARK UNBOUND:                -0.887
REMARK SMILES CCCOC(=O)c1ccccc1C(=O)OCCC
REMARK SMILES IDX 7 1 8 2 9 3 10 4 11 5 12 6 5 7 6 8 4 9 3 10 2 11 1 12 13 13
REMARK SMILES IDX 14 14 15 15 16 16 17 17 18 18
REMARK H PARENT
REMARK Flexibility Score: inf
ROOT
ATOM      1  C   UNL     1     185.883 190.549 187.704  1.00  0.00     0.074 A 
ATOM      2  C   UNL     1     186.266 191.899 187.601  1.00  0.00     0.016 A 
ATOM      3  C   UNL     1     185.788 192.847 188.507  1.00  0.00     0.001 A 
ATOM      4  C   UNL     1     184.922 192.464 189.528  1.00  0.00     0.001 A 
ATOM      5  C   UNL     1     184.512 191.134 189.635  1.00  0.00     0.016 A 
ATOM      6  C   UNL     1     184.963 190.166 188.720  1.00  0.00     0.074 A 
ENDROOT
BRANCH   1   7
ATOM      7  C   UNL     1     186.517 189.579 186.783  1.00  0.00     0.339 C 
ATOM      8  O   UNL     1     187.477 188.862 187.176  1.00  0.00    -0.246 OA
BRANCH   7   9
ATOM      9  O   UNL     1     186.074 189.499 185.456  1.00  0.00    -0.462 OA
BRANCH   9  10
ATOM     10  C   UNL     1     186.944 189.593 184.330  1.00  0.00     0.233 C 
BRANCH  10  11
ATOM     11  C   UNL     1     187.630 190.962 184.299  1.00  0.00     0.038 C 
ATOM     12  C   UNL     1     189.149 190.820 184.350  1.00  0.00     0.007 C 
ENDBRANCH  10  11
ENDBRANCH   9  10
ENDBRANCH   7   9
ENDBRANCH   1   7
BRANCH   6  13
ATOM     13  C   UNL     1     184.402 188.801 188.824  1.00  0.00     0.339 C 
ATOM     14  O   UNL     1     183.606 188.372 187.944  1.00  0.00    -0.246 OA
BRANCH  13  15
ATOM     15  O   UNL     1     184.714 188.012 189.938  1.00  0.00    -0.462 OA
BRANCH  15  16
ATOM     16  C   UNL     1     186.033 187.888 190.468  1.00  0.00     0.233 C 
BRANCH  16  17
ATOM     17  C   UNL     1     186.109 188.503 191.867  1.00  0.00     0.038 C 
ATOM     18  C   UNL     1     187.066 189.690 191.899  1.00  0.00     0.007 C 
ENDBRANCH  16  17
ENDBRANCH  15  16
ENDBRANCH  13  15
ENDBRANCH   6  13
TORSDOF 8
ENDMDL
MODEL 9
REMARK VINA RESULT:    -4.619      1.668      2.717
REMARK INTER + INTRA:          -7.667
REMARK INTER:                  -6.419
REMARK INTRA:                  -1.248
REMARK UNBOUND:                -0.887
REMARK SMILES CCCOC(=O)c1ccccc1C(=O)OCCC
REMARK SMILES IDX 7 1 8 2 9 3 10 4 11 5 12 6 5 7 6 8 4 9 3 10 2 11 1 12 13 13
REMARK SMILES IDX 14 14 15 15 16 16 17 17 18 18
REMARK H PARENT
REMARK Flexibility Score: inf
ROOT
ATOM      1  C   UNL     1     187.039 191.772 188.890  1.00  0.00     0.074 A 
ATOM      2  C   UNL     1     188.015 192.727 189.224  1.00  0.00     0.016 A 
ATOM      3  C   UNL     1     187.648 194.016 189.614  1.00  0.00     0.001 A 
ATOM      4  C   UNL     1     186.303 194.371 189.676  1.00  0.00     0.001 A 
ATOM      5  C   UNL     1     185.318 193.445 189.328  1.00  0.00     0.016 A 
ATOM      6  C   UNL     1     185.666 192.148 188.910  1.00  0.00     0.074 A 
ENDROOT
BRANCH   1   7
ATOM      7  C   UNL     1     187.492 190.393 188.597  1.00  0.00     0.339 C 
ATOM      8  O   UNL     1     187.859 189.632 189.533  1.00  0.00    -0.246 OA
BRANCH   7   9
ATOM      9  O   UNL     1     187.558 189.958 187.267  1.00  0.00    -0.462 OA
BRANCH   9  10
ATOM     10  C   UNL     1     188.218 190.687 186.234  1.00  0.00     0.233 C 
BRANCH  10  11
ATOM     11  C   UNL     1     187.277 190.898 185.045  1.00  0.00     0.038 C 
ATOM     12  C   UNL     1     186.592 189.595 184.643  1.00  0.00     0.007 C 
ENDBRANCH  10  11
ENDBRANCH   9  10
ENDBRANCH   7   9
ENDBRANCH   1   7
BRANCH   6  13
ATOM     13  C   UNL     1     184.580 191.255 188.449  1.00  0.00     0.339 C 
ATOM     14  O   UNL     1     184.297 191.180 187.222  1.00  0.00    -0.246 OA
BRANCH  13  15
ATOM     15  O   UNL     1     183.830 190.541 189.392  1.00  0.00    -0.462 OA
BRANCH  15  16
ATOM     16  C   UNL     1     184.231 189.278 189.921  1.00  0.00     0.233 C 
BRANCH  16  17
ATOM     17  C   UNL     1     184.190 189.300 191.451  1.00  0.00     0.038 C 
ATOM     18  C   UNL     1     185.346 190.114 192.023  1.00  0.00     0.007 C 
ENDBRANCH  16  17
ENDBRANCH  15  16
ENDBRANCH  13  15
ENDBRANCH   6  13
TORSDOF 8
ENDMDL
