MODEL 1
REMARK VINA RESULT:    -4.280      0.000      0.000
REMARK INTER + INTRA:         -11.911
REMARK INTER:                  -9.285
REMARK INTRA:                  -2.625
REMARK UNBOUND:                -2.625
REMARK SMILES CCCCCCCCCCCCCCCCCCCCCC(=O)[O-]
REMARK SMILES IDX 12 1 11 2 10 3 9 4 8 5 7 6 6 7 5 8 4 9 3 10 2 11 1 12 13 13
REMARK SMILES IDX 14 14 15 15 16 16 17 17 18 18 19 19 20 20 21 21 22 22 23 23
REMARK SMILES IDX 24 24
REMARK H PARENT
REMARK Flexibility Score: inf
ROOT
ATOM      1  C   UNL     1      43.307  29.150   1.686  1.00  0.00     0.000 C 
ENDROOT
BRANCH   1   2
ATOM      2  C   UNL     1      44.444  28.777   2.649  1.00  0.00     0.000 C 
BRANCH   2   3
ATOM      3  C   UNL     1      45.711  28.306   1.917  1.00  0.00     0.000 C 
BRANCH   3   4
ATOM      4  C   UNL     1      45.809  26.777   1.825  1.00  0.00    -0.000 C 
BRANCH   4   5
ATOM      5  C   UNL     1      44.948  26.105   2.901  1.00  0.00    -0.000 C 
BRANCH   5   6
ATOM      6  C   UNL     1      45.775  25.108   3.727  1.00  0.00    -0.000 C 
BRANCH   6   7
ATOM      7  C   UNL     1      47.062  25.729   4.299  1.00  0.00    -0.000 C 
BRANCH   7   8
ATOM      8  C   UNL     1      46.846  26.718   5.461  1.00  0.00    -0.000 C 
BRANCH   8   9
ATOM      9  C   UNL     1      45.713  26.344   6.439  1.00  0.00    -0.000 C 
BRANCH   9  10
ATOM     10  C   UNL     1      46.178  25.963   7.855  1.00  0.00    -0.000 C 
BRANCH  10  11
ATOM     11  C   UNL     1      45.461  26.762   8.953  1.00  0.00    -0.003 C 
ATOM     12  C   UNL     1      45.167  28.187   8.495  1.00  0.00     0.004 C 
ENDBRANCH  10  11
ENDBRANCH   9  10
ENDBRANCH   8   9
ENDBRANCH   7   8
ENDBRANCH   6   7
ENDBRANCH   5   6
ENDBRANCH   4   5
ENDBRANCH   3   4
ENDBRANCH   2   3
ENDBRANCH   1   2
BRANCH   1  13
ATOM     13  C   UNL     1      42.276  28.016   1.588  1.00  0.00     0.000 C 
BRANCH  13  14
ATOM     14  C   UNL     1      42.396  27.204   0.286  1.00  0.00     0.000 C 
BRANCH  14  15
ATOM     15  C   UNL     1      43.093  27.939  -0.875  1.00  0.00     0.000 C 
BRANCH  15  16
ATOM     16  C   UNL     1      44.156  27.079  -1.575  1.00  0.00     0.000 C 
BRANCH  16  17
ATOM     17  C   UNL     1      45.452  27.871  -1.786  1.00  0.00     0.000 C 
BRANCH  17  18
ATOM     18  C   UNL     1      45.898  27.813  -3.255  1.00  0.00     0.000 C 
BRANCH  18  19
ATOM     19  C   UNL     1      44.989  26.920  -4.115  1.00  0.00     0.000 C 
BRANCH  19  20
ATOM     20  C   UNL     1      44.801  27.465  -5.541  1.00  0.00     0.006 C 
BRANCH  20  21
ATOM     21  C   UNL     1      44.109  28.834  -5.552  1.00  0.00     0.053 C 
BRANCH  21  22
ATOM     22  C   UNL     1      42.724  28.762  -4.984  1.00  0.00     0.041 C 
ATOM     23  O   UNL     1      41.833  28.089  -5.567  1.00  0.00    -0.550 OA
ATOM     24  O   UNL     1      42.419  29.429  -3.804  1.00  0.00    -0.550 OA
ENDBRANCH  21  22
ENDBRANCH  20  21
ENDBRANCH  19  20
ENDBRANCH  18  19
ENDBRANCH  17  18
ENDBRANCH  16  17
ENDBRANCH  15  16
ENDBRANCH  14  15
ENDBRANCH  13  14
ENDBRANCH   1  13
TORSDOF 20
ENDMDL
MODEL 2
REMARK VINA RESULT:    -4.272      1.173      2.121
REMARK INTER + INTRA:         -11.892
REMARK INTER:                  -8.437
REMARK INTRA:                  -3.456
REMARK UNBOUND:                -2.625
REMARK SMILES CCCCCCCCCCCCCCCCCCCCCC(=O)[O-]
REMARK SMILES IDX 12 1 11 2 10 3 9 4 8 5 7 6 6 7 5 8 4 9 3 10 2 11 1 12 13 13
REMARK SMILES IDX 14 14 15 15 16 16 17 17 18 18 19 19 20 20 21 21 22 22 23 23
REMARK SMILES IDX 24 24
REMARK H PARENT
REMARK Flexibility Score: inf
ROOT
ATOM      1  C   UNL     1      42.224  28.276   1.684  1.00  0.00     0.000 C 
ENDROOT
BRANCH   1   2
ATOM      2  C   UNL     1      42.723  29.663   1.254  1.00  0.00     0.000 C 
BRANCH   2   3
ATOM      3  C   UNL     1      44.021  30.074   1.967  1.00  0.00     0.000 C 
BRANCH   3   4
ATOM      4  C   UNL     1      44.661  28.917   2.748  1.00  0.00    -0.000 C 
BRANCH   4   5
ATOM      5  C   UNL     1      45.923  28.409   2.042  1.00  0.00    -0.000 C 
BRANCH   5   6
ATOM      6  C   UNL     1      45.815  26.908   1.732  1.00  0.00    -0.000 C 
BRANCH   6   7
ATOM      7  C   UNL     1      44.905  26.158   2.719  1.00  0.00    -0.000 C 
BRANCH   7   8
ATOM      8  C   UNL     1      45.627  25.141   3.626  1.00  0.00    -0.000 C 
BRANCH   8   9
ATOM      9  C   UNL     1      46.600  25.754   4.655  1.00  0.00    -0.000 C 
BRANCH   9  10
ATOM     10  C   UNL     1      45.925  26.461   5.843  1.00  0.00    -0.000 C 
BRANCH  10  11
ATOM     11  C   UNL     1      46.313  27.942   5.955  1.00  0.00    -0.003 C 
ATOM     12  C   UNL     1      45.560  28.624   7.093  1.00  0.00     0.004 C 
ENDBRANCH  10  11
ENDBRANCH   9  10
ENDBRANCH   8   9
ENDBRANCH   7   8
ENDBRANCH   6   7
ENDBRANCH   5   6
ENDBRANCH   4   5
ENDBRANCH   3   4
ENDBRANCH   2   3
ENDBRANCH   1   2
BRANCH   1  13
ATOM     13  C   UNL     1      42.256  27.291   0.506  1.00  0.00     0.000 C 
BRANCH  13  14
ATOM     14  C   UNL     1      42.967  27.859  -0.735  1.00  0.00     0.000 C 
BRANCH  14  15
ATOM     15  C   UNL     1      44.007  26.921  -1.374  1.00  0.00     0.000 C 
BRANCH  15  16
ATOM     16  C   UNL     1      45.274  27.657  -1.836  1.00  0.00     0.000 C 
BRANCH  16  17
ATOM     17  C   UNL     1      45.179  29.157  -1.536  1.00  0.00     0.000 C 
BRANCH  17  18
ATOM     18  C   UNL     1      45.484  29.989  -2.791  1.00  0.00     0.000 C 
BRANCH  18  19
ATOM     19  C   UNL     1      45.556  29.133  -4.065  1.00  0.00     0.000 C 
BRANCH  19  20
ATOM     20  C   UNL     1      44.478  29.512  -5.096  1.00  0.00     0.006 C 
BRANCH  20  21
ATOM     21  C   UNL     1      44.040  28.312  -5.944  1.00  0.00     0.053 C 
BRANCH  21  22
ATOM     22  C   UNL     1      42.996  27.490  -5.249  1.00  0.00     0.041 C 
ATOM     23  O   UNL     1      43.308  26.402  -4.699  1.00  0.00    -0.550 OA
ATOM     24  O   UNL     1      41.680  27.934  -5.199  1.00  0.00    -0.550 OA
ENDBRANCH  21  22
ENDBRANCH  20  21
ENDBRANCH  19  20
ENDBRANCH  18  19
ENDBRANCH  17  18
ENDBRANCH  16  17
ENDBRANCH  15  16
ENDBRANCH  14  15
ENDBRANCH  13  14
ENDBRANCH   1  13
TORSDOF 20
ENDMDL
MODEL 3
REMARK VINA RESULT:    -4.062      1.033      2.290
REMARK INTER + INTRA:         -11.436
REMARK INTER:                  -9.457
REMARK INTRA:                  -1.979
REMARK UNBOUND:                -2.625
REMARK SMILES CCCCCCCCCCCCCCCCCCCCCC(=O)[O-]
REMARK SMILES IDX 12 1 11 2 10 3 9 4 8 5 7 6 6 7 5 8 4 9 3 10 2 11 1 12 13 13
REMARK SMILES IDX 14 14 15 15 16 16 17 17 18 18 19 19 20 20 21 21 22 22 23 23
REMARK SMILES IDX 24 24
REMARK H PARENT
REMARK Flexibility Score: inf
ROOT
ATOM      1  C   UNL     1      42.984  26.745  -0.314  1.00  0.00     0.000 C 
ENDROOT
BRANCH   1   2
ATOM      2  C   UNL     1      42.896  28.133   0.337  1.00  0.00     0.000 C 
BRANCH   2   3
ATOM      3  C   UNL     1      43.053  28.083   1.866  1.00  0.00     0.000 C 
BRANCH   3   4
ATOM      4  C   UNL     1      44.451  28.514   2.333  1.00  0.00    -0.000 C 
BRANCH   4   5
ATOM      5  C   UNL     1      45.422  27.327   2.330  1.00  0.00    -0.000 C 
BRANCH   5   6
ATOM      6  C   UNL     1      44.750  26.064   2.892  1.00  0.00    -0.000 C 
BRANCH   6   7
ATOM      7  C   UNL     1      45.697  25.221   3.763  1.00  0.00    -0.000 C 
BRANCH   7   8
ATOM      8  C   UNL     1      46.612  26.033   4.702  1.00  0.00    -0.000 C 
BRANCH   8   9
ATOM      9  C   UNL     1      46.020  26.338   6.093  1.00  0.00    -0.000 C 
BRANCH   9  10
ATOM     10  C   UNL     1      45.954  27.832   6.456  1.00  0.00    -0.000 C 
BRANCH  10  11
ATOM     11  C   UNL     1      45.493  28.075   7.899  1.00  0.00    -0.003 C 
ATOM     12  C   UNL     1      45.222  26.759   8.621  1.00  0.00     0.004 C 
ENDBRANCH  10  11
ENDBRANCH   9  10
ENDBRANCH   8   9
ENDBRANCH   7   8
ENDBRANCH   6   7
ENDBRANCH   5   6
ENDBRANCH   4   5
ENDBRANCH   3   4
ENDBRANCH   2   3
ENDBRANCH   1   2
BRANCH   1  13
ATOM     13  C   UNL     1      43.859  26.783  -1.575  1.00  0.00     0.000 C 
BRANCH  13  14
ATOM     14  C   UNL     1      44.948  27.870  -1.518  1.00  0.00     0.000 C 
BRANCH  14  15
ATOM     15  C   UNL     1      45.089  28.715  -2.797  1.00  0.00     0.000 C 
BRANCH  15  16
ATOM     16  C   UNL     1      46.444  28.524  -3.496  1.00  0.00     0.000 C 
BRANCH  16  17
ATOM     17  C   UNL     1      46.561  27.116  -4.091  1.00  0.00     0.000 C 
BRANCH  17  18
ATOM     18  C   UNL     1      45.370  26.808  -5.012  1.00  0.00     0.000 C 
BRANCH  18  19
ATOM     19  C   UNL     1      45.472  27.520  -6.370  1.00  0.00     0.000 C 
BRANCH  19  20
ATOM     20  C   UNL     1      44.128  27.567  -7.117  1.00  0.00     0.006 C 
BRANCH  20  21
ATOM     21  C   UNL     1      43.439  28.930  -6.986  1.00  0.00     0.053 C 
BRANCH  21  22
ATOM     22  C   UNL     1      42.135  28.826  -6.253  1.00  0.00     0.041 C 
ATOM     23  O   UNL     1      41.921  27.861  -5.473  1.00  0.00    -0.550 OA
ATOM     24  O   UNL     1      41.161  29.803  -6.423  1.00  0.00    -0.550 OA
ENDBRANCH  21  22
ENDBRANCH  20  21
ENDBRANCH  19  20
ENDBRANCH  18  19
ENDBRANCH  17  18
ENDBRANCH  16  17
ENDBRANCH  15  16
ENDBRANCH  14  15
ENDBRANCH  13  14
ENDBRANCH   1  13
TORSDOF 20
ENDMDL
MODEL 4
REMARK VINA RESULT:    -4.057      0.785      1.253
REMARK INTER + INTRA:         -11.427
REMARK INTER:                  -9.511
REMARK INTRA:                  -1.916
REMARK UNBOUND:                -2.625
REMARK SMILES CCCCCCCCCCCCCCCCCCCCCC(=O)[O-]
REMARK SMILES IDX 12 1 11 2 10 3 9 4 8 5 7 6 6 7 5 8 4 9 3 10 2 11 1 12 13 13
REMARK SMILES IDX 14 14 15 15 16 16 17 17 18 18 19 19 20 20 21 21 22 22 23 23
REMARK SMILES IDX 24 24
REMARK H PARENT
REMARK Flexibility Score: inf
ROOT
ATOM      1  C   UNL     1      42.887  27.786   1.878  1.00  0.00     0.000 C 
ENDROOT
BRANCH   1   2
ATOM      2  C   UNL     1      44.202  28.493   2.237  1.00  0.00     0.000 C 
BRANCH   2   3
ATOM      3  C   UNL     1      45.260  27.530   2.800  1.00  0.00     0.000 C 
BRANCH   3   4
ATOM      4  C   UNL     1      44.781  26.071   2.823  1.00  0.00    -0.000 C 
BRANCH   4   5
ATOM      5  C   UNL     1      45.322  25.335   4.054  1.00  0.00    -0.000 C 
BRANCH   5   6
ATOM      6  C   UNL     1      46.803  25.669   4.290  1.00  0.00    -0.000 C 
BRANCH   6   7
ATOM      7  C   UNL     1      47.047  26.390   5.627  1.00  0.00    -0.000 C 
BRANCH   7   8
ATOM      8  C   UNL     1      45.778  26.668   6.456  1.00  0.00    -0.000 C 
BRANCH   8   9
ATOM      9  C   UNL     1      45.740  25.995   7.844  1.00  0.00    -0.000 C 
BRANCH   9  10
ATOM     10  C   UNL     1      45.234  26.894   8.986  1.00  0.00    -0.000 C 
BRANCH  10  11
ATOM     11  C   UNL     1      45.895  28.279   8.992  1.00  0.00    -0.003 C 
ATOM     12  C   UNL     1      44.876  29.377   8.701  1.00  0.00     0.004 C 
ENDBRANCH  10  11
ENDBRANCH   9  10
ENDBRANCH   8   9
ENDBRANCH   7   8
ENDBRANCH   6   7
ENDBRANCH   5   6
ENDBRANCH   4   5
ENDBRANCH   3   4
ENDBRANCH   2   3
ENDBRANCH   1   2
BRANCH   1  13
ATOM     13  C   UNL     1      42.634  27.831   0.364  1.00  0.00     0.000 C 
BRANCH  13  14
ATOM     14  C   UNL     1      43.336  26.692  -0.398  1.00  0.00     0.000 C 
BRANCH  14  15
ATOM     15  C   UNL     1      43.993  27.109  -1.726  1.00  0.00     0.000 C 
BRANCH  15  16
ATOM     16  C   UNL     1      44.897  28.343  -1.586  1.00  0.00     0.000 C 
BRANCH  16  17
ATOM     17  C   UNL     1      45.880  28.441  -2.759  1.00  0.00     0.000 C 
BRANCH  17  18
ATOM     18  C   UNL     1      45.977  27.102  -3.507  1.00  0.00     0.000 C 
BRANCH  18  19
ATOM     19  C   UNL     1      45.648  27.234  -5.002  1.00  0.00     0.000 C 
BRANCH  19  20
ATOM     20  C   UNL     1      45.113  28.629  -5.370  1.00  0.00     0.006 C 
BRANCH  20  21
ATOM     21  C   UNL     1      43.875  28.556  -6.272  1.00  0.00     0.053 C 
BRANCH  21  22
ATOM     22  C   UNL     1      42.604  28.628  -5.479  1.00  0.00     0.041 C 
ATOM     23  O   UNL     1      41.531  28.179  -5.960  1.00  0.00    -0.550 OA
ATOM     24  O   UNL     1      42.609  29.183  -4.205  1.00  0.00    -0.550 OA
ENDBRANCH  21  22
ENDBRANCH  20  21
ENDBRANCH  19  20
ENDBRANCH  18  19
ENDBRANCH  17  18
ENDBRANCH  16  17
ENDBRANCH  15  16
ENDBRANCH  14  15
ENDBRANCH  13  14
ENDBRANCH   1  13
TORSDOF 20
ENDMDL
MODEL 5
REMARK VINA RESULT:    -3.929      4.057      9.818
REMARK INTER + INTRA:         -11.149
REMARK INTER:                  -8.672
REMARK INTRA:                  -2.477
REMARK UNBOUND:                -2.625
REMARK SMILES CCCCCCCCCCCCCCCCCCCCCC(=O)[O-]
REMARK SMILES IDX 12 1 11 2 10 3 9 4 8 5 7 6 6 7 5 8 4 9 3 10 2 11 1 12 13 13
REMARK SMILES IDX 14 14 15 15 16 16 17 17 18 18 19 19 20 20 21 21 22 22 23 23
REMARK SMILES IDX 24 24
REMARK H PARENT
REMARK Flexibility Score: inf
ROOT
ATOM      1  C   UNL     1      42.496  29.163  -0.011  1.00  0.00     0.000 C 
ENDROOT
BRANCH   1   2
ATOM      2  C   UNL     1      43.093  28.928  -1.407  1.00  0.00     0.000 C 
BRANCH   2   3
ATOM      3  C   UNL     1      43.673  27.515  -1.574  1.00  0.00     0.000 C 
BRANCH   3   4
ATOM      4  C   UNL     1      45.116  27.524  -2.100  1.00  0.00    -0.000 C 
BRANCH   4   5
ATOM      5  C   UNL     1      45.508  28.917  -2.607  1.00  0.00    -0.000 C 
BRANCH   5   6
ATOM      6  C   UNL     1      46.249  28.827  -3.949  1.00  0.00    -0.000 C 
BRANCH   6   7
ATOM      7  C   UNL     1      46.417  27.380  -4.444  1.00  0.00    -0.000 C 
BRANCH   7   8
ATOM      8  C   UNL     1      45.963  27.132  -5.896  1.00  0.00    -0.000 C 
BRANCH   8   9
ATOM      9  C   UNL     1      45.446  28.379  -6.644  1.00  0.00    -0.000 C 
BRANCH   9  10
ATOM     10  C   UNL     1      43.943  28.358  -6.974  1.00  0.00    -0.000 C 
BRANCH  10  11
ATOM     11  C   UNL     1      43.160  27.343  -6.129  1.00  0.00    -0.003 C 
ATOM     12  C   UNL     1      42.395  28.035  -5.005  1.00  0.00     0.004 C 
ENDBRANCH  10  11
ENDBRANCH   9  10
ENDBRANCH   8   9
ENDBRANCH   7   8
ENDBRANCH   6   7
ENDBRANCH   5   6
ENDBRANCH   4   5
ENDBRANCH   3   4
ENDBRANCH   2   3
ENDBRANCH   1   2
BRANCH   1  13
ATOM     13  C   UNL     1      42.160  27.830   0.674  1.00  0.00     0.000 C 
BRANCH  13  14
ATOM     14  C   UNL     1      42.916  27.629   2.000  1.00  0.00     0.000 C 
BRANCH  14  15
ATOM     15  C   UNL     1      44.322  28.255   2.048  1.00  0.00     0.000 C 
BRANCH  15  16
ATOM     16  C   UNL     1      45.435  27.214   2.241  1.00  0.00     0.000 C 
BRANCH  16  17
ATOM     17  C   UNL     1      44.899  25.960   2.942  1.00  0.00     0.000 C 
BRANCH  17  18
ATOM     18  C   UNL     1      45.746  25.617   4.177  1.00  0.00     0.000 C 
BRANCH  18  19
ATOM     19  C   UNL     1      46.521  26.829   4.718  1.00  0.00     0.000 C 
BRANCH  19  20
ATOM     20  C   UNL     1      45.964  27.339   6.058  1.00  0.00     0.006 C 
BRANCH  20  21
ATOM     21  C   UNL     1      45.918  26.238   7.124  1.00  0.00     0.053 C 
BRANCH  21  22
ATOM     22  C   UNL     1      45.499  26.773   8.460  1.00  0.00     0.041 C 
ATOM     23  O   UNL     1      45.081  27.956   8.567  1.00  0.00    -0.550 OA
ATOM     24  O   UNL     1      45.559  25.961   9.586  1.00  0.00    -0.550 OA
ENDBRANCH  21  22
ENDBRANCH  20  21
ENDBRANCH  19  20
ENDBRANCH  18  19
ENDBRANCH  17  18
ENDBRANCH  16  17
ENDBRANCH  15  16
ENDBRANCH  14  15
ENDBRANCH  13  14
ENDBRANCH   1  13
TORSDOF 20
ENDMDL
MODEL 6
REMARK VINA RESULT:    -3.928      3.666      8.951
REMARK INTER + INTRA:         -11.146
REMARK INTER:                  -7.791
REMARK INTRA:                  -3.355
REMARK UNBOUND:                -2.625
REMARK SMILES CCCCCCCCCCCCCCCCCCCCCC(=O)[O-]
REMARK SMILES IDX 12 1 11 2 10 3 9 4 8 5 7 6 6 7 5 8 4 9 3 10 2 11 1 12 13 13
REMARK SMILES IDX 14 14 15 15 16 16 17 17 18 18 19 19 20 20 21 21 22 22 23 23
REMARK SMILES IDX 24 24
REMARK H PARENT
REMARK Flexibility Score: inf
ROOT
ATOM      1  C   UNL     1      42.032  27.850   0.501  1.00  0.00     0.000 C 
ENDROOT
BRANCH   1   2
ATOM      2  C   UNL     1      43.058  26.749   0.193  1.00  0.00     0.000 C 
BRANCH   2   3
ATOM      3  C   UNL     1      43.748  26.945  -1.166  1.00  0.00     0.000 C 
BRANCH   3   4
ATOM      4  C   UNL     1      43.505  28.340  -1.760  1.00  0.00    -0.000 C 
BRANCH   4   5
ATOM      5  C   UNL     1      44.752  28.850  -2.492  1.00  0.00    -0.000 C 
BRANCH   5   6
ATOM      6  C   UNL     1      45.869  27.795  -2.481  1.00  0.00    -0.000 C 
BRANCH   6   7
ATOM      7  C   UNL     1      46.076  27.131  -3.853  1.00  0.00    -0.000 C 
BRANCH   7   8
ATOM      8  C   UNL     1      45.766  28.032  -5.065  1.00  0.00    -0.000 C 
BRANCH   8   9
ATOM      9  C   UNL     1      44.643  27.523  -5.992  1.00  0.00    -0.000 C 
BRANCH   9  10
ATOM     10  C   UNL     1      43.452  26.871  -5.269  1.00  0.00    -0.000 C 
BRANCH  10  11
ATOM     11  C   UNL     1      42.215  27.780  -5.218  1.00  0.00    -0.003 C 
ATOM     12  C   UNL     1      42.404  29.016  -6.092  1.00  0.00     0.004 C 
ENDBRANCH  10  11
ENDBRANCH   9  10
ENDBRANCH   8   9
ENDBRANCH   7   8
ENDBRANCH   6   7
ENDBRANCH   5   6
ENDBRANCH   4   5
ENDBRANCH   3   4
ENDBRANCH   2   3
ENDBRANCH   1   2
BRANCH   1  13
ATOM     13  C   UNL     1      42.339  28.529   1.844  1.00  0.00     0.000 C 
BRANCH  13  14
ATOM     14  C   UNL     1      43.033  29.893   1.684  1.00  0.00     0.000 C 
BRANCH  14  15
ATOM     15  C   UNL     1      44.475  29.955   2.220  1.00  0.00     0.000 C 
BRANCH  15  16
ATOM     16  C   UNL     1      45.520  29.530   1.178  1.00  0.00     0.000 C 
BRANCH  16  17
ATOM     17  C   UNL     1      46.104  28.152   1.516  1.00  0.00     0.000 C 
BRANCH  17  18
ATOM     18  C   UNL     1      45.749  27.743   2.954  1.00  0.00     0.000 C 
BRANCH  18  19
ATOM     19  C   UNL     1      45.228  26.300   3.047  1.00  0.00     0.000 C 
BRANCH  19  20
ATOM     20  C   UNL     1      45.497  25.660   4.420  1.00  0.00     0.006 C 
BRANCH  20  21
ATOM     21  C   UNL     1      46.506  26.465   5.247  1.00  0.00     0.053 C 
BRANCH  21  22
ATOM     22  C   UNL     1      45.929  26.901   6.559  1.00  0.00     0.041 C 
ATOM     23  O   UNL     1      45.700  26.056   7.464  1.00  0.00    -0.550 OA
ATOM     24  O   UNL     1      45.654  28.245   6.787  1.00  0.00    -0.550 OA
ENDBRANCH  21  22
ENDBRANCH  20  21
ENDBRANCH  19  20
ENDBRANCH  18  19
ENDBRANCH  17  18
ENDBRANCH  16  17
ENDBRANCH  15  16
ENDBRANCH  14  15
ENDBRANCH  13  14
ENDBRANCH   1  13
TORSDOF 20
ENDMDL
MODEL 7
REMARK VINA RESULT:    -3.923      1.315      2.370
REMARK INTER + INTRA:         -11.136
REMARK INTER:                  -8.601
REMARK INTRA:                  -2.535
REMARK UNBOUND:                -2.625
REMARK SMILES CCCCCCCCCCCCCCCCCCCCCC(=O)[O-]
REMARK SMILES IDX 12 1 11 2 10 3 9 4 8 5 7 6 6 7 5 8 4 9 3 10 2 11 1 12 13 13
REMARK SMILES IDX 14 14 15 15 16 16 17 17 18 18 19 19 20 20 21 21 22 22 23 23
REMARK SMILES IDX 24 24
REMARK H PARENT
REMARK Flexibility Score: inf
ROOT
ATOM      1  C   UNL     1      43.348  29.280   1.818  1.00  0.00     0.000 C 
ENDROOT
BRANCH   1   2
ATOM      2  C   UNL     1      42.740  28.011   1.204  1.00  0.00     0.000 C 
BRANCH   2   3
ATOM      3  C   UNL     1      43.584  26.756   1.478  1.00  0.00     0.000 C 
BRANCH   3   4
ATOM      4  C   UNL     1      44.371  26.846   2.793  1.00  0.00    -0.000 C 
BRANCH   4   5
ATOM      5  C   UNL     1      45.313  25.647   2.953  1.00  0.00    -0.000 C 
BRANCH   5   6
ATOM      6  C   UNL     1      46.395  25.933   4.006  1.00  0.00    -0.000 C 
BRANCH   6   7
ATOM      7  C   UNL     1      46.094  27.185   4.848  1.00  0.00    -0.000 C 
BRANCH   7   8
ATOM      8  C   UNL     1      45.956  26.931   6.363  1.00  0.00    -0.000 C 
BRANCH   8   9
ATOM      9  C   UNL     1      45.712  28.190   7.220  1.00  0.00    -0.000 C 
BRANCH   9  10
ATOM     10  C   UNL     1      45.161  27.917   8.630  1.00  0.00    -0.000 C 
BRANCH  10  11
ATOM     11  C   UNL     1      45.374  26.465   9.082  1.00  0.00    -0.003 C 
ATOM     12  C   UNL     1      46.507  26.364  10.098  1.00  0.00     0.004 C 
ENDBRANCH  10  11
ENDBRANCH   9  10
ENDBRANCH   8   9
ENDBRANCH   7   8
ENDBRANCH   6   7
ENDBRANCH   5   6
ENDBRANCH   4   5
ENDBRANCH   3   4
ENDBRANCH   2   3
ENDBRANCH   1   2
BRANCH   1  13
ATOM     13  C   UNL     1      44.360  29.925   0.859  1.00  0.00     0.000 C 
BRANCH  13  14
ATOM     14  C   UNL     1      45.757  30.094   1.484  1.00  0.00     0.000 C 
BRANCH  14  15
ATOM     15  C   UNL     1      46.913  29.502   0.659  1.00  0.00     0.000 C 
BRANCH  15  16
ATOM     16  C   UNL     1      46.635  28.069   0.180  1.00  0.00     0.000 C 
BRANCH  16  17
ATOM     17  C   UNL     1      46.893  27.933  -1.325  1.00  0.00     0.000 C 
BRANCH  17  18
ATOM     18  C   UNL     1      45.701  28.463  -2.137  1.00  0.00     0.000 C 
BRANCH  18  19
ATOM     19  C   UNL     1      44.515  27.486  -2.153  1.00  0.00     0.000 C 
BRANCH  19  20
ATOM     20  C   UNL     1      43.176  28.185  -2.444  1.00  0.00     0.006 C 
BRANCH  20  21
ATOM     21  C   UNL     1      43.140  28.812  -3.842  1.00  0.00     0.053 C 
BRANCH  21  22
ATOM     22  C   UNL     1      42.648  27.843  -4.875  1.00  0.00     0.041 C 
ATOM     23  O   UNL     1      41.642  28.122  -5.577  1.00  0.00    -0.550 OA
ATOM     24  O   UNL     1      43.309  26.635  -5.067  1.00  0.00    -0.550 OA
ENDBRANCH  21  22
ENDBRANCH  20  21
ENDBRANCH  19  20
ENDBRANCH  18  19
ENDBRANCH  17  18
ENDBRANCH  16  17
ENDBRANCH  15  16
ENDBRANCH  14  15
ENDBRANCH  13  14
ENDBRANCH   1  13
TORSDOF 20
ENDMDL
MODEL 8
REMARK VINA RESULT:    -3.922      1.434      2.192
REMARK INTER + INTRA:         -11.133
REMARK INTER:                  -8.768
REMARK INTRA:                  -2.365
REMARK UNBOUND:                -2.625
REMARK SMILES CCCCCCCCCCCCCCCCCCCCCC(=O)[O-]
REMARK SMILES IDX 12 1 11 2 10 3 9 4 8 5 7 6 6 7 5 8 4 9 3 10 2 11 1 12 13 13
REMARK SMILES IDX 14 14 15 15 16 16 17 17 18 18 19 19 20 20 21 21 22 22 23 23
REMARK SMILES IDX 24 24
REMARK H PARENT
REMARK Flexibility Score: inf
ROOT
ATOM      1  C   UNL     1      42.302  27.766   1.759  1.00  0.00     0.000 C 
ENDROOT
BRANCH   1   2
ATOM      2  C   UNL     1      43.442  27.017   1.053  1.00  0.00     0.000 C 
BRANCH   2   3
ATOM      3  C   UNL     1      44.586  26.642   2.009  1.00  0.00     0.000 C 
BRANCH   3   4
ATOM      4  C   UNL     1      45.952  27.151   1.528  1.00  0.00    -0.000 C 
BRANCH   4   5
ATOM      5  C   UNL     1      46.623  28.019   2.599  1.00  0.00    -0.000 C 
BRANCH   5   6
ATOM      6  C   UNL     1      45.703  28.205   3.815  1.00  0.00    -0.000 C 
BRANCH   6   7
ATOM      7  C   UNL     1      45.529  29.681   4.213  1.00  0.00    -0.000 C 
BRANCH   7   8
ATOM      8  C   UNL     1      45.622  29.961   5.726  1.00  0.00    -0.000 C 
BRANCH   8   9
ATOM      9  C   UNL     1      45.866  28.720   6.610  1.00  0.00    -0.000 C 
BRANCH   9  10
ATOM     10  C   UNL     1      45.223  28.783   8.007  1.00  0.00    -0.000 C 
BRANCH  10  11
ATOM     11  C   UNL     1      45.153  27.412   8.694  1.00  0.00    -0.003 C 
ATOM     12  C   UNL     1      45.746  26.321   7.808  1.00  0.00     0.004 C 
ENDBRANCH  10  11
ENDBRANCH   9  10
ENDBRANCH   8   9
ENDBRANCH   7   8
ENDBRANCH   6   7
ENDBRANCH   5   6
ENDBRANCH   4   5
ENDBRANCH   3   4
ENDBRANCH   2   3
ENDBRANCH   1   2
BRANCH   1  13
ATOM     13  C   UNL     1      42.440  29.283   1.569  1.00  0.00     0.000 C 
BRANCH  13  14
ATOM     14  C   UNL     1      43.271  29.661   0.330  1.00  0.00     0.000 C 
BRANCH  14  15
ATOM     15  C   UNL     1      42.452  29.896  -0.953  1.00  0.00     0.000 C 
BRANCH  15  16
ATOM     16  C   UNL     1      42.851  28.954  -2.099  1.00  0.00     0.000 C 
BRANCH  16  17
ATOM     17  C   UNL     1      44.351  28.637  -2.054  1.00  0.00     0.000 C 
BRANCH  17  18
ATOM     18  C   UNL     1      44.626  27.209  -2.551  1.00  0.00     0.000 C 
BRANCH  18  19
ATOM     19  C   UNL     1      45.415  27.183  -3.870  1.00  0.00     0.000 C 
BRANCH  19  20
ATOM     20  C   UNL     1      44.865  28.176  -4.909  1.00  0.00     0.006 C 
BRANCH  20  21
ATOM     21  C   UNL     1      43.987  27.487  -5.960  1.00  0.00     0.053 C 
BRANCH  21  22
ATOM     22  C   UNL     1      42.644  28.142  -6.079  1.00  0.00     0.041 C 
ATOM     23  O   UNL     1      42.431  28.994  -6.981  1.00  0.00    -0.550 OA
ATOM     24  O   UNL     1      41.623  27.801  -5.200  1.00  0.00    -0.550 OA
ENDBRANCH  21  22
ENDBRANCH  20  21
ENDBRANCH  19  20
ENDBRANCH  18  19
ENDBRANCH  17  18
ENDBRANCH  16  17
ENDBRANCH  15  16
ENDBRANCH  14  15
ENDBRANCH  13  14
ENDBRANCH   1  13
TORSDOF 20
ENDMDL
MODEL 9
REMARK VINA RESULT:    -3.805      1.494      2.878
REMARK INTER + INTRA:         -10.880
REMARK INTER:                  -7.773
REMARK INTRA:                  -3.107
REMARK UNBOUND:                -2.625
REMARK SMILES CCCCCCCCCCCCCCCCCCCCCC(=O)[O-]
REMARK SMILES IDX 12 1 11 2 10 3 9 4 8 5 7 6 6 7 5 8 4 9 3 10 2 11 1 12 13 13
REMARK SMILES IDX 14 14 15 15 16 16 17 17 18 18 19 19 20 20 21 21 22 22 23 23
REMARK SMILES IDX 24 24
REMARK H PARENT
REMARK Flexibility Score: inf
ROOT
ATOM      1  C   UNL     1      42.604  28.517  -0.128  1.00  0.00     0.000 C 
ENDROOT
BRANCH   1   2
ATOM      2  C   UNL     1      42.866  27.223   0.657  1.00  0.00     0.000 C 
BRANCH   2   3
ATOM      3  C   UNL     1      43.794  27.438   1.863  1.00  0.00     0.000 C 
BRANCH   3   4
ATOM      4  C   UNL     1      45.242  27.738   1.450  1.00  0.00    -0.000 C 
BRANCH   4   5
ATOM      5  C   UNL     1      45.642  29.165   1.843  1.00  0.00    -0.000 C 
BRANCH   5   6
ATOM      6  C   UNL     1      45.201  29.485   3.280  1.00  0.00    -0.000 C 
BRANCH   6   7
ATOM      7  C   UNL     1      46.358  29.413   4.291  1.00  0.00    -0.000 C 
BRANCH   7   8
ATOM      8  C   UNL     1      45.932  29.156   5.750  1.00  0.00    -0.000 C 
BRANCH   8   9
ATOM      9  C   UNL     1      45.968  27.679   6.194  1.00  0.00    -0.000 C 
BRANCH   9  10
ATOM     10  C   UNL     1      46.631  26.717   5.192  1.00  0.00    -0.000 C 
BRANCH  10  11
ATOM     11  C   UNL     1      45.640  25.712   4.587  1.00  0.00    -0.003 C 
ATOM     12  C   UNL     1      46.284  24.918   3.455  1.00  0.00     0.004 C 
ENDBRANCH  10  11
ENDBRANCH   9  10
ENDBRANCH   8   9
ENDBRANCH   7   8
ENDBRANCH   6   7
ENDBRANCH   5   6
ENDBRANCH   4   5
ENDBRANCH   3   4
ENDBRANCH   2   3
ENDBRANCH   1   2
BRANCH   1  13
ATOM     13  C   UNL     1      42.995  28.352  -1.604  1.00  0.00     0.000 C 
BRANCH  13  14
ATOM     14  C   UNL     1      43.882  29.499  -2.123  1.00  0.00     0.000 C 
BRANCH  14  15
ATOM     15  C   UNL     1      45.380  29.159  -2.239  1.00  0.00     0.000 C 
BRANCH  15  16
ATOM     16  C   UNL     1      45.656  27.649  -2.194  1.00  0.00     0.000 C 
BRANCH  16  17
ATOM     17  C   UNL     1      46.559  27.220  -3.356  1.00  0.00     0.000 C 
BRANCH  17  18
ATOM     18  C   UNL     1      46.355  28.133  -4.575  1.00  0.00     0.000 C 
BRANCH  18  19
ATOM     19  C   UNL     1      46.239  27.346  -5.891  1.00  0.00     0.000 C 
BRANCH  19  20
ATOM     20  C   UNL     1      44.908  27.601  -6.618  1.00  0.00     0.006 C 
BRANCH  20  21
ATOM     21  C   UNL     1      43.921  28.400  -5.758  1.00  0.00     0.053 C 
BRANCH  21  22
ATOM     22  C   UNL     1      42.856  27.522  -5.173  1.00  0.00     0.041 C 
ATOM     23  O   UNL     1      41.650  27.882  -5.204  1.00  0.00    -0.550 OA
ATOM     24  O   UNL     1      43.195  26.300  -4.604  1.00  0.00    -0.550 OA
ENDBRANCH  21  22
ENDBRANCH  20  21
ENDBRANCH  19  20
ENDBRANCH  18  19
ENDBRANCH  17  18
ENDBRANCH  16  17
ENDBRANCH  15  16
ENDBRANCH  14  15
ENDBRANCH  13  14
ENDBRANCH   1  13
TORSDOF 20
ENDMDL
