MODEL 1
REMARK VINA RESULT:    -4.606      0.000      0.000
REMARK INTER + INTRA:          -6.134
REMARK INTER:                  -5.683
REMARK INTRA:                  -0.452
REMARK UNBOUND:                -0.452
REMARK SMILES C=CC[C@H](C)C(=O)CC
REMARK SMILES IDX 4 1 5 2 6 3 7 4 8 5 9 6 3 7 2 8 1 9
REMARK H PARENT
REMARK Flexibility Score: inf
ROOT
ATOM      1  C   UNL     1      26.993  14.217  80.541  1.00  0.00     0.057 C 
ATOM      2  C   UNL     1      26.494  13.564  81.834  1.00  0.00     0.016 C 
ENDROOT
BRANCH   1   3
ATOM      3  C   UNL     1      28.247  15.020  80.821  1.00  0.00     0.135 C 
ATOM      4  O   UNL     1      28.169  16.063  81.455  1.00  0.00    -0.299 OA
BRANCH   3   5
ATOM      5  C   UNL     1      29.597  14.545  80.351  1.00  0.00     0.072 C 
ATOM      6  C   UNL     1      29.486  13.813  79.018  1.00  0.00     0.012 C 
ENDBRANCH   3   5
ENDBRANCH   1   3
BRANCH   1   7
ATOM      7  C   UNL     1      25.890  15.096  79.919  1.00  0.00     0.038 C 
BRANCH   7   8
ATOM      8  C   UNL     1      26.234  15.489  78.506  1.00  0.00    -0.034 C 
ATOM      9  C   UNL     1      25.984  14.684  77.469  1.00  0.00     0.004 C 
ENDBRANCH   7   8
ENDBRANCH   1   7
TORSDOF 4
ENDMDL
MODEL 2
REMARK VINA RESULT:    -4.588      2.708      4.483
REMARK INTER + INTRA:          -6.112
REMARK INTER:                  -5.881
REMARK INTRA:                  -0.231
REMARK UNBOUND:                -0.452
REMARK SMILES C=CC[C@H](C)C(=O)CC
REMARK SMILES IDX 4 1 5 2 6 3 7 4 8 5 9 6 3 7 2 8 1 9
REMARK H PARENT
REMARK Flexibility Score: inf
ROOT
ATOM      1  C   UNL     1      26.805  14.665  82.993  1.00  0.00     0.057 C 
ATOM      2  C   UNL     1      26.267  13.563  82.073  1.00  0.00     0.016 C 
ENDROOT
BRANCH   1   3
ATOM      3  C   UNL     1      27.512  15.723  82.170  1.00  0.00     0.135 C 
ATOM      4  O   UNL     1      28.551  15.442  81.586  1.00  0.00    -0.299 OA
BRANCH   3   5
ATOM      5  C   UNL     1      26.948  17.113  82.037  1.00  0.00     0.072 C 
ATOM      6  C   UNL     1      25.868  17.164  80.961  1.00  0.00     0.012 C 
ENDBRANCH   3   5
ENDBRANCH   1   3
BRANCH   1   7
ATOM      7  C   UNL     1      27.740  14.066  84.061  1.00  0.00     0.038 C 
BRANCH   7   8
ATOM      8  C   UNL     1      28.120  12.647  83.725  1.00  0.00    -0.034 C 
ATOM      9  C   UNL     1      28.315  11.725  84.672  1.00  0.00     0.004 C 
ENDBRANCH   7   8
ENDBRANCH   1   7
TORSDOF 4
ENDMDL
MODEL 3
REMARK VINA RESULT:    -4.532      1.795      2.851
REMARK INTER + INTRA:          -6.044
REMARK INTER:                  -5.824
REMARK INTRA:                  -0.220
REMARK UNBOUND:                -0.452
REMARK SMILES C=CC[C@H](C)C(=O)CC
REMARK SMILES IDX 4 1 5 2 6 3 7 4 8 5 9 6 3 7 2 8 1 9
REMARK H PARENT
REMARK Flexibility Score: inf
ROOT
ATOM      1  C   UNL     1      26.512  13.734  82.041  1.00  0.00     0.057 C 
ATOM      2  C   UNL     1      25.390  14.725  82.370  1.00  0.00     0.016 C 
ENDROOT
BRANCH   1   3
ATOM      3  C   UNL     1      27.707  13.993  82.935  1.00  0.00     0.135 C 
ATOM      4  O   UNL     1      28.603  14.731  82.548  1.00  0.00    -0.299 OA
BRANCH   3   5
ATOM      5  C   UNL     1      27.804  13.377  84.306  1.00  0.00     0.072 C 
ATOM      6  C   UNL     1      28.316  11.942  84.225  1.00  0.00     0.012 C 
ENDBRANCH   3   5
ENDBRANCH   1   3
BRANCH   1   7
ATOM      7  C   UNL     1      26.894  13.826  80.551  1.00  0.00     0.038 C 
BRANCH   7   8
ATOM      8  C   UNL     1      26.164  14.953  79.867  1.00  0.00    -0.034 C 
ATOM      9  C   UNL     1      26.041  15.010  78.537  1.00  0.00     0.004 C 
ENDBRANCH   7   8
ENDBRANCH   1   7
TORSDOF 4
ENDMDL
MODEL 4
REMARK VINA RESULT:    -4.518      2.297      3.940
REMARK INTER + INTRA:          -6.026
REMARK INTER:                  -5.751
REMARK INTRA:                  -0.275
REMARK UNBOUND:                -0.452
REMARK SMILES C=CC[C@H](C)C(=O)CC
REMARK SMILES IDX 4 1 5 2 6 3 7 4 8 5 9 6 3 7 2 8 1 9
REMARK H PARENT
REMARK Flexibility Score: inf
ROOT
ATOM      1  C   UNL     1      26.691  14.777  82.870  1.00  0.00     0.057 C 
ATOM      2  C   UNL     1      25.224  14.865  82.437  1.00  0.00     0.016 C 
ENDROOT
BRANCH   1   3
ATOM      3  C   UNL     1      27.557  15.584  81.924  1.00  0.00     0.135 C 
ATOM      4  O   UNL     1      27.584  16.803  82.019  1.00  0.00    -0.299 OA
BRANCH   3   5
ATOM      5  C   UNL     1      28.406  14.910  80.878  1.00  0.00     0.072 C 
ATOM      6  C   UNL     1      29.888  15.043  81.209  1.00  0.00     0.012 C 
ENDBRANCH   3   5
ENDBRANCH   1   3
BRANCH   1   7
ATOM      7  C   UNL     1      27.148  13.306  82.933  1.00  0.00     0.038 C 
BRANCH   7   8
ATOM      8  C   UNL     1      27.935  13.029  84.188  1.00  0.00    -0.034 C 
ATOM      9  C   UNL     1      28.308  11.792  84.528  1.00  0.00     0.004 C 
ENDBRANCH   7   8
ENDBRANCH   1   7
TORSDOF 4
ENDMDL
MODEL 5
REMARK VINA RESULT:    -4.487      1.793      3.872
REMARK INTER + INTRA:          -5.988
REMARK INTER:                  -5.766
REMARK INTRA:                  -0.222
REMARK UNBOUND:                -0.452
REMARK SMILES C=CC[C@H](C)C(=O)CC
REMARK SMILES IDX 4 1 5 2 6 3 7 4 8 5 9 6 3 7 2 8 1 9
REMARK H PARENT
REMARK Flexibility Score: inf
ROOT
ATOM      1  C   UNL     1      27.381  15.680  81.781  1.00  0.00     0.057 C 
ATOM      2  C   UNL     1      27.259  17.206  81.860  1.00  0.00     0.016 C 
ENDROOT
BRANCH   1   3
ATOM      3  C   UNL     1      27.316  15.233  80.334  1.00  0.00     0.135 C 
ATOM      4  O   UNL     1      28.348  14.943  79.743  1.00  0.00    -0.299 OA
BRANCH   3   5
ATOM      5  C   UNL     1      25.999  15.118  79.612  1.00  0.00     0.072 C 
ATOM      6  C   UNL     1      26.204  15.103  78.101  1.00  0.00     0.012 C 
ENDBRANCH   3   5
ENDBRANCH   1   3
BRANCH   1   7
ATOM      7  C   UNL     1      26.282  15.007  82.626  1.00  0.00     0.038 C 
BRANCH   7   8
ATOM      8  C   UNL     1      26.837  14.473  83.921  1.00  0.00    -0.034 C 
ATOM      9  C   UNL     1      27.794  13.541  83.949  1.00  0.00     0.004 C 
ENDBRANCH   7   8
ENDBRANCH   1   7
TORSDOF 4
ENDMDL
MODEL 6
REMARK VINA RESULT:    -4.420      1.369      2.760
REMARK INTER + INTRA:          -5.905
REMARK INTER:                  -5.644
REMARK INTRA:                  -0.261
REMARK UNBOUND:                -0.452
REMARK SMILES C=CC[C@H](C)C(=O)CC
REMARK SMILES IDX 4 1 5 2 6 3 7 4 8 5 9 6 3 7 2 8 1 9
REMARK H PARENT
REMARK Flexibility Score: inf
ROOT
ATOM      1  C   UNL     1      27.655  15.507  80.672  1.00  0.00     0.057 C 
ATOM      2  C   UNL     1      29.088  15.060  80.984  1.00  0.00     0.016 C 
ENDROOT
BRANCH   1   3
ATOM      3  C   UNL     1      26.930  15.843  81.959  1.00  0.00     0.135 C 
ATOM      4  O   UNL     1      26.928  16.995  82.371  1.00  0.00    -0.299 OA
BRANCH   3   5
ATOM      5  C   UNL     1      26.188  14.785  82.734  1.00  0.00     0.072 C 
ATOM      6  C   UNL     1      27.010  14.303  83.925  1.00  0.00     0.012 C 
ENDBRANCH   3   5
ENDBRANCH   1   3
BRANCH   1   7
ATOM      7  C   UNL     1      26.912  14.417  79.876  1.00  0.00     0.038 C 
BRANCH   7   8
ATOM      8  C   UNL     1      25.933  15.021  78.902  1.00  0.00    -0.034 C 
ATOM      9  C   UNL     1      25.989  14.762  77.593  1.00  0.00     0.004 C 
ENDBRANCH   7   8
ENDBRANCH   1   7
TORSDOF 4
ENDMDL
MODEL 7
REMARK VINA RESULT:    -4.389      1.184      3.010
REMARK INTER + INTRA:          -5.868
REMARK INTER:                  -5.637
REMARK INTRA:                  -0.230
REMARK UNBOUND:                -0.452
REMARK SMILES C=CC[C@H](C)C(=O)CC
REMARK SMILES IDX 4 1 5 2 6 3 7 4 8 5 9 6 3 7 2 8 1 9
REMARK H PARENT
REMARK Flexibility Score: inf
ROOT
ATOM      1  C   UNL     1      26.859  15.061  80.528  1.00  0.00     0.057 C 
ATOM      2  C   UNL     1      26.055  14.979  79.225  1.00  0.00     0.016 C 
ENDROOT
BRANCH   1   3
ATOM      3  C   UNL     1      28.334  14.878  80.234  1.00  0.00     0.135 C 
ATOM      4  O   UNL     1      29.166  15.314  81.018  1.00  0.00    -0.299 OA
BRANCH   3   5
ATOM      5  C   UNL     1      28.798  14.146  79.003  1.00  0.00     0.072 C 
ATOM      6  C   UNL     1      30.206  13.591  79.195  1.00  0.00     0.012 C 
ENDBRANCH   3   5
ENDBRANCH   1   3
BRANCH   1   7
ATOM      7  C   UNL     1      26.353  14.016  81.540  1.00  0.00     0.038 C 
BRANCH   7   8
ATOM      8  C   UNL     1      26.096  14.637  82.889  1.00  0.00    -0.034 C 
ATOM      9  C   UNL     1      26.930  14.460  83.918  1.00  0.00     0.004 C 
ENDBRANCH   7   8
ENDBRANCH   1   7
TORSDOF 4
ENDMDL
MODEL 8
REMARK VINA RESULT:    -4.366      1.611      2.979
REMARK INTER + INTRA:          -5.839
REMARK INTER:                  -5.324
REMARK INTRA:                  -0.515
REMARK UNBOUND:                -0.452
REMARK SMILES C=CC[C@H](C)C(=O)CC
REMARK SMILES IDX 4 1 5 2 6 3 7 4 8 5 9 6 3 7 2 8 1 9
REMARK H PARENT
REMARK Flexibility Score: inf
ROOT
ATOM      1  C   UNL     1      28.251  14.568  80.610  1.00  0.00     0.057 C 
ATOM      2  C   UNL     1      29.488  15.248  81.207  1.00  0.00     0.016 C 
ENDROOT
BRANCH   1   3
ATOM      3  C   UNL     1      28.000  13.250  81.314  1.00  0.00     0.135 C 
ATOM      4  O   UNL     1      28.900  12.425  81.395  1.00  0.00    -0.299 OA
BRANCH   3   5
ATOM      5  C   UNL     1      26.664  12.941  81.937  1.00  0.00     0.072 C 
ATOM      6  C   UNL     1      25.905  14.223  82.266  1.00  0.00     0.012 C 
ENDBRANCH   3   5
ENDBRANCH   1   3
BRANCH   1   7
ATOM      7  C   UNL     1      28.424  14.370  79.092  1.00  0.00     0.038 C 
BRANCH   7   8
ATOM      8  C   UNL     1      27.098  14.136  78.415  1.00  0.00    -0.034 C 
ATOM      9  C   UNL     1      26.074  14.981  78.557  1.00  0.00     0.004 C 
ENDBRANCH   7   8
ENDBRANCH   1   7
TORSDOF 4
ENDMDL
MODEL 9
REMARK VINA RESULT:    -4.359      1.724      2.763
REMARK INTER + INTRA:          -5.830
REMARK INTER:                  -5.400
REMARK INTRA:                  -0.430
REMARK UNBOUND:                -0.452
REMARK SMILES C=CC[C@H](C)C(=O)CC
REMARK SMILES IDX 4 1 5 2 6 3 7 4 8 5 9 6 3 7 2 8 1 9
REMARK H PARENT
REMARK Flexibility Score: inf
ROOT
ATOM      1  C   UNL     1      26.860  14.874  80.869  1.00  0.00     0.057 C 
ATOM      2  C   UNL     1      26.627  13.626  81.728  1.00  0.00     0.016 C 
ENDROOT
BRANCH   1   3
ATOM      3  C   UNL     1      27.766  14.535  79.703  1.00  0.00     0.135 C 
ATOM      4  O   UNL     1      28.978  14.643  79.827  1.00  0.00    -0.299 OA
BRANCH   3   5
ATOM      5  C   UNL     1      27.202  14.044  78.396  1.00  0.00     0.072 C 
ATOM      6  C   UNL     1      26.072  14.947  77.913  1.00  0.00     0.012 C 
ENDBRANCH   3   5
ENDBRANCH   1   3
BRANCH   1   7
ATOM      7  C   UNL     1      27.447  16.014  81.724  1.00  0.00     0.038 C 
BRANCH   7   8
ATOM      8  C   UNL     1      26.687  17.300  81.521  1.00  0.00    -0.034 C 
ATOM      9  C   UNL     1      25.605  17.364  80.739  1.00  0.00     0.004 C 
ENDBRANCH   7   8
ENDBRANCH   1   7
TORSDOF 4
ENDMDL
