MODEL 1
REMARK VINA RESULT:    -3.712      0.000      0.000
REMARK INTER + INTRA:          -4.424
REMARK INTER:                  -4.363
REMARK INTRA:                  -0.061
REMARK UNBOUND:                -0.061
REMARK SMILES CCCCC(=O)[O-]
REMARK SMILES IDX 4 1 5 2 6 3 7 4 3 5 2 6 1 7
REMARK H PARENT
REMARK Flexibility Score: inf
ROOT
ATOM      1  C   UNL     1       1.993 -37.167  16.833  1.00  0.00     0.053 C 
ENDROOT
BRANCH   1   2
ATOM      2  C   UNL     1       2.496 -37.708  18.134  1.00  0.00     0.041 C 
ATOM      3  O   UNL     1       3.719 -37.633  18.422  1.00  0.00    -0.550 OA
ATOM      4  O   UNL     1       1.606 -38.253  19.052  1.00  0.00    -0.550 OA
ENDBRANCH   1   2
BRANCH   1   5
ATOM      5  C   UNL     1       3.115 -36.441  16.086  1.00  0.00     0.006 C 
BRANCH   5   6
ATOM      6  C   UNL     1       3.096 -36.790  14.593  1.00  0.00    -0.003 C 
ATOM      7  C   UNL     1       4.041 -37.947  14.285  1.00  0.00     0.004 C 
ENDBRANCH   5   6
ENDBRANCH   1   5
TORSDOF 3
ENDMDL
MODEL 2
REMARK VINA RESULT:    -3.680      0.086      1.225
REMARK INTER + INTRA:          -4.387
REMARK INTER:                  -4.330
REMARK INTRA:                  -0.056
REMARK UNBOUND:                -0.061
REMARK SMILES CCCCC(=O)[O-]
REMARK SMILES IDX 4 1 5 2 6 3 7 4 3 5 2 6 1 7
REMARK H PARENT
REMARK Flexibility Score: inf
ROOT
ATOM      1  C   UNL     1       1.990 -37.166  16.848  1.00  0.00     0.053 C 
ENDROOT
BRANCH   1   2
ATOM      2  C   UNL     1       2.441 -37.689  18.175  1.00  0.00     0.041 C 
ATOM      3  O   UNL     1       1.616 -38.227  18.958  1.00  0.00    -0.550 OA
ATOM      4  O   UNL     1       3.784 -37.625  18.527  1.00  0.00    -0.550 OA
ENDBRANCH   1   2
BRANCH   1   5
ATOM      5  C   UNL     1       3.143 -36.457  16.131  1.00  0.00     0.006 C 
BRANCH   5   6
ATOM      6  C   UNL     1       3.150 -36.794  14.636  1.00  0.00    -0.003 C 
ATOM      7  C   UNL     1       4.000 -38.029  14.353  1.00  0.00     0.004 C 
ENDBRANCH   5   6
ENDBRANCH   1   5
TORSDOF 3
ENDMDL
MODEL 3
REMARK VINA RESULT:    -3.318      4.561      6.101
REMARK INTER + INTRA:          -3.961
REMARK INTER:                  -3.926
REMARK INTRA:                  -0.036
REMARK UNBOUND:                -0.061
REMARK SMILES CCCCC(=O)[O-]
REMARK SMILES IDX 4 1 5 2 6 3 7 4 3 5 2 6 1 7
REMARK H PARENT
REMARK Flexibility Score: inf
ROOT
ATOM      1  C   UNL     1       4.749 -35.957  20.671  1.00  0.00     0.053 C 
ENDROOT
BRANCH   1   2
ATOM      2  C   UNL     1       4.736 -37.215  19.861  1.00  0.00     0.041 C 
ATOM      3  O   UNL     1       5.477 -38.181  20.179  1.00  0.00    -0.550 OA
ATOM      4  O   UNL     1       3.870 -37.337  18.781  1.00  0.00    -0.550 OA
ENDBRANCH   1   2
BRANCH   1   5
ATOM      5  C   UNL     1       6.112 -35.766  21.343  1.00  0.00     0.006 C 
BRANCH   5   6
ATOM      6  C   UNL     1       6.018 -36.010  22.853  1.00  0.00    -0.003 C 
ATOM      7  C   UNL     1       5.990 -34.694  23.624  1.00  0.00     0.004 C 
ENDBRANCH   5   6
ENDBRANCH   1   5
TORSDOF 3
ENDMDL
MODEL 4
REMARK VINA RESULT:    -3.293      3.582      5.056
REMARK INTER + INTRA:          -3.931
REMARK INTER:                  -3.916
REMARK INTRA:                  -0.015
REMARK UNBOUND:                -0.061
REMARK SMILES CCCCC(=O)[O-]
REMARK SMILES IDX 4 1 5 2 6 3 7 4 3 5 2 6 1 7
REMARK H PARENT
REMARK Flexibility Score: inf
ROOT
ATOM      1  C   UNL     1       4.794 -37.294  19.749  1.00  0.00     0.053 C 
ENDROOT
BRANCH   1   2
ATOM      2  C   UNL     1       3.505 -37.478  19.012  1.00  0.00     0.041 C 
ATOM      3  O   UNL     1       3.470 -37.368  17.759  1.00  0.00    -0.550 OA
ATOM      4  O   UNL     1       2.351 -37.819  19.707  1.00  0.00    -0.550 OA
ENDBRANCH   1   2
BRANCH   1   5
ATOM      5  C   UNL     1       4.776 -35.984  20.541  1.00  0.00     0.006 C 
BRANCH   5   6
ATOM      6  C   UNL     1       6.096 -35.779  21.293  1.00  0.00    -0.003 C 
ATOM      7  C   UNL     1       5.852 -35.537  22.780  1.00  0.00     0.004 C 
ENDBRANCH   5   6
ENDBRANCH   1   5
TORSDOF 3
ENDMDL
MODEL 5
REMARK VINA RESULT:    -3.174      2.520      3.944
REMARK INTER + INTRA:          -3.792
REMARK INTER:                  -3.774
REMARK INTRA:                  -0.018
REMARK UNBOUND:                -0.061
REMARK SMILES CCCCC(=O)[O-]
REMARK SMILES IDX 4 1 5 2 6 3 7 4 3 5 2 6 1 7
REMARK H PARENT
REMARK Flexibility Score: inf
ROOT
ATOM      1  C   UNL     1       2.668 -37.581  17.705  1.00  0.00     0.053 C 
ENDROOT
BRANCH   1   2
ATOM      2  C   UNL     1       2.625 -37.314  16.234  1.00  0.00     0.041 C 
ATOM      3  O   UNL     1       1.795 -36.495  15.762  1.00  0.00    -0.550 OA
ATOM      4  O   UNL     1       3.536 -37.936  15.388  1.00  0.00    -0.550 OA
ENDBRANCH   1   2
BRANCH   1   5
ATOM      5  C   UNL     1       3.898 -36.920  18.334  1.00  0.00     0.006 C 
BRANCH   5   6
ATOM      6  C   UNL     1       4.269 -37.599  19.657  1.00  0.00    -0.003 C 
ATOM      7  C   UNL     1       5.280 -36.766  20.440  1.00  0.00     0.004 C 
ENDBRANCH   5   6
ENDBRANCH   1   5
TORSDOF 3
ENDMDL
MODEL 6
REMARK VINA RESULT:    -3.128      2.660      4.175
REMARK INTER + INTRA:          -3.737
REMARK INTER:                  -3.719
REMARK INTRA:                  -0.018
REMARK UNBOUND:                -0.061
REMARK SMILES CCCCC(=O)[O-]
REMARK SMILES IDX 4 1 5 2 6 3 7 4 3 5 2 6 1 7
REMARK H PARENT
REMARK Flexibility Score: inf
ROOT
ATOM      1  C   UNL     1       3.726 -37.507  18.417  1.00  0.00     0.053 C 
ENDROOT
BRANCH   1   2
ATOM      2  C   UNL     1       2.260 -37.681  18.175  1.00  0.00     0.041 C 
ATOM      3  O   UNL     1       1.536 -38.235  19.043  1.00  0.00    -0.550 OA
ATOM      4  O   UNL     1       1.684 -37.189  17.010  1.00  0.00    -0.550 OA
ENDBRANCH   1   2
BRANCH   1   5
ATOM      5  C   UNL     1       3.979 -37.018  19.846  1.00  0.00     0.006 C 
BRANCH   5   6
ATOM      6  C   UNL     1       5.267 -36.191  19.924  1.00  0.00    -0.003 C 
ATOM      7  C   UNL     1       5.706 -35.988  21.370  1.00  0.00     0.004 C 
ENDBRANCH   5   6
ENDBRANCH   1   5
TORSDOF 3
ENDMDL
MODEL 7
REMARK VINA RESULT:    -3.074      2.722      3.807
REMARK INTER + INTRA:          -3.674
REMARK INTER:                  -3.589
REMARK INTRA:                  -0.085
REMARK UNBOUND:                -0.061
REMARK SMILES CCCCC(=O)[O-]
REMARK SMILES IDX 4 1 5 2 6 3 7 4 3 5 2 6 1 7
REMARK H PARENT
REMARK Flexibility Score: inf
ROOT
ATOM      1  C   UNL     1       4.571 -37.572  19.472  1.00  0.00     0.053 C 
ENDROOT
BRANCH   1   2
ATOM      2  C   UNL     1       5.225 -36.371  20.077  1.00  0.00     0.041 C 
ATOM      3  O   UNL     1       5.338 -35.308  19.413  1.00  0.00    -0.550 OA
ATOM      4  O   UNL     1       5.668 -36.410  21.394  1.00  0.00    -0.550 OA
ENDBRANCH   1   2
BRANCH   1   5
ATOM      5  C   UNL     1       3.057 -37.529  19.699  1.00  0.00     0.006 C 
BRANCH   5   6
ATOM      6  C   UNL     1       2.299 -37.824  18.400  1.00  0.00    -0.003 C 
ATOM      7  C   UNL     1       3.051 -37.286  17.187  1.00  0.00     0.004 C 
ENDBRANCH   5   6
ENDBRANCH   1   5
TORSDOF 3
ENDMDL
MODEL 8
REMARK VINA RESULT:    -2.898      2.455      3.865
REMARK INTER + INTRA:          -3.467
REMARK INTER:                  -3.422
REMARK INTRA:                  -0.045
REMARK UNBOUND:                -0.061
REMARK SMILES CCCCC(=O)[O-]
REMARK SMILES IDX 4 1 5 2 6 3 7 4 3 5 2 6 1 7
REMARK H PARENT
REMARK Flexibility Score: inf
ROOT
ATOM      1  C   UNL     1       3.108 -36.441  16.281  1.00  0.00     0.053 C 
ENDROOT
BRANCH   1   2
ATOM      2  C   UNL     1       3.144 -37.120  14.948  1.00  0.00     0.041 C 
ATOM      3  O   UNL     1       3.935 -38.077  14.745  1.00  0.00    -0.550 OA
ATOM      4  O   UNL     1       2.268 -36.726  13.943  1.00  0.00    -0.550 OA
ENDBRANCH   1   2
BRANCH   1   5
ATOM      5  C   UNL     1       3.215 -37.471  17.409  1.00  0.00     0.006 C 
BRANCH   5   6
ATOM      6  C   UNL     1       1.836 -37.782  18.001  1.00  0.00    -0.003 C 
ATOM      7  C   UNL     1       1.908 -37.938  19.517  1.00  0.00     0.004 C 
ENDBRANCH   5   6
ENDBRANCH   1   5
TORSDOF 3
ENDMDL
