MODEL 1
REMARK VINA RESULT:    -5.889      0.000      0.000
REMARK INTER + INTRA:          -7.803
REMARK INTER:                  -7.954
REMARK INTRA:                   0.151
REMARK UNBOUND:                 0.151
REMARK SMILES CC[C@H](CC[C@@H](C)[C@H]1CC[C@H]2[C@@H]3CC(=O)C4=CC(=O)CC[C@@]4(C)[C@H]3CC[C@]12C)C(C)C
REMARK SMILES IDX 4 1 3 2 2 3 1 4 29 5 30 6 31 7 5 8 6 9 7 10 8 11 9 12 27 13
REMARK SMILES IDX 10 14 11 15 26 16 28 17 12 18 25 19 24 20 13 21 22 22 14 23
REMARK SMILES IDX 16 24 21 25 23 26 15 27 17 28 20 29 18 30 19 31
REMARK H PARENT
REMARK Flexibility Score: inf
ROOT
ATOM      1  C   UNL     1     -22.028  15.014 -30.275  1.00  0.00     0.004 C 
ENDROOT
BRANCH   1   2
ATOM      2  C   UNL     1     -23.455  14.841 -30.873  1.00  0.00    -0.009 C 
BRANCH   2   3
ATOM      3  C   UNL     1     -24.368  13.970 -29.955  1.00  0.00     0.000 C 
ATOM      4  C   UNL     1     -25.701  13.516 -30.566  1.00  0.00     0.004 C 
ENDBRANCH   2   3
BRANCH   2   5
ATOM      5  C   UNL     1     -24.107  16.186 -31.346  1.00  0.00    -0.014 C 
ATOM      6  C   UNL     1     -25.184  16.683 -30.366  1.00  0.00     0.007 C 
ATOM      7  C   UNL     1     -23.100  17.307 -31.633  1.00  0.00     0.007 C 
ENDBRANCH   2   5
ENDBRANCH   1   2
BRANCH   1   8
ATOM      8  C   UNL     1     -21.030  13.860 -30.526  1.00  0.00     0.004 C 
BRANCH   8   9
ATOM      9  C   UNL     1     -20.774  12.892 -29.342  1.00  0.00    -0.011 C 
ATOM     10  C   UNL     1     -21.809  11.748 -29.397  1.00  0.00     0.008 C 
BRANCH   9  11
ATOM     11  C   UNL     1     -19.265  12.476 -29.156  1.00  0.00    -0.002 C 
ATOM     12  C   UNL     1     -19.000  10.977 -29.466  1.00  0.00     0.005 C 
ATOM     13  C   UNL     1     -18.092  13.240 -29.854  1.00  0.00    -0.026 C 
ATOM     14  C   UNL     1     -17.558  10.875 -29.979  1.00  0.00     0.005 C 
ATOM     15  C   UNL     1     -16.952  12.229 -29.639  1.00  0.00    -0.001 C 
ATOM     16  C   UNL     1     -17.641  14.551 -29.162  1.00  0.00     0.007 C 
ATOM     17  C   UNL     1     -18.394  13.497 -31.358  1.00  0.00     0.012 C 
ATOM     18  C   UNL     1     -15.611  12.623 -30.301  1.00  0.00     0.004 C 
ATOM     19  C   UNL     1     -16.320  15.074 -29.768  1.00  0.00     0.005 C 
ATOM     20  C   UNL     1     -15.164  14.020 -29.765  1.00  0.00     0.003 C 
ATOM     21  C   UNL     1     -14.532  11.578 -29.946  1.00  0.00     0.085 C 
ATOM     22  C   UNL     1     -13.813  14.534 -30.435  1.00  0.00    -0.000 C 
ATOM     23  C   UNL     1     -13.174  12.000 -30.405  1.00  0.00     0.159 C 
ATOM     24  C   UNL     1     -12.949  13.364 -30.930  1.00  0.00     0.005 C 
ATOM     25  C   UNL     1     -14.082  15.487 -31.643  1.00  0.00     0.020 C 
ATOM     26  C   UNL     1     -13.002  15.295 -29.354  1.00  0.00     0.017 C 
ATOM     27  O   UNL     1     -12.227  11.170 -30.356  1.00  0.00    -0.295 OA
ATOM     28  C   UNL     1     -11.993  13.549 -31.859  1.00  0.00     0.055 C 
ATOM     29  C   UNL     1     -12.800  15.953 -32.354  1.00  0.00     0.081 C 
ATOM     30  C   UNL     1     -11.838  14.826 -32.569  1.00  0.00     0.156 C 
ATOM     31  O   UNL     1     -10.877  14.977 -33.368  1.00  0.00    -0.295 OA
ENDBRANCH   9  11
ENDBRANCH   8   9
ENDBRANCH   1   8
TORSDOF 6
ENDMDL
MODEL 2
REMARK VINA RESULT:    -4.654      1.762      2.867
REMARK INTER + INTRA:          -6.135
REMARK INTER:                  -5.411
REMARK INTRA:                  -0.724
REMARK UNBOUND:                 0.151
REMARK SMILES CC[C@H](CC[C@@H](C)[C@H]1CC[C@H]2[C@@H]3CC(=O)C4=CC(=O)CC[C@@]4(C)[C@H]3CC[C@]12C)C(C)C
REMARK SMILES IDX 4 1 3 2 2 3 1 4 29 5 30 6 31 7 5 8 6 9 7 10 8 11 9 12 27 13
REMARK SMILES IDX 10 14 11 15 26 16 28 17 12 18 25 19 24 20 13 21 22 22 14 23
REMARK SMILES IDX 16 24 21 25 23 26 15 27 17 28 20 29 18 30 19 31
REMARK H PARENT
REMARK Flexibility Score: inf
ROOT
ATOM      1  C   UNL     1     -23.883  13.359 -29.727  1.00  0.00     0.004 C 
ENDROOT
BRANCH   1   2
ATOM      2  C   UNL     1     -24.828  14.279 -30.555  1.00  0.00    -0.009 C 
BRANCH   2   3
ATOM      3  C   UNL     1     -26.330  13.919 -30.335  1.00  0.00     0.000 C 
ATOM      4  C   UNL     1     -26.719  12.459 -30.602  1.00  0.00     0.004 C 
ENDBRANCH   2   3
BRANCH   2   5
ATOM      5  C   UNL     1     -24.500  15.806 -30.417  1.00  0.00    -0.014 C 
ATOM      6  C   UNL     1     -23.533  16.291 -31.513  1.00  0.00     0.007 C 
ATOM      7  C   UNL     1     -25.735  16.713 -30.366  1.00  0.00     0.007 C 
ENDBRANCH   2   5
ENDBRANCH   1   2
BRANCH   1   8
ATOM      8  C   UNL     1     -22.371  13.465 -30.036  1.00  0.00     0.004 C 
BRANCH   8   9
ATOM      9  C   UNL     1     -21.452  12.408 -29.372  1.00  0.00    -0.011 C 
ATOM     10  C   UNL     1     -22.233  11.083 -29.229  1.00  0.00     0.008 C 
BRANCH   9  11
ATOM     11  C   UNL     1     -20.008  12.316 -29.999  1.00  0.00    -0.002 C 
ATOM     12  C   UNL     1     -19.905  12.979 -31.400  1.00  0.00     0.005 C 
ATOM     13  C   UNL     1     -18.730  12.797 -29.236  1.00  0.00    -0.026 C 
ATOM     14  C   UNL     1     -18.466  13.488 -31.548  1.00  0.00     0.005 C 
ATOM     15  C   UNL     1     -17.722  12.824 -30.399  1.00  0.00    -0.001 C 
ATOM     16  C   UNL     1     -18.158  11.803 -28.194  1.00  0.00     0.007 C 
ATOM     17  C   UNL     1     -18.944  14.196 -28.591  1.00  0.00     0.012 C 
ATOM     18  C   UNL     1     -16.321  13.360 -30.021  1.00  0.00     0.004 C 
ATOM     19  C   UNL     1     -16.765  12.253 -27.704  1.00  0.00     0.005 C 
ATOM     20  C   UNL     1     -15.737  12.496 -28.858  1.00  0.00     0.003 C 
ATOM     21  C   UNL     1     -15.382  13.259 -31.242  1.00  0.00     0.085 C 
ATOM     22  C   UNL     1     -14.313  13.009 -28.364  1.00  0.00    -0.000 C 
ATOM     23  C   UNL     1     -13.969  13.591 -30.888  1.00  0.00     0.159 C 
ATOM     24  C   UNL     1     -13.570  13.766 -29.476  1.00  0.00     0.005 C 
ATOM     25  C   UNL     1     -14.425  13.951 -27.123  1.00  0.00     0.020 C 
ATOM     26  C   UNL     1     -13.461  11.769 -27.989  1.00  0.00     0.017 C 
ATOM     27  O   UNL     1     -13.126  13.737 -31.814  1.00  0.00    -0.295 OA
ATOM     28  C   UNL     1     -12.565  14.614 -29.189  1.00  0.00     0.055 C 
ATOM     29  C   UNL     1     -13.073  14.516 -26.657  1.00  0.00     0.081 C 
ATOM     30  C   UNL     1     -12.239  14.991 -27.807  1.00  0.00     0.156 C 
ATOM     31  O   UNL     1     -11.237  15.721 -27.585  1.00  0.00    -0.295 OA
ENDBRANCH   9  11
ENDBRANCH   8   9
ENDBRANCH   1   8
TORSDOF 6
ENDMDL
MODEL 3
REMARK VINA RESULT:    -4.561      2.002      3.242
REMARK INTER + INTRA:          -6.010
REMARK INTER:                  -4.918
REMARK INTRA:                  -1.092
REMARK UNBOUND:                 0.151
REMARK SMILES CC[C@H](CC[C@@H](C)[C@H]1CC[C@H]2[C@@H]3CC(=O)C4=CC(=O)CC[C@@]4(C)[C@H]3CC[C@]12C)C(C)C
REMARK SMILES IDX 4 1 3 2 2 3 1 4 29 5 30 6 31 7 5 8 6 9 7 10 8 11 9 12 27 13
REMARK SMILES IDX 10 14 11 15 26 16 28 17 12 18 25 19 24 20 13 21 22 22 14 23
REMARK SMILES IDX 16 24 21 25 23 26 15 27 17 28 20 29 18 30 19 31
REMARK H PARENT
REMARK Flexibility Score: inf
ROOT
ATOM      1  C   UNL     1     -23.888  12.866 -29.441  1.00  0.00     0.004 C 
ENDROOT
BRANCH   1   2
ATOM      2  C   UNL     1     -25.044  12.104 -30.153  1.00  0.00    -0.009 C 
BRANCH   2   3
ATOM      3  C   UNL     1     -25.563  10.906 -29.299  1.00  0.00     0.000 C 
ATOM      4  C   UNL     1     -25.400  11.042 -27.779  1.00  0.00     0.004 C 
ENDBRANCH   2   3
BRANCH   2   5
ATOM      5  C   UNL     1     -26.170  13.042 -30.707  1.00  0.00    -0.014 C 
ATOM      6  C   UNL     1     -27.571  12.426 -30.539  1.00  0.00     0.007 C 
ATOM      7  C   UNL     1     -26.148  14.463 -30.129  1.00  0.00     0.007 C 
ENDBRANCH   2   5
ENDBRANCH   1   2
BRANCH   1   8
ATOM      8  C   UNL     1     -22.484  12.744 -30.078  1.00  0.00     0.004 C 
BRANCH   8   9
ATOM      9  C   UNL     1     -21.357  12.185 -29.172  1.00  0.00    -0.011 C 
ATOM     10  C   UNL     1     -21.845  10.875 -28.516  1.00  0.00     0.008 C 
BRANCH   9  11
ATOM     11  C   UNL     1     -19.934  12.152 -29.850  1.00  0.00    -0.002 C 
ATOM     12  C   UNL     1     -19.905  12.829 -31.248  1.00  0.00     0.005 C 
ATOM     13  C   UNL     1     -18.649  12.673 -29.127  1.00  0.00    -0.026 C 
ATOM     14  C   UNL     1     -18.491  13.393 -31.441  1.00  0.00     0.005 C 
ATOM     15  C   UNL     1     -17.684  12.748 -30.324  1.00  0.00    -0.001 C 
ATOM     16  C   UNL     1     -18.004  11.694 -28.115  1.00  0.00     0.007 C 
ATOM     17  C   UNL     1     -18.891  14.059 -28.462  1.00  0.00     0.012 C 
ATOM     18  C   UNL     1     -16.290  13.332 -29.990  1.00  0.00     0.004 C 
ATOM     19  C   UNL     1     -16.612  12.191 -27.669  1.00  0.00     0.005 C 
ATOM     20  C   UNL     1     -15.635  12.481 -28.856  1.00  0.00     0.003 C 
ATOM     21  C   UNL     1     -15.392  13.276 -31.244  1.00  0.00     0.085 C 
ATOM     22  C   UNL     1     -14.214  13.042 -28.407  1.00  0.00    -0.000 C 
ATOM     23  C   UNL     1     -13.980  13.657 -30.936  1.00  0.00     0.159 C 
ATOM     24  C   UNL     1     -13.539  13.836 -29.537  1.00  0.00     0.005 C 
ATOM     25  C   UNL     1     -14.317  13.970 -27.154  1.00  0.00     0.020 C 
ATOM     26  C   UNL     1     -13.304  11.832 -28.073  1.00  0.00     0.017 C 
ATOM     27  O   UNL     1     -13.176  13.842 -31.889  1.00  0.00    -0.295 OA
ATOM     28  C   UNL     1     -12.556  14.719 -29.278  1.00  0.00     0.055 C 
ATOM     29  C   UNL     1     -12.971  14.581 -26.730  1.00  0.00     0.081 C 
ATOM     30  C   UNL     1     -12.196  15.096 -27.904  1.00  0.00     0.156 C 
ATOM     31  O   UNL     1     -11.215  15.861 -27.710  1.00  0.00    -0.295 OA
ENDBRANCH   9  11
ENDBRANCH   8   9
ENDBRANCH   1   8
TORSDOF 6
ENDMDL
MODEL 4
REMARK VINA RESULT:    -4.450      3.340      8.486
REMARK INTER + INTRA:          -5.860
REMARK INTER:                  -4.914
REMARK INTRA:                  -0.946
REMARK UNBOUND:                 0.151
REMARK SMILES CC[C@H](CC[C@@H](C)[C@H]1CC[C@H]2[C@@H]3CC(=O)C4=CC(=O)CC[C@@]4(C)[C@H]3CC[C@]12C)C(C)C
REMARK SMILES IDX 4 1 3 2 2 3 1 4 29 5 30 6 31 7 5 8 6 9 7 10 8 11 9 12 27 13
REMARK SMILES IDX 10 14 11 15 26 16 28 17 12 18 25 19 24 20 13 21 22 22 14 23
REMARK SMILES IDX 16 24 21 25 23 26 15 27 17 28 20 29 18 30 19 31
REMARK H PARENT
REMARK Flexibility Score: inf
ROOT
ATOM      1  C   UNL     1     -11.715  15.836 -31.594  1.00  0.00     0.004 C 
ENDROOT
BRANCH   1   2
ATOM      2  C   UNL     1     -11.167  16.170 -33.013  1.00  0.00    -0.009 C 
BRANCH   2   3
ATOM      3  C   UNL     1     -11.010  14.890 -33.891  1.00  0.00     0.000 C 
ATOM      4  C   UNL     1     -12.278  14.049 -34.089  1.00  0.00     0.004 C 
ENDBRANCH   2   3
BRANCH   2   5
ATOM      5  C   UNL     1     -11.919  17.352 -33.717  1.00  0.00    -0.014 C 
ATOM      6  C   UNL     1     -13.115  17.851 -32.887  1.00  0.00     0.007 C 
ATOM      7  C   UNL     1     -11.018  18.531 -34.103  1.00  0.00     0.007 C 
ENDBRANCH   2   5
ENDBRANCH   1   2
BRANCH   1   8
ATOM      8  C   UNL     1     -10.988  14.712 -30.820  1.00  0.00     0.004 C 
BRANCH   8   9
ATOM      9  C   UNL     1     -11.269  14.623 -29.298  1.00  0.00    -0.011 C 
ATOM     10  C   UNL     1     -11.350  16.053 -28.720  1.00  0.00     0.008 C 
BRANCH   9  11
ATOM     11  C   UNL     1     -12.431  13.633 -28.907  1.00  0.00    -0.002 C 
ATOM     12  C   UNL     1     -12.617  13.482 -27.372  1.00  0.00     0.005 C 
ATOM     13  C   UNL     1     -13.882  13.778 -29.472  1.00  0.00    -0.026 C 
ATOM     14  C   UNL     1     -14.100  13.173 -27.130  1.00  0.00     0.005 C 
ATOM     15  C   UNL     1     -14.634  12.836 -28.514  1.00  0.00    -0.001 C 
ATOM     16  C   UNL     1     -14.107  13.212 -30.896  1.00  0.00     0.007 C 
ATOM     17  C   UNL     1     -14.383  15.248 -29.387  1.00  0.00     0.012 C 
ATOM     18  C   UNL     1     -16.167  12.798 -28.724  1.00  0.00     0.004 C 
ATOM     19  C   UNL     1     -15.610  13.161 -31.244  1.00  0.00     0.005 C 
ATOM     20  C   UNL     1     -16.474  12.382 -30.198  1.00  0.00     0.003 C 
ATOM     21  C   UNL     1     -16.793  11.761 -27.767  1.00  0.00     0.085 C 
ATOM     22  C   UNL     1     -18.033  12.367 -30.522  1.00  0.00    -0.000 C 
ATOM     23  C   UNL     1     -18.245  11.548 -28.049  1.00  0.00     0.159 C 
ATOM     24  C   UNL     1     -18.870  12.134 -29.254  1.00  0.00     0.005 C 
ATOM     25  C   UNL     1     -18.509  13.701 -31.181  1.00  0.00     0.020 C 
ATOM     26  C   UNL     1     -18.310  11.190 -31.492  1.00  0.00     0.017 C 
ATOM     27  O   UNL     1     -18.934  10.877 -27.234  1.00  0.00    -0.295 OA
ATOM     28  C   UNL     1     -20.171  12.475 -29.206  1.00  0.00     0.055 C 
ATOM     29  C   UNL     1     -20.022  13.747 -31.451  1.00  0.00     0.081 C 
ATOM     30  C   UNL     1     -20.813  13.237 -30.286  1.00  0.00     0.156 C 
ATOM     31  O   UNL     1     -22.052  13.459 -30.235  1.00  0.00    -0.295 OA
ENDBRANCH   9  11
ENDBRANCH   8   9
ENDBRANCH   1   8
TORSDOF 6
ENDMDL
MODEL 5
REMARK VINA RESULT:    -3.442      1.746      2.813
REMARK INTER + INTRA:          -4.498
REMARK INTER:                  -3.507
REMARK INTRA:                  -0.991
REMARK UNBOUND:                 0.151
REMARK SMILES CC[C@H](CC[C@@H](C)[C@H]1CC[C@H]2[C@@H]3CC(=O)C4=CC(=O)CC[C@@]4(C)[C@H]3CC[C@]12C)C(C)C
REMARK SMILES IDX 4 1 3 2 2 3 1 4 29 5 30 6 31 7 5 8 6 9 7 10 8 11 9 12 27 13
REMARK SMILES IDX 10 14 11 15 26 16 28 17 12 18 25 19 24 20 13 21 22 22 14 23
REMARK SMILES IDX 16 24 21 25 23 26 15 27 17 28 20 29 18 30 19 31
REMARK H PARENT
REMARK Flexibility Score: inf
ROOT
ATOM      1  C   UNL     1     -24.095  11.908 -30.520  1.00  0.00     0.004 C 
ENDROOT
BRANCH   1   2
ATOM      2  C   UNL     1     -25.444  11.409 -29.924  1.00  0.00    -0.009 C 
BRANCH   2   3
ATOM      3  C   UNL     1     -25.373  11.257 -28.373  1.00  0.00     0.000 C 
ATOM      4  C   UNL     1     -26.719  11.171 -27.640  1.00  0.00     0.004 C 
ENDBRANCH   2   3
BRANCH   2   5
ATOM      5  C   UNL     1     -26.693  12.203 -30.440  1.00  0.00    -0.014 C 
ATOM      6  C   UNL     1     -26.464  13.725 -30.409  1.00  0.00     0.007 C 
ATOM      7  C   UNL     1     -27.183  11.774 -31.829  1.00  0.00     0.007 C 
ENDBRANCH   2   5
ENDBRANCH   1   2
BRANCH   1   8
ATOM      8  C   UNL     1     -22.886  11.943 -29.557  1.00  0.00     0.004 C 
BRANCH   8   9
ATOM      9  C   UNL     1     -21.700  12.855 -29.965  1.00  0.00    -0.011 C 
ATOM     10  C   UNL     1     -22.207  14.307 -30.100  1.00  0.00     0.008 C 
BRANCH   9  11
ATOM     11  C   UNL     1     -20.389  12.637 -29.117  1.00  0.00    -0.002 C 
ATOM     12  C   UNL     1     -20.304  11.225 -28.473  1.00  0.00     0.005 C 
ATOM     13  C   UNL     1     -18.961  12.896 -29.698  1.00  0.00    -0.026 C 
ATOM     14  C   UNL     1     -18.815  10.875 -28.360  1.00  0.00     0.005 C 
ATOM     15  C   UNL     1     -18.107  12.195 -28.626  1.00  0.00    -0.001 C 
ATOM     16  C   UNL     1     -18.502  14.376 -29.715  1.00  0.00     0.007 C 
ATOM     17  C   UNL     1     -18.795  12.261 -31.109  1.00  0.00     0.012 C 
ATOM     18  C   UNL     1     -16.590  12.171 -28.928  1.00  0.00     0.004 C 
ATOM     19  C   UNL     1     -16.999  14.489 -30.048  1.00  0.00     0.005 C 
ATOM     20  C   UNL     1     -16.079  13.635 -29.114  1.00  0.00     0.003 C 
ATOM     21  C   UNL     1     -15.838  11.521 -27.748  1.00  0.00     0.085 C 
ATOM     22  C   UNL     1     -14.531  13.706 -29.483  1.00  0.00    -0.000 C 
ATOM     23  C   UNL     1     -14.355  11.633 -27.901  1.00  0.00     0.159 C 
ATOM     24  C   UNL     1     -13.773  12.472 -28.969  1.00  0.00     0.005 C 
ATOM     25  C   UNL     1     -14.298  13.814 -31.024  1.00  0.00     0.020 C 
ATOM     26  C   UNL     1     -13.929  14.953 -28.786  1.00  0.00     0.017 C 
ATOM     27  O   UNL     1     -13.610  10.987 -27.116  1.00  0.00    -0.295 OA
ATOM     28  C   UNL     1     -12.583  12.119 -29.491  1.00  0.00     0.055 C 
ATOM     29  C   UNL     1     -12.813  13.821 -31.422  1.00  0.00     0.081 C 
ATOM     30  C   UNL     1     -12.031  12.781 -30.681  1.00  0.00     0.156 C 
ATOM     31  O   UNL     1     -10.878  12.473 -31.081  1.00  0.00    -0.295 OA
ENDBRANCH   9  11
ENDBRANCH   8   9
ENDBRANCH   1   8
TORSDOF 6
ENDMDL
MODEL 6
REMARK VINA RESULT:    -2.919      3.253      8.650
REMARK INTER + INTRA:          -3.791
REMARK INTER:                  -3.113
REMARK INTRA:                  -0.678
REMARK UNBOUND:                 0.151
REMARK SMILES CC[C@H](CC[C@@H](C)[C@H]1CC[C@H]2[C@@H]3CC(=O)C4=CC(=O)CC[C@@]4(C)[C@H]3CC[C@]12C)C(C)C
REMARK SMILES IDX 4 1 3 2 2 3 1 4 29 5 30 6 31 7 5 8 6 9 7 10 8 11 9 12 27 13
REMARK SMILES IDX 10 14 11 15 26 16 28 17 12 18 25 19 24 20 13 21 22 22 14 23
REMARK SMILES IDX 16 24 21 25 23 26 15 27 17 28 20 29 18 30 19 31
REMARK H PARENT
REMARK Flexibility Score: inf
ROOT
ATOM      1  C   UNL     1     -10.959  15.327 -33.345  1.00  0.00     0.004 C 
ENDROOT
BRANCH   1   2
ATOM      2  C   UNL     1     -11.005  13.778 -33.193  1.00  0.00    -0.009 C 
BRANCH   2   3
ATOM      3  C   UNL     1     -10.915  13.338 -31.699  1.00  0.00     0.000 C 
ATOM      4  C   UNL     1     -10.990  11.828 -31.436  1.00  0.00     0.004 C 
ENDBRANCH   2   3
BRANCH   2   5
ATOM      5  C   UNL     1     -12.166  13.101 -34.000  1.00  0.00    -0.014 C 
ATOM      6  C   UNL     1     -13.220  14.122 -34.464  1.00  0.00     0.007 C 
ATOM      7  C   UNL     1     -11.696  12.253 -35.188  1.00  0.00     0.007 C 
ENDBRANCH   2   5
ENDBRANCH   1   2
BRANCH   1   8
ATOM      8  C   UNL     1     -10.994  16.151 -32.037  1.00  0.00     0.004 C 
BRANCH   8   9
ATOM      9  C   UNL     1     -12.392  16.415 -31.420  1.00  0.00    -0.011 C 
ATOM     10  C   UNL     1     -13.287  17.092 -32.481  1.00  0.00     0.008 C 
BRANCH   9  11
ATOM     11  C   UNL     1     -13.008  15.184 -30.653  1.00  0.00    -0.002 C 
ATOM     12  C   UNL     1     -12.645  15.159 -29.142  1.00  0.00     0.005 C 
ATOM     13  C   UNL     1     -14.534  14.844 -30.702  1.00  0.00    -0.026 C 
ATOM     14  C   UNL     1     -13.807  14.469 -28.416  1.00  0.00     0.005 C 
ATOM     15  C   UNL     1     -14.619  13.840 -29.538  1.00  0.00    -0.001 C 
ATOM     16  C   UNL     1     -15.011  14.082 -31.963  1.00  0.00     0.007 C 
ATOM     17  C   UNL     1     -15.409  16.110 -30.470  1.00  0.00     0.012 C 
ATOM     18  C   UNL     1     -16.050  13.342 -29.223  1.00  0.00     0.004 C 
ATOM     19  C   UNL     1     -16.455  13.564 -31.788  1.00  0.00     0.005 C 
ATOM     20  C   UNL     1     -16.662  12.693 -30.505  1.00  0.00     0.003 C 
ATOM     21  C   UNL     1     -15.993  12.284 -28.101  1.00  0.00     0.085 C 
ATOM     22  C   UNL     1     -18.160  12.197 -30.289  1.00  0.00    -0.000 C 
ATOM     23  C   UNL     1     -17.321  11.634 -27.879  1.00  0.00     0.159 C 
ATOM     24  C   UNL     1     -18.440  11.878 -28.812  1.00  0.00     0.005 C 
ATOM     25  C   UNL     1     -19.205  13.256 -30.766  1.00  0.00     0.020 C 
ATOM     26  C   UNL     1     -18.353  10.889 -31.098  1.00  0.00     0.017 C 
ATOM     27  O   UNL     1     -17.476  10.890 -26.873  1.00  0.00    -0.295 OA
ATOM     28  C   UNL     1     -19.699  11.836 -28.335  1.00  0.00     0.055 C 
ATOM     29  C   UNL     1     -20.663  12.837 -30.514  1.00  0.00     0.081 C 
ATOM     30  C   UNL     1     -20.850  12.256 -29.147  1.00  0.00     0.156 C 
ATOM     31  O   UNL     1     -22.014  12.119 -28.687  1.00  0.00    -0.295 OA
ENDBRANCH   9  11
ENDBRANCH   8   9
ENDBRANCH   1   8
TORSDOF 6
ENDMDL
