MODEL 1
REMARK VINA RESULT:    -4.423      0.000      0.000
REMARK INTER + INTRA:          -4.705
REMARK INTER:                  -4.681
REMARK INTRA:                  -0.023
REMARK UNBOUND:                -0.023
REMARK SMILES O=C([O-])c1cccnc1
REMARK SMILES IDX 4 1 5 2 9 3 6 4 8 5 7 6 2 7 1 8 3 9
REMARK H PARENT
REMARK Flexibility Score: inf
ROOT
ATOM      1  C   UNL     1      54.348   2.248  -9.956  1.00  0.00     0.016 A 
ATOM      2  C   UNL     1      54.094   2.077  -8.586  1.00  0.00     0.013 A 
ATOM      3  C   UNL     1      54.661   3.538 -10.422  1.00  0.00     0.120 A 
ATOM      4  C   UNL     1      54.153   3.170  -7.720  1.00  0.00     0.021 A 
ATOM      5  N   UNL     1      54.713   4.586  -9.557  1.00  0.00    -0.264 NA
ATOM      6  C   UNL     1      54.467   4.430  -8.229  1.00  0.00     0.111 A 
ENDROOT
BRANCH   1   7
ATOM      7  C   UNL     1      54.288   1.098 -10.884  1.00  0.00     0.073 C 
ATOM      8  O   UNL     1      54.795   1.175 -12.035  1.00  0.00    -0.545 OA
ATOM      9  O   UNL     1      53.670  -0.085 -10.498  1.00  0.00    -0.545 OA
ENDBRANCH   1   7
TORSDOF 1
ENDMDL
MODEL 2
REMARK VINA RESULT:    -4.399      3.001      3.451
REMARK INTER + INTRA:          -4.679
REMARK INTER:                  -4.655
REMARK INTRA:                  -0.024
REMARK UNBOUND:                -0.023
REMARK SMILES O=C([O-])c1cccnc1
REMARK SMILES IDX 4 1 5 2 9 3 6 4 8 5 7 6 2 7 1 8 3 9
REMARK H PARENT
REMARK Flexibility Score: inf
ROOT
ATOM      1  C   UNL     1      53.053   3.839 -10.172  1.00  0.00     0.016 A 
ATOM      2  C   UNL     1      53.303   3.421  -8.855  1.00  0.00     0.013 A 
ATOM      3  C   UNL     1      53.954   3.449 -11.180  1.00  0.00     0.120 A 
ATOM      4  C   UNL     1      54.423   2.638  -8.569  1.00  0.00     0.021 A 
ATOM      5  N   UNL     1      55.036   2.685 -10.874  1.00  0.00    -0.264 NA
ATOM      6  C   UNL     1      55.288   2.276  -9.602  1.00  0.00     0.111 A 
ENDROOT
BRANCH   1   7
ATOM      7  C   UNL     1      51.871   4.670 -10.488  1.00  0.00     0.073 C 
ATOM      8  O   UNL     1      51.124   5.096  -9.568  1.00  0.00    -0.545 OA
ATOM      9  O   UNL     1      51.570   4.993 -11.806  1.00  0.00    -0.545 OA
ENDBRANCH   1   7
TORSDOF 1
ENDMDL
MODEL 3
REMARK VINA RESULT:    -4.333      2.933      3.662
REMARK INTER + INTRA:          -4.610
REMARK INTER:                  -4.594
REMARK INTRA:                  -0.016
REMARK UNBOUND:                -0.023
REMARK SMILES O=C([O-])c1cccnc1
REMARK SMILES IDX 4 1 5 2 9 3 6 4 8 5 7 6 2 7 1 8 3 9
REMARK H PARENT
REMARK Flexibility Score: inf
ROOT
ATOM      1  C   UNL     1      54.196   2.763  -8.079  1.00  0.00     0.016 A 
ATOM      2  C   UNL     1      54.508   4.083  -8.439  1.00  0.00     0.013 A 
ATOM      3  C   UNL     1      54.125   1.792  -9.093  1.00  0.00     0.120 A 
ATOM      4  C   UNL     1      54.738   4.409  -9.777  1.00  0.00     0.021 A 
ATOM      5  N   UNL     1      54.354   2.135 -10.389  1.00  0.00    -0.264 NA
ATOM      6  C   UNL     1      54.655   3.411 -10.749  1.00  0.00     0.111 A 
ENDROOT
BRANCH   1   7
ATOM      7  C   UNL     1      53.949   2.405  -6.665  1.00  0.00     0.073 C 
ATOM      8  O   UNL     1      52.793   2.498  -6.173  1.00  0.00    -0.545 OA
ATOM      9  O   UNL     1      54.991   1.961  -5.859  1.00  0.00    -0.545 OA
ENDBRANCH   1   7
TORSDOF 1
ENDMDL
MODEL 4
REMARK VINA RESULT:    -4.299      2.723      3.513
REMARK INTER + INTRA:          -4.573
REMARK INTER:                  -4.557
REMARK INTRA:                  -0.016
REMARK UNBOUND:                -0.023
REMARK SMILES O=C([O-])c1cccnc1
REMARK SMILES IDX 4 1 5 2 9 3 6 4 8 5 7 6 2 7 1 8 3 9
REMARK H PARENT
REMARK Flexibility Score: inf
ROOT
ATOM      1  C   UNL     1      54.236   2.780  -8.139  1.00  0.00     0.016 A 
ATOM      2  C   UNL     1      54.150   1.782  -9.123  1.00  0.00     0.013 A 
ATOM      3  C   UNL     1      54.481   4.102  -8.547  1.00  0.00     0.120 A 
ATOM      4  C   UNL     1      54.306   2.111 -10.470  1.00  0.00     0.021 A 
ATOM      5  N   UNL     1      54.628   4.397  -9.867  1.00  0.00    -0.264 NA
ATOM      6  C   UNL     1      54.547   3.438 -10.827  1.00  0.00     0.111 A 
ENDROOT
BRANCH   1   7
ATOM      7  C   UNL     1      54.074   2.443  -6.707  1.00  0.00     0.073 C 
ATOM      8  O   UNL     1      52.938   2.482  -6.165  1.00  0.00    -0.545 OA
ATOM      9  O   UNL     1      55.174   2.078  -5.942  1.00  0.00    -0.545 OA
ENDBRANCH   1   7
TORSDOF 1
ENDMDL
MODEL 5
REMARK VINA RESULT:    -4.209      2.715      3.576
REMARK INTER + INTRA:          -4.478
REMARK INTER:                  -4.462
REMARK INTRA:                  -0.016
REMARK UNBOUND:                -0.023
REMARK SMILES O=C([O-])c1cccnc1
REMARK SMILES IDX 4 1 5 2 9 3 6 4 8 5 7 6 2 7 1 8 3 9
REMARK H PARENT
REMARK Flexibility Score: inf
ROOT
ATOM      1  C   UNL     1      54.224   3.457  -9.949  1.00  0.00     0.016 A 
ATOM      2  C   UNL     1      55.276   4.386  -9.983  1.00  0.00     0.013 A 
ATOM      3  C   UNL     1      54.305   2.325 -10.779  1.00  0.00     0.120 A 
ATOM      4  C   UNL     1      56.369   4.177 -10.825  1.00  0.00     0.021 A 
ATOM      5  N   UNL     1      55.382   2.144 -11.590  1.00  0.00    -0.264 NA
ATOM      6  C   UNL     1      56.405   3.038 -11.630  1.00  0.00     0.111 A 
ENDROOT
BRANCH   1   7
ATOM      7  C   UNL     1      53.060   3.668  -9.061  1.00  0.00     0.073 C 
ATOM      8  O   UNL     1      53.023   3.143  -7.917  1.00  0.00    -0.545 OA
ATOM      9  O   UNL     1      51.990   4.452  -9.479  1.00  0.00    -0.545 OA
ENDBRANCH   1   7
TORSDOF 1
ENDMDL
MODEL 6
REMARK VINA RESULT:    -4.203      1.838      2.202
REMARK INTER + INTRA:          -4.472
REMARK INTER:                  -4.450
REMARK INTRA:                  -0.021
REMARK UNBOUND:                -0.023
REMARK SMILES O=C([O-])c1cccnc1
REMARK SMILES IDX 4 1 5 2 9 3 6 4 8 5 7 6 2 7 1 8 3 9
REMARK H PARENT
REMARK Flexibility Score: inf
ROOT
ATOM      1  C   UNL     1      54.615   3.384 -10.729  1.00  0.00     0.016 A 
ATOM      2  C   UNL     1      54.962   4.106  -9.576  1.00  0.00     0.013 A 
ATOM      3  C   UNL     1      53.325   3.552 -11.262  1.00  0.00     0.120 A 
ATOM      4  C   UNL     1      54.036   4.968  -8.985  1.00  0.00     0.021 A 
ATOM      5  N   UNL     1      52.442   4.399 -10.666  1.00  0.00    -0.264 NA
ATOM      6  C   UNL     1      52.768   5.103  -9.550  1.00  0.00     0.111 A 
ENDROOT
BRANCH   1   7
ATOM      7  C   UNL     1      55.587   2.467 -11.364  1.00  0.00     0.073 C 
ATOM      8  O   UNL     1      56.816   2.742 -11.374  1.00  0.00    -0.545 OA
ATOM      9  O   UNL     1      55.156   1.287 -11.959  1.00  0.00    -0.545 OA
ENDBRANCH   1   7
TORSDOF 1
ENDMDL
MODEL 7
REMARK VINA RESULT:    -4.160      1.692      2.456
REMARK INTER + INTRA:          -4.426
REMARK INTER:                  -4.404
REMARK INTRA:                  -0.021
REMARK UNBOUND:                -0.023
REMARK SMILES O=C([O-])c1cccnc1
REMARK SMILES IDX 4 1 5 2 9 3 6 4 8 5 7 6 2 7 1 8 3 9
REMARK H PARENT
REMARK Flexibility Score: inf
ROOT
ATOM      1  C   UNL     1      54.484   3.419 -10.731  1.00  0.00     0.016 A 
ATOM      2  C   UNL     1      53.173   3.610 -11.196  1.00  0.00     0.013 A 
ATOM      3  C   UNL     1      54.897   4.125  -9.588  1.00  0.00     0.120 A 
ATOM      4  C   UNL     1      52.313   4.484 -10.530  1.00  0.00     0.021 A 
ATOM      5  N   UNL     1      54.039   4.970  -8.956  1.00  0.00    -0.264 NA
ATOM      6  C   UNL     1      52.768   5.163  -9.399  1.00  0.00     0.111 A 
ENDROOT
BRANCH   1   7
ATOM      7  C   UNL     1      55.405   2.496 -11.430  1.00  0.00     0.073 C 
ATOM      8  O   UNL     1      54.973   1.439 -11.960  1.00  0.00    -0.545 OA
ATOM      9  O   UNL     1      56.762   2.785 -11.512  1.00  0.00    -0.545 OA
ENDBRANCH   1   7
TORSDOF 1
ENDMDL
MODEL 8
REMARK VINA RESULT:    -4.157      2.132      2.759
REMARK INTER + INTRA:          -4.423
REMARK INTER:                  -4.406
REMARK INTRA:                  -0.016
REMARK UNBOUND:                -0.023
REMARK SMILES O=C([O-])c1cccnc1
REMARK SMILES IDX 4 1 5 2 9 3 6 4 8 5 7 6 2 7 1 8 3 9
REMARK H PARENT
REMARK Flexibility Score: inf
ROOT
ATOM      1  C   UNL     1      54.034   3.645  -9.196  1.00  0.00     0.016 A 
ATOM      2  C   UNL     1      54.535   4.775  -8.531  1.00  0.00     0.013 A 
ATOM      3  C   UNL     1      53.817   2.472  -8.451  1.00  0.00     0.120 A 
ATOM      4  C   UNL     1      54.807   4.720  -7.163  1.00  0.00     0.021 A 
ATOM      5  N   UNL     1      54.091   2.445  -7.119  1.00  0.00    -0.264 NA
ATOM      6  C   UNL     1      54.577   3.533  -6.466  1.00  0.00     0.111 A 
ENDROOT
BRANCH   1   7
ATOM      7  C   UNL     1      53.742   3.690 -10.645  1.00  0.00     0.073 C 
ATOM      8  O   UNL     1      52.638   4.131 -11.063  1.00  0.00    -0.545 OA
ATOM      9  O   UNL     1      54.684   3.248 -11.566  1.00  0.00    -0.545 OA
ENDBRANCH   1   7
TORSDOF 1
ENDMDL
MODEL 9
REMARK VINA RESULT:    -4.115      2.711      3.707
REMARK INTER + INTRA:          -4.379
REMARK INTER:                  -4.355
REMARK INTRA:                  -0.024
REMARK UNBOUND:                -0.023
REMARK SMILES O=C([O-])c1cccnc1
REMARK SMILES IDX 4 1 5 2 9 3 6 4 8 5 7 6 2 7 1 8 3 9
REMARK H PARENT
REMARK Flexibility Score: inf
ROOT
ATOM      1  C   UNL     1      54.604   3.046  -9.429  1.00  0.00     0.016 A 
ATOM      2  C   UNL     1      54.038   1.763  -9.492  1.00  0.00     0.013 A 
ATOM      3  C   UNL     1      55.303   3.525 -10.551  1.00  0.00     0.120 A 
ATOM      4  C   UNL     1      54.175   0.993 -10.648  1.00  0.00     0.021 A 
ATOM      5  N   UNL     1      55.422   2.755 -11.665  1.00  0.00    -0.264 NA
ATOM      6  C   UNL     1      54.878   1.511 -11.737  1.00  0.00     0.111 A 
ENDROOT
BRANCH   1   7
ATOM      7  C   UNL     1      54.467   3.871  -8.208  1.00  0.00     0.073 C 
ATOM      8  O   UNL     1      54.109   3.349  -7.119  1.00  0.00    -0.545 OA
ATOM      9  O   UNL     1      54.732   5.235  -8.247  1.00  0.00    -0.545 OA
ENDBRANCH   1   7
TORSDOF 1
ENDMDL
