MODEL 1
REMARK VINA RESULT:    -2.503      0.000      0.000
REMARK INTER + INTRA:          -3.266
REMARK INTER:                  -3.161
REMARK INTRA:                  -0.104
REMARK UNBOUND:                -0.104
REMARK SMILES CCCCCCO
REMARK SMILES IDX 4 1 3 2 2 3 1 4 5 5 6 6 7 7
REMARK H PARENT 7 8
REMARK Flexibility Score: inf
ROOT
ATOM      1  C   UNL     1     114.544 101.701 108.758  1.00  0.00     0.002 C 
ENDROOT
BRANCH   1   2
ATOM      2  C   UNL     1     115.984 101.701 109.322  1.00  0.00    -0.000 C 
BRANCH   2   3
ATOM      3  C   UNL     1     117.066 101.562 108.237  1.00  0.00    -0.003 C 
ATOM      4  C   UNL     1     118.302 100.810 108.724  1.00  0.00     0.004 C 
ENDBRANCH   2   3
ENDBRANCH   1   2
BRANCH   1   5
ATOM      5  C   UNL     1     113.770 102.995 109.071  1.00  0.00     0.028 C 
BRANCH   5   6
ATOM      6  C   UNL     1     113.887 104.044 107.960  1.00  0.00     0.156 C 
BRANCH   6   7
ATOM      7  O   UNL     1     113.941 103.416 106.708  1.00  0.00    -0.396 OA
ATOM      8  H   UNL     1     113.801 102.448 106.879  1.00  0.00     0.210 HD
ENDBRANCH   6   7
ENDBRANCH   5   6
ENDBRANCH   1   5
TORSDOF 5
ENDMDL
MODEL 2
REMARK VINA RESULT:    -2.480     16.764     19.223
REMARK INTER + INTRA:          -3.237
REMARK INTER:                  -3.127
REMARK INTRA:                  -0.110
REMARK UNBOUND:                -0.104
REMARK SMILES CCCCCCO
REMARK SMILES IDX 4 1 3 2 2 3 1 4 5 5 6 6 7 7
REMARK H PARENT 7 8
REMARK Flexibility Score: inf
ROOT
ATOM      1  C   UNL     1     105.510 118.449 108.680  1.00  0.00     0.002 C 
ENDROOT
BRANCH   1   2
ATOM      2  C   UNL     1     104.069 118.530 109.234  1.00  0.00    -0.000 C 
BRANCH   2   3
ATOM      3  C   UNL     1     102.988 118.489 108.139  1.00  0.00    -0.003 C 
ATOM      4  C   UNL     1     101.715 119.233 108.534  1.00  0.00     0.004 C 
ENDBRANCH   2   3
ENDBRANCH   1   2
BRANCH   1   5
ATOM      5  C   UNL     1     106.238 117.148 109.068  1.00  0.00     0.028 C 
BRANCH   5   6
ATOM      6  C   UNL     1     106.260 116.116 107.936  1.00  0.00     0.156 C 
BRANCH   6   7
ATOM      7  O   UNL     1     106.128 116.757 106.697  1.00  0.00    -0.396 OA
ATOM      8  H   UNL     1     105.259 116.457 106.322  1.00  0.00     0.210 HD
ENDBRANCH   6   7
ENDBRANCH   5   6
ENDBRANCH   1   5
TORSDOF 5
ENDMDL
MODEL 3
REMARK VINA RESULT:    -2.441     12.249     13.719
REMARK INTER + INTRA:          -3.187
REMARK INTER:                  -3.018
REMARK INTRA:                  -0.169
REMARK UNBOUND:                -0.104
REMARK SMILES CCCCCCO
REMARK SMILES IDX 4 1 3 2 2 3 1 4 5 5 6 6 7 7
REMARK H PARENT 7 8
REMARK Flexibility Score: inf
ROOT
ATOM      1  C   UNL     1     118.505 114.880 108.436  1.00  0.00     0.002 C 
ENDROOT
BRANCH   1   2
ATOM      2  C   UNL     1     118.698 116.313 108.982  1.00  0.00    -0.000 C 
BRANCH   2   3
ATOM      3  C   UNL     1     118.256 117.409 107.997  1.00  0.00    -0.003 C 
ATOM      4  C   UNL     1     116.882 117.987 108.329  1.00  0.00     0.004 C 
ENDBRANCH   2   3
ENDBRANCH   1   2
BRANCH   1   5
ATOM      5  C   UNL     1     117.289 114.156 109.046  1.00  0.00     0.028 C 
BRANCH   5   6
ATOM      6  C   UNL     1     116.182 113.882 108.023  1.00  0.00     0.156 C 
BRANCH   6   7
ATOM      7  O   UNL     1     116.705 113.929 106.723  1.00  0.00    -0.396 OA
ATOM      8  H   UNL     1     116.512 114.841 106.382  1.00  0.00     0.210 HD
ENDBRANCH   6   7
ENDBRANCH   5   6
ENDBRANCH   1   5
TORSDOF 5
ENDMDL
MODEL 4
REMARK VINA RESULT:    -2.431      1.744      2.612
REMARK INTER + INTRA:          -3.175
REMARK INTER:                  -3.105
REMARK INTRA:                  -0.071
REMARK UNBOUND:                -0.104
REMARK SMILES CCCCCCO
REMARK SMILES IDX 4 1 3 2 2 3 1 4 5 5 6 6 7 7
REMARK H PARENT 7 8
REMARK Flexibility Score: inf
ROOT
ATOM      1  C   UNL     1     113.813 103.985 107.915  1.00  0.00     0.002 C 
ENDROOT
BRANCH   1   2
ATOM      2  C   UNL     1     113.972 102.896 109.001  1.00  0.00    -0.000 C 
BRANCH   2   3
ATOM      3  C   UNL     1     114.725 101.648 108.511  1.00  0.00    -0.003 C 
ATOM      4  C   UNL     1     116.228 101.720 108.773  1.00  0.00     0.004 C 
ENDBRANCH   2   3
ENDBRANCH   1   2
BRANCH   1   5
ATOM      5  C   UNL     1     114.183 105.396 108.411  1.00  0.00     0.028 C 
BRANCH   5   6
ATOM      6  C   UNL     1     113.537 106.509 107.580  1.00  0.00     0.156 C 
BRANCH   6   7
ATOM      7  O   UNL     1     114.391 106.889 106.536  1.00  0.00    -0.396 OA
ATOM      8  H   UNL     1     113.821 106.962 105.726  1.00  0.00     0.210 HD
ENDBRANCH   6   7
ENDBRANCH   5   6
ENDBRANCH   1   5
TORSDOF 5
ENDMDL
MODEL 5
REMARK VINA RESULT:    -2.417     12.313     13.482
REMARK INTER + INTRA:          -3.157
REMARK INTER:                  -3.023
REMARK INTRA:                  -0.134
REMARK UNBOUND:                -0.104
REMARK SMILES CCCCCCO
REMARK SMILES IDX 4 1 3 2 2 3 1 4 5 5 6 6 7 7
REMARK H PARENT 7 8
REMARK Flexibility Score: inf
ROOT
ATOM      1  C   UNL     1     101.741 105.247 108.931  1.00  0.00     0.002 C 
ENDROOT
BRANCH   1   2
ATOM      2  C   UNL     1     101.674 104.106 109.972  1.00  0.00    -0.000 C 
BRANCH   2   3
ATOM      3  C   UNL     1     101.251 102.754 109.373  1.00  0.00    -0.003 C 
ATOM      4  C   UNL     1     101.679 102.590 107.916  1.00  0.00     0.004 C 
ENDBRANCH   2   3
ENDBRANCH   1   2
BRANCH   1   5
ATOM      5  C   UNL     1     102.942 106.189 109.138  1.00  0.00     0.028 C 
BRANCH   5   6
ATOM      6  C   UNL     1     103.935 106.155 107.972  1.00  0.00     0.156 C 
BRANCH   6   7
ATOM      7  O   UNL     1     103.251 105.986 106.761  1.00  0.00    -0.396 OA
ATOM      8  H   UNL     1     103.900 105.577 106.132  1.00  0.00     0.210 HD
ENDBRANCH   6   7
ENDBRANCH   5   6
ENDBRANCH   1   5
TORSDOF 5
ENDMDL
MODEL 6
REMARK VINA RESULT:    -2.400     10.096     12.240
REMARK INTER + INTRA:          -3.136
REMARK INTER:                  -3.074
REMARK INTRA:                  -0.062
REMARK UNBOUND:                -0.104
REMARK SMILES CCCCCCO
REMARK SMILES IDX 4 1 3 2 2 3 1 4 5 5 6 6 7 7
REMARK H PARENT 7 8
REMARK Flexibility Score: inf
ROOT
ATOM      1  C   UNL     1     104.037 106.214 108.016  1.00  0.00     0.002 C 
ENDROOT
BRANCH   1   2
ATOM      2  C   UNL     1     103.046 105.954 109.174  1.00  0.00    -0.000 C 
BRANCH   2   3
ATOM      3  C   UNL     1     101.698 105.378 108.708  1.00  0.00    -0.003 C 
ATOM      4  C   UNL     1     101.587 103.871 108.933  1.00  0.00     0.004 C 
ENDBRANCH   2   3
ENDBRANCH   1   2
BRANCH   1   5
ATOM      5  C   UNL     1     105.475 105.762 108.335  1.00  0.00     0.028 C 
BRANCH   5   6
ATOM      6  C   UNL     1     106.534 106.543 107.549  1.00  0.00     0.156 C 
BRANCH   6   7
ATOM      7  O   UNL     1     106.951 105.803 106.435  1.00  0.00    -0.396 OA
ATOM      8  H   UNL     1     106.190 105.812 105.798  1.00  0.00     0.210 HD
ENDBRANCH   6   7
ENDBRANCH   5   6
ENDBRANCH   1   5
TORSDOF 5
ENDMDL
MODEL 7
REMARK VINA RESULT:    -2.372      9.623     10.521
REMARK INTER + INTRA:          -3.101
REMARK INTER:                  -3.020
REMARK INTRA:                  -0.081
REMARK UNBOUND:                -0.104
REMARK SMILES CCCCCCO
REMARK SMILES IDX 4 1 3 2 2 3 1 4 5 5 6 6 7 7
REMARK H PARENT 7 8
REMARK Flexibility Score: inf
ROOT
ATOM      1  C   UNL     1     106.181 106.264 107.601  1.00  0.00     0.002 C 
ENDROOT
BRANCH   1   2
ATOM      2  C   UNL     1     107.371 107.208 107.892  1.00  0.00    -0.000 C 
BRANCH   2   3
ATOM      3  C   UNL     1     108.304 107.406 106.686  1.00  0.00    -0.003 C 
ATOM      4  C   UNL     1     107.795 106.717 105.421  1.00  0.00     0.004 C 
ENDBRANCH   2   3
ENDBRANCH   1   2
BRANCH   1   5
ATOM      5  C   UNL     1     105.123 106.258 108.721  1.00  0.00     0.028 C 
BRANCH   5   6
ATOM      6  C   UNL     1     103.713 105.949 108.208  1.00  0.00     0.156 C 
BRANCH   6   7
ATOM      7  O   UNL     1     103.636 106.195 106.831  1.00  0.00    -0.396 OA
ATOM      8  H   UNL     1     104.500 105.890 106.448  1.00  0.00     0.210 HD
ENDBRANCH   6   7
ENDBRANCH   5   6
ENDBRANCH   1   5
TORSDOF 5
ENDMDL
MODEL 8
REMARK VINA RESULT:    -2.369     12.013     12.569
REMARK INTER + INTRA:          -3.096
REMARK INTER:                  -3.032
REMARK INTRA:                  -0.065
REMARK UNBOUND:                -0.104
REMARK SMILES CCCCCCO
REMARK SMILES IDX 4 1 3 2 2 3 1 4 5 5 6 6 7 7
REMARK H PARENT 7 8
REMARK Flexibility Score: inf
ROOT
ATOM      1  C   UNL     1     109.601 112.135 104.779  1.00  0.00     0.002 C 
ENDROOT
BRANCH   1   2
ATOM      2  C   UNL     1     110.833 112.371 103.875  1.00  0.00    -0.000 C 
BRANCH   2   3
ATOM      3  C   UNL     1     111.813 113.415 104.437  1.00  0.00    -0.003 C 
ATOM      4  C   UNL     1     112.222 113.129 105.880  1.00  0.00     0.004 C 
ENDBRANCH   2   3
ENDBRANCH   1   2
BRANCH   1   5
ATOM      5  C   UNL     1     108.282 112.621 104.147  1.00  0.00     0.028 C 
BRANCH   5   6
ATOM      6  C   UNL     1     107.290 111.483 103.888  1.00  0.00     0.156 C 
BRANCH   6   7
ATOM      7  O   UNL     1     105.979 111.980 103.875  1.00  0.00    -0.396 OA
ATOM      8  H   UNL     1     106.028 112.896 104.256  1.00  0.00     0.210 HD
ENDBRANCH   6   7
ENDBRANCH   5   6
ENDBRANCH   1   5
TORSDOF 5
ENDMDL
MODEL 9
REMARK VINA RESULT:    -2.343      5.903      8.441
REMARK INTER + INTRA:          -3.064
REMARK INTER:                  -2.958
REMARK INTRA:                  -0.106
REMARK UNBOUND:                -0.104
REMARK SMILES CCCCCCO
REMARK SMILES IDX 4 1 3 2 2 3 1 4 5 5 6 6 7 7
REMARK H PARENT 7 8
REMARK Flexibility Score: inf
ROOT
ATOM      1  C   UNL     1     113.355 108.063 104.855  1.00  0.00     0.002 C 
ENDROOT
BRANCH   1   2
ATOM      2  C   UNL     1     113.030 109.214 103.875  1.00  0.00    -0.000 C 
BRANCH   2   3
ATOM      3  C   UNL     1     112.072 110.265 104.461  1.00  0.00    -0.003 C 
ATOM      4  C   UNL     1     112.539 111.698 104.211  1.00  0.00     0.004 C 
ENDBRANCH   2   3
ENDBRANCH   1   2
BRANCH   1   5
ATOM      5  C   UNL     1     112.700 108.240 106.239  1.00  0.00     0.028 C 
BRANCH   5   6
ATOM      6  C   UNL     1     113.355 107.378 107.323  1.00  0.00     0.156 C 
BRANCH   6   7
ATOM      7  O   UNL     1     114.476 106.718 106.803  1.00  0.00    -0.396 OA
ATOM      8  H   UNL     1     114.377 105.764 107.058  1.00  0.00     0.210 HD
ENDBRANCH   6   7
ENDBRANCH   5   6
ENDBRANCH   1   5
TORSDOF 5
ENDMDL
