MODEL 1
REMARK VINA RESULT:    -3.556      0.000      0.000
REMARK INTER + INTRA:         -11.394
REMARK INTER:                  -8.128
REMARK INTRA:                  -3.266
REMARK UNBOUND:                -3.266
REMARK SMILES CCCCCCCCCCCCCCCCCCCCCCCC(=O)[O-]
REMARK SMILES IDX 13 1 14 2 15 3 16 4 17 5 18 6 19 7 20 8 21 9 22 10 23 11
REMARK SMILES IDX 24 12 25 13 26 14 12 15 11 16 10 17 9 18 8 19 7 20 6 21 5 22
REMARK SMILES IDX 4 23 3 24 2 25 1 26
REMARK H PARENT
REMARK Flexibility Score: inf
ROOT
ATOM      1  C   UNL     1      59.076  25.909  52.848  1.00  0.00     0.000 C 
ENDROOT
BRANCH   1   2
ATOM      2  C   UNL     1      58.579  24.706  52.025  1.00  0.00     0.000 C 
BRANCH   2   3
ATOM      3  C   UNL     1      59.645  23.632  51.726  1.00  0.00     0.000 C 
BRANCH   3   4
ATOM      4  C   UNL     1      60.243  23.685  50.306  1.00  0.00     0.000 C 
BRANCH   4   5
ATOM      5  C   UNL     1      61.773  23.870  50.249  1.00  0.00     0.000 C 
BRANCH   5   6
ATOM      6  C   UNL     1      62.573  22.959  51.197  1.00  0.00     0.000 C 
BRANCH   6   7
ATOM      7  C   UNL     1      62.647  21.506  50.708  1.00  0.00     0.000 C 
BRANCH   7   8
ATOM      8  C   UNL     1      61.983  20.553  51.711  1.00  0.00     0.000 C 
BRANCH   8   9
ATOM      9  C   UNL     1      61.137  19.495  50.987  1.00  0.00     0.000 C 
BRANCH   9  10
ATOM     10  C   UNL     1      59.798  20.054  50.469  1.00  0.00     0.006 C 
BRANCH  10  11
ATOM     11  C   UNL     1      59.023  19.091  49.557  1.00  0.00     0.053 C 
BRANCH  11  12
ATOM     12  C   UNL     1      57.863  18.459  50.266  1.00  0.00     0.041 C 
ATOM     13  O   UNL     1      57.160  19.137  51.060  1.00  0.00    -0.550 OA
ATOM     14  O   UNL     1      57.580  17.113  50.072  1.00  0.00    -0.550 OA
ENDBRANCH  11  12
ENDBRANCH  10  11
ENDBRANCH   9  10
ENDBRANCH   8   9
ENDBRANCH   7   8
ENDBRANCH   6   7
ENDBRANCH   5   6
ENDBRANCH   4   5
ENDBRANCH   3   4
ENDBRANCH   2   3
ENDBRANCH   1   2
BRANCH   1  15
ATOM     15  C   UNL     1      60.519  25.732  53.353  1.00  0.00     0.000 C 
BRANCH  15  16
ATOM     16  C   UNL     1      61.495  26.732  52.712  1.00  0.00     0.000 C 
BRANCH  16  17
ATOM     17  C   UNL     1      60.792  27.717  51.759  1.00  0.00     0.000 C 
BRANCH  17  18
ATOM     18  C   UNL     1      60.972  27.337  50.280  1.00  0.00    -0.000 C 
BRANCH  18  19
ATOM     19  C   UNL     1      59.663  27.441  49.479  1.00  0.00    -0.000 C 
BRANCH  19  20
ATOM     20  C   UNL     1      59.270  28.896  49.173  1.00  0.00    -0.000 C 
BRANCH  20  21
ATOM     21  C   UNL     1      58.003  29.339  49.928  1.00  0.00    -0.000 C 
BRANCH  21  22
ATOM     22  C   UNL     1      57.202  28.150  50.482  1.00  0.00    -0.000 C 
BRANCH  22  23
ATOM     23  C   UNL     1      55.716  28.489  50.697  1.00  0.00    -0.000 C 
BRANCH  23  24
ATOM     24  C   UNL     1      54.830  27.236  50.775  1.00  0.00    -0.000 C 
BRANCH  24  25
ATOM     25  C   UNL     1      55.190  26.187  49.713  1.00  0.00    -0.003 C 
ATOM     26  C   UNL     1      53.940  25.665  49.009  1.00  0.00     0.004 C 
ENDBRANCH  24  25
ENDBRANCH  23  24
ENDBRANCH  22  23
ENDBRANCH  21  22
ENDBRANCH  20  21
ENDBRANCH  19  20
ENDBRANCH  18  19
ENDBRANCH  17  18
ENDBRANCH  16  17
ENDBRANCH  15  16
ENDBRANCH   1  15
TORSDOF 22
ENDMDL
MODEL 2
REMARK VINA RESULT:    -3.473      1.525      4.144
REMARK INTER + INTRA:         -11.204
REMARK INTER:                  -8.013
REMARK INTRA:                  -3.191
REMARK UNBOUND:                -3.266
REMARK SMILES CCCCCCCCCCCCCCCCCCCCCCCC(=O)[O-]
REMARK SMILES IDX 13 1 14 2 15 3 16 4 17 5 18 6 19 7 20 8 21 9 22 10 23 11
REMARK SMILES IDX 24 12 25 13 26 14 12 15 11 16 10 17 9 18 8 19 7 20 6 21 5 22
REMARK SMILES IDX 4 23 3 24 2 25 1 26
REMARK H PARENT
REMARK Flexibility Score: inf
ROOT
ATOM      1  C   UNL     1      58.452  25.957  52.353  1.00  0.00     0.000 C 
ENDROOT
BRANCH   1   2
ATOM      2  C   UNL     1      59.693  25.290  52.973  1.00  0.00     0.000 C 
BRANCH   2   3
ATOM      3  C   UNL     1      60.075  23.925  52.366  1.00  0.00     0.000 C 
BRANCH   3   4
ATOM      4  C   UNL     1      61.557  23.783  51.963  1.00  0.00     0.000 C 
BRANCH   4   5
ATOM      5  C   UNL     1      61.817  23.723  50.444  1.00  0.00     0.000 C 
BRANCH   5   6
ATOM      6  C   UNL     1      60.770  22.934  49.637  1.00  0.00     0.000 C 
BRANCH   6   7
ATOM      7  C   UNL     1      61.030  21.422  49.636  1.00  0.00     0.000 C 
BRANCH   7   8
ATOM      8  C   UNL     1      59.872  20.663  50.298  1.00  0.00     0.000 C 
BRANCH   8   9
ATOM      9  C   UNL     1      60.076  19.145  50.190  1.00  0.00     0.000 C 
BRANCH   9  10
ATOM     10  C   UNL     1      58.816  18.407  49.699  1.00  0.00     0.006 C 
BRANCH  10  11
ATOM     11  C   UNL     1      57.966  17.793  50.822  1.00  0.00     0.053 C 
BRANCH  11  12
ATOM     12  C   UNL     1      56.865  18.711  51.258  1.00  0.00     0.041 C 
ATOM     13  O   UNL     1      56.851  19.175  52.428  1.00  0.00    -0.550 OA
ATOM     14  O   UNL     1      55.837  19.029  50.379  1.00  0.00    -0.550 OA
ENDBRANCH  11  12
ENDBRANCH  10  11
ENDBRANCH   9  10
ENDBRANCH   8   9
ENDBRANCH   7   8
ENDBRANCH   6   7
ENDBRANCH   5   6
ENDBRANCH   4   5
ENDBRANCH   3   4
ENDBRANCH   2   3
ENDBRANCH   1   2
BRANCH   1  15
ATOM     15  C   UNL     1      58.187  25.499  50.908  1.00  0.00     0.000 C 
BRANCH  15  16
ATOM     16  C   UNL     1      57.012  26.248  50.258  1.00  0.00     0.000 C 
BRANCH  16  17
ATOM     17  C   UNL     1      56.515  27.427  51.116  1.00  0.00     0.000 C 
BRANCH  17  18
ATOM     18  C   UNL     1      56.663  28.780  50.400  1.00  0.00    -0.000 C 
BRANCH  18  19
ATOM     19  C   UNL     1      58.077  29.370  50.539  1.00  0.00    -0.000 C 
BRANCH  19  20
ATOM     20  C   UNL     1      58.916  29.202  49.261  1.00  0.00    -0.000 C 
BRANCH  20  21
ATOM     21  C   UNL     1      60.102  28.238  49.454  1.00  0.00    -0.000 C 
BRANCH  21  22
ATOM     22  C   UNL     1      60.767  28.390  50.832  1.00  0.00    -0.000 C 
BRANCH  22  23
ATOM     23  C   UNL     1      61.964  27.441  51.016  1.00  0.00    -0.000 C 
BRANCH  23  24
ATOM     24  C   UNL     1      62.771  27.251  49.722  1.00  0.00    -0.000 C 
BRANCH  24  25
ATOM     25  C   UNL     1      63.779  28.384  49.478  1.00  0.00    -0.003 C 
ATOM     26  C   UNL     1      64.214  28.428  48.016  1.00  0.00     0.004 C 
ENDBRANCH  24  25
ENDBRANCH  23  24
ENDBRANCH  22  23
ENDBRANCH  21  22
ENDBRANCH  20  21
ENDBRANCH  19  20
ENDBRANCH  18  19
ENDBRANCH  17  18
ENDBRANCH  16  17
ENDBRANCH  15  16
ENDBRANCH   1  15
TORSDOF 22
ENDMDL
MODEL 3
REMARK VINA RESULT:    -3.470      4.942      8.296
REMARK INTER + INTRA:         -11.198
REMARK INTER:                  -6.903
REMARK INTRA:                  -4.295
REMARK UNBOUND:                -3.266
REMARK SMILES CCCCCCCCCCCCCCCCCCCCCCCC(=O)[O-]
REMARK SMILES IDX 13 1 14 2 15 3 16 4 17 5 18 6 19 7 20 8 21 9 22 10 23 11
REMARK SMILES IDX 24 12 25 13 26 14 12 15 11 16 10 17 9 18 8 19 7 20 6 21 5 22
REMARK SMILES IDX 4 23 3 24 2 25 1 26
REMARK H PARENT
REMARK Flexibility Score: inf
ROOT
ATOM      1  C   UNL     1      60.788  26.135  51.305  1.00  0.00     0.000 C 
ENDROOT
BRANCH   1   2
ATOM      2  C   UNL     1      59.767  25.330  50.481  1.00  0.00     0.000 C 
BRANCH   2   3
ATOM      3  C   UNL     1      58.310  25.416  50.978  1.00  0.00     0.000 C 
BRANCH   3   4
ATOM      4  C   UNL     1      57.304  25.984  49.957  1.00  0.00     0.000 C 
BRANCH   4   5
ATOM      5  C   UNL     1      55.910  26.313  50.528  1.00  0.00     0.000 C 
BRANCH   5   6
ATOM      6  C   UNL     1      54.743  26.116  49.544  1.00  0.00     0.000 C 
BRANCH   6   7
ATOM      7  C   UNL     1      53.766  27.300  49.530  1.00  0.00     0.000 C 
BRANCH   7   8
ATOM      8  C   UNL     1      54.242  28.417  50.467  1.00  0.00     0.000 C 
BRANCH   8   9
ATOM      9  C   UNL     1      53.272  29.608  50.441  1.00  0.00     0.000 C 
BRANCH   9  10
ATOM     10  C   UNL     1      53.714  30.757  51.367  1.00  0.00     0.006 C 
BRANCH  10  11
ATOM     11  C   UNL     1      54.578  30.313  52.557  1.00  0.00     0.053 C 
BRANCH  11  12
ATOM     12  C   UNL     1      55.215  31.477  53.252  1.00  0.00     0.041 C 
ATOM     13  O   UNL     1      54.777  32.643  53.069  1.00  0.00    -0.550 OA
ATOM     14  O   UNL     1      56.313  31.276  54.080  1.00  0.00    -0.550 OA
ENDBRANCH  11  12
ENDBRANCH  10  11
ENDBRANCH   9  10
ENDBRANCH   8   9
ENDBRANCH   7   8
ENDBRANCH   6   7
ENDBRANCH   5   6
ENDBRANCH   4   5
ENDBRANCH   3   4
ENDBRANCH   2   3
ENDBRANCH   1   2
BRANCH   1  15
ATOM     15  C   UNL     1      61.743  26.964  50.428  1.00  0.00     0.000 C 
BRANCH  15  16
ATOM     16  C   UNL     1      61.003  27.767  49.346  1.00  0.00     0.000 C 
BRANCH  16  17
ATOM     17  C   UNL     1      60.270  28.995  49.917  1.00  0.00     0.000 C 
BRANCH  17  18
ATOM     18  C   UNL     1      58.902  29.227  49.254  1.00  0.00    -0.000 C 
BRANCH  18  19
ATOM     19  C   UNL     1      57.794  29.532  50.277  1.00  0.00    -0.000 C 
BRANCH  19  20
ATOM     20  C   UNL     1      58.339  29.712  51.704  1.00  0.00    -0.000 C 
BRANCH  20  21
ATOM     21  C   UNL     1      57.961  28.544  52.634  1.00  0.00    -0.000 C 
BRANCH  21  22
ATOM     22  C   UNL     1      58.852  28.477  53.886  1.00  0.00    -0.000 C 
BRANCH  22  23
ATOM     23  C   UNL     1      59.792  29.690  54.006  1.00  0.00    -0.000 C 
BRANCH  23  24
ATOM     24  C   UNL     1      61.158  29.320  54.607  1.00  0.00    -0.000 C 
BRANCH  24  25
ATOM     25  C   UNL     1      62.161  28.837  53.551  1.00  0.00    -0.003 C 
ATOM     26  C   UNL     1      62.561  29.972  52.613  1.00  0.00     0.004 C 
ENDBRANCH  24  25
ENDBRANCH  23  24
ENDBRANCH  22  23
ENDBRANCH  21  22
ENDBRANCH  20  21
ENDBRANCH  19  20
ENDBRANCH  18  19
ENDBRANCH  17  18
ENDBRANCH  16  17
ENDBRANCH  15  16
ENDBRANCH   1  15
TORSDOF 22
ENDMDL
MODEL 4
REMARK VINA RESULT:    -3.408      2.935      5.762
REMARK INTER + INTRA:         -11.057
REMARK INTER:                  -6.550
REMARK INTRA:                  -4.507
REMARK UNBOUND:                -3.266
REMARK SMILES CCCCCCCCCCCCCCCCCCCCCCCC(=O)[O-]
REMARK SMILES IDX 13 1 14 2 15 3 16 4 17 5 18 6 19 7 20 8 21 9 22 10 23 11
REMARK SMILES IDX 24 12 25 13 26 14 12 15 11 16 10 17 9 18 8 19 7 20 6 21 5 22
REMARK SMILES IDX 4 23 3 24 2 25 1 26
REMARK H PARENT
REMARK Flexibility Score: inf
ROOT
ATOM      1  C   UNL     1      56.081  26.493  49.945  1.00  0.00     0.000 C 
ENDROOT
BRANCH   1   2
ATOM      2  C   UNL     1      56.629  25.897  51.254  1.00  0.00     0.000 C 
BRANCH   2   3
ATOM      3  C   UNL     1      55.565  25.561  52.318  1.00  0.00     0.000 C 
BRANCH   3   4
ATOM      4  C   UNL     1      56.115  24.950  53.622  1.00  0.00     0.000 C 
BRANCH   4   5
ATOM      5  C   UNL     1      57.151  25.818  54.363  1.00  0.00     0.000 C 
BRANCH   5   6
ATOM      6  C   UNL     1      58.378  25.055  54.893  1.00  0.00     0.000 C 
BRANCH   6   7
ATOM      7  C   UNL     1      59.708  25.692  54.468  1.00  0.00     0.000 C 
BRANCH   7   8
ATOM      8  C   UNL     1      59.865  25.675  52.942  1.00  0.00     0.000 C 
BRANCH   8   9
ATOM      9  C   UNL     1      59.852  24.236  52.404  1.00  0.00     0.000 C 
BRANCH   9  10
ATOM     10  C   UNL     1      59.750  24.175  50.868  1.00  0.00     0.006 C 
BRANCH  10  11
ATOM     11  C   UNL     1      60.783  23.252  50.204  1.00  0.00     0.053 C 
BRANCH  11  12
ATOM     12  C   UNL     1      62.178  23.554  50.658  1.00  0.00     0.041 C 
ATOM     13  O   UNL     1      62.868  22.664  51.222  1.00  0.00    -0.550 OA
ATOM     14  O   UNL     1      62.705  24.828  50.486  1.00  0.00    -0.550 OA
ENDBRANCH  11  12
ENDBRANCH  10  11
ENDBRANCH   9  10
ENDBRANCH   8   9
ENDBRANCH   7   8
ENDBRANCH   6   7
ENDBRANCH   5   6
ENDBRANCH   4   5
ENDBRANCH   3   4
ENDBRANCH   2   3
ENDBRANCH   1   2
BRANCH   1  15
ATOM     15  C   UNL     1      54.588  26.188  49.729  1.00  0.00     0.000 C 
BRANCH  15  16
ATOM     16  C   UNL     1      53.724  27.460  49.704  1.00  0.00     0.000 C 
BRANCH  16  17
ATOM     17  C   UNL     1      54.438  28.673  50.328  1.00  0.00     0.000 C 
BRANCH  17  18
ATOM     18  C   UNL     1      53.970  28.959  51.764  1.00  0.00    -0.000 C 
BRANCH  18  19
ATOM     19  C   UNL     1      55.142  29.198  52.732  1.00  0.00    -0.000 C 
BRANCH  19  20
ATOM     20  C   UNL     1      56.441  29.582  52.004  1.00  0.00    -0.000 C 
BRANCH  20  21
ATOM     21  C   UNL     1      57.689  28.941  52.639  1.00  0.00    -0.000 C 
BRANCH  21  22
ATOM     22  C   UNL     1      58.922  29.021  51.725  1.00  0.00    -0.000 C 
BRANCH  22  23
ATOM     23  C   UNL     1      58.576  29.524  50.312  1.00  0.00    -0.000 C 
BRANCH  23  24
ATOM     24  C   UNL     1      59.066  28.570  49.210  1.00  0.00    -0.000 C 
BRANCH  24  25
ATOM     25  C   UNL     1      60.065  27.526  49.729  1.00  0.00    -0.003 C 
ATOM     26  C   UNL     1      61.504  27.984  49.506  1.00  0.00     0.004 C 
ENDBRANCH  24  25
ENDBRANCH  23  24
ENDBRANCH  22  23
ENDBRANCH  21  22
ENDBRANCH  20  21
ENDBRANCH  19  20
ENDBRANCH  18  19
ENDBRANCH  17  18
ENDBRANCH  16  17
ENDBRANCH  15  16
ENDBRANCH   1  15
TORSDOF 22
ENDMDL
MODEL 5
REMARK VINA RESULT:    -3.370      2.975      7.663
REMARK INTER + INTRA:         -10.969
REMARK INTER:                  -8.591
REMARK INTRA:                  -2.379
REMARK UNBOUND:                -3.266
REMARK SMILES CCCCCCCCCCCCCCCCCCCCCCCC(=O)[O-]
REMARK SMILES IDX 13 1 14 2 15 3 16 4 17 5 18 6 19 7 20 8 21 9 22 10 23 11
REMARK SMILES IDX 24 12 25 13 26 14 12 15 11 16 10 17 9 18 8 19 7 20 6 21 5 22
REMARK SMILES IDX 4 23 3 24 2 25 1 26
REMARK H PARENT
REMARK Flexibility Score: inf
ROOT
ATOM      1  C   UNL     1      61.062  25.614  50.427  1.00  0.00     0.000 C 
ENDROOT
BRANCH   1   2
ATOM      2  C   UNL     1      60.450  26.831  49.709  1.00  0.00     0.000 C 
BRANCH   2   3
ATOM      3  C   UNL     1      61.204  28.160  49.913  1.00  0.00     0.000 C 
BRANCH   3   4
ATOM      4  C   UNL     1      60.306  29.409  50.019  1.00  0.00     0.000 C 
BRANCH   4   5
ATOM      5  C   UNL     1      58.927  29.281  49.343  1.00  0.00     0.000 C 
BRANCH   5   6
ATOM      6  C   UNL     1      57.723  29.406  50.294  1.00  0.00     0.000 C 
BRANCH   6   7
ATOM      7  C   UNL     1      58.126  29.374  51.775  1.00  0.00     0.000 C 
BRANCH   7   8
ATOM      8  C   UNL     1      57.369  28.272  52.528  1.00  0.00     0.000 C 
BRANCH   8   9
ATOM      9  C   UNL     1      57.988  26.893  52.252  1.00  0.00     0.000 C 
BRANCH   9  10
ATOM     10  C   UNL     1      56.992  25.911  51.606  1.00  0.00     0.006 C 
BRANCH  10  11
ATOM     11  C   UNL     1      56.725  26.172  50.116  1.00  0.00     0.053 C 
BRANCH  11  12
ATOM     12  C   UNL     1      55.280  26.459  49.848  1.00  0.00     0.041 C 
ATOM     13  O   UNL     1      54.611  25.702  49.097  1.00  0.00    -0.550 OA
ATOM     14  O   UNL     1      54.679  27.583  50.403  1.00  0.00    -0.550 OA
ENDBRANCH  11  12
ENDBRANCH  10  11
ENDBRANCH   9  10
ENDBRANCH   8   9
ENDBRANCH   7   8
ENDBRANCH   6   7
ENDBRANCH   5   6
ENDBRANCH   4   5
ENDBRANCH   3   4
ENDBRANCH   2   3
ENDBRANCH   1   2
BRANCH   1  15
ATOM     15  C   UNL     1      60.315  24.304  50.124  1.00  0.00     0.000 C 
BRANCH  15  16
ATOM     16  C   UNL     1      61.164  23.058  50.425  1.00  0.00     0.000 C 
BRANCH  16  17
ATOM     17  C   UNL     1      61.123  22.024  49.284  1.00  0.00     0.000 C 
BRANCH  17  18
ATOM     18  C   UNL     1      60.003  20.987  49.468  1.00  0.00    -0.000 C 
BRANCH  18  19
ATOM     19  C   UNL     1      60.395  19.860  50.440  1.00  0.00    -0.000 C 
BRANCH  19  20
ATOM     20  C   UNL     1      59.174  19.130  51.023  1.00  0.00    -0.000 C 
BRANCH  20  21
ATOM     21  C   UNL     1      58.341  18.411  49.945  1.00  0.00    -0.000 C 
BRANCH  21  22
ATOM     22  C   UNL     1      56.869  18.243  50.354  1.00  0.00    -0.000 C 
BRANCH  22  23
ATOM     23  C   UNL     1      56.593  18.743  51.784  1.00  0.00    -0.000 C 
BRANCH  23  24
ATOM     24  C   UNL     1      55.262  19.504  51.896  1.00  0.00    -0.000 C 
BRANCH  24  25
ATOM     25  C   UNL     1      54.983  20.005  53.321  1.00  0.00    -0.003 C 
ATOM     26  C   UNL     1      54.157  18.992  54.107  1.00  0.00     0.004 C 
ENDBRANCH  24  25
ENDBRANCH  23  24
ENDBRANCH  22  23
ENDBRANCH  21  22
ENDBRANCH  20  21
ENDBRANCH  19  20
ENDBRANCH  18  19
ENDBRANCH  17  18
ENDBRANCH  16  17
ENDBRANCH  15  16
ENDBRANCH   1  15
TORSDOF 22
ENDMDL
MODEL 6
REMARK VINA RESULT:    -3.352      4.692      6.962
REMARK INTER + INTRA:         -10.928
REMARK INTER:                  -6.687
REMARK INTRA:                  -4.241
REMARK UNBOUND:                -3.266
REMARK SMILES CCCCCCCCCCCCCCCCCCCCCCCC(=O)[O-]
REMARK SMILES IDX 13 1 14 2 15 3 16 4 17 5 18 6 19 7 20 8 21 9 22 10 23 11
REMARK SMILES IDX 24 12 25 13 26 14 12 15 11 16 10 17 9 18 8 19 7 20 6 21 5 22
REMARK SMILES IDX 4 23 3 24 2 25 1 26
REMARK H PARENT
REMARK Flexibility Score: inf
ROOT
ATOM      1  C   UNL     1      56.924  30.039  51.748  1.00  0.00     0.000 C 
ENDROOT
BRANCH   1   2
ATOM      2  C   UNL     1      58.353  29.693  52.205  1.00  0.00     0.000 C 
BRANCH   2   3
ATOM      3  C   UNL     1      59.418  29.706  51.091  1.00  0.00     0.000 C 
BRANCH   3   4
ATOM      4  C   UNL     1      58.971  29.083  49.753  1.00  0.00     0.000 C 
BRANCH   4   5
ATOM      5  C   UNL     1      59.896  27.978  49.206  1.00  0.00     0.000 C 
BRANCH   5   6
ATOM      6  C   UNL     1      59.435  26.539  49.504  1.00  0.00     0.000 C 
BRANCH   6   7
ATOM      7  C   UNL     1      60.388  25.790  50.446  1.00  0.00     0.000 C 
BRANCH   7   8
ATOM      8  C   UNL     1      60.342  26.382  51.861  1.00  0.00     0.000 C 
BRANCH   8   9
ATOM      9  C   UNL     1      61.751  26.470  52.466  1.00  0.00     0.000 C 
BRANCH   9  10
ATOM     10  C   UNL     1      62.461  27.796  52.134  1.00  0.00     0.006 C 
BRANCH  10  11
ATOM     11  C   UNL     1      63.554  27.675  51.062  1.00  0.00     0.053 C 
BRANCH  11  12
ATOM     12  C   UNL     1      63.287  28.565  49.887  1.00  0.00     0.041 C 
ATOM     13  O   UNL     1      62.869  29.739  50.062  1.00  0.00    -0.550 OA
ATOM     14  O   UNL     1      63.469  28.084  48.595  1.00  0.00    -0.550 OA
ENDBRANCH  11  12
ENDBRANCH  10  11
ENDBRANCH   9  10
ENDBRANCH   8   9
ENDBRANCH   7   8
ENDBRANCH   6   7
ENDBRANCH   5   6
ENDBRANCH   4   5
ENDBRANCH   3   4
ENDBRANCH   2   3
ENDBRANCH   1   2
BRANCH   1  15
ATOM     15  C   UNL     1      55.882  29.873  52.868  1.00  0.00     0.000 C 
BRANCH  15  16
ATOM     16  C   UNL     1      54.442  29.829  52.333  1.00  0.00     0.000 C 
BRANCH  16  17
ATOM     17  C   UNL     1      54.385  29.687  50.800  1.00  0.00     0.000 C 
BRANCH  17  18
ATOM     18  C   UNL     1      52.967  29.383  50.288  1.00  0.00    -0.000 C 
BRANCH  18  19
ATOM     19  C   UNL     1      52.875  28.023  49.576  1.00  0.00    -0.000 C 
BRANCH  19  20
ATOM     20  C   UNL     1      53.405  26.865  50.439  1.00  0.00    -0.000 C 
BRANCH  20  21
ATOM     21  C   UNL     1      54.151  25.802  49.611  1.00  0.00    -0.000 C 
BRANCH  21  22
ATOM     22  C   UNL     1      55.668  26.049  49.567  1.00  0.00    -0.000 C 
BRANCH  22  23
ATOM     23  C   UNL     1      56.194  26.719  50.848  1.00  0.00    -0.000 C 
BRANCH  23  24
ATOM     24  C   UNL     1      56.697  25.700  51.884  1.00  0.00    -0.000 C 
BRANCH  24  25
ATOM     25  C   UNL     1      56.609  26.224  53.324  1.00  0.00    -0.003 C 
ATOM     26  C   UNL     1      55.157  26.415  53.752  1.00  0.00     0.004 C 
ENDBRANCH  24  25
ENDBRANCH  23  24
ENDBRANCH  22  23
ENDBRANCH  21  22
ENDBRANCH  20  21
ENDBRANCH  19  20
ENDBRANCH  18  19
ENDBRANCH  17  18
ENDBRANCH  16  17
ENDBRANCH  15  16
ENDBRANCH   1  15
TORSDOF 22
ENDMDL
MODEL 7
REMARK VINA RESULT:    -3.260     10.742     14.082
REMARK INTER + INTRA:         -10.719
REMARK INTER:                  -6.368
REMARK INTRA:                  -4.351
REMARK UNBOUND:                -3.266
REMARK SMILES CCCCCCCCCCCCCCCCCCCCCCCC(=O)[O-]
REMARK SMILES IDX 13 1 14 2 15 3 16 4 17 5 18 6 19 7 20 8 21 9 22 10 23 11
REMARK SMILES IDX 24 12 25 13 26 14 12 15 11 16 10 17 9 18 8 19 7 20 6 21 5 22
REMARK SMILES IDX 4 23 3 24 2 25 1 26
REMARK H PARENT
REMARK Flexibility Score: inf
ROOT
ATOM      1  C   UNL     1      61.469  31.369  57.134  1.00  0.00     0.000 C 
ENDROOT
BRANCH   1   2
ATOM      2  C   UNL     1      62.629  32.240  57.651  1.00  0.00     0.000 C 
BRANCH   2   3
ATOM      3  C   UNL     1      63.174  33.271  56.642  1.00  0.00     0.000 C 
BRANCH   3   4
ATOM      4  C   UNL     1      63.780  34.542  57.272  1.00  0.00     0.000 C 
BRANCH   4   5
ATOM      5  C   UNL     1      64.867  34.288  58.334  1.00  0.00     0.000 C 
BRANCH   5   6
ATOM      6  C   UNL     1      64.764  35.170  59.592  1.00  0.00     0.000 C 
BRANCH   6   7
ATOM      7  C   UNL     1      64.190  34.420  60.802  1.00  0.00     0.000 C 
BRANCH   7   8
ATOM      8  C   UNL     1      62.656  34.452  60.793  1.00  0.00     0.000 C 
BRANCH   8   9
ATOM      9  C   UNL     1      62.136  35.895  60.708  1.00  0.00     0.000 C 
BRANCH   9  10
ATOM     10  C   UNL     1      60.972  36.052  59.711  1.00  0.00     0.006 C 
BRANCH  10  11
ATOM     11  C   UNL     1      60.497  34.733  59.083  1.00  0.00     0.053 C 
BRANCH  11  12
ATOM     12  C   UNL     1      59.952  34.934  57.702  1.00  0.00     0.041 C 
ATOM     13  O   UNL     1      60.448  35.808  56.945  1.00  0.00    -0.550 OA
ATOM     14  O   UNL     1      58.873  34.175  57.264  1.00  0.00    -0.550 OA
ENDBRANCH  11  12
ENDBRANCH  10  11
ENDBRANCH   9  10
ENDBRANCH   8   9
ENDBRANCH   7   8
ENDBRANCH   6   7
ENDBRANCH   5   6
ENDBRANCH   4   5
ENDBRANCH   3   4
ENDBRANCH   2   3
ENDBRANCH   1   2
BRANCH   1  15
ATOM     15  C   UNL     1      60.410  31.085  58.213  1.00  0.00     0.000 C 
BRANCH  15  16
ATOM     16  C   UNL     1      60.685  29.782  58.981  1.00  0.00     0.000 C 
BRANCH  16  17
ATOM     17  C   UNL     1      60.342  29.895  60.478  1.00  0.00     0.000 C 
BRANCH  17  18
ATOM     18  C   UNL     1      61.232  30.911  61.212  1.00  0.00    -0.000 C 
BRANCH  18  19
ATOM     19  C   UNL     1      62.578  30.309  61.651  1.00  0.00    -0.000 C 
BRANCH  19  20
ATOM     20  C   UNL     1      63.766  30.872  60.854  1.00  0.00    -0.000 C 
BRANCH  20  21
ATOM     21  C   UNL     1      64.837  29.806  60.554  1.00  0.00    -0.000 C 
BRANCH  21  22
ATOM     22  C   UNL     1      64.257  28.576  59.836  1.00  0.00    -0.000 C 
BRANCH  22  23
ATOM     23  C   UNL     1      64.812  27.253  60.393  1.00  0.00    -0.000 C 
BRANCH  23  24
ATOM     24  C   UNL     1      63.738  26.157  60.490  1.00  0.00    -0.000 C 
BRANCH  24  25
ATOM     25  C   UNL     1      62.313  26.725  60.550  1.00  0.00    -0.003 C 
ATOM     26  C   UNL     1      61.778  26.718  61.979  1.00  0.00     0.004 C 
ENDBRANCH  24  25
ENDBRANCH  23  24
ENDBRANCH  22  23
ENDBRANCH  21  22
ENDBRANCH  20  21
ENDBRANCH  19  20
ENDBRANCH  18  19
ENDBRANCH  17  18
ENDBRANCH  16  17
ENDBRANCH  15  16
ENDBRANCH   1  15
TORSDOF 22
ENDMDL
MODEL 8
REMARK VINA RESULT:    -3.259      9.843     13.540
REMARK INTER + INTRA:         -10.715
REMARK INTER:                  -6.520
REMARK INTRA:                  -4.195
REMARK UNBOUND:                -3.266
REMARK SMILES CCCCCCCCCCCCCCCCCCCCCCCC(=O)[O-]
REMARK SMILES IDX 13 1 14 2 15 3 16 4 17 5 18 6 19 7 20 8 21 9 22 10 23 11
REMARK SMILES IDX 24 12 25 13 26 14 12 15 11 16 10 17 9 18 8 19 7 20 6 21 5 22
REMARK SMILES IDX 4 23 3 24 2 25 1 26
REMARK H PARENT
REMARK Flexibility Score: inf
ROOT
ATOM      1  C   UNL     1      62.862  29.675  57.554  1.00  0.00     0.000 C 
ENDROOT
BRANCH   1   2
ATOM      2  C   UNL     1      64.017  30.156  58.451  1.00  0.00     0.000 C 
BRANCH   2   3
ATOM      3  C   UNL     1      64.560  29.105  59.441  1.00  0.00     0.000 C 
BRANCH   3   4
ATOM      4  C   UNL     1      64.547  29.536  60.921  1.00  0.00     0.000 C 
BRANCH   4   5
ATOM      5  C   UNL     1      63.417  30.512  61.307  1.00  0.00     0.000 C 
BRANCH   5   6
ATOM      6  C   UNL     1      62.069  29.846  61.639  1.00  0.00     0.000 C 
BRANCH   6   7
ATOM      7  C   UNL     1      60.890  30.474  60.884  1.00  0.00     0.000 C 
BRANCH   7   8
ATOM      8  C   UNL     1      61.051  31.996  60.779  1.00  0.00     0.000 C 
BRANCH   8   9
ATOM      9  C   UNL     1      61.125  32.442  59.311  1.00  0.00     0.000 C 
BRANCH   9  10
ATOM     10  C   UNL     1      61.786  33.822  59.139  1.00  0.00     0.006 C 
BRANCH  10  11
ATOM     11  C   UNL     1      62.309  34.439  60.445  1.00  0.00     0.053 C 
BRANCH  11  12
ATOM     12  C   UNL     1      63.802  34.564  60.447  1.00  0.00     0.041 C 
ATOM     13  O   UNL     1      64.442  34.539  59.363  1.00  0.00    -0.550 OA
ATOM     14  O   UNL     1      64.489  34.677  61.650  1.00  0.00    -0.550 OA
ENDBRANCH  11  12
ENDBRANCH  10  11
ENDBRANCH   9  10
ENDBRANCH   8   9
ENDBRANCH   7   8
ENDBRANCH   6   7
ENDBRANCH   5   6
ENDBRANCH   4   5
ENDBRANCH   3   4
ENDBRANCH   2   3
ENDBRANCH   1   2
BRANCH   1  15
ATOM     15  C   UNL     1      62.290  28.316  57.995  1.00  0.00     0.000 C 
BRANCH  15  16
ATOM     16  C   UNL     1      60.753  28.290  57.982  1.00  0.00     0.000 C 
BRANCH  16  17
ATOM     17  C   UNL     1      60.187  26.875  57.763  1.00  0.00     0.000 C 
BRANCH  17  18
ATOM     18  C   UNL     1      59.022  26.552  58.714  1.00  0.00    -0.000 C 
BRANCH  18  19
ATOM     19  C   UNL     1      58.725  27.699  59.694  1.00  0.00    -0.000 C 
BRANCH  19  20
ATOM     20  C   UNL     1      58.724  27.239  61.162  1.00  0.00    -0.000 C 
BRANCH  20  21
ATOM     21  C   UNL     1      59.391  25.865  61.353  1.00  0.00    -0.000 C 
BRANCH  21  22
ATOM     22  C   UNL     1      60.134  25.752  62.695  1.00  0.00    -0.000 C 
BRANCH  22  23
ATOM     23  C   UNL     1      61.660  25.666  62.518  1.00  0.00    -0.000 C 
BRANCH  23  24
ATOM     24  C   UNL     1      62.164  26.491  61.322  1.00  0.00    -0.000 C 
BRANCH  24  25
ATOM     25  C   UNL     1      63.125  25.704  60.420  1.00  0.00    -0.003 C 
ATOM     26  C   UNL     1      63.259  24.258  60.889  1.00  0.00     0.004 C 
ENDBRANCH  24  25
ENDBRANCH  23  24
ENDBRANCH  22  23
ENDBRANCH  21  22
ENDBRANCH  20  21
ENDBRANCH  19  20
ENDBRANCH  18  19
ENDBRANCH  17  18
ENDBRANCH  16  17
ENDBRANCH  15  16
ENDBRANCH   1  15
TORSDOF 22
ENDMDL
MODEL 9
REMARK VINA RESULT:    -3.237     10.099     12.867
REMARK INTER + INTRA:         -10.667
REMARK INTER:                  -6.134
REMARK INTRA:                  -4.533
REMARK UNBOUND:                -3.266
REMARK SMILES CCCCCCCCCCCCCCCCCCCCCCCC(=O)[O-]
REMARK SMILES IDX 13 1 14 2 15 3 16 4 17 5 18 6 19 7 20 8 21 9 22 10 23 11
REMARK SMILES IDX 24 12 25 13 26 14 12 15 11 16 10 17 9 18 8 19 7 20 6 21 5 22
REMARK SMILES IDX 4 23 3 24 2 25 1 26
REMARK H PARENT
REMARK Flexibility Score: inf
ROOT
ATOM      1  C   UNL     1      64.266  35.231  57.580  1.00  0.00     0.000 C 
ENDROOT
BRANCH   1   2
ATOM      2  C   UNL     1      64.181  33.728  57.254  1.00  0.00     0.000 C 
BRANCH   2   3
ATOM      3  C   UNL     1      63.369  32.885  58.258  1.00  0.00     0.000 C 
BRANCH   3   4
ATOM      4  C   UNL     1      64.151  32.422  59.503  1.00  0.00     0.000 C 
BRANCH   4   5
ATOM      5  C   UNL     1      63.315  32.306  60.793  1.00  0.00     0.000 C 
BRANCH   5   6
ATOM      6  C   UNL     1      61.790  32.312  60.582  1.00  0.00     0.000 C 
BRANCH   6   7
ATOM      7  C   UNL     1      61.081  31.163  61.312  1.00  0.00     0.000 C 
BRANCH   7   8
ATOM      8  C   UNL     1      62.063  30.033  61.646  1.00  0.00     0.000 C 
BRANCH   8   9
ATOM      9  C   UNL     1      61.839  28.820  60.730  1.00  0.00     0.000 C 
BRANCH   9  10
ATOM     10  C   UNL     1      62.674  28.887  59.438  1.00  0.00     0.006 C 
BRANCH  10  11
ATOM     11  C   UNL     1      61.899  29.391  58.211  1.00  0.00     0.053 C 
BRANCH  11  12
ATOM     12  C   UNL     1      60.505  28.846  58.165  1.00  0.00     0.041 C 
ATOM     13  O   UNL     1      59.523  29.595  58.410  1.00  0.00    -0.550 OA
ATOM     14  O   UNL     1      60.293  27.502  57.883  1.00  0.00    -0.550 OA
ENDBRANCH  11  12
ENDBRANCH  10  11
ENDBRANCH   9  10
ENDBRANCH   8   9
ENDBRANCH   7   8
ENDBRANCH   6   7
ENDBRANCH   5   6
ENDBRANCH   4   5
ENDBRANCH   3   4
ENDBRANCH   2   3
ENDBRANCH   1   2
BRANCH   1  15
ATOM     15  C   UNL     1      65.566  35.610  58.310  1.00  0.00     0.000 C 
BRANCH  15  16
ATOM     16  C   UNL     1      65.320  36.547  59.504  1.00  0.00     0.000 C 
BRANCH  16  17
ATOM     17  C   UNL     1      65.227  35.790  60.842  1.00  0.00     0.000 C 
BRANCH  17  18
ATOM     18  C   UNL     1      63.977  36.172  61.651  1.00  0.00    -0.000 C 
BRANCH  18  19
ATOM     19  C   UNL     1      62.670  35.817  60.922  1.00  0.00    -0.000 C 
BRANCH  19  20
ATOM     20  C   UNL     1      61.683  36.994  60.868  1.00  0.00    -0.000 C 
BRANCH  20  21
ATOM     21  C   UNL     1      60.460  36.703  59.979  1.00  0.00    -0.000 C 
BRANCH  21  22
ATOM     22  C   UNL     1      60.843  36.010  58.661  1.00  0.00    -0.000 C 
BRANCH  22  23
ATOM     23  C   UNL     1      60.012  34.741  58.399  1.00  0.00    -0.000 C 
BRANCH  23  24
ATOM     24  C   UNL     1      60.223  34.179  56.984  1.00  0.00    -0.000 C 
BRANCH  24  25
ATOM     25  C   UNL     1      59.998  32.662  56.907  1.00  0.00    -0.003 C 
ATOM     26  C   UNL     1      60.738  32.055  55.719  1.00  0.00     0.004 C 
ENDBRANCH  24  25
ENDBRANCH  23  24
ENDBRANCH  22  23
ENDBRANCH  21  22
ENDBRANCH  20  21
ENDBRANCH  19  20
ENDBRANCH  18  19
ENDBRANCH  17  18
ENDBRANCH  16  17
ENDBRANCH  15  16
ENDBRANCH   1  15
TORSDOF 22
ENDMDL
