MODEL 1
REMARK VINA RESULT:    -4.265      0.000      0.000
REMARK INTER + INTRA:          -6.579
REMARK INTER:                  -6.508
REMARK INTRA:                  -0.071
REMARK UNBOUND:                -0.071
REMARK SMILES CC1=CCC[C@H](C)C(=O)C[C@H](C(C)C)C(=O)C1
REMARK SMILES IDX 8 1 9 2 6 3 7 4 5 5 4 6 3 7 2 8 1 9 10 11 11 12 15 13 16 14
REMARK SMILES IDX 17 15 12 17 13 18 14 19
REMARK H PARENT
REMARK Flexibility Score: 70.00
ROOT
ATOM      1  C   UNL     1      28.673  23.138   7.588  1.00  0.00     0.136 C 
ATOM      2  O   UNL     1      28.618  23.124   8.808  1.00  0.00    -0.299 OA
ENDROOT
BRANCH   1   3
ATOM      3  C   UNL     1      30.005  22.806   6.902  1.00  0.00     0.053 C 
ATOM      4  C   UNL     1      31.124  23.750   7.353  1.00  0.00     0.016 C 
BRANCH   3   5
ATOM      5  C   UNL     1      30.259  21.364   7.281  1.00  0.00     0.015 C 
BRANCH   5   6
ATOM      6  C   UNL     1      30.917  20.274   6.491  1.00  0.00     0.028 C 
BRANCH   6   7
ATOM      7  C   UNL     1      30.092  20.062   5.213  1.00  0.00    -0.028 C 
ATOM      8  C   UNL     1      28.721  19.964   5.044  1.00  0.00    -0.070 CG0
ATOM      9  C   UNL     1      28.245  19.879   3.613  1.00  0.00     0.039 C 
ATOM     10  G   UNL     1      27.621  19.899   6.145  1.00  0.00     0.000 G0
ENDBRANCH   6   7
ENDBRANCH   5   6
ENDBRANCH   3   5
ENDBRANCH   1   3
BRANCH   1  11
ATOM     11  C   UNL     1      27.412  23.517   6.792  1.00  0.00     0.087 C 
BRANCH  11  12
ATOM     12  C   UNL     1      26.934  22.489   5.693  1.00  0.00     0.066 C 
BRANCH  12  13
ATOM     13  C   UNL     1      26.614  21.054   6.188  1.00  0.00     0.140 C 
ATOM     14  O   UNL     1      25.540  20.870   6.744  1.00  0.00    -0.299 OA
BRANCH  13  15
ATOM     15  C   UNL     1      27.610  19.883   6.143  1.00  0.00     0.106 CG0
ATOM     16  G   UNL     1      28.710  19.988   5.046  1.00  0.00     0.000 G0
ENDBRANCH  13  15
ENDBRANCH  12  13
BRANCH  12  17
ATOM     17  C   UNL     1      25.722  23.028   4.860  1.00  0.00    -0.006 C 
ATOM     18  C   UNL     1      26.019  22.983   3.347  1.00  0.00     0.008 C 
ATOM     19  C   UNL     1      25.321  24.468   5.234  1.00  0.00     0.008 C 
ENDBRANCH  12  17
ENDBRANCH  11  12
ENDBRANCH   1  11
TORSDOF 1
ENDMDL
MODEL 2
REMARK VINA RESULT:    -3.820      1.405      2.069
REMARK INTER + INTRA:          -5.900
REMARK INTER:                  -5.812
REMARK INTRA:                  -0.088
REMARK UNBOUND:                -0.071
REMARK SMILES CC1=CCC[C@H](C)C(=O)C[C@H](C(C)C)C(=O)C1
REMARK SMILES IDX 8 1 9 2 6 3 7 4 5 5 4 6 3 7 2 8 1 9 10 11 11 12 15 13 16 14
REMARK SMILES IDX 17 15 12 17 13 18 14 19
REMARK H PARENT
REMARK Flexibility Score: 70.00
ROOT
ATOM      1  C   UNL     1      28.658  23.626   7.712  1.00  0.00     0.136 C 
ATOM      2  O   UNL     1      28.195  23.789   8.830  1.00  0.00    -0.299 OA
ENDROOT
BRANCH   1   3
ATOM      3  C   UNL     1      30.157  23.866   7.487  1.00  0.00     0.053 C 
ATOM      4  C   UNL     1      30.553  25.309   7.817  1.00  0.00     0.016 C 
BRANCH   3   5
ATOM      5  C   UNL     1      30.826  22.850   8.385  1.00  0.00     0.015 C 
BRANCH   5   6
ATOM      6  C   UNL     1      32.064  22.039   8.148  1.00  0.00     0.028 C 
BRANCH   6   7
ATOM      7  C   UNL     1      31.848  21.222   6.866  1.00  0.00    -0.028 C 
ATOM      8  C   UNL     1      30.770  20.444   6.477  1.00  0.00    -0.070 CG0
ATOM      9  C   UNL     1      30.847  19.876   5.079  1.00  0.00     0.039 C 
ATOM     10  G   UNL     1      29.512  20.062   7.311  1.00  0.00     0.000 G0
ENDBRANCH   6   7
ENDBRANCH   5   6
ENDBRANCH   3   5
ENDBRANCH   1   3
BRANCH   1  11
ATOM     11  C   UNL     1      27.712  23.215   6.569  1.00  0.00     0.087 C 
BRANCH  11  12
ATOM     12  C   UNL     1      28.008  21.830   5.870  1.00  0.00     0.066 C 
BRANCH  12  13
ATOM     13  C   UNL     1      28.147  20.603   6.808  1.00  0.00     0.140 C 
ATOM     14  O   UNL     1      27.121  20.113   7.259  1.00  0.00    -0.299 OA
BRANCH  13  15
ATOM     15  C   UNL     1      29.490  20.047   7.310  1.00  0.00     0.106 CG0
ATOM     16  G   UNL     1      30.734  20.451   6.464  1.00  0.00     0.000 G0
ENDBRANCH  13  15
ENDBRANCH  12  13
BRANCH  12  17
ATOM     17  C   UNL     1      26.974  21.501   4.740  1.00  0.00    -0.006 C 
ATOM     18  C   UNL     1      27.573  20.535   3.698  1.00  0.00     0.008 C 
ATOM     19  C   UNL     1      26.460  22.753   4.004  1.00  0.00     0.008 C 
ENDBRANCH  12  17
ENDBRANCH  11  12
ENDBRANCH   1  11
TORSDOF 1
ENDMDL
MODEL 3
REMARK VINA RESULT:    -3.605      2.676      4.626
REMARK INTER + INTRA:          -5.572
REMARK INTER:                  -6.967
REMARK INTRA:                   1.395
REMARK UNBOUND:                -0.071
REMARK SMILES CC1=CCC[C@H](C)C(=O)C[C@H](C(C)C)C(=O)C1
REMARK SMILES IDX 8 1 9 2 6 3 7 4 5 5 4 6 3 7 2 8 1 9 10 11 11 12 15 13 16 14
REMARK SMILES IDX 17 15 12 17 13 18 14 19
REMARK H PARENT
REMARK Flexibility Score: 70.00
ROOT
ATOM      1  C   UNL     1      28.277  21.027   6.900  1.00  0.00     0.136 C 
ATOM      2  O   UNL     1      27.401  21.812   6.573  1.00  0.00    -0.299 OA
ENDROOT
BRANCH   1   3
ATOM      3  C   UNL     1      28.755  19.982   5.882  1.00  0.00     0.053 C 
ATOM      4  C   UNL     1      28.358  20.364   4.452  1.00  0.00     0.016 C 
BRANCH   3   5
ATOM      5  C   UNL     1      30.252  19.934   6.087  1.00  0.00     0.015 C 
BRANCH   5   6
ATOM      6  C   UNL     1      31.355  20.274   5.131  1.00  0.00     0.028 C 
BRANCH   6   7
ATOM      7  C   UNL     1      32.640  20.463   5.950  1.00  0.00    -0.028 C 
ATOM      8  C   UNL     1      32.931  21.373   6.952  1.00  0.00    -0.070 CG0
ATOM      9  C   UNL     1      34.269  21.191   7.631  1.00  0.00     0.039 C 
ATOM     10  G   UNL     1      32.065  22.572   7.440  1.00  0.00     0.000 G0
ENDBRANCH   6   7
ENDBRANCH   5   6
ENDBRANCH   3   5
ENDBRANCH   1   3
BRANCH   1  11
ATOM     11  C   UNL     1      28.843  21.099   8.329  1.00  0.00     0.087 C 
BRANCH  11  12
ATOM     12  C   UNL     1      29.654  22.401   8.703  1.00  0.00     0.066 C 
BRANCH  12  13
ATOM     13  C   UNL     1      31.199  22.276   8.692  1.00  0.00     0.140 C 
ATOM     14  O   UNL     1      31.757  22.020   9.750  1.00  0.00    -0.299 OA
BRANCH  13  15
ATOM     15  C   UNL     1      32.082  22.579   7.470  1.00  0.00     0.106 CG0
ATOM     16  G   UNL     1      32.937  21.383   6.955  1.00  0.00     0.000 G0
ENDBRANCH  13  15
ENDBRANCH  12  13
BRANCH  12  17
ATOM     17  C   UNL     1      29.230  23.635   7.835  1.00  0.00    -0.006 C 
ATOM     18  C   UNL     1      30.452  24.495   7.451  1.00  0.00     0.008 C 
ATOM     19  C   UNL     1      28.198  24.541   8.532  1.00  0.00     0.008 C 
ENDBRANCH  12  17
ENDBRANCH  11  12
ENDBRANCH   1  11
TORSDOF 1
ENDMDL
MODEL 4
REMARK VINA RESULT:    -3.565      1.773      4.268
REMARK INTER + INTRA:          -5.511
REMARK INTER:                  -5.470
REMARK INTRA:                  -0.041
REMARK UNBOUND:                -0.071
REMARK SMILES CC1=CCC[C@H](C)C(=O)C[C@H](C(C)C)C(=O)C1
REMARK SMILES IDX 8 1 9 2 6 3 7 4 5 5 4 6 3 7 2 8 1 9 10 11 11 12 15 13 16 14
REMARK SMILES IDX 17 15 12 17 13 18 14 19
REMARK H PARENT
REMARK Flexibility Score: 70.00
ROOT
ATOM      1  C   UNL     1      31.445  23.284   8.074  1.00  0.00     0.136 C 
ATOM      2  O   UNL     1      32.095  22.757   8.963  1.00  0.00    -0.299 OA
ENDROOT
BRANCH   1   3
ATOM      3  C   UNL     1      30.968  24.730   8.261  1.00  0.00     0.053 C 
ATOM      4  C   UNL     1      31.702  25.693   7.322  1.00  0.00     0.016 C 
BRANCH   3   5
ATOM      5  C   UNL     1      29.481  24.660   7.991  1.00  0.00     0.015 C 
BRANCH   5   6
ATOM      6  C   UNL     1      28.489  23.614   8.399  1.00  0.00     0.028 C 
BRANCH   6   7
ATOM      7  C   UNL     1      27.391  23.569   7.326  1.00  0.00    -0.028 C 
ATOM      8  C   UNL     1      27.250  22.732   6.232  1.00  0.00    -0.070 CG0
ATOM      9  C   UNL     1      25.967  22.893   5.449  1.00  0.00     0.039 C 
ATOM     10  G   UNL     1      28.260  21.675   5.696  1.00  0.00     0.000 G0
ENDBRANCH   6   7
ENDBRANCH   5   6
ENDBRANCH   3   5
ENDBRANCH   1   3
BRANCH   1  11
ATOM     11  C   UNL     1      31.106  22.463   6.817  1.00  0.00     0.087 C 
BRANCH  11  12
ATOM     12  C   UNL     1      30.502  21.024   7.054  1.00  0.00     0.066 C 
BRANCH  12  13
ATOM     13  C   UNL     1      29.000  20.844   6.714  1.00  0.00     0.140 C 
ATOM     14  O   UNL     1      28.405  19.913   7.239  1.00  0.00    -0.299 OA
BRANCH  13  15
ATOM     15  C   UNL     1      28.246  21.678   5.664  1.00  0.00     0.106 CG0
ATOM     16  G   UNL     1      27.247  22.725   6.239  1.00  0.00     0.000 G0
ENDBRANCH  13  15
ENDBRANCH  12  13
BRANCH  12  17
ATOM     17  C   UNL     1      31.331  19.905   6.335  1.00  0.00    -0.006 C 
ATOM     18  C   UNL     1      32.838  20.050   6.628  1.00  0.00     0.008 C 
ATOM     19  C   UNL     1      31.131  19.888   4.808  1.00  0.00     0.008 C 
ENDBRANCH  12  17
ENDBRANCH  11  12
ENDBRANCH   1  11
TORSDOF 1
ENDMDL
MODEL 5
REMARK VINA RESULT:    -3.530      2.223      4.402
REMARK INTER + INTRA:          -5.458
REMARK INTER:                  -5.227
REMARK INTRA:                  -0.231
REMARK UNBOUND:                -0.071
REMARK SMILES CC1=CCC[C@H](C)C(=O)C[C@H](C(C)C)C(=O)C1
REMARK SMILES IDX 8 1 9 2 6 3 7 4 5 5 4 6 3 7 2 8 1 9 10 11 11 12 15 13 16 14
REMARK SMILES IDX 17 15 12 17 13 18 14 19
REMARK H PARENT
REMARK Flexibility Score: 70.00
ROOT
ATOM      1  C   UNL     1      23.444  21.786   5.956  1.00  0.00     0.136 C 
ATOM      2  O   UNL     1      22.311  21.731   6.407  1.00  0.00    -0.299 OA
ENDROOT
BRANCH   1   3
ATOM      3  C   UNL     1      24.466  20.724   6.385  1.00  0.00     0.053 C 
ATOM      4  C   UNL     1      23.971  19.922   7.594  1.00  0.00     0.016 C 
BRANCH   3   5
ATOM      5  C   UNL     1      24.649  19.875   5.148  1.00  0.00     0.015 C 
BRANCH   5   6
ATOM      6  C   UNL     1      25.768  19.876   4.150  1.00  0.00     0.028 C 
BRANCH   6   7
ATOM      7  C   UNL     1      27.068  20.185   4.907  1.00  0.00    -0.028 C 
ATOM      8  C   UNL     1      27.628  21.403   5.254  1.00  0.00    -0.070 CG0
ATOM      9  C   UNL     1      28.868  21.330   6.115  1.00  0.00     0.039 C 
ATOM     10  G   UNL     1      27.156  22.829   4.841  1.00  0.00     0.000 G0
ENDBRANCH   6   7
ENDBRANCH   5   6
ENDBRANCH   3   5
ENDBRANCH   1   3
BRANCH   1  11
ATOM     11  C   UNL     1      23.808  22.935   4.999  1.00  0.00     0.087 C 
BRANCH  11  12
ATOM     12  C   UNL     1      24.797  24.033   5.558  1.00  0.00     0.066 C 
BRANCH  12  13
ATOM     13  C   UNL     1      26.245  23.566   5.856  1.00  0.00     0.140 C 
ATOM     14  O   UNL     1      26.733  23.880   6.932  1.00  0.00    -0.299 OA
BRANCH  13  15
ATOM     15  C   UNL     1      27.149  22.849   4.838  1.00  0.00     0.106 CG0
ATOM     16  G   UNL     1      27.625  21.427   5.259  1.00  0.00     0.000 G0
ENDBRANCH  13  15
ENDBRANCH  12  13
BRANCH  12  17
ATOM     17  C   UNL     1      24.843  25.309   4.650  1.00  0.00    -0.006 C 
ATOM     18  C   UNL     1      23.933  26.424   5.206  1.00  0.00     0.008 C 
ATOM     19  C   UNL     1      24.436  25.031   3.191  1.00  0.00     0.008 C 
ENDBRANCH  12  17
ENDBRANCH  11  12
ENDBRANCH   1  11
TORSDOF 1
ENDMDL
MODEL 6
REMARK VINA RESULT:    -3.494      2.875      4.747
REMARK INTER + INTRA:          -5.404
REMARK INTER:                  -5.595
REMARK INTRA:                   0.192
REMARK UNBOUND:                -0.071
REMARK SMILES CC1=CCC[C@H](C)C(=O)C[C@H](C(C)C)C(=O)C1
REMARK SMILES IDX 8 1 9 2 6 3 7 4 5 5 4 6 3 7 2 8 1 9 10 11 11 12 15 13 16 14
REMARK SMILES IDX 17 15 12 17 13 18 14 19
REMARK H PARENT
REMARK Flexibility Score: 70.00
ROOT
ATOM      1  C   UNL     1      26.874  21.848   3.683  1.00  0.00     0.136 C 
ATOM      2  O   UNL     1      26.610  21.204   2.680  1.00  0.00    -0.299 OA
ENDROOT
BRANCH   1   3
ATOM      3  C   UNL     1      27.548  21.138   4.864  1.00  0.00     0.053 C 
ATOM      4  C   UNL     1      28.105  22.139   5.882  1.00  0.00     0.016 C 
BRANCH   3   5
ATOM      5  C   UNL     1      26.454  20.263   5.434  1.00  0.00     0.015 C 
BRANCH   5   6
ATOM      6  C   UNL     1      25.072  20.007   4.913  1.00  0.00     0.028 C 
BRANCH   6   7
ATOM      7  C   UNL     1      24.095  20.164   6.088  1.00  0.00    -0.028 C 
ATOM      8  C   UNL     1      23.230  21.201   6.393  1.00  0.00    -0.070 CG0
ATOM      9  C   UNL     1      22.316  20.962   7.573  1.00  0.00     0.039 C 
ATOM     10  G   UNL     1      23.107  22.586   5.692  1.00  0.00     0.000 G0
ENDBRANCH   6   7
ENDBRANCH   5   6
ENDBRANCH   3   5
ENDBRANCH   1   3
BRANCH   1  11
ATOM     11  C   UNL     1      26.493  23.338   3.730  1.00  0.00     0.087 C 
BRANCH  11  12
ATOM     12  C   UNL     1      24.974  23.670   4.008  1.00  0.00     0.066 C 
BRANCH  12  13
ATOM     13  C   UNL     1      24.441  23.317   5.420  1.00  0.00     0.140 C 
ATOM     14  O   UNL     1      25.172  23.538   6.376  1.00  0.00    -0.299 OA
BRANCH  13  15
ATOM     15  C   UNL     1      23.112  22.590   5.686  1.00  0.00     0.106 CG0
ATOM     16  G   UNL     1      23.240  21.208   6.393  1.00  0.00     0.000 G0
ENDBRANCH  13  15
ENDBRANCH  12  13
BRANCH  12  17
ATOM     17  C   UNL     1      24.621  25.161   3.681  1.00  0.00    -0.006 C 
ATOM     18  C   UNL     1      23.197  25.516   4.155  1.00  0.00     0.008 C 
ATOM     19  C   UNL     1      24.733  25.497   2.182  1.00  0.00     0.008 C 
ENDBRANCH  12  17
ENDBRANCH  11  12
ENDBRANCH   1  11
TORSDOF 1
ENDMDL
MODEL 7
REMARK VINA RESULT:    -3.320      2.274      4.254
REMARK INTER + INTRA:          -5.138
REMARK INTER:                  -5.877
REMARK INTRA:                   0.739
REMARK UNBOUND:                -0.071
REMARK SMILES CC1=CCC[C@H](C)C(=O)C[C@H](C(C)C)C(=O)C1
REMARK SMILES IDX 8 1 9 2 6 3 7 4 5 5 4 6 3 7 2 8 1 9 10 11 11 12 15 13 16 14
REMARK SMILES IDX 17 15 12 17 13 18 14 19
REMARK H PARENT
REMARK Flexibility Score: 70.00
ROOT
ATOM      1  C   UNL     1      30.155  20.568   6.223  1.00  0.00     0.136 C 
ATOM      2  O   UNL     1      29.686  20.831   5.127  1.00  0.00    -0.299 OA
ENDROOT
BRANCH   1   3
ATOM      3  C   UNL     1      31.626  20.139   6.316  1.00  0.00     0.053 C 
ATOM      4  C   UNL     1      32.226  19.876   4.931  1.00  0.00     0.016 C 
BRANCH   3   5
ATOM      5  C   UNL     1      32.293  21.286   7.041  1.00  0.00     0.015 C 
BRANCH   5   6
ATOM      6  C   UNL     1      32.001  21.854   8.397  1.00  0.00     0.028 C 
BRANCH   6   7
ATOM      7  C   UNL     1      32.019  23.385   8.276  1.00  0.00    -0.028 C 
ATOM      8  C   UNL     1      31.095  24.243   7.704  1.00  0.00    -0.070 CG0
ATOM      9  C   UNL     1      31.380  25.717   7.875  1.00  0.00     0.039 C 
ATOM     10  G   UNL     1      29.822  23.875   6.886  1.00  0.00     0.000 G0
ENDBRANCH   6   7
ENDBRANCH   5   6
ENDBRANCH   3   5
ENDBRANCH   1   3
BRANCH   1  11
ATOM     11  C   UNL     1      29.244  20.649   7.460  1.00  0.00     0.087 C 
BRANCH  11  12
ATOM     12  C   UNL     1      28.153  21.791   7.461  1.00  0.00     0.066 C 
BRANCH  12  13
ATOM     13  C   UNL     1      28.672  23.235   7.684  1.00  0.00     0.140 C 
ATOM     14  O   UNL     1      28.059  23.944   8.470  1.00  0.00    -0.299 OA
BRANCH  13  15
ATOM     15  C   UNL     1      29.822  23.873   6.887  1.00  0.00     0.106 CG0
ATOM     16  G   UNL     1      31.085  24.239   7.722  1.00  0.00     0.000 G0
ENDBRANCH  13  15
ENDBRANCH  12  13
BRANCH  12  17
ATOM     17  C   UNL     1      27.255  21.757   6.178  1.00  0.00    -0.006 C 
ATOM     18  C   UNL     1      26.264  22.940   6.158  1.00  0.00     0.008 C 
ATOM     19  C   UNL     1      26.455  20.450   6.032  1.00  0.00     0.008 C 
ENDBRANCH  12  17
ENDBRANCH  11  12
ENDBRANCH   1  11
TORSDOF 1
ENDMDL
MODEL 8
REMARK VINA RESULT:    -3.224      1.421      3.754
REMARK INTER + INTRA:          -4.991
REMARK INTER:                  -5.256
REMARK INTRA:                   0.265
REMARK UNBOUND:                -0.071
REMARK SMILES CC1=CCC[C@H](C)C(=O)C[C@H](C(C)C)C(=O)C1
REMARK SMILES IDX 8 1 9 2 6 3 7 4 5 5 4 6 3 7 2 8 1 9 10 11 11 12 15 13 16 14
REMARK SMILES IDX 17 15 12 17 13 18 14 19
REMARK H PARENT
REMARK Flexibility Score: 70.00
ROOT
ATOM      1  C   UNL     1      25.638  22.811   5.257  1.00  0.00     0.136 C 
ATOM      2  O   UNL     1      24.616  22.624   5.899  1.00  0.00    -0.299 OA
ENDROOT
BRANCH   1   3
ATOM      3  C   UNL     1      25.614  22.576   3.740  1.00  0.00     0.053 C 
ATOM      4  C   UNL     1      25.563  23.897   2.965  1.00  0.00     0.016 C 
BRANCH   3   5
ATOM      5  C   UNL     1      26.875  21.785   3.476  1.00  0.00     0.015 C 
BRANCH   5   6
ATOM      6  C   UNL     1      27.181  20.351   3.787  1.00  0.00     0.028 C 
BRANCH   6   7
ATOM      7  C   UNL     1      28.692  20.241   4.040  1.00  0.00    -0.028 C 
ATOM      8  C   UNL     1      29.386  20.065   5.225  1.00  0.00    -0.070 CG0
ATOM      9  C   UNL     1      30.879  19.875   5.085  1.00  0.00     0.039 C 
ATOM     10  G   UNL     1      28.822  20.069   6.677  1.00  0.00     0.000 G0
ENDBRANCH   6   7
ENDBRANCH   5   6
ENDBRANCH   3   5
ENDBRANCH   1   3
BRANCH   1  11
ATOM     11  C   UNL     1      26.914  23.244   6.000  1.00  0.00     0.087 C 
BRANCH  11  12
ATOM     12  C   UNL     1      27.384  22.322   7.193  1.00  0.00     0.066 C 
BRANCH  12  13
ATOM     13  C   UNL     1      27.485  20.804   6.889  1.00  0.00     0.140 C 
ATOM     14  O   UNL     1      26.451  20.150   6.914  1.00  0.00    -0.299 OA
BRANCH  13  15
ATOM     15  C   UNL     1      28.809  20.049   6.687  1.00  0.00     0.106 CG0
ATOM     16  G   UNL     1      29.379  20.082   5.238  1.00  0.00     0.000 G0
ENDBRANCH  13  15
ENDBRANCH  12  13
BRANCH  12  17
ATOM     17  C   UNL     1      28.730  22.811   7.828  1.00  0.00    -0.006 C 
ATOM     18  C   UNL     1      28.524  24.097   8.653  1.00  0.00     0.008 C 
ATOM     19  C   UNL     1      29.834  23.072   6.786  1.00  0.00     0.008 C 
ENDBRANCH  12  17
ENDBRANCH  11  12
ENDBRANCH   1  11
TORSDOF 1
ENDMDL
MODEL 9
REMARK VINA RESULT:    -3.133      2.751      5.380
REMARK INTER + INTRA:          -4.851
REMARK INTER:                  -4.762
REMARK INTRA:                  -0.089
REMARK UNBOUND:                -0.071
REMARK SMILES CC1=CCC[C@H](C)C(=O)C[C@H](C(C)C)C(=O)C1
REMARK SMILES IDX 8 1 9 2 6 3 7 4 5 5 4 6 3 7 2 8 1 9 10 11 11 12 15 13 16 14
REMARK SMILES IDX 17 15 12 17 13 18 14 19
REMARK H PARENT
REMARK Flexibility Score: 70.00
ROOT
ATOM      1  C   UNL     1      26.194  23.459   3.639  1.00  0.00     0.136 C 
ATOM      2  O   UNL     1      27.273  23.903   3.280  1.00  0.00    -0.299 OA
ENDROOT
BRANCH   1   3
ATOM      3  C   UNL     1      25.062  24.439   3.976  1.00  0.00     0.053 C 
ATOM      4  C   UNL     1      24.562  25.174   2.728  1.00  0.00     0.016 C 
BRANCH   3   5
ATOM      5  C   UNL     1      24.004  23.567   4.613  1.00  0.00     0.015 C 
BRANCH   5   6
ATOM      6  C   UNL     1      23.775  23.251   6.059  1.00  0.00     0.028 C 
BRANCH   6   7
ATOM      7  C   UNL     1      22.741  22.117   6.131  1.00  0.00    -0.028 C 
ATOM      8  C   UNL     1      22.889  20.761   5.895  1.00  0.00    -0.070 CG0
ATOM      9  C   UNL     1      21.673  19.912   6.182  1.00  0.00     0.039 C 
ATOM     10  G   UNL     1      24.140  20.014   5.343  1.00  0.00     0.000 G0
ENDBRANCH   6   7
ENDBRANCH   5   6
ENDBRANCH   3   5
ENDBRANCH   1   3
BRANCH   1  11
ATOM     11  C   UNL     1      26.024  21.934   3.767  1.00  0.00     0.087 C 
BRANCH  11  12
ATOM     12  C   UNL     1      26.531  21.278   5.111  1.00  0.00     0.066 C 
BRANCH  12  13
ATOM     13  C   UNL     1      25.487  20.455   5.909  1.00  0.00     0.140 C 
ATOM     14  O   UNL     1      25.809  20.054   7.020  1.00  0.00    -0.299 OA
BRANCH  13  15
ATOM     15  C   UNL     1      24.130  20.001   5.346  1.00  0.00     0.106 CG0
ATOM     16  G   UNL     1      22.892  20.767   5.900  1.00  0.00     0.000 G0
ENDBRANCH  13  15
ENDBRANCH  12  13
BRANCH  12  17
ATOM     17  C   UNL     1      27.820  20.412   4.901  1.00  0.00    -0.006 C 
ATOM     18  C   UNL     1      29.079  21.156   5.389  1.00  0.00     0.008 C 
ATOM     19  C   UNL     1      28.039  19.995   3.434  1.00  0.00     0.008 C 
ENDBRANCH  12  17
ENDBRANCH  11  12
ENDBRANCH   1  11
TORSDOF 1
ENDMDL
