MODEL 1
REMARK VINA RESULT:    -3.404      0.000      0.000
REMARK INTER + INTRA:          -3.835
REMARK INTER:                  -3.802
REMARK INTRA:                  -0.033
REMARK UNBOUND:                -0.033
REMARK SMILES CCCC(=O)[O-]
REMARK SMILES IDX 3 1 4 2 5 3 6 4 2 5 1 6
REMARK H PARENT
REMARK Flexibility Score: inf
ROOT
ATOM      1  C   UNL     1     -21.999   0.750  23.125  1.00  0.00     0.052 C 
ENDROOT
BRANCH   1   2
ATOM      2  C   UNL     1     -22.994   1.075  24.197  1.00  0.00     0.041 C 
ATOM      3  O   UNL     1     -22.750   1.983  25.035  1.00  0.00    -0.550 OA
ATOM      4  O   UNL     1     -24.204   0.396  24.249  1.00  0.00    -0.550 OA
ENDBRANCH   1   2
BRANCH   1   5
ATOM      5  C   UNL     1     -21.860   1.896  22.114  1.00  0.00     0.003 C 
ATOM      6  C   UNL     1     -23.214   2.410  21.626  1.00  0.00     0.004 C 
ENDBRANCH   1   5
TORSDOF 2
ENDMDL
MODEL 2
REMARK VINA RESULT:    -3.388      1.257      1.489
REMARK INTER + INTRA:          -3.817
REMARK INTER:                  -3.747
REMARK INTRA:                  -0.070
REMARK UNBOUND:                -0.033
REMARK SMILES CCCC(=O)[O-]
REMARK SMILES IDX 3 1 4 2 5 3 6 4 2 5 1 6
REMARK H PARENT
REMARK Flexibility Score: inf
ROOT
ATOM      1  C   UNL     1     -23.554   1.107  23.388  1.00  0.00     0.052 C 
ENDROOT
BRANCH   1   2
ATOM      2  C   UNL     1     -22.709   1.165  24.623  1.00  0.00     0.041 C 
ATOM      3  O   UNL     1     -22.708   2.199  25.343  1.00  0.00    -0.550 OA
ATOM      4  O   UNL     1     -21.948   0.065  24.996  1.00  0.00    -0.550 OA
ENDBRANCH   1   2
BRANCH   1   5
ATOM      5  C   UNL     1     -23.079   2.108  22.327  1.00  0.00     0.003 C 
ATOM      6  C   UNL     1     -21.607   1.915  21.963  1.00  0.00     0.004 C 
ENDBRANCH   1   5
TORSDOF 2
ENDMDL
MODEL 3
REMARK VINA RESULT:    -3.349      2.241      3.221
REMARK INTER + INTRA:          -3.774
REMARK INTER:                  -3.764
REMARK INTRA:                  -0.009
REMARK UNBOUND:                -0.033
REMARK SMILES CCCC(=O)[O-]
REMARK SMILES IDX 3 1 4 2 5 3 6 4 2 5 1 6
REMARK H PARENT
REMARK Flexibility Score: inf
ROOT
ATOM      1  C   UNL     1     -23.091   1.591  23.706  1.00  0.00     0.052 C 
ENDROOT
BRANCH   1   2
ATOM      2  C   UNL     1     -22.677   2.046  22.340  1.00  0.00     0.041 C 
ATOM      3  O   UNL     1     -23.490   2.664  21.603  1.00  0.00    -0.550 OA
ATOM      4  O   UNL     1     -21.382   1.816  21.895  1.00  0.00    -0.550 OA
ENDBRANCH   1   2
BRANCH   1   5
ATOM      5  C   UNL     1     -22.226   0.424  24.201  1.00  0.00     0.003 C 
ATOM      6  C   UNL     1     -23.025  -0.583  25.028  1.00  0.00     0.004 C 
ENDBRANCH   1   5
TORSDOF 2
ENDMDL
MODEL 4
REMARK VINA RESULT:    -3.204     10.133     10.685
REMARK INTER + INTRA:          -3.612
REMARK INTER:                  -3.569
REMARK INTRA:                  -0.043
REMARK UNBOUND:                -0.033
REMARK SMILES CCCC(=O)[O-]
REMARK SMILES IDX 3 1 4 2 5 3 6 4 2 5 1 6
REMARK H PARENT
REMARK Flexibility Score: inf
ROOT
ATOM      1  C   UNL     1     -17.475   7.532  28.731  1.00  0.00     0.052 C 
ENDROOT
BRANCH   1   2
ATOM      2  C   UNL     1     -18.077   8.020  30.012  1.00  0.00     0.041 C 
ATOM      3  O   UNL     1     -17.501   7.796  31.110  1.00  0.00    -0.550 OA
ATOM      4  O   UNL     1     -19.258   8.751  29.991  1.00  0.00    -0.550 OA
ENDBRANCH   1   2
BRANCH   1   5
ATOM      5  C   UNL     1     -16.754   8.658  27.977  1.00  0.00     0.003 C 
ATOM      6  C   UNL     1     -15.289   8.790  28.390  1.00  0.00     0.004 C 
ENDBRANCH   1   5
TORSDOF 2
ENDMDL
MODEL 5
REMARK VINA RESULT:    -3.203     10.554     11.286
REMARK INTER + INTRA:          -3.611
REMARK INTER:                  -3.549
REMARK INTRA:                  -0.062
REMARK UNBOUND:                -0.033
REMARK SMILES CCCC(=O)[O-]
REMARK SMILES IDX 3 1 4 2 5 3 6 4 2 5 1 6
REMARK H PARENT
REMARK Flexibility Score: inf
ROOT
ATOM      1  C   UNL     1     -17.340   7.693  28.592  1.00  0.00     0.052 C 
ENDROOT
BRANCH   1   2
ATOM      2  C   UNL     1     -16.469   8.875  28.291  1.00  0.00     0.041 C 
ATOM      3  O   UNL     1     -16.982  10.009  28.103  1.00  0.00    -0.550 OA
ATOM      4  O   UNL     1     -15.089   8.727  28.251  1.00  0.00    -0.550 OA
ENDBRANCH   1   2
BRANCH   1   5
ATOM      5  C   UNL     1     -18.145   7.895  29.883  1.00  0.00     0.003 C 
ATOM      6  C   UNL     1     -17.251   8.200  31.084  1.00  0.00     0.004 C 
ENDBRANCH   1   5
TORSDOF 2
ENDMDL
MODEL 6
REMARK VINA RESULT:    -3.165     14.460     15.225
REMARK INTER + INTRA:          -3.569
REMARK INTER:                  -3.520
REMARK INTRA:                  -0.048
REMARK UNBOUND:                -0.033
REMARK SMILES CCCC(=O)[O-]
REMARK SMILES IDX 3 1 4 2 5 3 6 4 2 5 1 6
REMARK H PARENT
REMARK Flexibility Score: inf
ROOT
ATOM      1  C   UNL     1     -17.856   1.808  36.640  1.00  0.00     0.052 C 
ENDROOT
BRANCH   1   2
ATOM      2  C   UNL     1     -18.023   2.195  38.078  1.00  0.00     0.041 C 
ATOM      3  O   UNL     1     -19.165   2.190  38.607  1.00  0.00    -0.550 OA
ATOM      4  O   UNL     1     -16.911   2.532  38.839  1.00  0.00    -0.550 OA
ENDBRANCH   1   2
BRANCH   1   5
ATOM      5  C   UNL     1     -18.353   0.381  36.375  1.00  0.00     0.003 C 
ATOM      6  C   UNL     1     -17.702  -0.644  37.303  1.00  0.00     0.004 C 
ENDBRANCH   1   5
TORSDOF 2
ENDMDL
MODEL 7
REMARK VINA RESULT:    -3.076     14.388     14.953
REMARK INTER + INTRA:          -3.469
REMARK INTER:                  -3.435
REMARK INTRA:                  -0.034
REMARK UNBOUND:                -0.033
REMARK SMILES CCCC(=O)[O-]
REMARK SMILES IDX 3 1 4 2 5 3 6 4 2 5 1 6
REMARK H PARENT
REMARK Flexibility Score: inf
ROOT
ATOM      1  C   UNL     1     -18.643   0.386  37.375  1.00  0.00     0.052 C 
ENDROOT
BRANCH   1   2
ATOM      2  C   UNL     1     -18.100   1.771  37.205  1.00  0.00     0.041 C 
ATOM      3  O   UNL     1     -17.874   2.227  36.053  1.00  0.00    -0.550 OA
ATOM      4  O   UNL     1     -17.875   2.570  38.319  1.00  0.00    -0.550 OA
ENDBRANCH   1   2
BRANCH   1   5
ATOM      5  C   UNL     1     -17.542  -0.613  37.756  1.00  0.00     0.003 C 
ATOM      6  C   UNL     1     -17.106  -1.477  36.574  1.00  0.00     0.004 C 
ENDBRANCH   1   5
TORSDOF 2
ENDMDL
MODEL 8
REMARK VINA RESULT:    -3.068     11.936     12.418
REMARK INTER + INTRA:          -3.460
REMARK INTER:                  -3.455
REMARK INTRA:                  -0.006
REMARK UNBOUND:                -0.033
REMARK SMILES CCCC(=O)[O-]
REMARK SMILES IDX 3 1 4 2 5 3 6 4 2 5 1 6
REMARK H PARENT
REMARK Flexibility Score: inf
ROOT
ATOM      1  C   UNL     1     -15.637   9.190  30.289  1.00  0.00     0.052 C 
ENDROOT
BRANCH   1   2
ATOM      2  C   UNL     1     -15.726   9.293  28.797  1.00  0.00     0.041 C 
ATOM      3  O   UNL     1     -16.609  10.015  28.263  1.00  0.00    -0.550 OA
ATOM      4  O   UNL     1     -14.812   8.618  27.999  1.00  0.00    -0.550 OA
ENDBRANCH   1   2
BRANCH   1   5
ATOM      5  C   UNL     1     -16.951   8.691  30.903  1.00  0.00     0.003 C 
ATOM      6  C   UNL     1     -16.787   8.261  32.359  1.00  0.00     0.004 C 
ENDBRANCH   1   5
TORSDOF 2
ENDMDL
MODEL 9
REMARK VINA RESULT:    -2.997     10.553     11.416
REMARK INTER + INTRA:          -3.381
REMARK INTER:                  -3.346
REMARK INTRA:                  -0.035
REMARK UNBOUND:                -0.033
REMARK SMILES CCCC(=O)[O-]
REMARK SMILES IDX 3 1 4 2 5 3 6 4 2 5 1 6
REMARK H PARENT
REMARK Flexibility Score: inf
ROOT
ATOM      1  C   UNL     1     -16.793  -1.499  32.134  1.00  0.00     0.052 C 
ENDROOT
BRANCH   1   2
ATOM      2  C   UNL     1     -15.644  -2.459  32.074  1.00  0.00     0.041 C 
ATOM      3  O   UNL     1     -15.706  -3.477  31.335  1.00  0.00    -0.550 OA
ATOM      4  O   UNL     1     -14.493  -2.210  32.809  1.00  0.00    -0.550 OA
ENDBRANCH   1   2
BRANCH   1   5
ATOM      5  C   UNL     1     -17.838  -1.796  31.051  1.00  0.00     0.003 C 
ATOM      6  C   UNL     1     -19.210  -2.119  31.639  1.00  0.00     0.004 C 
ENDBRANCH   1   5
TORSDOF 2
ENDMDL
