MODEL 1
REMARK VINA RESULT:    -3.336      0.000      0.000
REMARK INTER + INTRA:          -5.069
REMARK INTER:                  -4.701
REMARK INTRA:                  -0.368
REMARK UNBOUND:                -0.368
REMARK SMILES CCCCCCCCC(=O)[O-]
REMARK SMILES IDX 6 1 7 2 8 3 9 4 10 5 11 6 5 7 4 8 3 9 2 10 1 11
REMARK H PARENT
REMARK Flexibility Score: inf
ROOT
ATOM      1  C   UNL     1     -44.617 -36.192  12.561  1.00  0.00     0.000 C 
ENDROOT
BRANCH   1   2
ATOM      2  C   UNL     1     -44.597 -37.660  13.022  1.00  0.00     0.006 C 
BRANCH   2   3
ATOM      3  C   UNL     1     -45.264 -37.846  14.391  1.00  0.00     0.053 C 
BRANCH   3   4
ATOM      4  C   UNL     1     -44.266 -38.192  15.455  1.00  0.00     0.041 C 
ATOM      5  O   UNL     1     -43.060 -38.386  15.151  1.00  0.00    -0.550 OA
ATOM      6  O   UNL     1     -44.662 -38.268  16.784  1.00  0.00    -0.550 OA
ENDBRANCH   3   4
ENDBRANCH   2   3
ENDBRANCH   1   2
BRANCH   1   7
ATOM      7  C   UNL     1     -46.023 -35.573  12.616  1.00  0.00     0.000 C 
BRANCH   7   8
ATOM      8  C   UNL     1     -46.082 -34.310  13.488  1.00  0.00    -0.000 C 
BRANCH   8   9
ATOM      9  C   UNL     1     -45.693 -33.065  12.678  1.00  0.00    -0.000 C 
BRANCH   9  10
ATOM     10  C   UNL     1     -44.951 -32.018  13.523  1.00  0.00    -0.003 C 
ATOM     11  C   UNL     1     -44.871 -32.397  15.001  1.00  0.00     0.004 C 
ENDBRANCH   9  10
ENDBRANCH   8   9
ENDBRANCH   7   8
ENDBRANCH   1   7
TORSDOF 7
ENDMDL
MODEL 2
REMARK VINA RESULT:    -3.319      2.039      3.024
REMARK INTER + INTRA:          -5.045
REMARK INTER:                  -4.591
REMARK INTRA:                  -0.454
REMARK UNBOUND:                -0.368
REMARK SMILES CCCCCCCCC(=O)[O-]
REMARK SMILES IDX 6 1 7 2 8 3 9 4 10 5 11 6 5 7 4 8 3 9 2 10 1 11
REMARK H PARENT
REMARK Flexibility Score: inf
ROOT
ATOM      1  C   UNL     1     -43.902 -38.221  14.816  1.00  0.00     0.000 C 
ENDROOT
BRANCH   1   2
ATOM      2  C   UNL     1     -44.858 -37.605  15.853  1.00  0.00     0.006 C 
BRANCH   2   3
ATOM      3  C   UNL     1     -44.581 -38.116  17.272  1.00  0.00     0.053 C 
BRANCH   3   4
ATOM      4  C   UNL     1     -44.621 -37.009  18.282  1.00  0.00     0.041 C 
ATOM      5  O   UNL     1     -45.434 -36.058  18.145  1.00  0.00    -0.550 OA
ATOM      6  O   UNL     1     -43.784 -37.045  19.390  1.00  0.00    -0.550 OA
ENDBRANCH   3   4
ENDBRANCH   2   3
ENDBRANCH   1   2
BRANCH   1   7
ATOM      7  C   UNL     1     -44.277 -37.850  13.372  1.00  0.00     0.000 C 
BRANCH   7   8
ATOM      8  C   UNL     1     -45.480 -36.899  13.297  1.00  0.00    -0.000 C 
BRANCH   8   9
ATOM      9  C   UNL     1     -45.233 -35.782  12.272  1.00  0.00    -0.000 C 
BRANCH   9  10
ATOM     10  C   UNL     1     -45.582 -34.389  12.820  1.00  0.00    -0.003 C 
ATOM     11  C   UNL     1     -45.764 -34.377  14.337  1.00  0.00     0.004 C 
ENDBRANCH   9  10
ENDBRANCH   8   9
ENDBRANCH   7   8
ENDBRANCH   1   7
TORSDOF 7
ENDMDL
MODEL 3
REMARK VINA RESULT:    -3.308     12.840     14.391
REMARK INTER + INTRA:          -5.030
REMARK INTER:                  -4.343
REMARK INTRA:                  -0.687
REMARK UNBOUND:                -0.368
REMARK SMILES CCCCCCCCC(=O)[O-]
REMARK SMILES IDX 6 1 7 2 8 3 9 4 10 5 11 6 5 7 4 8 3 9 2 10 1 11
REMARK H PARENT
REMARK Flexibility Score: inf
ROOT
ATOM      1  C   UNL     1     -37.853 -33.959  27.615  1.00  0.00     0.000 C 
ENDROOT
BRANCH   1   2
ATOM      2  C   UNL     1     -37.887 -34.112  26.084  1.00  0.00     0.006 C 
BRANCH   2   3
ATOM      3  C   UNL     1     -37.515 -32.810  25.363  1.00  0.00     0.053 C 
BRANCH   3   4
ATOM      4  C   UNL     1     -38.200 -32.692  24.035  1.00  0.00     0.041 C 
ATOM      5  O   UNL     1     -39.394 -32.299  23.972  1.00  0.00    -0.550 OA
ATOM      6  O   UNL     1     -37.510 -32.988  22.866  1.00  0.00    -0.550 OA
ENDBRANCH   3   4
ENDBRANCH   2   3
ENDBRANCH   1   2
BRANCH   1   7
ATOM      7  C   UNL     1     -38.256 -32.550  28.078  1.00  0.00     0.000 C 
BRANCH   7   8
ATOM      8  C   UNL     1     -39.721 -32.471  28.533  1.00  0.00    -0.000 C 
BRANCH   8   9
ATOM      9  C   UNL     1     -40.607 -31.875  27.429  1.00  0.00    -0.000 C 
BRANCH   9  10
ATOM     10  C   UNL     1     -41.502 -32.928  26.757  1.00  0.00    -0.003 C 
ATOM     11  C   UNL     1     -42.404 -33.661  27.750  1.00  0.00     0.004 C 
ENDBRANCH   9  10
ENDBRANCH   8   9
ENDBRANCH   7   8
ENDBRANCH   1   7
TORSDOF 7
ENDMDL
MODEL 4
REMARK VINA RESULT:    -3.305      3.169      4.966
REMARK INTER + INTRA:          -5.026
REMARK INTER:                  -4.773
REMARK INTRA:                  -0.252
REMARK UNBOUND:                -0.368
REMARK SMILES CCCCCCCCC(=O)[O-]
REMARK SMILES IDX 6 1 7 2 8 3 9 4 10 5 11 6 5 7 4 8 3 9 2 10 1 11
REMARK H PARENT
REMARK Flexibility Score: inf
ROOT
ATOM      1  C   UNL     1     -45.082 -38.218  17.022  1.00  0.00     0.000 C 
ENDROOT
BRANCH   1   2
ATOM      2  C   UNL     1     -45.363 -37.276  18.206  1.00  0.00     0.006 C 
BRANCH   2   3
ATOM      3  C   UNL     1     -44.142 -37.112  19.120  1.00  0.00     0.053 C 
BRANCH   3   4
ATOM      4  C   UNL     1     -44.539 -36.853  20.542  1.00  0.00     0.041 C 
ATOM      5  O   UNL     1     -44.160 -35.803  21.123  1.00  0.00    -0.550 OA
ATOM      6  O   UNL     1     -45.352 -37.757  21.214  1.00  0.00    -0.550 OA
ENDBRANCH   3   4
ENDBRANCH   2   3
ENDBRANCH   1   2
BRANCH   1   7
ATOM      7  C   UNL     1     -44.847 -37.460  15.706  1.00  0.00     0.000 C 
BRANCH   7   8
ATOM      8  C   UNL     1     -43.941 -38.228  14.732  1.00  0.00    -0.000 C 
BRANCH   8   9
ATOM      9  C   UNL     1     -44.239 -37.833  13.278  1.00  0.00    -0.000 C 
BRANCH   9  10
ATOM     10  C   UNL     1     -45.486 -36.944  13.151  1.00  0.00    -0.003 C 
ATOM     11  C   UNL     1     -45.224 -35.665  12.357  1.00  0.00     0.004 C 
ENDBRANCH   9  10
ENDBRANCH   8   9
ENDBRANCH   7   8
ENDBRANCH   1   7
TORSDOF 7
ENDMDL
MODEL 5
REMARK VINA RESULT:    -3.289      3.679      5.715
REMARK INTER + INTRA:          -5.003
REMARK INTER:                  -4.765
REMARK INTRA:                  -0.238
REMARK UNBOUND:                -0.368
REMARK SMILES CCCCCCCCC(=O)[O-]
REMARK SMILES IDX 6 1 7 2 8 3 9 4 10 5 11 6 5 7 4 8 3 9 2 10 1 11
REMARK H PARENT
REMARK Flexibility Score: inf
ROOT
ATOM      1  C   UNL     1     -45.082 -38.268  16.904  1.00  0.00     0.000 C 
ENDROOT
BRANCH   1   2
ATOM      2  C   UNL     1     -44.541 -37.353  15.791  1.00  0.00     0.006 C 
BRANCH   2   3
ATOM      3  C   UNL     1     -43.910 -38.149  14.642  1.00  0.00     0.053 C 
BRANCH   3   4
ATOM      4  C   UNL     1     -44.591 -37.878  13.335  1.00  0.00     0.041 C 
ATOM      5  O   UNL     1     -44.322 -36.833  12.686  1.00  0.00    -0.550 OA
ATOM      6  O   UNL     1     -45.499 -38.794  12.819  1.00  0.00    -0.550 OA
ENDBRANCH   3   4
ENDBRANCH   2   3
ENDBRANCH   1   2
BRANCH   1   7
ATOM      7  C   UNL     1     -45.650 -37.479  18.095  1.00  0.00     0.000 C 
BRANCH   7   8
ATOM      8  C   UNL     1     -44.644 -36.473  18.674  1.00  0.00    -0.000 C 
BRANCH   8   9
ATOM      9  C   UNL     1     -44.183 -36.903  20.074  1.00  0.00    -0.000 C 
BRANCH   9  10
ATOM     10  C   UNL     1     -45.249 -36.652  21.151  1.00  0.00    -0.003 C 
ATOM     11  C   UNL     1     -45.920 -37.938  21.633  1.00  0.00     0.004 C 
ENDBRANCH   9  10
ENDBRANCH   8   9
ENDBRANCH   7   8
ENDBRANCH   1   7
TORSDOF 7
ENDMDL
MODEL 6
REMARK VINA RESULT:    -3.217     13.025     14.713
REMARK INTER + INTRA:          -4.903
REMARK INTER:                  -4.212
REMARK INTRA:                  -0.691
REMARK UNBOUND:                -0.368
REMARK SMILES CCCCCCCCC(=O)[O-]
REMARK SMILES IDX 6 1 7 2 8 3 9 4 10 5 11 6 5 7 4 8 3 9 2 10 1 11
REMARK H PARENT
REMARK Flexibility Score: inf
ROOT
ATOM      1  C   UNL     1     -39.154 -32.503  29.125  1.00  0.00     0.000 C 
ENDROOT
BRANCH   1   2
ATOM      2  C   UNL     1     -40.554 -32.972  28.691  1.00  0.00     0.006 C 
BRANCH   2   3
ATOM      3  C   UNL     1     -41.059 -32.221  27.452  1.00  0.00     0.053 C 
BRANCH   3   4
ATOM      4  C   UNL     1     -42.134 -32.983  26.737  1.00  0.00     0.041 C 
ATOM      5  O   UNL     1     -42.498 -32.632  25.584  1.00  0.00    -0.550 OA
ATOM      6  O   UNL     1     -42.711 -34.097  27.332  1.00  0.00    -0.550 OA
ENDBRANCH   3   4
ENDBRANCH   2   3
ENDBRANCH   1   2
BRANCH   1   7
ATOM      7  C   UNL     1     -38.166 -32.423  27.950  1.00  0.00     0.000 C 
BRANCH   7   8
ATOM      8  C   UNL     1     -37.581 -33.793  27.573  1.00  0.00    -0.000 C 
BRANCH   8   9
ATOM      9  C   UNL     1     -37.909 -34.146  26.114  1.00  0.00    -0.000 C 
BRANCH   9  10
ATOM     10  C   UNL     1     -37.865 -32.923  25.186  1.00  0.00    -0.003 C 
ATOM     11  C   UNL     1     -39.039 -32.878  24.208  1.00  0.00     0.004 C 
ENDBRANCH   9  10
ENDBRANCH   8   9
ENDBRANCH   7   8
ENDBRANCH   1   7
TORSDOF 7
ENDMDL
MODEL 7
REMARK VINA RESULT:    -3.144      3.151      5.051
REMARK INTER + INTRA:          -4.799
REMARK INTER:                  -4.318
REMARK INTRA:                  -0.480
REMARK UNBOUND:                -0.368
REMARK SMILES CCCCCCCCC(=O)[O-]
REMARK SMILES IDX 6 1 7 2 8 3 9 4 10 5 11 6 5 7 4 8 3 9 2 10 1 11
REMARK H PARENT
REMARK Flexibility Score: inf
ROOT
ATOM      1  C   UNL     1     -44.013 -38.014  16.401  1.00  0.00     0.000 C 
ENDROOT
BRANCH   1   2
ATOM      2  C   UNL     1     -43.915 -38.285  14.890  1.00  0.00     0.006 C 
BRANCH   2   3
ATOM      3  C   UNL     1     -45.183 -37.857  14.140  1.00  0.00     0.053 C 
BRANCH   3   4
ATOM      4  C   UNL     1     -45.090 -36.445  13.648  1.00  0.00     0.041 C 
ATOM      5  O   UNL     1     -44.690 -36.208  12.478  1.00  0.00    -0.550 OA
ATOM      6  O   UNL     1     -45.474 -35.393  14.470  1.00  0.00    -0.550 OA
ENDBRANCH   3   4
ENDBRANCH   2   3
ENDBRANCH   1   2
BRANCH   1   7
ATOM      7  C   UNL     1     -45.409 -38.319  16.968  1.00  0.00     0.000 C 
BRANCH   7   8
ATOM      8  C   UNL     1     -45.849 -37.308  18.037  1.00  0.00    -0.000 C 
BRANCH   8   9
ATOM      9  C   UNL     1     -44.681 -36.398  18.445  1.00  0.00    -0.000 C 
BRANCH   9  10
ATOM     10  C   UNL     1     -44.069 -36.793  19.798  1.00  0.00    -0.003 C 
ATOM     11  C   UNL     1     -45.122 -37.186  20.834  1.00  0.00     0.004 C 
ENDBRANCH   9  10
ENDBRANCH   8   9
ENDBRANCH   7   8
ENDBRANCH   1   7
TORSDOF 7
ENDMDL
MODEL 8
REMARK VINA RESULT:    -3.132      2.867      4.766
REMARK INTER + INTRA:          -4.783
REMARK INTER:                  -4.332
REMARK INTRA:                  -0.450
REMARK UNBOUND:                -0.368
REMARK SMILES CCCCCCCCC(=O)[O-]
REMARK SMILES IDX 6 1 7 2 8 3 9 4 10 5 11 6 5 7 4 8 3 9 2 10 1 11
REMARK H PARENT
REMARK Flexibility Score: inf
ROOT
ATOM      1  C   UNL     1     -44.449 -37.583  13.090  1.00  0.00     0.000 C 
ENDROOT
BRANCH   1   2
ATOM      2  C   UNL     1     -45.785 -36.820  13.078  1.00  0.00     0.006 C 
BRANCH   2   3
ATOM      3  C   UNL     1     -45.712 -35.538  12.238  1.00  0.00     0.053 C 
BRANCH   3   4
ATOM      4  C   UNL     1     -45.715 -34.308  13.095  1.00  0.00     0.041 C 
ATOM      5  O   UNL     1     -45.549 -34.404  14.339  1.00  0.00    -0.550 OA
ATOM      6  O   UNL     1     -45.871 -33.055  12.516  1.00  0.00    -0.550 OA
ENDBRANCH   3   4
ENDBRANCH   2   3
ENDBRANCH   1   2
BRANCH   1   7
ATOM      7  C   UNL     1     -44.120 -38.177  14.470  1.00  0.00     0.000 C 
BRANCH   7   8
ATOM      8  C   UNL     1     -45.110 -37.734  15.558  1.00  0.00    -0.000 C 
BRANCH   8   9
ATOM      9  C   UNL     1     -44.682 -38.260  16.936  1.00  0.00    -0.000 C 
BRANCH   9  10
ATOM     10  C   UNL     1     -44.940 -37.247  18.061  1.00  0.00    -0.003 C 
ATOM     11  C   UNL     1     -44.946 -35.800  17.568  1.00  0.00     0.004 C 
ENDBRANCH   9  10
ENDBRANCH   8   9
ENDBRANCH   7   8
ENDBRANCH   1   7
TORSDOF 7
ENDMDL
MODEL 9
REMARK VINA RESULT:    -3.086      2.583      4.444
REMARK INTER + INTRA:          -4.717
REMARK INTER:                  -3.958
REMARK INTRA:                  -0.759
REMARK UNBOUND:                -0.368
REMARK SMILES CCCCCCCCC(=O)[O-]
REMARK SMILES IDX 6 1 7 2 8 3 9 4 10 5 11 6 5 7 4 8 3 9 2 10 1 11
REMARK H PARENT
REMARK Flexibility Score: inf
ROOT
ATOM      1  C   UNL     1     -45.507 -37.703  16.155  1.00  0.00     0.000 C 
ENDROOT
BRANCH   1   2
ATOM      2  C   UNL     1     -45.543 -36.382  16.943  1.00  0.00     0.006 C 
BRANCH   2   3
ATOM      3  C   UNL     1     -46.050 -35.212  16.089  1.00  0.00     0.053 C 
BRANCH   3   4
ATOM      4  C   UNL     1     -45.133 -34.029  16.164  1.00  0.00     0.041 C 
ATOM      5  O   UNL     1     -45.441 -32.952  15.588  1.00  0.00    -0.550 OA
ATOM      6  O   UNL     1     -43.954 -34.105  16.894  1.00  0.00    -0.550 OA
ENDBRANCH   3   4
ENDBRANCH   2   3
ENDBRANCH   1   2
BRANCH   1   7
ATOM      7  C   UNL     1     -44.162 -37.935  15.448  1.00  0.00     0.000 C 
BRANCH   7   8
ATOM      8  C   UNL     1     -44.290 -37.941  13.917  1.00  0.00    -0.000 C 
BRANCH   8   9
ATOM      9  C   UNL     1     -45.765 -37.971  13.490  1.00  0.00    -0.000 C 
BRANCH   9  10
ATOM     10  C   UNL     1     -46.125 -36.830  12.527  1.00  0.00    -0.003 C 
ATOM     11  C   UNL     1     -45.087 -35.709  12.522  1.00  0.00     0.004 C 
ENDBRANCH   9  10
ENDBRANCH   8   9
ENDBRANCH   7   8
ENDBRANCH   1   7
TORSDOF 7
ENDMDL
