MODEL 1
REMARK VINA RESULT:    -4.551      0.000      0.000
REMARK INTER + INTRA:          -5.675
REMARK INTER:                  -5.482
REMARK INTRA:                  -0.194
REMARK UNBOUND:                -0.194
REMARK SMILES C=CCc1ccc(O)c(OC)c1
REMARK SMILES IDX 9 1 7 2 6 3 5 4 4 5 12 6 10 7 11 8 8 9 3 11 2 12 1 13
REMARK H PARENT 8 10
REMARK Flexibility Score: inf
ROOT
ATOM      1  C   UNL     1      15.279  18.527  15.914  1.00  0.00     0.160 A 
ATOM      2  C   UNL     1      15.332  19.661  15.083  1.00  0.00     0.157 A 
ATOM      3  C   UNL     1      16.342  20.614  15.261  1.00  0.00     0.050 A 
ATOM      4  C   UNL     1      17.300  20.450  16.263  1.00  0.00     0.008 A 
ATOM      5  C   UNL     1      17.255  19.331  17.108  1.00  0.00    -0.040 A 
ATOM      6  C   UNL     1      16.250  18.369  16.924  1.00  0.00     0.054 A 
ENDROOT
BRANCH   1   7
ATOM      7  O   UNL     1      14.258  17.585  15.710  1.00  0.00    -0.493 OA
ATOM      8  C   UNL     1      13.989  16.486  16.575  1.00  0.00     0.278 C 
ENDBRANCH   1   7
BRANCH   2   9
ATOM      9  O   UNL     1      14.391  19.858  14.073  1.00  0.00    -0.504 OA
ATOM     10  H   UNL     1      14.529  20.533  13.331  1.00  0.00     0.293 HD
ENDBRANCH   2   9
BRANCH   5  11
ATOM     11  C   UNL     1      18.304  19.138  18.170  1.00  0.00     0.062 C 
BRANCH  11  12
ATOM     12  C   UNL     1      18.027  17.897  18.972  1.00  0.00    -0.030 C 
ATOM     13  C   UNL     1      18.020  17.911  20.308  1.00  0.00     0.004 C 
ENDBRANCH  11  12
ENDBRANCH   5  11
TORSDOF 4
ENDMDL
MODEL 2
REMARK VINA RESULT:    -4.512     12.969     15.460
REMARK INTER + INTRA:          -5.628
REMARK INTER:                  -5.412
REMARK INTRA:                  -0.216
REMARK UNBOUND:                -0.194
REMARK SMILES C=CCc1ccc(O)c(OC)c1
REMARK SMILES IDX 9 1 7 2 6 3 5 4 4 5 12 6 10 7 11 8 8 9 3 11 2 12 1 13
REMARK H PARENT 8 10
REMARK Flexibility Score: inf
ROOT
ATOM      1  C   UNL     1      14.018   7.446   8.991  1.00  0.00     0.160 A 
ATOM      2  C   UNL     1      15.289   7.270   8.413  1.00  0.00     0.157 A 
ATOM      3  C   UNL     1      15.406   6.994   7.047  1.00  0.00     0.050 A 
ATOM      4  C   UNL     1      14.267   6.888   6.247  1.00  0.00     0.008 A 
ATOM      5  C   UNL     1      12.992   7.049   6.808  1.00  0.00    -0.040 A 
ATOM      6  C   UNL     1      12.872   7.336   8.177  1.00  0.00     0.054 A 
ENDROOT
BRANCH   1   7
ATOM      7  O   UNL     1      13.930   7.727  10.363  1.00  0.00    -0.493 OA
ATOM      8  C   UNL     1      13.601   9.001  10.908  1.00  0.00     0.278 C 
ENDBRANCH   1   7
BRANCH   2   9
ATOM      9  O   UNL     1      16.449   7.368   9.182  1.00  0.00    -0.504 OA
ATOM     10  H   UNL     1      16.516   6.972  10.111  1.00  0.00     0.293 HD
ENDBRANCH   2   9
BRANCH   5  11
ATOM     11  C   UNL     1      11.763   6.963   5.942  1.00  0.00     0.062 C 
BRANCH  11  12
ATOM     12  C   UNL     1      10.519   6.925   6.785  1.00  0.00    -0.030 C 
ATOM     13  C   UNL     1       9.552   6.027   6.570  1.00  0.00     0.004 C 
ENDBRANCH  11  12
ENDBRANCH   5  11
TORSDOF 4
ENDMDL
MODEL 3
REMARK VINA RESULT:    -4.468      8.418      9.627
REMARK INTER + INTRA:          -5.576
REMARK INTER:                  -5.344
REMARK INTRA:                  -0.232
REMARK UNBOUND:                -0.194
REMARK SMILES C=CCc1ccc(O)c(OC)c1
REMARK SMILES IDX 9 1 7 2 6 3 5 4 4 5 12 6 10 7 11 8 8 9 3 11 2 12 1 13
REMARK H PARENT 8 10
REMARK Flexibility Score: inf
ROOT
ATOM      1  C   UNL     1      19.401  20.196   8.903  1.00  0.00     0.160 A 
ATOM      2  C   UNL     1      20.614  20.454   8.237  1.00  0.00     0.157 A 
ATOM      3  C   UNL     1      21.081  21.768   8.116  1.00  0.00     0.050 A 
ATOM      4  C   UNL     1      20.351  22.830   8.650  1.00  0.00     0.008 A 
ATOM      5  C   UNL     1      19.135  22.593   9.307  1.00  0.00    -0.040 A 
ATOM      6  C   UNL     1      18.669  21.275   9.439  1.00  0.00     0.054 A 
ENDROOT
BRANCH   1   7
ATOM      7  O   UNL     1      18.959  18.869   9.014  1.00  0.00    -0.493 OA
ATOM      8  C   UNL     1      18.016  18.256   8.140  1.00  0.00     0.278 C 
ENDBRANCH   1   7
BRANCH   2   9
ATOM      9  O   UNL     1      21.370  19.418   7.690  1.00  0.00    -0.504 OA
ATOM     10  H   UNL     1      22.221  19.587   7.170  1.00  0.00     0.293 HD
ENDBRANCH   2   9
BRANCH   5  11
ATOM     11  C   UNL     1      18.359  23.734   9.909  1.00  0.00     0.062 C 
BRANCH  11  12
ATOM     12  C   UNL     1      17.920  24.699   8.843  1.00  0.00    -0.030 C 
ATOM     13  C   UNL     1      16.637  25.043   8.693  1.00  0.00     0.004 C 
ENDBRANCH  11  12
ENDBRANCH   5  11
TORSDOF 4
ENDMDL
MODEL 4
REMARK VINA RESULT:    -4.448     10.897     13.235
REMARK INTER + INTRA:          -5.551
REMARK INTER:                  -5.307
REMARK INTRA:                  -0.244
REMARK UNBOUND:                -0.194
REMARK SMILES C=CCc1ccc(O)c(OC)c1
REMARK SMILES IDX 9 1 7 2 6 3 5 4 4 5 12 6 10 7 11 8 8 9 3 11 2 12 1 13
REMARK H PARENT 8 10
REMARK Flexibility Score: inf
ROOT
ATOM      1  C   UNL     1      16.800   9.108  10.819  1.00  0.00     0.160 A 
ATOM      2  C   UNL     1      15.617   9.341  11.544  1.00  0.00     0.157 A 
ATOM      3  C   UNL     1      14.402   8.817  11.090  1.00  0.00     0.050 A 
ATOM      4  C   UNL     1      14.351   8.063   9.916  1.00  0.00     0.008 A 
ATOM      5  C   UNL     1      15.519   7.830   9.175  1.00  0.00    -0.040 A 
ATOM      6  C   UNL     1      16.741   8.346   9.634  1.00  0.00     0.054 A 
ENDROOT
BRANCH   1   7
ATOM      7  O   UNL     1      18.006   9.641  11.300  1.00  0.00    -0.493 OA
ATOM      8  C   UNL     1      18.587  10.861  10.850  1.00  0.00     0.278 C 
ENDBRANCH   1   7
BRANCH   2   9
ATOM      9  O   UNL     1      15.629  10.090  12.720  1.00  0.00    -0.504 OA
ATOM     10  H   UNL     1      14.779  10.352  13.202  1.00  0.00     0.293 HD
ENDBRANCH   2   9
BRANCH   5  11
ATOM     11  C   UNL     1      15.472   6.993   7.924  1.00  0.00     0.062 C 
BRANCH  11  12
ATOM     12  C   UNL     1      14.051   6.700   7.532  1.00  0.00    -0.030 C 
ATOM     13  C   UNL     1      13.612   6.893   6.285  1.00  0.00     0.004 C 
ENDBRANCH  11  12
ENDBRANCH   5  11
TORSDOF 4
ENDMDL
MODEL 5
REMARK VINA RESULT:    -4.416      2.954      5.131
REMARK INTER + INTRA:          -5.513
REMARK INTER:                  -5.328
REMARK INTRA:                  -0.185
REMARK UNBOUND:                -0.194
REMARK SMILES C=CCc1ccc(O)c(OC)c1
REMARK SMILES IDX 9 1 7 2 6 3 5 4 4 5 12 6 10 7 11 8 8 9 3 11 2 12 1 13
REMARK H PARENT 8 10
REMARK Flexibility Score: inf
ROOT
ATOM      1  C   UNL     1      17.835  19.932  18.426  1.00  0.00     0.160 A 
ATOM      2  C   UNL     1      17.921  18.591  18.844  1.00  0.00     0.157 A 
ATOM      3  C   UNL     1      17.679  17.556  17.934  1.00  0.00     0.050 A 
ATOM      4  C   UNL     1      17.348  17.843  16.609  1.00  0.00     0.008 A 
ATOM      5  C   UNL     1      17.247  19.174  16.177  1.00  0.00    -0.040 A 
ATOM      6  C   UNL     1      17.499  20.214  17.086  1.00  0.00     0.054 A 
ENDROOT
BRANCH   1   7
ATOM      7  O   UNL     1      18.088  20.950  19.359  1.00  0.00    -0.493 OA
ATOM      8  C   UNL     1      17.173  21.990  19.687  1.00  0.00     0.278 C 
ENDBRANCH   1   7
BRANCH   2   9
ATOM      9  O   UNL     1      18.248  18.266  20.160  1.00  0.00    -0.504 OA
ATOM     10  H   UNL     1      18.261  18.957  20.899  1.00  0.00     0.293 HD
ENDBRANCH   2   9
BRANCH   5  11
ATOM     11  C   UNL     1      16.918  19.486  14.742  1.00  0.00     0.062 C 
BRANCH  11  12
ATOM     12  C   UNL     1      15.440  19.700  14.569  1.00  0.00    -0.030 C 
ATOM     13  C   UNL     1      14.850  19.595  13.374  1.00  0.00     0.004 C 
ENDBRANCH  11  12
ENDBRANCH   5  11
TORSDOF 4
ENDMDL
MODEL 6
REMARK VINA RESULT:    -4.370      3.071      4.318
REMARK INTER + INTRA:          -5.458
REMARK INTER:                  -5.217
REMARK INTRA:                  -0.241
REMARK UNBOUND:                -0.194
REMARK SMILES C=CCc1ccc(O)c(OC)c1
REMARK SMILES IDX 9 1 7 2 6 3 5 4 4 5 12 6 10 7 11 8 8 9 3 11 2 12 1 13
REMARK H PARENT 8 10
REMARK Flexibility Score: inf
ROOT
ATOM      1  C   UNL     1      17.828  18.488  17.780  1.00  0.00     0.160 A 
ATOM      2  C   UNL     1      17.659  19.884  17.747  1.00  0.00     0.157 A 
ATOM      3  C   UNL     1      17.211  20.508  16.577  1.00  0.00     0.050 A 
ATOM      4  C   UNL     1      16.932  19.755  15.436  1.00  0.00     0.008 A 
ATOM      5  C   UNL     1      17.106  18.363  15.448  1.00  0.00    -0.040 A 
ATOM      6  C   UNL     1      17.545  17.734  16.624  1.00  0.00     0.054 A 
ENDROOT
BRANCH   1   7
ATOM      7  O   UNL     1      18.274  17.887  18.969  1.00  0.00    -0.493 OA
ATOM      8  C   UNL     1      17.423  17.272  19.931  1.00  0.00     0.278 C 
ENDBRANCH   1   7
BRANCH   2   9
ATOM      9  O   UNL     1      17.929  20.669  18.868  1.00  0.00    -0.504 OA
ATOM     10  H   UNL     1      18.279  20.275  19.731  1.00  0.00     0.293 HD
ENDBRANCH   2   9
BRANCH   5  11
ATOM     11  C   UNL     1      16.778  17.545  14.227  1.00  0.00     0.062 C 
BRANCH  11  12
ATOM     12  C   UNL     1      17.967  17.457  13.311  1.00  0.00    -0.030 C 
ATOM     13  C   UNL     1      18.755  16.379  13.284  1.00  0.00     0.004 C 
ENDBRANCH  11  12
ENDBRANCH   5  11
TORSDOF 4
ENDMDL
MODEL 7
REMARK VINA RESULT:    -4.311      8.322      9.327
REMARK INTER + INTRA:          -5.387
REMARK INTER:                  -5.166
REMARK INTRA:                  -0.221
REMARK UNBOUND:                -0.194
REMARK SMILES C=CCc1ccc(O)c(OC)c1
REMARK SMILES IDX 9 1 7 2 6 3 5 4 4 5 12 6 10 7 11 8 8 9 3 11 2 12 1 13
REMARK H PARENT 8 10
REMARK Flexibility Score: inf
ROOT
ATOM      1  C   UNL     1      18.022  10.638  11.921  1.00  0.00     0.160 A 
ATOM      2  C   UNL     1      17.318  11.283  12.955  1.00  0.00     0.157 A 
ATOM      3  C   UNL     1      17.542  12.639  13.215  1.00  0.00     0.050 A 
ATOM      4  C   UNL     1      18.463  13.362  12.456  1.00  0.00     0.008 A 
ATOM      5  C   UNL     1      19.181  12.733  11.429  1.00  0.00    -0.040 A 
ATOM      6  C   UNL     1      18.951  11.374  11.159  1.00  0.00     0.054 A 
ENDROOT
BRANCH   1   7
ATOM      7  O   UNL     1      17.774   9.277  11.679  1.00  0.00    -0.493 OA
ATOM      8  C   UNL     1      18.479   8.485  10.728  1.00  0.00     0.278 C 
ENDBRANCH   1   7
BRANCH   2   9
ATOM      9  O   UNL     1      16.390  10.592  13.734  1.00  0.00    -0.504 OA
ATOM     10  H   UNL     1      15.563  11.038  14.111  1.00  0.00     0.293 HD
ENDBRANCH   2   9
BRANCH   5  11
ATOM     11  C   UNL     1      20.155  13.517  10.590  1.00  0.00     0.062 C 
BRANCH  11  12
ATOM     12  C   UNL     1      20.642  14.730  11.333  1.00  0.00    -0.030 C 
ATOM     13  C   UNL     1      20.633  15.945  10.777  1.00  0.00     0.004 C 
ENDBRANCH  11  12
ENDBRANCH   5  11
TORSDOF 4
ENDMDL
MODEL 8
REMARK VINA RESULT:    -4.306      7.810      9.133
REMARK INTER + INTRA:          -5.380
REMARK INTER:                  -5.182
REMARK INTRA:                  -0.198
REMARK UNBOUND:                -0.194
REMARK SMILES C=CCc1ccc(O)c(OC)c1
REMARK SMILES IDX 9 1 7 2 6 3 5 4 4 5 12 6 10 7 11 8 8 9 3 11 2 12 1 13
REMARK H PARENT 8 10
REMARK Flexibility Score: inf
ROOT
ATOM      1  C   UNL     1      17.626  22.664   9.339  1.00  0.00     0.160 A 
ATOM      2  C   UNL     1      17.974  23.989   9.015  1.00  0.00     0.157 A 
ATOM      3  C   UNL     1      19.302  24.311   8.716  1.00  0.00     0.050 A 
ATOM      4  C   UNL     1      20.291  23.327   8.738  1.00  0.00     0.008 A 
ATOM      5  C   UNL     1      19.964  22.004   9.069  1.00  0.00    -0.040 A 
ATOM      6  C   UNL     1      18.630  21.675   9.359  1.00  0.00     0.054 A 
ENDROOT
BRANCH   1   7
ATOM      7  O   UNL     1      16.285  22.368   9.630  1.00  0.00    -0.493 OA
ATOM      8  C   UNL     1      15.770  21.053   9.813  1.00  0.00     0.278 C 
ENDBRANCH   1   7
BRANCH   2   9
ATOM      9  O   UNL     1      17.012  24.999   8.984  1.00  0.00    -0.504 OA
ATOM     10  H   UNL     1      16.940  25.697   9.713  1.00  0.00     0.293 HD
ENDBRANCH   2   9
BRANCH   5  11
ATOM     11  C   UNL     1      21.024  20.934   9.065  1.00  0.00     0.062 C 
BRANCH  11  12
ATOM     12  C   UNL     1      20.858  20.024   7.881  1.00  0.00    -0.030 C 
ATOM     13  C   UNL     1      20.665  18.710   8.026  1.00  0.00     0.004 C 
ENDBRANCH  11  12
ENDBRANCH   5  11
TORSDOF 4
ENDMDL
MODEL 9
REMARK VINA RESULT:    -4.269      1.892      4.089
REMARK INTER + INTRA:          -5.336
REMARK INTER:                  -5.125
REMARK INTRA:                  -0.211
REMARK UNBOUND:                -0.194
REMARK SMILES C=CCc1ccc(O)c(OC)c1
REMARK SMILES IDX 9 1 7 2 6 3 5 4 4 5 12 6 10 7 11 8 8 9 3 11 2 12 1 13
REMARK H PARENT 8 10
REMARK Flexibility Score: inf
ROOT
ATOM      1  C   UNL     1      15.827  18.090  17.525  1.00  0.00     0.160 A 
ATOM      2  C   UNL     1      16.998  18.064  18.305  1.00  0.00     0.157 A 
ATOM      3  C   UNL     1      18.056  18.930  18.008  1.00  0.00     0.050 A 
ATOM      4  C   UNL     1      17.963  19.822  16.939  1.00  0.00     0.008 A 
ATOM      5  C   UNL     1      16.807  19.853  16.144  1.00  0.00    -0.040 A 
ATOM      6  C   UNL     1      15.740  18.992  16.446  1.00  0.00     0.054 A 
ENDROOT
BRANCH   1   7
ATOM      7  O   UNL     1      14.779  17.213  17.847  1.00  0.00    -0.493 OA
ATOM      8  C   UNL     1      13.405  17.460  17.567  1.00  0.00     0.278 C 
ENDBRANCH   1   7
BRANCH   2   9
ATOM      9  O   UNL     1      17.128  17.186  19.380  1.00  0.00    -0.504 OA
ATOM     10  H   UNL     1      16.695  17.364  20.277  1.00  0.00     0.293 HD
ENDBRANCH   2   9
BRANCH   5  11
ATOM     11  C   UNL     1      16.692  20.834  15.007  1.00  0.00     0.062 C 
BRANCH  11  12
ATOM     12  C   UNL     1      15.949  20.224  13.851  1.00  0.00    -0.030 C 
ATOM     13  C   UNL     1      16.572  19.869  12.724  1.00  0.00     0.004 C 
ENDBRANCH  11  12
ENDBRANCH   5  11
TORSDOF 4
ENDMDL
