MODEL 1
REMARK VINA RESULT:    -3.356      0.000      0.000
REMARK INTER + INTRA:          -5.149
REMARK INTER:                  -4.729
REMARK INTRA:                  -0.420
REMARK UNBOUND:                -0.420
REMARK SMILES CCCCCCCCC(=O)[O-]
REMARK SMILES IDX 6 1 7 2 8 3 9 4 10 5 11 6 5 7 4 8 3 9 2 10 1 11
REMARK H PARENT
REMARK Flexibility Score: inf
ROOT
ATOM      1  C   UNL     1      49.511  46.375  56.065  1.00  0.00     0.000 C 
ENDROOT
BRANCH   1   2
ATOM      2  C   UNL     1      50.327  46.374  54.760  1.00  0.00     0.006 C 
BRANCH   2   3
ATOM      3  C   UNL     1      50.991  45.023  54.440  1.00  0.00     0.053 C 
BRANCH   3   4
ATOM      4  C   UNL     1      52.450  45.005  54.782  1.00  0.00     0.041 C 
ATOM      5  O   UNL     1      53.310  44.875  53.872  1.00  0.00    -0.550 OA
ATOM      6  O   UNL     1      52.859  45.096  56.106  1.00  0.00    -0.550 OA
ENDBRANCH   3   4
ENDBRANCH   2   3
ENDBRANCH   1   2
BRANCH   1   7
ATOM      7  C   UNL     1      48.687  45.090  56.261  1.00  0.00     0.000 C 
BRANCH   7   8
ATOM      8  C   UNL     1      47.777  45.154  57.498  1.00  0.00    -0.000 C 
BRANCH   8   9
ATOM      9  C   UNL     1      48.568  45.143  58.814  1.00  0.00    -0.000 C 
BRANCH   9  10
ATOM     10  C   UNL     1      48.002  46.168  59.803  1.00  0.00    -0.003 C 
ATOM     11  C   UNL     1      48.108  47.586  59.251  1.00  0.00     0.004 C 
ENDBRANCH   9  10
ENDBRANCH   8   9
ENDBRANCH   7   8
ENDBRANCH   1   7
TORSDOF 7
ENDMDL
MODEL 2
REMARK VINA RESULT:    -3.284     12.777     14.535
REMARK INTER + INTRA:          -5.048
REMARK INTER:                  -4.780
REMARK INTRA:                  -0.268
REMARK UNBOUND:                -0.420
REMARK SMILES CCCCCCCCC(=O)[O-]
REMARK SMILES IDX 6 1 7 2 8 3 9 4 10 5 11 6 5 7 4 8 3 9 2 10 1 11
REMARK H PARENT
REMARK Flexibility Score: inf
ROOT
ATOM      1  C   UNL     1      47.256  47.121  41.990  1.00  0.00     0.000 C 
ENDROOT
BRANCH   1   2
ATOM      2  C   UNL     1      48.307  46.298  42.755  1.00  0.00     0.006 C 
BRANCH   2   3
ATOM      3  C   UNL     1      49.492  47.130  43.276  1.00  0.00     0.053 C 
BRANCH   3   4
ATOM      4  C   UNL     1      50.091  46.557  44.525  1.00  0.00     0.041 C 
ATOM      5  O   UNL     1      50.980  47.194  45.149  1.00  0.00    -0.550 OA
ATOM      6  O   UNL     1      49.694  45.306  44.981  1.00  0.00    -0.550 OA
ENDBRANCH   3   4
ENDBRANCH   2   3
ENDBRANCH   1   2
BRANCH   1   7
ATOM      7  C   UNL     1      46.146  46.254  41.370  1.00  0.00     0.000 C 
BRANCH   7   8
ATOM      8  C   UNL     1      44.760  46.910  41.464  1.00  0.00    -0.000 C 
BRANCH   8   9
ATOM      9  C   UNL     1      44.839  48.428  41.683  1.00  0.00    -0.000 C 
BRANCH   9  10
ATOM     10  C   UNL     1      43.471  48.999  42.071  1.00  0.00    -0.003 C 
ATOM     11  C   UNL     1      42.338  48.120  41.550  1.00  0.00     0.004 C 
ENDBRANCH   9  10
ENDBRANCH   8   9
ENDBRANCH   7   8
ENDBRANCH   1   7
TORSDOF 7
ENDMDL
MODEL 3
REMARK VINA RESULT:    -3.280     13.004     14.916
REMARK INTER + INTRA:          -5.043
REMARK INTER:                  -4.926
REMARK INTRA:                  -0.117
REMARK UNBOUND:                -0.420
REMARK SMILES CCCCCCCCC(=O)[O-]
REMARK SMILES IDX 6 1 7 2 8 3 9 4 10 5 11 6 5 7 4 8 3 9 2 10 1 11
REMARK H PARENT
REMARK Flexibility Score: inf
ROOT
ATOM      1  C   UNL     1      47.266  47.392  41.919  1.00  0.00     0.000 C 
ENDROOT
BRANCH   1   2
ATOM      2  C   UNL     1      45.835  46.888  41.660  1.00  0.00     0.006 C 
BRANCH   2   3
ATOM      3  C   UNL     1      44.797  48.012  41.503  1.00  0.00     0.053 C 
BRANCH   3   4
ATOM      4  C   UNL     1      43.395  47.535  41.733  1.00  0.00     0.041 C 
ATOM      5  O   UNL     1      42.442  48.358  41.749  1.00  0.00    -0.550 OA
ATOM      6  O   UNL     1      43.143  46.189  41.964  1.00  0.00    -0.550 OA
ENDBRANCH   3   4
ENDBRANCH   2   3
ENDBRANCH   1   2
BRANCH   1   7
ATOM      7  C   UNL     1      48.149  46.357  42.638  1.00  0.00     0.000 C 
BRANCH   7   8
ATOM      8  C   UNL     1      49.427  46.976  43.226  1.00  0.00    -0.000 C 
BRANCH   8   9
ATOM      9  C   UNL     1      49.723  46.481  44.649  1.00  0.00    -0.000 C 
BRANCH   9  10
ATOM     10  C   UNL     1      51.181  46.753  45.032  1.00  0.00    -0.003 C 
ATOM     11  C   UNL     1      51.295  47.206  46.484  1.00  0.00     0.004 C 
ENDBRANCH   9  10
ENDBRANCH   8   9
ENDBRANCH   7   8
ENDBRANCH   1   7
TORSDOF 7
ENDMDL
MODEL 4
REMARK VINA RESULT:    -3.262     11.246     13.323
REMARK INTER + INTRA:          -5.018
REMARK INTER:                  -4.218
REMARK INTRA:                  -0.800
REMARK UNBOUND:                -0.420
REMARK SMILES CCCCCCCCC(=O)[O-]
REMARK SMILES IDX 6 1 7 2 8 3 9 4 10 5 11 6 5 7 4 8 3 9 2 10 1 11
REMARK H PARENT
REMARK Flexibility Score: inf
ROOT
ATOM      1  C   UNL     1      51.976  46.524  42.555  1.00  0.00     0.000 C 
ENDROOT
BRANCH   1   2
ATOM      2  C   UNL     1      50.680  46.824  41.782  1.00  0.00     0.006 C 
BRANCH   2   3
ATOM      3  C   UNL     1      49.553  47.404  42.656  1.00  0.00     0.053 C 
BRANCH   3   4
ATOM      4  C   UNL     1      48.353  46.509  42.713  1.00  0.00     0.041 C 
ATOM      5  O   UNL     1      48.448  45.354  43.207  1.00  0.00    -0.550 OA
ATOM      6  O   UNL     1      47.138  46.935  42.192  1.00  0.00    -0.550 OA
ENDBRANCH   3   4
ENDBRANCH   2   3
ENDBRANCH   1   2
BRANCH   1   7
ATOM      7  C   UNL     1      51.943  45.170  43.285  1.00  0.00     0.000 C 
BRANCH   7   8
ATOM      8  C   UNL     1      51.809  45.322  44.808  1.00  0.00    -0.000 C 
BRANCH   8   9
ATOM      9  C   UNL     1      52.242  46.710  45.303  1.00  0.00    -0.000 C 
BRANCH   9  10
ATOM     10  C   UNL     1      51.397  47.154  46.501  1.00  0.00    -0.003 C 
ATOM     11  C   UNL     1      49.916  46.868  46.269  1.00  0.00     0.004 C 
ENDBRANCH   9  10
ENDBRANCH   8   9
ENDBRANCH   7   8
ENDBRANCH   1   7
TORSDOF 7
ENDMDL
MODEL 5
REMARK VINA RESULT:    -3.232     12.600     14.552
REMARK INTER + INTRA:          -4.974
REMARK INTER:                  -4.823
REMARK INTRA:                  -0.151
REMARK UNBOUND:                -0.420
REMARK SMILES CCCCCCCCC(=O)[O-]
REMARK SMILES IDX 6 1 7 2 8 3 9 4 10 5 11 6 5 7 4 8 3 9 2 10 1 11
REMARK H PARENT
REMARK Flexibility Score: inf
ROOT
ATOM      1  C   UNL     1      47.832  47.129  42.448  1.00  0.00     0.000 C 
ENDROOT
BRANCH   1   2
ATOM      2  C   UNL     1      46.632  46.529  41.694  1.00  0.00     0.006 C 
BRANCH   2   3
ATOM      3  C   UNL     1      45.718  47.581  41.040  1.00  0.00     0.053 C 
BRANCH   3   4
ATOM      4  C   UNL     1      44.375  47.664  41.698  1.00  0.00     0.041 C 
ATOM      5  O   UNL     1      43.698  46.620  41.888  1.00  0.00    -0.550 OA
ATOM      6  O   UNL     1      43.854  48.897  42.071  1.00  0.00    -0.550 OA
ENDBRANCH   3   4
ENDBRANCH   2   3
ENDBRANCH   1   2
BRANCH   1   7
ATOM      7  C   UNL     1      48.736  46.060  43.088  1.00  0.00     0.000 C 
BRANCH   7   8
ATOM      8  C   UNL     1      49.448  46.568  44.352  1.00  0.00    -0.000 C 
BRANCH   8   9
ATOM      9  C   UNL     1      50.954  46.778  44.137  1.00  0.00    -0.000 C 
BRANCH   9  10
ATOM     10  C   UNL     1      51.741  46.456  45.412  1.00  0.00    -0.003 C 
ATOM     11  C   UNL     1      51.253  47.294  46.589  1.00  0.00     0.004 C 
ENDBRANCH   9  10
ENDBRANCH   8   9
ENDBRANCH   7   8
ENDBRANCH   1   7
TORSDOF 7
ENDMDL
MODEL 6
REMARK VINA RESULT:    -3.209      3.212      5.487
REMARK INTER + INTRA:          -4.942
REMARK INTER:                  -4.584
REMARK INTRA:                  -0.358
REMARK UNBOUND:                -0.420
REMARK SMILES CCCCCCCCC(=O)[O-]
REMARK SMILES IDX 6 1 7 2 8 3 9 4 10 5 11 6 5 7 4 8 3 9 2 10 1 11
REMARK H PARENT
REMARK Flexibility Score: inf
ROOT
ATOM      1  C   UNL     1      51.424  44.875  57.890  1.00  0.00     0.000 C 
ENDROOT
BRANCH   1   2
ATOM      2  C   UNL     1      50.235  45.736  58.352  1.00  0.00     0.006 C 
BRANCH   2   3
ATOM      3  C   UNL     1      49.193  44.966  59.181  1.00  0.00     0.053 C 
BRANCH   3   4
ATOM      4  C   UNL     1      47.881  45.686  59.268  1.00  0.00     0.041 C 
ATOM      5  O   UNL     1      47.813  46.911  58.986  1.00  0.00    -0.550 OA
ATOM      6  O   UNL     1      46.742  45.014  59.692  1.00  0.00    -0.550 OA
ENDBRANCH   3   4
ENDBRANCH   2   3
ENDBRANCH   1   2
BRANCH   1   7
ATOM      7  C   UNL     1      52.389  45.631  56.959  1.00  0.00     0.000 C 
BRANCH   7   8
ATOM      8  C   UNL     1      52.656  44.877  55.646  1.00  0.00    -0.000 C 
BRANCH   8   9
ATOM      9  C   UNL     1      51.989  45.545  54.435  1.00  0.00    -0.000 C 
BRANCH   9  10
ATOM     10  C   UNL     1      50.882  46.507  54.879  1.00  0.00    -0.003 C 
ATOM     11  C   UNL     1      49.507  45.858  54.761  1.00  0.00     0.004 C 
ENDBRANCH   9  10
ENDBRANCH   8   9
ENDBRANCH   7   8
ENDBRANCH   1   7
TORSDOF 7
ENDMDL
MODEL 7
REMARK VINA RESULT:    -3.057      3.394      6.019
REMARK INTER + INTRA:          -4.728
REMARK INTER:                  -4.444
REMARK INTRA:                  -0.284
REMARK UNBOUND:                -0.420
REMARK SMILES CCCCCCCCC(=O)[O-]
REMARK SMILES IDX 6 1 7 2 8 3 9 4 10 5 11 6 5 7 4 8 3 9 2 10 1 11
REMARK H PARENT
REMARK Flexibility Score: inf
ROOT
ATOM      1  C   UNL     1      49.336  46.215  56.528  1.00  0.00     0.000 C 
ENDROOT
BRANCH   1   2
ATOM      2  C   UNL     1      49.422  45.226  57.703  1.00  0.00     0.006 C 
BRANCH   2   3
ATOM      3  C   UNL     1      49.297  45.888  59.086  1.00  0.00     0.053 C 
BRANCH   3   4
ATOM      4  C   UNL     1      47.911  45.790  59.647  1.00  0.00     0.041 C 
ATOM      5  O   UNL     1      47.730  45.348  60.812  1.00  0.00    -0.550 OA
ATOM      6  O   UNL     1      46.816  46.152  58.873  1.00  0.00    -0.550 OA
ENDBRANCH   3   4
ENDBRANCH   2   3
ENDBRANCH   1   2
BRANCH   1   7
ATOM      7  C   UNL     1      50.401  45.960  55.446  1.00  0.00     0.000 C 
BRANCH   7   8
ATOM      8  C   UNL     1      51.418  44.885  55.859  1.00  0.00    -0.000 C 
BRANCH   8   9
ATOM      9  C   UNL     1      52.759  45.027  55.124  1.00  0.00    -0.000 C 
BRANCH   9  10
ATOM     10  C   UNL     1      52.544  45.181  53.615  1.00  0.00    -0.003 C 
ATOM     11  C   UNL     1      53.823  44.875  52.841  1.00  0.00     0.004 C 
ENDBRANCH   9  10
ENDBRANCH   8   9
ENDBRANCH   7   8
ENDBRANCH   1   7
TORSDOF 7
ENDMDL
MODEL 8
REMARK VINA RESULT:    -3.013     12.158     14.015
REMARK INTER + INTRA:          -4.666
REMARK INTER:                  -3.944
REMARK INTRA:                  -0.722
REMARK UNBOUND:                -0.420
REMARK SMILES CCCCCCCCC(=O)[O-]
REMARK SMILES IDX 6 1 7 2 8 3 9 4 10 5 11 6 5 7 4 8 3 9 2 10 1 11
REMARK H PARENT
REMARK Flexibility Score: inf
ROOT
ATOM      1  C   UNL     1      50.229  46.726  45.508  1.00  0.00     0.000 C 
ENDROOT
BRANCH   1   2
ATOM      2  C   UNL     1      49.529  46.028  44.328  1.00  0.00     0.006 C 
BRANCH   2   3
ATOM      3  C   UNL     1      48.782  46.990  43.388  1.00  0.00     0.053 C 
BRANCH   3   4
ATOM      4  C   UNL     1      48.071  46.275  42.280  1.00  0.00     0.041 C 
ATOM      5  O   UNL     1      48.657  45.367  41.635  1.00  0.00    -0.550 OA
ATOM      6  O   UNL     1      46.773  46.632  41.937  1.00  0.00    -0.550 OA
ENDBRANCH   3   4
ENDBRANCH   2   3
ENDBRANCH   1   2
BRANCH   1   7
ATOM      7  C   UNL     1      51.749  46.490  45.532  1.00  0.00     0.000 C 
BRANCH   7   8
ATOM      8  C   UNL     1      52.184  45.342  44.608  1.00  0.00    -0.000 C 
BRANCH   8   9
ATOM      9  C   UNL     1      53.220  45.783  43.564  1.00  0.00    -0.000 C 
BRANCH   9  10
ATOM     10  C   UNL     1      52.596  45.849  42.166  1.00  0.00    -0.003 C 
ATOM     11  C   UNL     1      52.151  47.268  41.826  1.00  0.00     0.004 C 
ENDBRANCH   9  10
ENDBRANCH   8   9
ENDBRANCH   7   8
ENDBRANCH   1   7
TORSDOF 7
ENDMDL
