MODEL 1
REMARK VINA RESULT:    -4.742      0.000      0.000
REMARK INTER + INTRA:          -7.201
REMARK INTER:                  -5.851
REMARK INTRA:                  -1.350
REMARK UNBOUND:                -1.350
REMARK SMILES CC(C)=CCC[C@@H](C)c1ccc(C)cc1
REMARK SMILES IDX 6 1 7 2 8 3 9 4 13 5 12 6 11 7 14 8 10 9 15 10 5 11 4 12
REMARK SMILES IDX 2 13 1 14 3 15
REMARK H PARENT
REMARK Flexibility Score: inf
ROOT
ATOM      1  C   UNL     1     160.906 164.450 187.530  1.00  0.00     0.012 C 
ENDROOT
BRANCH   1   2
ATOM      2  C   UNL     1     161.037 163.506 188.745  1.00  0.00     0.016 C 
ATOM      3  C   UNL     1     159.875 162.505 188.836  1.00  0.00     0.013 C 
BRANCH   2   4
ATOM      4  C   UNL     1     162.366 162.771 188.702  1.00  0.00    -0.045 A 
ATOM      5  C   UNL     1     166.125 160.645 188.627  1.00  0.00     0.044 C 
ATOM      6  C   UNL     1     164.822 161.388 188.623  1.00  0.00    -0.051 A 
ATOM      7  C   UNL     1     164.797 162.773 188.838  1.00  0.00     0.004 A 
ATOM      8  C   UNL     1     163.613 160.692 188.474  1.00  0.00     0.004 A 
ATOM      9  C   UNL     1     163.581 163.460 188.873  1.00  0.00     0.004 A 
ATOM     10  C   UNL     1     162.396 161.379 188.508  1.00  0.00     0.004 A 
ENDBRANCH   2   4
ENDBRANCH   1   2
BRANCH   1  11
ATOM     11  C   UNL     1     160.254 163.766 186.317  1.00  0.00     0.028 C 
BRANCH  11  12
ATOM     12  C   UNL     1     161.303 163.152 185.425  1.00  0.00    -0.028 C 
ATOM     13  C   UNL     1     161.312 161.858 185.034  1.00  0.00    -0.080 C 
ATOM     14  C   UNL     1     160.276 160.870 185.515  1.00  0.00     0.039 C 
ATOM     15  C   UNL     1     162.405 161.395 184.106  1.00  0.00     0.039 C 
ENDBRANCH  11  12
ENDBRANCH   1  11
TORSDOF 4
ENDMDL
MODEL 2
REMARK VINA RESULT:    -4.730      1.060      1.570
REMARK INTER + INTRA:          -7.186
REMARK INTER:                  -5.952
REMARK INTRA:                  -1.234
REMARK UNBOUND:                -1.350
REMARK SMILES CC(C)=CCC[C@@H](C)c1ccc(C)cc1
REMARK SMILES IDX 6 1 7 2 8 3 9 4 13 5 12 6 11 7 14 8 10 9 15 10 5 11 4 12
REMARK SMILES IDX 2 13 1 14 3 15
REMARK H PARENT
REMARK Flexibility Score: inf
ROOT
ATOM      1  C   UNL     1     160.253 161.371 187.505  1.00  0.00     0.012 C 
ENDROOT
BRANCH   1   2
ATOM      2  C   UNL     1     160.987 162.602 188.080  1.00  0.00     0.016 C 
ATOM      3  C   UNL     1     160.290 163.169 189.327  1.00  0.00     0.013 C 
BRANCH   2   4
ATOM      4  C   UNL     1     162.433 162.256 188.394  1.00  0.00    -0.045 A 
ATOM      5  C   UNL     1     166.524 161.238 189.331  1.00  0.00     0.044 C 
ATOM      6  C   UNL     1     165.111 161.594 188.976  1.00  0.00    -0.051 A 
ATOM      7  C   UNL     1     164.692 162.932 189.003  1.00  0.00     0.004 A 
ATOM      8  C   UNL     1     164.180 160.586 188.683  1.00  0.00     0.004 A 
ATOM      9  C   UNL     1     163.366 163.262 188.710  1.00  0.00     0.004 A 
ATOM     10  C   UNL     1     162.854 160.915 188.389  1.00  0.00     0.004 A 
ENDBRANCH   2   4
ENDBRANCH   1   2
BRANCH   1  11
ATOM     11  C   UNL     1     160.003 161.484 185.993  1.00  0.00     0.028 C 
BRANCH  11  12
ATOM     12  C   UNL     1     161.099 160.795 185.219  1.00  0.00    -0.028 C 
ATOM     13  C   UNL     1     162.151 161.428 184.656  1.00  0.00    -0.080 C 
ATOM     14  C   UNL     1     162.299 162.931 184.702  1.00  0.00     0.039 C 
ATOM     15  C   UNL     1     163.192 160.601 183.946  1.00  0.00     0.039 C 
ENDBRANCH  11  12
ENDBRANCH   1  11
TORSDOF 4
ENDMDL
MODEL 3
REMARK VINA RESULT:    -4.509      1.664      2.736
REMARK INTER + INTRA:          -6.914
REMARK INTER:                  -5.856
REMARK INTRA:                  -1.058
REMARK UNBOUND:                -1.350
REMARK SMILES CC(C)=CCC[C@@H](C)c1ccc(C)cc1
REMARK SMILES IDX 6 1 7 2 8 3 9 4 13 5 12 6 11 7 14 8 10 9 15 10 5 11 4 12
REMARK SMILES IDX 2 13 1 14 3 15
REMARK H PARENT
REMARK Flexibility Score: inf
ROOT
ATOM      1  C   UNL     1     161.060 163.255 188.888  1.00  0.00     0.012 C 
ENDROOT
BRANCH   1   2
ATOM      2  C   UNL     1     161.069 161.737 188.600  1.00  0.00     0.016 C 
ATOM      3  C   UNL     1     159.876 161.300 187.736  1.00  0.00     0.013 C 
BRANCH   2   4
ATOM      4  C   UNL     1     162.376 161.332 187.940  1.00  0.00    -0.045 A 
ATOM      5  C   UNL     1     166.060 160.149 186.022  1.00  0.00     0.044 C 
ATOM      6  C   UNL     1     164.794 160.586 186.697  1.00  0.00    -0.051 A 
ATOM      7  C   UNL     1     164.556 160.252 188.038  1.00  0.00     0.004 A 
ATOM      8  C   UNL     1     163.807 161.270 185.972  1.00  0.00     0.004 A 
ATOM      9  C   UNL     1     163.360 160.626 188.656  1.00  0.00     0.004 A 
ATOM     10  C   UNL     1     162.611 161.645 186.590  1.00  0.00     0.004 A 
ENDBRANCH   2   4
ENDBRANCH   1   2
BRANCH   1  11
ATOM     11  C   UNL     1     159.907 163.984 188.181  1.00  0.00     0.028 C 
BRANCH  11  12
ATOM     12  C   UNL     1     160.429 165.145 187.372  1.00  0.00    -0.028 C 
ATOM     13  C   UNL     1     160.479 165.174 186.021  1.00  0.00    -0.080 C 
ATOM     14  C   UNL     1     160.057 163.993 185.179  1.00  0.00     0.039 C 
ATOM     15  C   UNL     1     160.990 166.422 185.347  1.00  0.00     0.039 C 
ENDBRANCH  11  12
ENDBRANCH   1  11
TORSDOF 4
ENDMDL
MODEL 4
REMARK VINA RESULT:    -4.508      2.030      5.945
REMARK INTER + INTRA:          -6.912
REMARK INTER:                  -5.830
REMARK INTRA:                  -1.083
REMARK UNBOUND:                -1.350
REMARK SMILES CC(C)=CCC[C@@H](C)c1ccc(C)cc1
REMARK SMILES IDX 6 1 7 2 8 3 9 4 13 5 12 6 11 7 14 8 10 9 15 10 5 11 4 12
REMARK SMILES IDX 2 13 1 14 3 15
REMARK H PARENT
REMARK Flexibility Score: inf
ROOT
ATOM      1  C   UNL     1     165.509 160.159 188.690  1.00  0.00     0.012 C 
ENDROOT
BRANCH   1   2
ATOM      2  C   UNL     1     165.097 161.229 187.655  1.00  0.00     0.016 C 
ATOM      3  C   UNL     1     165.085 160.680 186.220  1.00  0.00     0.013 C 
BRANCH   2   4
ATOM      4  C   UNL     1     163.740 161.812 188.009  1.00  0.00    -0.045 A 
ATOM      5  C   UNL     1     159.902 163.484 189.072  1.00  0.00     0.044 C 
ATOM      6  C   UNL     1     161.229 162.911 188.674  1.00  0.00    -0.051 A 
ATOM      7  C   UNL     1     161.335 161.563 188.304  1.00  0.00     0.004 A 
ATOM      8  C   UNL     1     162.387 163.701 188.736  1.00  0.00     0.004 A 
ATOM      9  C   UNL     1     162.578 161.018 187.970  1.00  0.00     0.004 A 
ATOM     10  C   UNL     1     163.631 163.158 188.401  1.00  0.00     0.004 A 
ENDBRANCH   2   4
ENDBRANCH   1   2
BRANCH   1  11
ATOM     11  C   UNL     1     166.826 160.505 189.404  1.00  0.00     0.028 C 
BRANCH  11  12
ATOM     12  C   UNL     1     166.631 161.665 190.348  1.00  0.00    -0.028 C 
ATOM     13  C   UNL     1     167.049 162.927 190.104  1.00  0.00    -0.080 C 
ATOM     14  C   UNL     1     167.820 163.287 188.856  1.00  0.00     0.039 C 
ATOM     15  C   UNL     1     166.747 163.994 191.124  1.00  0.00     0.039 C 
ENDBRANCH  11  12
ENDBRANCH   1  11
TORSDOF 4
ENDMDL
MODEL 5
REMARK VINA RESULT:    -4.469      1.314      3.108
REMARK INTER + INTRA:          -6.864
REMARK INTER:                  -5.733
REMARK INTRA:                  -1.131
REMARK UNBOUND:                -1.350
REMARK SMILES CC(C)=CCC[C@@H](C)c1ccc(C)cc1
REMARK SMILES IDX 6 1 7 2 8 3 9 4 13 5 12 6 11 7 14 8 10 9 15 10 5 11 4 12
REMARK SMILES IDX 2 13 1 14 3 15
REMARK H PARENT
REMARK Flexibility Score: inf
ROOT
ATOM      1  C   UNL     1     160.626 162.506 188.725  1.00  0.00     0.012 C 
ENDROOT
BRANCH   1   2
ATOM      2  C   UNL     1     161.518 161.414 188.093  1.00  0.00     0.016 C 
ATOM      3  C   UNL     1     161.368 161.350 186.565  1.00  0.00     0.013 C 
BRANCH   2   4
ATOM      4  C   UNL     1     162.972 161.634 188.473  1.00  0.00    -0.045 A 
ATOM      5  C   UNL     1     167.112 162.297 189.507  1.00  0.00     0.044 C 
ATOM      6  C   UNL     1     165.668 162.063 189.178  1.00  0.00    -0.051 A 
ATOM      7  C   UNL     1     165.206 160.768 188.905  1.00  0.00     0.004 A 
ATOM      8  C   UNL     1     164.783 163.147 189.071  1.00  0.00     0.004 A 
ATOM      9  C   UNL     1     163.869 160.553 188.561  1.00  0.00     0.004 A 
ATOM     10  C   UNL     1     163.445 162.933 188.727  1.00  0.00     0.004 A 
ENDBRANCH   2   4
ENDBRANCH   1   2
BRANCH   1  11
ATOM     11  C   UNL     1     159.875 163.338 187.673  1.00  0.00     0.028 C 
BRANCH  11  12
ATOM     12  C   UNL     1     160.129 164.810 187.879  1.00  0.00    -0.028 C 
ATOM     13  C   UNL     1     160.951 165.559 187.110  1.00  0.00    -0.080 C 
ATOM     14  C   UNL     1     161.753 164.960 185.979  1.00  0.00     0.039 C 
ATOM     15  C   UNL     1     161.076 167.030 187.412  1.00  0.00     0.039 C 
ENDBRANCH  11  12
ENDBRANCH   1  11
TORSDOF 4
ENDMDL
MODEL 6
REMARK VINA RESULT:    -4.454      1.957      5.041
REMARK INTER + INTRA:          -6.845
REMARK INTER:                  -5.290
REMARK INTRA:                  -1.555
REMARK UNBOUND:                -1.350
REMARK SMILES CC(C)=CCC[C@@H](C)c1ccc(C)cc1
REMARK SMILES IDX 6 1 7 2 8 3 9 4 13 5 12 6 11 7 14 8 10 9 15 10 5 11 4 12
REMARK SMILES IDX 2 13 1 14 3 15
REMARK H PARENT
REMARK Flexibility Score: inf
ROOT
ATOM      1  C   UNL     1     167.380 160.429 188.744  1.00  0.00     0.012 C 
ENDROOT
BRANCH   1   2
ATOM      2  C   UNL     1     166.723 161.587 189.527  1.00  0.00     0.016 C 
ATOM      3  C   UNL     1     167.467 162.917 189.336  1.00  0.00     0.013 C 
BRANCH   2   4
ATOM      4  C   UNL     1     165.265 161.734 189.129  1.00  0.00    -0.045 A 
ATOM      5  C   UNL     1     161.129 162.120 187.947  1.00  0.00     0.044 C 
ATOM      6  C   UNL     1     162.556 161.986 188.387  1.00  0.00    -0.051 A 
ATOM      7  C   UNL     1     163.341 163.129 188.597  1.00  0.00     0.004 A 
ATOM      8  C   UNL     1     163.138 160.717 188.523  1.00  0.00     0.004 A 
ATOM      9  C   UNL     1     164.682 163.005 188.970  1.00  0.00     0.004 A 
ATOM     10  C   UNL     1     164.479 160.592 188.897  1.00  0.00     0.004 A 
ENDBRANCH   2   4
ENDBRANCH   1   2
BRANCH   1  11
ATOM     11  C   UNL     1     167.815 160.844 187.329  1.00  0.00     0.028 C 
BRANCH  11  12
ATOM     12  C   UNL     1     166.878 160.272 186.295  1.00  0.00    -0.028 C 
ATOM     13  C   UNL     1     166.072 161.011 185.502  1.00  0.00    -0.080 C 
ATOM     14  C   UNL     1     165.993 162.516 185.621  1.00  0.00     0.039 C 
ATOM     15  C   UNL     1     165.217 160.302 184.484  1.00  0.00     0.039 C 
ENDBRANCH  11  12
ENDBRANCH   1  11
TORSDOF 4
ENDMDL
MODEL 7
REMARK VINA RESULT:    -4.450      1.679      5.008
REMARK INTER + INTRA:          -6.840
REMARK INTER:                  -5.337
REMARK INTRA:                  -1.503
REMARK UNBOUND:                -1.350
REMARK SMILES CC(C)=CCC[C@@H](C)c1ccc(C)cc1
REMARK SMILES IDX 6 1 7 2 8 3 9 4 13 5 12 6 11 7 14 8 10 9 15 10 5 11 4 12
REMARK SMILES IDX 2 13 1 14 3 15
REMARK H PARENT
REMARK Flexibility Score: inf
ROOT
ATOM      1  C   UNL     1     165.488 161.520 185.469  1.00  0.00     0.012 C 
ENDROOT
BRANCH   1   2
ATOM      2  C   UNL     1     164.066 161.793 184.930  1.00  0.00     0.016 C 
ATOM      3  C   UNL     1     163.549 160.651 184.041  1.00  0.00     0.013 C 
BRANCH   2   4
ATOM      4  C   UNL     1     163.105 162.045 186.080  1.00  0.00    -0.045 A 
ATOM      5  C   UNL     1     160.328 162.771 189.307  1.00  0.00     0.044 C 
ATOM      6  C   UNL     1     161.308 162.499 188.204  1.00  0.00    -0.051 A 
ATOM      7  C   UNL     1     162.453 163.295 188.065  1.00  0.00     0.004 A 
ATOM      8  C   UNL     1     161.050 161.493 187.262  1.00  0.00     0.004 A 
ATOM      9  C   UNL     1     163.348 163.068 187.016  1.00  0.00     0.004 A 
ATOM     10  C   UNL     1     161.943 161.264 186.212  1.00  0.00     0.004 A 
ENDBRANCH   2   4
ENDBRANCH   1   2
BRANCH   1  11
ATOM     11  C   UNL     1     165.554 160.265 186.354  1.00  0.00     0.028 C 
BRANCH  11  12
ATOM     12  C   UNL     1     166.193 160.584 187.682  1.00  0.00    -0.028 C 
ATOM     13  C   UNL     1     165.585 160.427 188.879  1.00  0.00    -0.080 C 
ATOM     14  C   UNL     1     164.153 159.958 188.995  1.00  0.00     0.039 C 
ATOM     15  C   UNL     1     166.363 160.750 190.129  1.00  0.00     0.039 C 
ENDBRANCH  11  12
ENDBRANCH   1  11
TORSDOF 4
ENDMDL
MODEL 8
REMARK VINA RESULT:    -4.386      1.450      4.128
REMARK INTER + INTRA:          -6.762
REMARK INTER:                  -5.310
REMARK INTRA:                  -1.452
REMARK UNBOUND:                -1.350
REMARK SMILES CC(C)=CCC[C@@H](C)c1ccc(C)cc1
REMARK SMILES IDX 6 1 7 2 8 3 9 4 13 5 12 6 11 7 14 8 10 9 15 10 5 11 4 12
REMARK SMILES IDX 2 13 1 14 3 15
REMARK H PARENT
REMARK Flexibility Score: inf
ROOT
ATOM      1  C   UNL     1     166.226 160.720 187.244  1.00  0.00     0.012 C 
ENDROOT
BRANCH   1   2
ATOM      2  C   UNL     1     165.410 160.457 188.528  1.00  0.00     0.016 C 
ATOM      3  C   UNL     1     166.242 160.666 189.803  1.00  0.00     0.013 C 
BRANCH   2   4
ATOM      4  C   UNL     1     164.171 161.335 188.556  1.00  0.00    -0.045 A 
ATOM      5  C   UNL     1     160.629 163.806 188.584  1.00  0.00     0.044 C 
ATOM      6  C   UNL     1     161.858 162.948 188.605  1.00  0.00    -0.051 A 
ATOM      7  C   UNL     1     163.131 163.536 188.612  1.00  0.00     0.004 A 
ATOM      8  C   UNL     1     161.746 161.551 188.546  1.00  0.00     0.004 A 
ATOM      9  C   UNL     1     164.277 162.738 188.593  1.00  0.00     0.004 A 
ATOM     10  C   UNL     1     162.892 160.751 188.528  1.00  0.00     0.004 A 
ENDBRANCH   2   4
ENDBRANCH   1   2
BRANCH   1  11
ATOM     11  C   UNL     1     165.456 160.345 185.967  1.00  0.00     0.028 C 
BRANCH  11  12
ATOM     12  C   UNL     1     165.128 161.578 185.162  1.00  0.00    -0.028 C 
ATOM     13  C   UNL     1     163.885 161.914 184.753  1.00  0.00    -0.080 C 
ATOM     14  C   UNL     1     162.687 161.033 185.023  1.00  0.00     0.039 C 
ATOM     15  C   UNL     1     163.704 163.200 183.988  1.00  0.00     0.039 C 
ENDBRANCH  11  12
ENDBRANCH   1  11
TORSDOF 4
ENDMDL
MODEL 9
REMARK VINA RESULT:    -2.658      1.539      3.414
REMARK INTER + INTRA:          -4.629
REMARK INTER:                  -3.591
REMARK INTRA:                  -1.038
REMARK UNBOUND:                -1.350
REMARK SMILES CC(C)=CCC[C@@H](C)c1ccc(C)cc1
REMARK SMILES IDX 6 1 7 2 8 3 9 4 13 5 12 6 11 7 14 8 10 9 15 10 5 11 4 12
REMARK SMILES IDX 2 13 1 14 3 15
REMARK H PARENT
REMARK Flexibility Score: inf
ROOT
ATOM      1  C   UNL     1     160.441 163.290 186.881  1.00  0.00     0.012 C 
ENDROOT
BRANCH   1   2
ATOM      2  C   UNL     1     160.871 163.301 188.364  1.00  0.00     0.016 C 
ATOM      3  C   UNL     1     159.875 162.557 189.267  1.00  0.00     0.013 C 
BRANCH   2   4
ATOM      4  C   UNL     1     162.263 162.712 188.515  1.00  0.00    -0.045 A 
ATOM      5  C   UNL     1     166.240 161.072 188.898  1.00  0.00     0.044 C 
ATOM      6  C   UNL     1     164.855 161.637 188.795  1.00  0.00    -0.051 A 
ATOM      7  C   UNL     1     163.769 160.798 188.508  1.00  0.00     0.004 A 
ATOM      8  C   UNL     1     164.645 163.019 188.915  1.00  0.00     0.004 A 
ATOM      9  C   UNL     1     162.483 161.328 188.374  1.00  0.00     0.004 A 
ATOM     10  C   UNL     1     163.359 163.551 188.781  1.00  0.00     0.004 A 
ENDBRANCH   2   4
ENDBRANCH   1   2
BRANCH   1  11
ATOM     11  C   UNL     1     160.772 164.607 186.160  1.00  0.00     0.028 C 
BRANCH  11  12
ATOM     12  C   UNL     1     160.201 165.783 186.912  1.00  0.00    -0.028 C 
ATOM     13  C   UNL     1     160.935 166.809 187.397  1.00  0.00    -0.080 C 
ATOM     14  C   UNL     1     162.440 166.843 187.277  1.00  0.00     0.039 C 
ATOM     15  C   UNL     1     160.220 167.938 188.094  1.00  0.00     0.039 C 
ENDBRANCH  11  12
ENDBRANCH   1  11
TORSDOF 4
ENDMDL
