MODEL 1
REMARK VINA RESULT:    -4.666      0.000      0.000
REMARK INTER + INTRA:          -9.167
REMARK INTER:                  -7.939
REMARK INTRA:                  -1.228
REMARK UNBOUND:                -1.228
REMARK SMILES CCCCCCCCCCCCCC(=O)[O-]
REMARK SMILES IDX 8 1 9 2 10 3 11 4 12 5 13 6 14 7 15 8 16 9 7 10 6 11 5 12
REMARK SMILES IDX 4 13 3 14 2 15 1 16
REMARK H PARENT
REMARK Flexibility Score: inf
ROOT
ATOM      1  C   UNL     1       0.643 -37.212  20.889  1.00  0.00     0.000 C 
ENDROOT
BRANCH   1   2
ATOM      2  C   UNL     1      -0.194 -35.922  20.839  1.00  0.00     0.000 C 
BRANCH   2   3
ATOM      3  C   UNL     1      -1.702 -36.190  20.980  1.00  0.00     0.000 C 
BRANCH   3   4
ATOM      4  C   UNL     1      -2.333 -35.431  22.157  1.00  0.00     0.000 C 
BRANCH   4   5
ATOM      5  C   UNL     1      -1.504 -34.187  22.513  1.00  0.00     0.006 C 
BRANCH   5   6
ATOM      6  C   UNL     1      -2.079 -33.432  23.718  1.00  0.00     0.053 C 
BRANCH   6   7
ATOM      7  C   UNL     1      -1.252 -32.232  24.069  1.00  0.00     0.041 C 
ATOM      8  O   UNL     1      -1.785 -31.095  24.149  1.00  0.00    -0.550 OA
ATOM      9  O   UNL     1       0.103 -32.378  24.340  1.00  0.00    -0.550 OA
ENDBRANCH   6   7
ENDBRANCH   5   6
ENDBRANCH   4   5
ENDBRANCH   3   4
ENDBRANCH   2   3
ENDBRANCH   1   2
BRANCH   1  10
ATOM     10  C   UNL     1       1.532 -37.384  19.646  1.00  0.00     0.000 C 
BRANCH  10  11
ATOM     11  C   UNL     1       2.271 -36.091  19.265  1.00  0.00    -0.000 C 
BRANCH  11  12
ATOM     12  C   UNL     1       3.797 -36.206  19.421  1.00  0.00    -0.000 C 
BRANCH  12  13
ATOM     13  C   UNL     1       4.236 -36.885  20.737  1.00  0.00    -0.000 C 
BRANCH  13  14
ATOM     14  C   UNL     1       4.783 -35.870  21.757  1.00  0.00    -0.000 C 
BRANCH  14  15
ATOM     15  C   UNL     1       3.894 -35.750  23.004  1.00  0.00    -0.003 C 
ATOM     16  C   UNL     1       2.738 -34.768  22.814  1.00  0.00     0.004 C 
ENDBRANCH  14  15
ENDBRANCH  13  14
ENDBRANCH  12  13
ENDBRANCH  11  12
ENDBRANCH  10  11
ENDBRANCH   1  10
TORSDOF 12
ENDMDL
MODEL 2
REMARK VINA RESULT:    -4.579      2.816      6.561
REMARK INTER + INTRA:          -9.019
REMARK INTER:                  -7.889
REMARK INTRA:                  -1.130
REMARK UNBOUND:                -1.228
REMARK SMILES CCCCCCCCCCCCCC(=O)[O-]
REMARK SMILES IDX 8 1 9 2 10 3 11 4 12 5 13 6 14 7 15 8 16 9 7 10 6 11 5 12
REMARK SMILES IDX 4 13 3 14 2 15 1 16
REMARK H PARENT
REMARK Flexibility Score: inf
ROOT
ATOM      1  C   UNL     1       0.329 -35.975  20.807  1.00  0.00     0.000 C 
ENDROOT
BRANCH   1   2
ATOM      2  C   UNL     1       0.509 -37.500  20.899  1.00  0.00     0.000 C 
BRANCH   2   3
ATOM      3  C   UNL     1       1.054 -38.111  19.598  1.00  0.00     0.000 C 
BRANCH   3   4
ATOM      4  C   UNL     1       2.417 -37.527  19.193  1.00  0.00     0.000 C 
BRANCH   4   5
ATOM      5  C   UNL     1       3.428 -37.650  20.343  1.00  0.00     0.006 C 
BRANCH   5   6
ATOM      6  C   UNL     1       4.265 -36.376  20.519  1.00  0.00     0.053 C 
BRANCH   6   7
ATOM      7  C   UNL     1       4.255 -35.897  21.939  1.00  0.00     0.041 C 
ATOM      8  O   UNL     1       3.288 -35.218  22.373  1.00  0.00    -0.550 OA
ATOM      9  O   UNL     1       5.301 -36.229  22.792  1.00  0.00    -0.550 OA
ENDBRANCH   6   7
ENDBRANCH   5   6
ENDBRANCH   4   5
ENDBRANCH   3   4
ENDBRANCH   2   3
ENDBRANCH   1   2
BRANCH   1  10
ATOM     10  C   UNL     1      -0.977 -35.496  21.463  1.00  0.00     0.000 C 
BRANCH  10  11
ATOM     11  C   UNL     1      -2.225 -35.915  20.668  1.00  0.00    -0.000 C 
BRANCH  11  12
ATOM     12  C   UNL     1      -3.027 -37.031  21.359  1.00  0.00    -0.000 C 
BRANCH  12  13
ATOM     13  C   UNL     1      -3.637 -38.054  20.376  1.00  0.00    -0.000 C 
BRANCH  13  14
ATOM     14  C   UNL     1      -3.035 -37.933  18.965  1.00  0.00    -0.000 C 
BRANCH  14  15
ATOM     15  C   UNL     1      -4.102 -37.690  17.888  1.00  0.00    -0.003 C 
ATOM     16  C   UNL     1      -4.441 -36.210  17.713  1.00  0.00     0.004 C 
ENDBRANCH  14  15
ENDBRANCH  13  14
ENDBRANCH  12  13
ENDBRANCH  11  12
ENDBRANCH  10  11
ENDBRANCH   1  10
TORSDOF 12
ENDMDL
MODEL 3
REMARK VINA RESULT:    -4.523      1.531      2.424
REMARK INTER + INTRA:          -8.924
REMARK INTER:                  -7.993
REMARK INTRA:                  -0.931
REMARK UNBOUND:                -1.228
REMARK SMILES CCCCCCCCCCCCCC(=O)[O-]
REMARK SMILES IDX 8 1 9 2 10 3 11 4 12 5 13 6 14 7 15 8 16 9 7 10 6 11 5 12
REMARK SMILES IDX 4 13 3 14 2 15 1 16
REMARK H PARENT
REMARK Flexibility Score: inf
ROOT
ATOM      1  C   UNL     1      -0.469 -37.701  21.089  1.00  0.00     0.000 C 
ENDROOT
BRANCH   1   2
ATOM      2  C   UNL     1      -1.169 -36.401  20.657  1.00  0.00     0.000 C 
BRANCH   2   3
ATOM      3  C   UNL     1      -2.640 -36.347  21.101  1.00  0.00     0.000 C 
BRANCH   3   4
ATOM      4  C   UNL     1      -2.855 -35.464  22.340  1.00  0.00     0.000 C 
BRANCH   4   5
ATOM      5  C   UNL     1      -1.745 -34.407  22.457  1.00  0.00     0.006 C 
BRANCH   5   6
ATOM      6  C   UNL     1      -2.227 -33.135  23.166  1.00  0.00     0.053 C 
BRANCH   6   7
ATOM      7  C   UNL     1      -1.345 -32.774  24.322  1.00  0.00     0.041 C 
ATOM      8  O   UNL     1      -0.315 -32.074  24.140  1.00  0.00    -0.550 OA
ATOM      9  O   UNL     1      -1.681 -33.183  25.607  1.00  0.00    -0.550 OA
ENDBRANCH   6   7
ENDBRANCH   5   6
ENDBRANCH   4   5
ENDBRANCH   3   4
ENDBRANCH   2   3
ENDBRANCH   1   2
BRANCH   1  10
ATOM     10  C   UNL     1       1.064 -37.589  21.037  1.00  0.00     0.000 C 
BRANCH  10  11
ATOM     11  C   UNL     1       1.543 -36.142  20.841  1.00  0.00    -0.000 C 
BRANCH  11  12
ATOM     12  C   UNL     1       1.969 -35.845  19.392  1.00  0.00    -0.000 C 
BRANCH  12  13
ATOM     13  C   UNL     1       2.191 -37.113  18.540  1.00  0.00    -0.000 C 
BRANCH  13  14
ATOM     14  C   UNL     1       3.523 -37.069  17.771  1.00  0.00    -0.000 C 
BRANCH  14  15
ATOM     15  C   UNL     1       4.693 -36.592  18.646  1.00  0.00    -0.003 C 
ATOM     16  C   UNL     1       5.112 -37.628  19.689  1.00  0.00     0.004 C 
ENDBRANCH  14  15
ENDBRANCH  13  14
ENDBRANCH  12  13
ENDBRANCH  11  12
ENDBRANCH  10  11
ENDBRANCH   1  10
TORSDOF 12
ENDMDL
MODEL 4
REMARK VINA RESULT:    -4.514      1.241      2.662
REMARK INTER + INTRA:          -8.909
REMARK INTER:                  -7.953
REMARK INTRA:                  -0.956
REMARK UNBOUND:                -1.228
REMARK SMILES CCCCCCCCCCCCCC(=O)[O-]
REMARK SMILES IDX 8 1 9 2 10 3 11 4 12 5 13 6 14 7 15 8 16 9 7 10 6 11 5 12
REMARK SMILES IDX 4 13 3 14 2 15 1 16
REMARK H PARENT
REMARK Flexibility Score: inf
ROOT
ATOM      1  C   UNL     1       1.235 -36.166  20.567  1.00  0.00     0.000 C 
ENDROOT
BRANCH   1   2
ATOM      2  C   UNL     1      -0.161 -36.664  20.982  1.00  0.00     0.000 C 
BRANCH   2   3
ATOM      3  C   UNL     1      -1.252 -35.599  20.780  1.00  0.00     0.000 C 
BRANCH   3   4
ATOM      4  C   UNL     1      -2.532 -35.904  21.573  1.00  0.00     0.000 C 
BRANCH   4   5
ATOM      5  C   UNL     1      -2.725 -34.891  22.712  1.00  0.00     0.006 C 
BRANCH   5   6
ATOM      6  C   UNL     1      -1.508 -33.973  22.885  1.00  0.00     0.053 C 
BRANCH   6   7
ATOM      7  C   UNL     1      -1.845 -32.747  23.678  1.00  0.00     0.041 C 
ATOM      8  O   UNL     1      -0.969 -32.193  24.393  1.00  0.00    -0.550 OA
ATOM      9  O   UNL     1      -3.118 -32.197  23.600  1.00  0.00    -0.550 OA
ENDBRANCH   6   7
ENDBRANCH   5   6
ENDBRANCH   4   5
ENDBRANCH   3   4
ENDBRANCH   2   3
ENDBRANCH   1   2
BRANCH   1  10
ATOM     10  C   UNL     1       2.002 -35.524  21.735  1.00  0.00     0.000 C 
BRANCH  10  11
ATOM     11  C   UNL     1       3.452 -36.024  21.835  1.00  0.00    -0.000 C 
BRANCH  11  12
ATOM     12  C   UNL     1       3.759 -37.166  20.851  1.00  0.00    -0.000 C 
BRANCH  12  13
ATOM     13  C   UNL     1       5.086 -36.982  20.084  1.00  0.00    -0.000 C 
BRANCH  13  14
ATOM     14  C   UNL     1       4.929 -37.266  18.579  1.00  0.00    -0.000 C 
BRANCH  14  15
ATOM     15  C   UNL     1       3.913 -36.331  17.906  1.00  0.00    -0.003 C 
ATOM     16  C   UNL     1       2.667 -37.068  17.414  1.00  0.00     0.004 C 
ENDBRANCH  14  15
ENDBRANCH  13  14
ENDBRANCH  12  13
ENDBRANCH  11  12
ENDBRANCH  10  11
ENDBRANCH   1  10
TORSDOF 12
ENDMDL
MODEL 5
REMARK VINA RESULT:    -4.480      2.831      3.855
REMARK INTER + INTRA:          -8.851
REMARK INTER:                  -7.175
REMARK INTRA:                  -1.676
REMARK UNBOUND:                -1.228
REMARK SMILES CCCCCCCCCCCCCC(=O)[O-]
REMARK SMILES IDX 8 1 9 2 10 3 11 4 12 5 13 6 14 7 15 8 16 9 7 10 6 11 5 12
REMARK SMILES IDX 4 13 3 14 2 15 1 16
REMARK H PARENT
REMARK Flexibility Score: inf
ROOT
ATOM      1  C   UNL     1       2.665 -36.341  18.542  1.00  0.00     0.000 C 
ENDROOT
BRANCH   1   2
ATOM      2  C   UNL     1       1.996 -37.669  18.940  1.00  0.00     0.000 C 
BRANCH   2   3
ATOM      3  C   UNL     1       1.129 -37.538  20.203  1.00  0.00     0.000 C 
BRANCH   3   4
ATOM      4  C   UNL     1       0.710 -36.087  20.487  1.00  0.00     0.000 C 
BRANCH   4   5
ATOM      5  C   UNL     1      -0.725 -36.029  21.033  1.00  0.00     0.006 C 
BRANCH   5   6
ATOM      6  C   UNL     1      -1.437 -37.384  20.942  1.00  0.00     0.053 C 
BRANCH   6   7
ATOM      7  C   UNL     1      -2.912 -37.254  21.173  1.00  0.00     0.041 C 
ATOM      8  O   UNL     1      -3.357 -36.372  21.953  1.00  0.00    -0.550 OA
ATOM      9  O   UNL     1      -3.797 -38.087  20.499  1.00  0.00    -0.550 OA
ENDBRANCH   6   7
ENDBRANCH   5   6
ENDBRANCH   4   5
ENDBRANCH   3   4
ENDBRANCH   2   3
ENDBRANCH   1   2
BRANCH   1  10
ATOM     10  C   UNL     1       4.052 -36.548  17.911  1.00  0.00     0.000 C 
BRANCH  10  11
ATOM     11  C   UNL     1       4.899 -37.579  18.674  1.00  0.00    -0.000 C 
BRANCH  11  12
ATOM     12  C   UNL     1       5.428 -37.043  20.016  1.00  0.00    -0.000 C 
BRANCH  12  13
ATOM     13  C   UNL     1       5.068 -37.934  21.224  1.00  0.00    -0.000 C 
BRANCH  13  14
ATOM     14  C   UNL     1       4.217 -37.184  22.264  1.00  0.00    -0.000 C 
BRANCH  14  15
ATOM     15  C   UNL     1       4.032 -35.700  21.914  1.00  0.00    -0.003 C 
ATOM     16  C   UNL     1       3.161 -34.957  22.927  1.00  0.00     0.004 C 
ENDBRANCH  14  15
ENDBRANCH  13  14
ENDBRANCH  12  13
ENDBRANCH  11  12
ENDBRANCH  10  11
ENDBRANCH   1  10
TORSDOF 12
ENDMDL
MODEL 6
REMARK VINA RESULT:    -4.469      3.825      4.968
REMARK INTER + INTRA:          -8.833
REMARK INTER:                  -7.676
REMARK INTRA:                  -1.157
REMARK UNBOUND:                -1.228
REMARK SMILES CCCCCCCCCCCCCC(=O)[O-]
REMARK SMILES IDX 8 1 9 2 10 3 11 4 12 5 13 6 14 7 15 8 16 9 7 10 6 11 5 12
REMARK SMILES IDX 4 13 3 14 2 15 1 16
REMARK H PARENT
REMARK Flexibility Score: inf
ROOT
ATOM      1  C   UNL     1       0.733 -37.645  21.066  1.00  0.00     0.000 C 
ENDROOT
BRANCH   1   2
ATOM      2  C   UNL     1       0.171 -36.224  20.880  1.00  0.00     0.000 C 
BRANCH   2   3
ATOM      3  C   UNL     1      -1.365 -36.186  20.933  1.00  0.00     0.000 C 
BRANCH   3   4
ATOM      4  C   UNL     1      -1.985 -37.566  21.202  1.00  0.00     0.000 C 
BRANCH   4   5
ATOM      5  C   UNL     1      -3.039 -37.909  20.138  1.00  0.00     0.006 C 
BRANCH   5   6
ATOM      6  C   UNL     1      -3.585 -36.659  19.437  1.00  0.00     0.053 C 
BRANCH   6   7
ATOM      7  C   UNL     1      -4.018 -36.953  18.032  1.00  0.00     0.041 C 
ATOM      8  O   UNL     1      -3.894 -38.114  17.560  1.00  0.00    -0.550 OA
ATOM      9  O   UNL     1      -4.591 -35.952  17.257  1.00  0.00    -0.550 OA
ENDBRANCH   6   7
ENDBRANCH   5   6
ENDBRANCH   4   5
ENDBRANCH   3   4
ENDBRANCH   2   3
ENDBRANCH   1   2
BRANCH   1  10
ATOM     10  C   UNL     1       2.268 -37.662  21.160  1.00  0.00     0.000 C 
BRANCH  10  11
ATOM     11  C   UNL     1       2.850 -36.294  21.554  1.00  0.00    -0.000 C 
BRANCH  11  12
ATOM     12  C   UNL     1       4.125 -35.939  20.768  1.00  0.00    -0.000 C 
BRANCH  12  13
ATOM     13  C   UNL     1       4.828 -37.163  20.143  1.00  0.00    -0.000 C 
BRANCH  13  14
ATOM     14  C   UNL     1       4.969 -37.033  18.616  1.00  0.00    -0.000 C 
BRANCH  14  15
ATOM     15  C   UNL     1       3.878 -37.800  17.855  1.00  0.00    -0.003 C 
ATOM     16  C   UNL     1       2.744 -36.895  17.373  1.00  0.00     0.004 C 
ENDBRANCH  14  15
ENDBRANCH  13  14
ENDBRANCH  12  13
ENDBRANCH  11  12
ENDBRANCH  10  11
ENDBRANCH   1  10
TORSDOF 12
ENDMDL
MODEL 7
REMARK VINA RESULT:    -4.435      2.050      3.673
REMARK INTER + INTRA:          -8.774
REMARK INTER:                  -7.332
REMARK INTRA:                  -1.442
REMARK UNBOUND:                -1.228
REMARK SMILES CCCCCCCCCCCCCC(=O)[O-]
REMARK SMILES IDX 8 1 9 2 10 3 11 4 12 5 13 6 14 7 15 8 16 9 7 10 6 11 5 12
REMARK SMILES IDX 4 13 3 14 2 15 1 16
REMARK H PARENT
REMARK Flexibility Score: inf
ROOT
ATOM      1  C   UNL     1       2.466 -36.150  21.373  1.00  0.00     0.000 C 
ENDROOT
BRANCH   1   2
ATOM      2  C   UNL     1       2.187 -37.654  21.203  1.00  0.00     0.000 C 
BRANCH   2   3
ATOM      3  C   UNL     1       0.950 -37.930  20.333  1.00  0.00     0.000 C 
BRANCH   3   4
ATOM      4  C   UNL     1      -0.363 -37.867  21.129  1.00  0.00     0.000 C 
BRANCH   4   5
ATOM      5  C   UNL     1      -1.308 -36.807  20.543  1.00  0.00     0.006 C 
BRANCH   5   6
ATOM      6  C   UNL     1      -1.103 -35.428  21.183  1.00  0.00     0.053 C 
BRANCH   6   7
ATOM      7  C   UNL     1      -2.143 -35.139  22.224  1.00  0.00     0.041 C 
ATOM      8  O   UNL     1      -1.953 -34.231  23.075  1.00  0.00    -0.550 OA
ATOM      9  O   UNL     1      -3.336 -35.851  22.230  1.00  0.00    -0.550 OA
ENDBRANCH   6   7
ENDBRANCH   5   6
ENDBRANCH   4   5
ENDBRANCH   3   4
ENDBRANCH   2   3
ENDBRANCH   1   2
BRANCH   1  10
ATOM     10  C   UNL     1       3.633 -35.874  22.336  1.00  0.00     0.000 C 
BRANCH  10  11
ATOM     11  C   UNL     1       4.761 -36.910  22.208  1.00  0.00    -0.000 C 
BRANCH  11  12
ATOM     12  C   UNL     1       5.580 -36.746  20.915  1.00  0.00    -0.000 C 
BRANCH  12  13
ATOM     13  C   UNL     1       5.746 -38.057  20.117  1.00  0.00    -0.000 C 
BRANCH  13  14
ATOM     14  C   UNL     1       5.018 -38.007  18.762  1.00  0.00    -0.000 C 
BRANCH  14  15
ATOM     15  C   UNL     1       4.524 -36.595  18.410  1.00  0.00    -0.003 C 
ATOM     16  C   UNL     1       3.293 -36.608  17.504  1.00  0.00     0.004 C 
ENDBRANCH  14  15
ENDBRANCH  13  14
ENDBRANCH  12  13
ENDBRANCH  11  12
ENDBRANCH  10  11
ENDBRANCH   1  10
TORSDOF 12
ENDMDL
MODEL 8
REMARK VINA RESULT:    -4.432      2.192      3.973
REMARK INTER + INTRA:          -8.770
REMARK INTER:                  -7.369
REMARK INTRA:                  -1.401
REMARK UNBOUND:                -1.228
REMARK SMILES CCCCCCCCCCCCCC(=O)[O-]
REMARK SMILES IDX 8 1 9 2 10 3 11 4 12 5 13 6 14 7 15 8 16 9 7 10 6 11 5 12
REMARK SMILES IDX 4 13 3 14 2 15 1 16
REMARK H PARENT
REMARK Flexibility Score: inf
ROOT
ATOM      1  C   UNL     1       2.912 -35.448  22.250  1.00  0.00     0.000 C 
ENDROOT
BRANCH   1   2
ATOM      2  C   UNL     1       2.054 -35.979  21.088  1.00  0.00     0.000 C 
BRANCH   2   3
ATOM      3  C   UNL     1       1.862 -37.503  21.144  1.00  0.00     0.000 C 
BRANCH   3   4
ATOM      4  C   UNL     1       0.382 -37.916  21.144  1.00  0.00     0.000 C 
BRANCH   4   5
ATOM      5  C   UNL     1      -0.514 -36.740  20.722  1.00  0.00     0.006 C 
BRANCH   5   6
ATOM      6  C   UNL     1      -1.977 -36.950  21.131  1.00  0.00     0.053 C 
BRANCH   6   7
ATOM      7  C   UNL     1      -2.521 -35.768  21.876  1.00  0.00     0.041 C 
ATOM      8  O   UNL     1      -3.698 -35.785  22.321  1.00  0.00    -0.550 OA
ATOM      9  O   UNL     1      -1.713 -34.662  22.109  1.00  0.00    -0.550 OA
ENDBRANCH   6   7
ENDBRANCH   5   6
ENDBRANCH   4   5
ENDBRANCH   3   4
ENDBRANCH   2   3
ENDBRANCH   1   2
BRANCH   1  10
ATOM     10  C   UNL     1       4.052 -36.408  22.627  1.00  0.00     0.000 C 
BRANCH  10  11
ATOM     11  C   UNL     1       5.282 -36.248  21.720  1.00  0.00    -0.000 C 
BRANCH  11  12
ATOM     12  C   UNL     1       5.557 -37.494  20.860  1.00  0.00    -0.000 C 
BRANCH  12  13
ATOM     13  C   UNL     1       5.891 -37.169  19.388  1.00  0.00    -0.000 C 
BRANCH  13  14
ATOM     14  C   UNL     1       4.814 -37.692  18.421  1.00  0.00    -0.000 C 
BRANCH  14  15
ATOM     15  C   UNL     1       3.929 -36.569  17.860  1.00  0.00    -0.003 C 
ATOM     16  C   UNL     1       2.503 -37.031  17.564  1.00  0.00     0.004 C 
ENDBRANCH  14  15
ENDBRANCH  13  14
ENDBRANCH  12  13
ENDBRANCH  11  12
ENDBRANCH  10  11
ENDBRANCH   1  10
TORSDOF 12
ENDMDL
MODEL 9
REMARK VINA RESULT:    -4.268      2.876      6.457
REMARK INTER + INTRA:          -8.491
REMARK INTER:                  -7.189
REMARK INTRA:                  -1.301
REMARK UNBOUND:                -1.228
REMARK SMILES CCCCCCCCCCCCCC(=O)[O-]
REMARK SMILES IDX 8 1 9 2 10 3 11 4 12 5 13 6 14 7 15 8 16 9 7 10 6 11 5 12
REMARK SMILES IDX 4 13 3 14 2 15 1 16
REMARK H PARENT
REMARK Flexibility Score: inf
ROOT
ATOM      1  C   UNL     1       2.077 -36.595  18.852  1.00  0.00     0.000 C 
ENDROOT
BRANCH   1   2
ATOM      2  C   UNL     1       2.942 -36.980  17.639  1.00  0.00     0.000 C 
BRANCH   2   3
ATOM      3  C   UNL     1       4.098 -37.922  18.012  1.00  0.00     0.000 C 
BRANCH   3   4
ATOM      4  C   UNL     1       5.256 -37.192  18.710  1.00  0.00     0.000 C 
BRANCH   4   5
ATOM      5  C   UNL     1       5.477 -37.744  20.126  1.00  0.00     0.006 C 
BRANCH   5   6
ATOM      6  C   UNL     1       5.419 -36.644  21.194  1.00  0.00     0.053 C 
BRANCH   6   7
ATOM      7  C   UNL     1       4.196 -36.765  22.051  1.00  0.00     0.041 C 
ATOM      8  O   UNL     1       3.847 -37.887  22.504  1.00  0.00    -0.550 OA
ATOM      9  O   UNL     1       3.461 -35.632  22.378  1.00  0.00    -0.550 OA
ENDBRANCH   6   7
ENDBRANCH   5   6
ENDBRANCH   4   5
ENDBRANCH   3   4
ENDBRANCH   2   3
ENDBRANCH   1   2
BRANCH   1  10
ATOM     10  C   UNL     1       1.578 -37.822  19.632  1.00  0.00     0.000 C 
BRANCH  10  11
ATOM     11  C   UNL     1       0.750 -37.439  20.870  1.00  0.00    -0.000 C 
BRANCH  11  12
ATOM     12  C   UNL     1       0.345 -35.955  20.881  1.00  0.00    -0.000 C 
BRANCH  12  13
ATOM     13  C   UNL     1      -1.134 -35.719  21.256  1.00  0.00    -0.000 C 
BRANCH  13  14
ATOM     14  C   UNL     1      -1.991 -36.982  21.054  1.00  0.00    -0.000 C 
BRANCH  14  15
ATOM     15  C   UNL     1      -3.069 -36.796  19.976  1.00  0.00    -0.003 C 
ATOM     16  C   UNL     1      -3.606 -38.123  19.440  1.00  0.00     0.004 C 
ENDBRANCH  14  15
ENDBRANCH  13  14
ENDBRANCH  12  13
ENDBRANCH  11  12
ENDBRANCH  10  11
ENDBRANCH   1  10
TORSDOF 12
ENDMDL
