MODEL 1
REMARK VINA RESULT:    -4.258      0.000      0.000
REMARK INTER + INTRA:          -5.846
REMARK INTER:                  -6.250
REMARK INTRA:                   0.404
REMARK UNBOUND:                 0.404
REMARK SMILES C=C1CC=CC(C)(C)CC=C(C)CCC1
REMARK SMILES IDX 2 1 1 2 15 3 14 4 13 5 11 6 12 7 10 8 3 10 4 11 5 12 6 13
REMARK SMILES IDX 7 14 8 15 9 16
REMARK H PARENT
REMARK Flexibility Score: 60.00
ROOT
ATOM      1  C   UNL     1     105.608 111.728 128.341  1.00  0.00    -0.074 C 
ATOM      2  C   UNL     1     104.735 111.802 129.357  1.00  0.00     0.008 C 
ENDROOT
BRANCH   1   3
ATOM      3  C   UNL     1     107.076 111.478 128.635  1.00  0.00     0.031 C 
BRANCH   3   4
ATOM      4  C   UNL     1     107.288 110.050 129.169  1.00  0.00     0.009 C 
BRANCH   4   5
ATOM      5  C   UNL     1     107.805 109.087 128.085  1.00  0.00     0.030 C 
BRANCH   5   6
ATOM      6  C   UNL     1     106.797 107.985 127.824  1.00  0.00    -0.077 C 
ATOM      7  C   UNL     1     106.122 107.339 129.008  1.00  0.00     0.039 C 
ATOM      8  C   UNL     1     106.511 107.504 126.589  1.00  0.00    -0.027 CG0
ATOM      9  G   UNL     1     107.040 108.027 125.261  1.00  0.00     0.000 G0
ENDBRANCH   5   6
ENDBRANCH   4   5
ENDBRANCH   3   4
ENDBRANCH   1   3
BRANCH   1  10
ATOM     10  C   UNL     1     105.100 111.952 126.925  1.00  0.00     0.057 C 
BRANCH  10  11
ATOM     11  C   UNL     1     105.075 110.695 126.091  1.00  0.00    -0.026 C 
ATOM     12  C   UNL     1     106.096 110.355 125.279  1.00  0.00    -0.024 C 
BRANCH  12  13
ATOM     13  C   UNL     1     106.146 109.034 124.520  1.00  0.00    -0.014 C 
ATOM     14  C   UNL     1     104.720 108.443 124.408  1.00  0.00     0.016 C 
ATOM     15  C   UNL     1     106.652 109.300 123.083  1.00  0.00     0.016 C 
BRANCH  13  16
ATOM     16  C   UNL     1     107.064 108.012 125.262  1.00  0.00     0.038 CG0
ATOM     17  G   UNL     1     106.526 107.528 126.600  1.00  0.00     0.000 G0
ENDBRANCH  13  16
ENDBRANCH  12  13
ENDBRANCH  10  11
ENDBRANCH   1  10
TORSDOF 0
ENDMDL
MODEL 2
REMARK VINA RESULT:    -4.177      4.834      7.228
REMARK INTER + INTRA:          -5.727
REMARK INTER:                  -5.991
REMARK INTRA:                   0.264
REMARK UNBOUND:                 0.404
REMARK SMILES C=C1CC=CC(C)(C)CC=C(C)CCC1
REMARK SMILES IDX 2 1 1 2 15 3 14 4 13 5 11 6 12 7 10 8 3 10 4 11 5 12 6 13
REMARK SMILES IDX 7 14 8 15 9 16
REMARK H PARENT
REMARK Flexibility Score: 60.00
ROOT
ATOM      1  C   UNL     1     106.731 100.955 128.143  1.00  0.00    -0.074 C 
ATOM      2  C   UNL     1     107.540 100.777 129.197  1.00  0.00     0.008 C 
ENDROOT
BRANCH   1   3
ATOM      3  C   UNL     1     105.279 101.333 128.373  1.00  0.00     0.031 C 
BRANCH   3   4
ATOM      4  C   UNL     1     105.167 102.786 128.866  1.00  0.00     0.009 C 
BRANCH   4   5
ATOM      5  C   UNL     1     104.457 103.699 127.850  1.00  0.00     0.030 C 
BRANCH   5   6
ATOM      6  C   UNL     1     105.366 104.838 127.429  1.00  0.00    -0.077 C 
ATOM      7  C   UNL     1     106.001 105.681 128.505  1.00  0.00     0.039 C 
ATOM      8  C   UNL     1     105.594 105.178 126.136  1.00  0.00    -0.027 CG0
ATOM      9  G   UNL     1     105.092 104.450 124.898  1.00  0.00     0.000 G0
ENDBRANCH   5   6
ENDBRANCH   4   5
ENDBRANCH   3   4
ENDBRANCH   1   3
BRANCH   1  10
ATOM     10  C   UNL     1     107.287 100.718 126.748  1.00  0.00     0.057 C 
BRANCH  10  11
ATOM     11  C   UNL     1     107.249 101.945 125.871  1.00  0.00    -0.026 C 
ATOM     12  C   UNL     1     106.237 102.181 125.013  1.00  0.00    -0.024 C 
BRANCH  12  13
ATOM     13  C   UNL     1     106.117 103.468 124.206  1.00  0.00    -0.014 C 
ATOM     14  C   UNL     1     107.496 104.165 124.127  1.00  0.00     0.016 C 
ATOM     15  C   UNL     1     105.693 103.118 122.760  1.00  0.00     0.016 C 
BRANCH  13  16
ATOM     16  C   UNL     1     105.093 104.440 124.875  1.00  0.00     0.038 CG0
ATOM     17  G   UNL     1     105.604 105.141 126.124  1.00  0.00     0.000 G0
ENDBRANCH  13  16
ENDBRANCH  12  13
ENDBRANCH  10  11
ENDBRANCH   1  10
TORSDOF 0
ENDMDL
MODEL 3
REMARK VINA RESULT:    -4.138      3.632      5.107
REMARK INTER + INTRA:          -5.670
REMARK INTER:                  -6.036
REMARK INTRA:                   0.367
REMARK UNBOUND:                 0.404
REMARK SMILES C=C1CC=CC(C)(C)CC=C(C)CCC1
REMARK SMILES IDX 2 1 1 2 15 3 14 4 13 5 11 6 12 7 10 8 3 10 4 11 5 12 6 13
REMARK SMILES IDX 7 14 8 15 9 16
REMARK H PARENT
REMARK Flexibility Score: 60.00
ROOT
ATOM      1  C   UNL     1     100.915 105.624 128.180  1.00  0.00    -0.074 C 
ATOM      2  C   UNL     1     100.704 104.842 129.249  1.00  0.00     0.008 C 
ENDROOT
BRANCH   1   3
ATOM      3  C   UNL     1     101.360 107.061 128.384  1.00  0.00     0.031 C 
BRANCH   3   4
ATOM      4  C   UNL     1     102.851 107.120 128.760  1.00  0.00     0.009 C 
BRANCH   4   5
ATOM      5  C   UNL     1     103.667 107.999 127.794  1.00  0.00     0.030 C 
BRANCH   5   6
ATOM      6  C   UNL     1     104.875 107.244 127.275  1.00  0.00    -0.077 C 
ATOM      7  C   UNL     1     105.887 106.743 128.274  1.00  0.00     0.039 C 
ATOM      8  C   UNL     1     105.128 107.044 125.957  1.00  0.00    -0.027 CG0
ATOM      9  G   UNL     1     104.233 107.427 124.788  1.00  0.00     0.000 G0
ENDBRANCH   5   6
ENDBRANCH   4   5
ENDBRANCH   3   4
ENDBRANCH   1   3
BRANCH   1  10
ATOM     10  C   UNL     1     100.646 105.056 126.795  1.00  0.00     0.057 C 
BRANCH  10  11
ATOM     11  C   UNL     1     101.847 105.108 125.883  1.00  0.00    -0.026 C 
ATOM     12  C   UNL     1     102.074 106.150 125.058  1.00  0.00    -0.024 C 
BRANCH  12  13
ATOM     13  C   UNL     1     103.339 106.280 124.217  1.00  0.00    -0.014 C 
ATOM     14  C   UNL     1     104.129 104.950 124.254  1.00  0.00     0.016 C 
ATOM     15  C   UNL     1     102.939 106.541 122.746  1.00  0.00     0.016 C 
BRANCH  13  16
ATOM     16  C   UNL     1     104.245 107.427 124.767  1.00  0.00     0.038 CG0
ATOM     17  G   UNL     1     105.103 107.041 125.963  1.00  0.00     0.000 G0
ENDBRANCH  13  16
ENDBRANCH  12  13
ENDBRANCH  10  11
ENDBRANCH   1  10
TORSDOF 0
ENDMDL
MODEL 4
REMARK VINA RESULT:    -4.093      3.335      5.868
REMARK INTER + INTRA:          -5.603
REMARK INTER:                  -5.852
REMARK INTRA:                   0.249
REMARK UNBOUND:                 0.404
REMARK SMILES C=C1CC=CC(C)(C)CC=C(C)CCC1
REMARK SMILES IDX 2 1 1 2 15 3 14 4 13 5 11 6 12 7 10 8 3 10 4 11 5 12 6 13
REMARK SMILES IDX 7 14 8 15 9 16
REMARK H PARENT
REMARK Flexibility Score: 60.00
ROOT
ATOM      1  C   UNL     1     111.703 106.828 128.363  1.00  0.00    -0.074 C 
ATOM      2  C   UNL     1     111.773 107.821 129.262  1.00  0.00     0.008 C 
ENDROOT
BRANCH   1   3
ATOM      3  C   UNL     1     111.787 107.154 126.883  1.00  0.00     0.031 C 
BRANCH   3   4
ATOM      4  C   UNL     1     110.521 107.892 126.416  1.00  0.00     0.009 C 
BRANCH   4   5
ATOM      5  C   UNL     1     109.682 107.056 125.431  1.00  0.00     0.030 C 
BRANCH   5   6
ATOM      6  C   UNL     1     108.209 107.384 125.572  1.00  0.00    -0.077 C 
ATOM      7  C   UNL     1     107.730 108.737 125.110  1.00  0.00     0.039 C 
ATOM      8  C   UNL     1     107.304 106.551 126.145  1.00  0.00    -0.027 CG0
ATOM      9  G   UNL     1     107.555 105.135 126.643  1.00  0.00     0.000 G0
ENDBRANCH   5   6
ENDBRANCH   4   5
ENDBRANCH   3   4
ENDBRANCH   1   3
BRANCH   1  10
ATOM     10  C   UNL     1     111.486 105.408 128.861  1.00  0.00     0.057 C 
BRANCH  10  11
ATOM     11  C   UNL     1     110.154 104.827 128.455  1.00  0.00    -0.026 C 
ATOM     12  C   UNL     1     108.992 105.466 128.693  1.00  0.00    -0.024 C 
BRANCH  12  13
ATOM     13  C   UNL     1     107.647 104.958 128.188  1.00  0.00    -0.014 C 
ATOM     14  C   UNL     1     107.490 103.460 128.541  1.00  0.00     0.016 C 
ATOM     15  C   UNL     1     106.516 105.726 128.911  1.00  0.00     0.016 C 
BRANCH  13  16
ATOM     16  C   UNL     1     107.545 105.130 126.638  1.00  0.00     0.038 CG0
ATOM     17  G   UNL     1     107.325 106.561 126.171  1.00  0.00     0.000 G0
ENDBRANCH  13  16
ENDBRANCH  12  13
ENDBRANCH  10  11
ENDBRANCH   1  10
TORSDOF 0
ENDMDL
MODEL 5
REMARK VINA RESULT:    -4.091      1.349      3.513
REMARK INTER + INTRA:          -5.600
REMARK INTER:                  -5.920
REMARK INTRA:                   0.319
REMARK UNBOUND:                 0.404
REMARK SMILES C=C1CC=CC(C)(C)CC=C(C)CCC1
REMARK SMILES IDX 2 1 1 2 15 3 14 4 13 5 11 6 12 7 10 8 3 10 4 11 5 12 6 13
REMARK SMILES IDX 7 14 8 15 9 16
REMARK H PARENT
REMARK Flexibility Score: 60.00
ROOT
ATOM      1  C   UNL     1     105.847 111.558 128.516  1.00  0.00    -0.074 C 
ATOM      2  C   UNL     1     104.775 111.965 129.212  1.00  0.00     0.008 C 
ENDROOT
BRANCH   1   3
ATOM      3  C   UNL     1     105.776 111.505 127.001  1.00  0.00     0.031 C 
BRANCH   3   4
ATOM      4  C   UNL     1     104.857 110.361 126.539  1.00  0.00     0.009 C 
BRANCH   4   5
ATOM      5  C   UNL     1     105.598 109.322 125.678  1.00  0.00     0.030 C 
BRANCH   5   6
ATOM      6  C   UNL     1     105.286 107.916 126.150  1.00  0.00    -0.077 C 
ATOM      7  C   UNL     1     103.863 107.427 126.049  1.00  0.00     0.039 C 
ATOM      8  C   UNL     1     106.203 107.091 126.714  1.00  0.00    -0.027 CG0
ATOM      9  G   UNL     1     107.691 107.359 126.881  1.00  0.00     0.000 G0
ENDBRANCH   5   6
ENDBRANCH   4   5
ENDBRANCH   3   4
ENDBRANCH   1   3
BRANCH   1  10
ATOM     10  C   UNL     1     107.084 111.110 129.278  1.00  0.00     0.057 C 
BRANCH  10  11
ATOM     11  C   UNL     1     107.782 109.931 128.646  1.00  0.00    -0.026 C 
ATOM     12  C   UNL     1     107.580 108.667 129.070  1.00  0.00    -0.024 C 
BRANCH  12  13
ATOM     13  C   UNL     1     108.180 107.452 128.373  1.00  0.00    -0.014 C 
ATOM     14  C   UNL     1     109.724 107.549 128.393  1.00  0.00     0.016 C 
ATOM     15  C   UNL     1     107.785 106.178 129.155  1.00  0.00     0.016 C 
BRANCH  13  16
ATOM     16  C   UNL     1     107.693 107.377 126.890  1.00  0.00     0.038 CG0
ATOM     17  G   UNL     1     106.203 107.120 126.723  1.00  0.00     0.000 G0
ENDBRANCH  13  16
ENDBRANCH  12  13
ENDBRANCH  10  11
ENDBRANCH   1  10
TORSDOF 0
ENDMDL
MODEL 6
REMARK VINA RESULT:    -4.067      2.232      3.536
REMARK INTER + INTRA:          -5.566
REMARK INTER:                  -5.993
REMARK INTRA:                   0.427
REMARK UNBOUND:                 0.404
REMARK SMILES C=C1CC=CC(C)(C)CC=C(C)CCC1
REMARK SMILES IDX 2 1 1 2 15 3 14 4 13 5 11 6 12 7 10 8 3 10 4 11 5 12 6 13
REMARK SMILES IDX 7 14 8 15 9 16
REMARK H PARENT
REMARK Flexibility Score: 60.00
ROOT
ATOM      1  C   UNL     1     106.371 110.817 126.671  1.00  0.00    -0.074 C 
ATOM      2  C   UNL     1     106.863 111.237 125.495  1.00  0.00     0.008 C 
ENDROOT
BRANCH   1   3
ATOM      3  C   UNL     1     107.324 110.524 127.815  1.00  0.00     0.031 C 
BRANCH   3   4
ATOM      4  C   UNL     1     107.907 109.106 127.688  1.00  0.00     0.009 C 
BRANCH   4   5
ATOM      5  C   UNL     1     107.808 108.309 129.002  1.00  0.00     0.030 C 
BRANCH   5   6
ATOM      6  C   UNL     1     107.476 106.856 128.722  1.00  0.00    -0.077 C 
ATOM      7  C   UNL     1     108.576 105.956 128.217  1.00  0.00     0.039 C 
ATOM      8  C   UNL     1     106.231 106.332 128.844  1.00  0.00    -0.027 CG0
ATOM      9  G   UNL     1     104.990 107.040 129.368  1.00  0.00     0.000 G0
ENDBRANCH   5   6
ENDBRANCH   4   5
ENDBRANCH   3   4
ENDBRANCH   1   3
BRANCH   1  10
ATOM     10  C   UNL     1     104.872 110.598 126.797  1.00  0.00     0.057 C 
BRANCH  10  11
ATOM     11  C   UNL     1     104.506 109.526 127.794  1.00  0.00    -0.026 C 
ATOM     12  C   UNL     1     104.063 108.312 127.409  1.00  0.00    -0.024 C 
BRANCH  12  13
ATOM     13  C   UNL     1     103.801 107.176 128.391  1.00  0.00    -0.014 C 
ATOM     14  C   UNL     1     102.505 107.462 129.186  1.00  0.00     0.016 C 
ATOM     15  C   UNL     1     103.578 105.868 127.597  1.00  0.00     0.016 C 
BRANCH  13  16
ATOM     16  C   UNL     1     104.992 107.033 129.392  1.00  0.00     0.038 CG0
ATOM     17  G   UNL     1     106.222 106.343 128.821  1.00  0.00     0.000 G0
ENDBRANCH  13  16
ENDBRANCH  12  13
ENDBRANCH  10  11
ENDBRANCH   1  10
TORSDOF 0
ENDMDL
MODEL 7
REMARK VINA RESULT:    -4.035      2.978      5.388
REMARK INTER + INTRA:          -5.518
REMARK INTER:                  -5.720
REMARK INTRA:                   0.202
REMARK UNBOUND:                 0.404
REMARK SMILES C=C1CC=CC(C)(C)CC=C(C)CCC1
REMARK SMILES IDX 2 1 1 2 15 3 14 4 13 5 11 6 12 7 10 8 3 10 4 11 5 12 6 13
REMARK SMILES IDX 7 14 8 15 9 16
REMARK H PARENT
REMARK Flexibility Score: 60.00
ROOT
ATOM      1  C   UNL     1     110.883 106.337 126.904  1.00  0.00    -0.074 C 
ATOM      2  C   UNL     1     110.950 106.102 125.584  1.00  0.00     0.008 C 
ENDROOT
BRANCH   1   3
ATOM      3  C   UNL     1     110.772 105.167 127.864  1.00  0.00     0.031 C 
BRANCH   3   4
ATOM      4  C   UNL     1     109.402 104.479 127.729  1.00  0.00     0.009 C 
BRANCH   4   5
ATOM      5  C   UNL     1     108.521 104.673 128.976  1.00  0.00     0.030 C 
BRANCH   5   6
ATOM      6  C   UNL     1     107.067 104.842 128.582  1.00  0.00    -0.077 C 
ATOM      7  C   UNL     1     106.356 103.670 127.954  1.00  0.00     0.039 C 
ATOM      8  C   UNL     1     106.384 106.008 128.707  1.00  0.00    -0.027 CG0
ATOM      9  G   UNL     1     106.886 107.296 129.342  1.00  0.00     0.000 G0
ENDBRANCH   5   6
ENDBRANCH   4   5
ENDBRANCH   3   4
ENDBRANCH   1   3
BRANCH   1  10
ATOM     10  C   UNL     1     110.864 107.778 127.389  1.00  0.00     0.057 C 
BRANCH  10  11
ATOM     11  C   UNL     1     109.623 108.131 128.171  1.00  0.00    -0.026 C 
ATOM     12  C   UNL     1     108.417 108.257 127.581  1.00  0.00    -0.024 C 
BRANCH  12  13
ATOM     13  C   UNL     1     107.132 108.495 128.365  1.00  0.00    -0.014 C 
ATOM     14  C   UNL     1     107.249 109.809 129.172  1.00  0.00     0.016 C 
ATOM     15  C   UNL     1     105.961 108.665 127.370  1.00  0.00     0.016 C 
BRANCH  13  16
ATOM     16  C   UNL     1     106.867 107.313 129.352  1.00  0.00     0.038 CG0
ATOM     17  G   UNL     1     106.392 106.027 128.691  1.00  0.00     0.000 G0
ENDBRANCH  13  16
ENDBRANCH  12  13
ENDBRANCH  10  11
ENDBRANCH   1  10
TORSDOF 0
ENDMDL
MODEL 8
REMARK VINA RESULT:    -4.007      3.601      5.782
REMARK INTER + INTRA:          -5.477
REMARK INTER:                  -5.946
REMARK INTRA:                   0.469
REMARK UNBOUND:                 0.404
REMARK SMILES C=C1CC=CC(C)(C)CC=C(C)CCC1
REMARK SMILES IDX 2 1 1 2 15 3 14 4 13 5 11 6 12 7 10 8 3 10 4 11 5 12 6 13
REMARK SMILES IDX 7 14 8 15 9 16
REMARK H PARENT
REMARK Flexibility Score: 60.00
ROOT
ATOM      1  C   UNL     1     101.634 106.360 127.196  1.00  0.00    -0.074 C 
ATOM      2  C   UNL     1     101.225 106.707 125.966  1.00  0.00     0.008 C 
ENDROOT
BRANCH   1   3
ATOM      3  C   UNL     1     102.065 107.441 128.170  1.00  0.00     0.031 C 
BRANCH   3   4
ATOM      4  C   UNL     1     103.547 107.800 127.963  1.00  0.00     0.009 C 
BRANCH   4   5
ATOM      5  C   UNL     1     104.376 107.646 129.251  1.00  0.00     0.030 C 
BRANCH   5   6
ATOM      6  C   UNL     1     105.818 107.313 128.923  1.00  0.00    -0.077 C 
ATOM      7  C   UNL     1     106.714 108.422 128.432  1.00  0.00     0.039 C 
ATOM      8  C   UNL     1     106.334 106.060 128.988  1.00  0.00    -0.027 CG0
ATOM      9  G   UNL     1     105.629 104.808 129.488  1.00  0.00     0.000 G0
ENDBRANCH   5   6
ENDBRANCH   4   5
ENDBRANCH   3   4
ENDBRANCH   1   3
BRANCH   1  10
ATOM     10  C   UNL     1     101.703 104.884 127.552  1.00  0.00     0.057 C 
BRANCH  10  11
ATOM     11  C   UNL     1     102.954 104.507 128.306  1.00  0.00    -0.026 C 
ATOM     12  C   UNL     1     104.030 103.980 127.689  1.00  0.00    -0.024 C 
BRANCH  12  13
ATOM     13  C   UNL     1     105.345 103.704 128.408  1.00  0.00    -0.014 C 
ATOM     14  C   UNL     1     105.284 102.318 129.093  1.00  0.00     0.016 C 
ATOM     15  C   UNL     1     106.487 103.655 127.366  1.00  0.00     0.016 C 
BRANCH  13  16
ATOM     16  C   UNL     1     105.617 104.796 129.491  1.00  0.00     0.038 CG0
ATOM     17  G   UNL     1     106.319 106.043 128.974  1.00  0.00     0.000 G0
ENDBRANCH  13  16
ENDBRANCH  12  13
ENDBRANCH  10  11
ENDBRANCH   1  10
TORSDOF 0
ENDMDL
MODEL 9
REMARK VINA RESULT:    -3.912      4.363      7.244
REMARK INTER + INTRA:          -5.337
REMARK INTER:                  -5.756
REMARK INTRA:                   0.419
REMARK UNBOUND:                 0.404
REMARK SMILES C=C1CC=CC(C)(C)CC=C(C)CCC1
REMARK SMILES IDX 2 1 1 2 15 3 14 4 13 5 11 6 12 7 10 8 3 10 4 11 5 12 6 13
REMARK SMILES IDX 7 14 8 15 9 16
REMARK H PARENT
REMARK Flexibility Score: 60.00
ROOT
ATOM      1  C   UNL     1     106.624 101.041 128.466  1.00  0.00    -0.074 C 
ATOM      2  C   UNL     1     107.616 100.596 129.252  1.00  0.00     0.008 C 
ENDROOT
BRANCH   1   3
ATOM      3  C   UNL     1     106.844 101.133 126.967  1.00  0.00     0.031 C 
BRANCH   3   4
ATOM      4  C   UNL     1     107.591 102.429 126.605  1.00  0.00     0.009 C 
BRANCH   4   5
ATOM      5  C   UNL     1     106.856 103.251 125.531  1.00  0.00     0.030 C 
BRANCH   5   6
ATOM      6  C   UNL     1     106.988 104.735 125.810  1.00  0.00    -0.077 C 
ATOM      7  C   UNL     1     108.320 105.395 125.554  1.00  0.00     0.039 C 
ATOM      8  C   UNL     1     105.993 105.494 126.335  1.00  0.00    -0.027 CG0
ATOM      9  G   UNL     1     104.569 105.051 126.635  1.00  0.00     0.000 G0
ENDBRANCH   5   6
ENDBRANCH   4   5
ENDBRANCH   3   4
ENDBRANCH   1   3
BRANCH   1  10
ATOM     10  C   UNL     1     105.325 101.491 129.115  1.00  0.00     0.057 C 
BRANCH  10  11
ATOM     11  C   UNL     1     104.675 102.657 128.412  1.00  0.00    -0.026 C 
ATOM     12  C   UNL     1     104.712 103.907 128.914  1.00  0.00    -0.024 C 
BRANCH  12  13
ATOM     13  C   UNL     1     104.168 105.118 128.165  1.00  0.00    -0.014 C 
ATOM     14  C   UNL     1     102.626 105.150 128.276  1.00  0.00     0.016 C 
ATOM     15  C   UNL     1     104.708 106.405 128.832  1.00  0.00     0.016 C 
BRANCH  13  16
ATOM     16  C   UNL     1     104.570 105.053 126.657  1.00  0.00     0.038 CG0
ATOM     17  G   UNL     1     105.995 105.496 126.359  1.00  0.00     0.000 G0
ENDBRANCH  13  16
ENDBRANCH  12  13
ENDBRANCH  10  11
ENDBRANCH   1  10
TORSDOF 0
ENDMDL
