MODEL 1
REMARK VINA RESULT:    -3.635      0.000      0.000
REMARK INTER + INTRA:          -3.914
REMARK INTER:                  -3.848
REMARK INTRA:                  -0.066
REMARK UNBOUND:                -0.066
REMARK SMILES CC(=O)c1cccc(C)c1
REMARK SMILES IDX 9 1 8 2 10 3 4 4 5 5 6 6 7 7 2 8 3 9 1 10
REMARK H PARENT
REMARK Flexibility Score: inf
ROOT
ATOM      1  C   UNL     1       0.392  35.538  31.939  1.00  0.00     0.044 C 
ATOM      2  C   UNL     1      -0.154  36.890  32.293  1.00  0.00    -0.050 A 
ATOM      3  C   UNL     1       0.615  38.043  32.069  1.00  0.00     0.015 A 
ATOM      4  C   UNL     1       0.101  39.321  32.363  1.00  0.00     0.017 A 
ATOM      5  C   UNL     1      -1.208  39.422  32.876  1.00  0.00     0.012 A 
ATOM      6  C   UNL     1      -1.979  38.276  33.081  1.00  0.00     0.001 A 
ATOM      7  C   UNL     1      -1.460  37.016  32.787  1.00  0.00     0.003 A 
ENDROOT
BRANCH   4   8
ATOM      8  C   UNL     1       0.935  40.531  32.128  1.00  0.00     0.159 C 
ATOM      9  O   UNL     1       0.885  41.120  31.014  1.00  0.00    -0.295 OA
ATOM     10  C   UNL     1       1.847  41.082  33.184  1.00  0.00     0.093 C 
ENDBRANCH   4   8
TORSDOF 1
ENDMDL
MODEL 2
REMARK VINA RESULT:    -3.617      1.448      2.866
REMARK INTER + INTRA:          -3.894
REMARK INTER:                  -3.827
REMARK INTRA:                  -0.068
REMARK UNBOUND:                -0.066
REMARK SMILES CC(=O)c1cccc(C)c1
REMARK SMILES IDX 9 1 8 2 10 3 4 4 5 5 6 6 7 7 2 8 3 9 1 10
REMARK H PARENT
REMARK Flexibility Score: inf
ROOT
ATOM      1  C   UNL     1      -2.663  41.125  33.125  1.00  0.00     0.044 C 
ATOM      2  C   UNL     1      -1.515  40.166  33.003  1.00  0.00    -0.050 A 
ATOM      3  C   UNL     1      -0.209  40.646  32.824  1.00  0.00     0.015 A 
ATOM      4  C   UNL     1       0.882  39.758  32.744  1.00  0.00     0.017 A 
ATOM      5  C   UNL     1       0.638  38.375  32.860  1.00  0.00     0.012 A 
ATOM      6  C   UNL     1      -0.660  37.898  33.056  1.00  0.00     0.001 A 
ATOM      7  C   UNL     1      -1.732  38.787  33.134  1.00  0.00     0.003 A 
ENDROOT
BRANCH   4   8
ATOM      8  C   UNL     1       2.259  40.286  32.544  1.00  0.00     0.159 C 
ATOM      9  O   UNL     1       2.822  40.159  31.422  1.00  0.00    -0.295 OA
ATOM     10  C   UNL     1       3.012  40.973  33.645  1.00  0.00     0.093 C 
ENDBRANCH   4   8
TORSDOF 1
ENDMDL
MODEL 3
REMARK VINA RESULT:    -3.600      1.532      2.211
REMARK INTER + INTRA:          -3.877
REMARK INTER:                  -3.799
REMARK INTRA:                  -0.078
REMARK UNBOUND:                -0.066
REMARK SMILES CC(=O)c1cccc(C)c1
REMARK SMILES IDX 9 1 8 2 10 3 4 4 5 5 6 6 7 7 2 8 3 9 1 10
REMARK H PARENT
REMARK Flexibility Score: inf
ROOT
ATOM      1  C   UNL     1       2.634  36.716  32.664  1.00  0.00     0.044 C 
ATOM      2  C   UNL     1       1.188  37.117  32.680  1.00  0.00    -0.050 A 
ATOM      3  C   UNL     1       0.829  38.457  32.897  1.00  0.00     0.015 A 
ATOM      4  C   UNL     1      -0.523  38.854  32.878  1.00  0.00     0.017 A 
ATOM      5  C   UNL     1      -1.510  37.881  32.624  1.00  0.00     0.012 A 
ATOM      6  C   UNL     1      -1.151  36.551  32.390  1.00  0.00     0.001 A 
ATOM      7  C   UNL     1       0.190  36.170  32.412  1.00  0.00     0.003 A 
ENDROOT
BRANCH   4   8
ATOM      8  C   UNL     1      -0.884  40.277  33.120  1.00  0.00     0.159 C 
ATOM      9  O   UNL     1       0.023  41.125  33.344  1.00  0.00    -0.295 OA
ATOM     10  C   UNL     1      -2.309  40.745  33.109  1.00  0.00     0.093 C 
ENDBRANCH   4   8
TORSDOF 1
ENDMDL
MODEL 4
REMARK VINA RESULT:    -3.552      1.509      2.135
REMARK INTER + INTRA:          -3.826
REMARK INTER:                  -3.756
REMARK INTRA:                  -0.070
REMARK UNBOUND:                -0.066
REMARK SMILES CC(=O)c1cccc(C)c1
REMARK SMILES IDX 9 1 8 2 10 3 4 4 5 5 6 6 7 7 2 8 3 9 1 10
REMARK H PARENT
REMARK Flexibility Score: inf
ROOT
ATOM      1  C   UNL     1      -1.500  37.009  32.754  1.00  0.00     0.044 C 
ATOM      2  C   UNL     1      -1.066  38.440  32.874  1.00  0.00    -0.050 A 
ATOM      3  C   UNL     1       0.284  38.785  32.707  1.00  0.00     0.015 A 
ATOM      4  C   UNL     1       0.700  40.129  32.781  1.00  0.00     0.017 A 
ATOM      5  C   UNL     1      -0.269  41.125  33.013  1.00  0.00     0.012 A 
ATOM      6  C   UNL     1      -1.615  40.783  33.161  1.00  0.00     0.001 A 
ATOM      7  C   UNL     1      -2.015  39.449  33.086  1.00  0.00     0.003 A 
ENDROOT
BRANCH   4   8
ATOM      8  C   UNL     1       2.138  40.474  32.612  1.00  0.00     0.159 C 
ATOM      9  O   UNL     1       2.746  41.094  33.527  1.00  0.00    -0.295 OA
ATOM     10  C   UNL     1       2.900  40.107  31.373  1.00  0.00     0.093 C 
ENDBRANCH   4   8
TORSDOF 1
ENDMDL
MODEL 5
REMARK VINA RESULT:    -3.158      1.886      3.336
REMARK INTER + INTRA:          -3.409
REMARK INTER:                  -3.341
REMARK INTRA:                  -0.068
REMARK UNBOUND:                -0.066
REMARK SMILES CC(=O)c1cccc(C)c1
REMARK SMILES IDX 9 1 8 2 10 3 4 4 5 5 6 6 7 7 2 8 3 9 1 10
REMARK H PARENT
REMARK Flexibility Score: inf
ROOT
ATOM      1  C   UNL     1       0.525  33.366  31.650  1.00  0.00     0.044 C 
ATOM      2  C   UNL     1       0.916  34.740  32.107  1.00  0.00    -0.050 A 
ATOM      3  C   UNL     1       0.003  35.801  32.016  1.00  0.00     0.015 A 
ATOM      4  C   UNL     1       0.344  37.089  32.475  1.00  0.00     0.017 A 
ATOM      5  C   UNL     1       1.619  37.290  33.040  1.00  0.00     0.012 A 
ATOM      6  C   UNL     1       2.521  36.229  33.148  1.00  0.00     0.001 A 
ATOM      7  C   UNL     1       2.172  34.958  32.690  1.00  0.00     0.003 A 
ENDROOT
BRANCH   4   8
ATOM      8  C   UNL     1      -0.635  38.204  32.360  1.00  0.00     0.159 C 
ATOM      9  O   UNL     1      -0.420  39.146  31.549  1.00  0.00    -0.295 OA
ATOM     10  C   UNL     1      -1.886  38.249  33.187  1.00  0.00     0.093 C 
ENDBRANCH   4   8
TORSDOF 1
ENDMDL
MODEL 6
REMARK VINA RESULT:    -3.156      1.927      3.982
REMARK INTER + INTRA:          -3.407
REMARK INTER:                  -3.335
REMARK INTRA:                  -0.072
REMARK UNBOUND:                -0.066
REMARK SMILES CC(=O)c1cccc(C)c1
REMARK SMILES IDX 9 1 8 2 10 3 4 4 5 5 6 6 7 7 2 8 3 9 1 10
REMARK H PARENT
REMARK Flexibility Score: inf
ROOT
ATOM      1  C   UNL     1      -2.399  40.771  33.130  1.00  0.00     0.044 C 
ATOM      2  C   UNL     1      -1.004  40.248  32.949  1.00  0.00    -0.050 A 
ATOM      3  C   UNL     1      -0.791  38.888  32.675  1.00  0.00     0.015 A 
ATOM      4  C   UNL     1       0.511  38.389  32.467  1.00  0.00     0.017 A 
ATOM      5  C   UNL     1       1.596  39.286  32.526  1.00  0.00     0.012 A 
ATOM      6  C   UNL     1       1.381  40.642  32.780  1.00  0.00     0.001 A 
ATOM      7  C   UNL     1       0.088  41.125  32.985  1.00  0.00     0.003 A 
ENDROOT
BRANCH   4   8
ATOM      8  C   UNL     1       0.718  36.942  32.188  1.00  0.00     0.159 C 
ATOM      9  O   UNL     1      -0.044  36.344  31.380  1.00  0.00    -0.295 OA
ATOM     10  C   UNL     1       1.815  36.158  32.845  1.00  0.00     0.093 C 
ENDBRANCH   4   8
TORSDOF 1
ENDMDL
MODEL 7
REMARK VINA RESULT:    -3.097      1.704      2.978
REMARK INTER + INTRA:          -3.344
REMARK INTER:                  -3.277
REMARK INTRA:                  -0.067
REMARK UNBOUND:                -0.066
REMARK SMILES CC(=O)c1cccc(C)c1
REMARK SMILES IDX 9 1 8 2 10 3 4 4 5 5 6 6 7 7 2 8 3 9 1 10
REMARK H PARENT
REMARK Flexibility Score: inf
ROOT
ATOM      1  C   UNL     1       3.586  36.579  33.642  1.00  0.00     0.044 C 
ATOM      2  C   UNL     1       2.178  36.553  33.125  1.00  0.00    -0.050 A 
ATOM      3  C   UNL     1       1.408  37.727  33.113  1.00  0.00     0.015 A 
ATOM      4  C   UNL     1       0.097  37.726  32.597  1.00  0.00     0.017 A 
ATOM      5  C   UNL     1      -0.424  36.523  32.080  1.00  0.00     0.012 A 
ATOM      6  C   UNL     1       0.348  35.360  32.075  1.00  0.00     0.001 A 
ATOM      7  C   UNL     1       1.645  35.373  32.589  1.00  0.00     0.003 A 
ENDROOT
BRANCH   4   8
ATOM      8  C   UNL     1      -0.707  38.978  32.602  1.00  0.00     0.159 C 
ATOM      9  O   UNL     1      -0.387  39.931  31.841  1.00  0.00    -0.295 OA
ATOM     10  C   UNL     1      -1.899  39.150  33.495  1.00  0.00     0.093 C 
ENDBRANCH   4   8
TORSDOF 1
ENDMDL
MODEL 8
REMARK VINA RESULT:    -1.855      1.693      3.707
REMARK INTER + INTRA:          -2.030
REMARK INTER:                  -1.953
REMARK INTRA:                  -0.077
REMARK UNBOUND:                -0.066
REMARK SMILES CC(=O)c1cccc(C)c1
REMARK SMILES IDX 9 1 8 2 10 3 4 4 5 5 6 6 7 7 2 8 3 9 1 10
REMARK H PARENT
REMARK Flexibility Score: inf
ROOT
ATOM      1  C   UNL     1       0.165  41.125  32.864  1.00  0.00     0.044 C 
ATOM      2  C   UNL     1      -0.282  39.700  32.714  1.00  0.00    -0.050 A 
ATOM      3  C   UNL     1       0.592  38.738  32.184  1.00  0.00     0.015 A 
ATOM      4  C   UNL     1       0.198  37.390  32.072  1.00  0.00     0.017 A 
ATOM      5  C   UNL     1      -1.088  37.022  32.514  1.00  0.00     0.012 A 
ATOM      6  C   UNL     1      -1.951  37.977  33.058  1.00  0.00     0.001 A 
ATOM      7  C   UNL     1      -1.550  39.309  33.164  1.00  0.00     0.003 A 
ENDROOT
BRANCH   4   8
ATOM      8  C   UNL     1       1.135  36.386  31.498  1.00  0.00     0.159 C 
ATOM      9  O   UNL     1       2.320  36.720  31.222  1.00  0.00    -0.295 OA
ATOM     10  C   UNL     1       0.714  34.972  31.230  1.00  0.00     0.093 C 
ENDBRANCH   4   8
TORSDOF 1
ENDMDL
