MODEL 1
REMARK VINA RESULT:    -3.999      0.000      0.000
REMARK INTER + INTRA:          -5.649
REMARK INTER:                  -5.401
REMARK INTRA:                  -0.247
REMARK UNBOUND:                -0.247
REMARK SMILES CCCCCCCC(=O)[O-]
REMARK SMILES IDX 5 1 6 2 7 3 8 4 9 5 10 6 4 7 3 8 2 9 1 10
REMARK H PARENT
REMARK Flexibility Score: inf
ROOT
ATOM      1  C   UNL     1       7.966   5.110  -7.205  1.00  0.00     0.000 C 
ENDROOT
BRANCH   1   2
ATOM      2  C   UNL     1       6.807   5.345  -6.228  1.00  0.00     0.006 C 
BRANCH   2   3
ATOM      3  C   UNL     1       6.977   6.673  -5.483  1.00  0.00     0.053 C 
BRANCH   3   4
ATOM      4  C   UNL     1       6.833   6.469  -4.008  1.00  0.00     0.041 C 
ATOM      5  O   UNL     1       7.506   5.580  -3.422  1.00  0.00    -0.550 OA
ATOM      6  O   UNL     1       5.993   7.295  -3.272  1.00  0.00    -0.550 OA
ENDBRANCH   3   4
ENDBRANCH   2   3
ENDBRANCH   1   2
BRANCH   1   7
ATOM      7  C   UNL     1       8.070   6.257  -8.220  1.00  0.00     0.000 C 
BRANCH   7   8
ATOM      8  C   UNL     1       9.005   5.927  -9.394  1.00  0.00    -0.000 C 
BRANCH   8   9
ATOM      9  C   UNL     1       8.381   6.254 -10.757  1.00  0.00    -0.003 C 
ATOM     10  C   UNL     1       6.920   5.811 -10.813  1.00  0.00     0.004 C 
ENDBRANCH   8   9
ENDBRANCH   7   8
ENDBRANCH   1   7
TORSDOF 6
ENDMDL
MODEL 2
REMARK VINA RESULT:    -3.994     11.388     13.024
REMARK INTER + INTRA:          -5.642
REMARK INTER:                  -5.049
REMARK INTRA:                  -0.594
REMARK UNBOUND:                -0.247
REMARK SMILES CCCCCCCC(=O)[O-]
REMARK SMILES IDX 5 1 6 2 7 3 8 4 9 5 10 6 4 7 3 8 2 9 1 10
REMARK H PARENT
REMARK Flexibility Score: inf
ROOT
ATOM      1  C   UNL     1      11.511   0.634   0.906  1.00  0.00     0.000 C 
ENDROOT
BRANCH   1   2
ATOM      2  C   UNL     1      12.495  -0.267   0.148  1.00  0.00     0.006 C 
BRANCH   2   3
ATOM      3  C   UNL     1      13.832  -0.365   0.889  1.00  0.00     0.053 C 
BRANCH   3   4
ATOM      4  C   UNL     1      14.117  -1.782   1.272  1.00  0.00     0.041 C 
ATOM      5  O   UNL     1      13.175  -2.555   1.590  1.00  0.00    -0.550 OA
ATOM      6  O   UNL     1      15.419  -2.265   1.228  1.00  0.00    -0.550 OA
ENDBRANCH   3   4
ENDBRANCH   2   3
ENDBRANCH   1   2
BRANCH   1   7
ATOM      7  C   UNL     1      10.470  -0.204   1.663  1.00  0.00     0.000 C 
BRANCH   7   8
ATOM      8  C   UNL     1      10.255   0.281   3.105  1.00  0.00    -0.000 C 
BRANCH   8   9
ATOM      9  C   UNL     1      11.547   0.797   3.754  1.00  0.00    -0.003 C 
ATOM     10  C   UNL     1      12.344  -0.347   4.376  1.00  0.00     0.004 C 
ENDBRANCH   8   9
ENDBRANCH   7   8
ENDBRANCH   1   7
TORSDOF 6
ENDMDL
MODEL 3
REMARK VINA RESULT:    -3.974     10.877     11.587
REMARK INTER + INTRA:          -5.615
REMARK INTER:                  -5.438
REMARK INTRA:                  -0.177
REMARK UNBOUND:                -0.247
REMARK SMILES CCCCCCCC(=O)[O-]
REMARK SMILES IDX 5 1 6 2 7 3 8 4 9 5 10 6 4 7 3 8 2 9 1 10
REMARK H PARENT
REMARK Flexibility Score: inf
ROOT
ATOM      1  C   UNL     1      11.915   0.356   0.653  1.00  0.00     0.000 C 
ENDROOT
BRANCH   1   2
ATOM      2  C   UNL     1      11.880  -0.056   2.131  1.00  0.00     0.006 C 
BRANCH   2   3
ATOM      3  C   UNL     1      10.491   0.179   2.734  1.00  0.00     0.053 C 
BRANCH   3   4
ATOM      4  C   UNL     1       9.556  -0.920   2.340  1.00  0.00     0.041 C 
ATOM      5  O   UNL     1       8.312  -0.770   2.466  1.00  0.00    -0.550 OA
ATOM      6  O   UNL     1      10.056  -2.092   1.785  1.00  0.00    -0.550 OA
ENDBRANCH   3   4
ENDBRANCH   2   3
ENDBRANCH   1   2
BRANCH   1   7
ATOM      7  C   UNL     1      13.021  -0.396  -0.101  1.00  0.00     0.000 C 
BRANCH   7   8
ATOM      8  C   UNL     1      14.388  -0.290   0.593  1.00  0.00    -0.000 C 
BRANCH   8   9
ATOM      9  C   UNL     1      15.543  -0.109  -0.402  1.00  0.00    -0.003 C 
ATOM     10  C   UNL     1      15.097  -0.434  -1.826  1.00  0.00     0.004 C 
ENDBRANCH   8   9
ENDBRANCH   7   8
ENDBRANCH   1   7
TORSDOF 6
ENDMDL
MODEL 4
REMARK VINA RESULT:    -3.970     11.211     12.799
REMARK INTER + INTRA:          -5.610
REMARK INTER:                  -5.196
REMARK INTRA:                  -0.414
REMARK UNBOUND:                -0.247
REMARK SMILES CCCCCCCC(=O)[O-]
REMARK SMILES IDX 5 1 6 2 7 3 8 4 9 5 10 6 4 7 3 8 2 9 1 10
REMARK H PARENT
REMARK Flexibility Score: inf
ROOT
ATOM      1  C   UNL     1      11.498  -0.179   0.497  1.00  0.00     0.000 C 
ENDROOT
BRANCH   1   2
ATOM      2  C   UNL     1      12.705  -0.699  -0.294  1.00  0.00     0.006 C 
BRANCH   2   3
ATOM      3  C   UNL     1      14.006  -0.492   0.488  1.00  0.00     0.053 C 
BRANCH   3   4
ATOM      4  C   UNL     1      15.109  -0.075  -0.432  1.00  0.00     0.041 C 
ATOM      5  O   UNL     1      16.113   0.538   0.019  1.00  0.00    -0.550 OA
ATOM      6  O   UNL     1      15.053  -0.408  -1.779  1.00  0.00    -0.550 OA
ENDBRANCH   3   4
ENDBRANCH   2   3
ENDBRANCH   1   2
BRANCH   1   7
ATOM      7  C   UNL     1      11.951   0.662   1.699  1.00  0.00     0.000 C 
BRANCH   7   8
ATOM      8  C   UNL     1      11.170   0.333   2.981  1.00  0.00    -0.000 C 
BRANCH   8   9
ATOM      9  C   UNL     1      12.087   0.114   4.192  1.00  0.00    -0.003 C 
ATOM     10  C   UNL     1      12.755  -1.258   4.136  1.00  0.00     0.004 C 
ENDBRANCH   8   9
ENDBRANCH   7   8
ENDBRANCH   1   7
TORSDOF 6
ENDMDL
MODEL 5
REMARK VINA RESULT:    -3.887     10.975     12.996
REMARK INTER + INTRA:          -5.497
REMARK INTER:                  -4.838
REMARK INTRA:                  -0.660
REMARK UNBOUND:                -0.247
REMARK SMILES CCCCCCCC(=O)[O-]
REMARK SMILES IDX 5 1 6 2 7 3 8 4 9 5 10 6 4 7 3 8 2 9 1 10
REMARK H PARENT
REMARK Flexibility Score: inf
ROOT
ATOM      1  C   UNL     1      11.529   0.604   3.442  1.00  0.00     0.000 C 
ENDROOT
BRANCH   1   2
ATOM      2  C   UNL     1      10.824  -0.022   2.231  1.00  0.00     0.006 C 
BRANCH   2   3
ATOM      3  C   UNL     1      11.436   0.479   0.919  1.00  0.00     0.053 C 
BRANCH   3   4
ATOM      4  C   UNL     1      11.981  -0.665   0.124  1.00  0.00     0.041 C 
ATOM      5  O   UNL     1      11.415  -1.789   0.162  1.00  0.00    -0.550 OA
ATOM      6  O   UNL     1      13.085  -0.476  -0.698  1.00  0.00    -0.550 OA
ENDBRANCH   3   4
ENDBRANCH   2   3
ENDBRANCH   1   2
BRANCH   1   7
ATOM      7  C   UNL     1      12.865  -0.098   3.724  1.00  0.00     0.000 C 
BRANCH   7   8
ATOM      8  C   UNL     1      12.718  -1.623   3.842  1.00  0.00    -0.000 C 
BRANCH   8   9
ATOM      9  C   UNL     1      13.739  -2.384   2.985  1.00  0.00    -0.003 C 
ATOM     10  C   UNL     1      14.773  -1.432   2.387  1.00  0.00     0.004 C 
ENDBRANCH   8   9
ENDBRANCH   7   8
ENDBRANCH   1   7
TORSDOF 6
ENDMDL
MODEL 6
REMARK VINA RESULT:    -3.886     11.271     12.055
REMARK INTER + INTRA:          -5.497
REMARK INTER:                  -5.144
REMARK INTRA:                  -0.353
REMARK UNBOUND:                -0.247
REMARK SMILES CCCCCCCC(=O)[O-]
REMARK SMILES IDX 5 1 6 2 7 3 8 4 9 5 10 6 4 7 3 8 2 9 1 10
REMARK H PARENT
REMARK Flexibility Score: inf
ROOT
ATOM      1  C   UNL     1      11.963   0.292   0.800  1.00  0.00     0.000 C 
ENDROOT
BRANCH   1   2
ATOM      2  C   UNL     1      10.897  -0.637   1.396  1.00  0.00     0.006 C 
BRANCH   2   3
ATOM      3  C   UNL     1      10.573  -0.246   2.842  1.00  0.00     0.053 C 
BRANCH   3   4
ATOM      4  C   UNL     1      11.779  -0.411   3.712  1.00  0.00     0.041 C 
ATOM      5  O   UNL     1      12.169   0.538   4.442  1.00  0.00    -0.550 OA
ATOM      6  O   UNL     1      12.443  -1.631   3.754  1.00  0.00    -0.550 OA
ENDBRANCH   3   4
ENDBRANCH   2   3
ENDBRANCH   1   2
BRANCH   1   7
ATOM      7  C   UNL     1      12.997  -0.506  -0.007  1.00  0.00     0.000 C 
BRANCH   7   8
ATOM      8  C   UNL     1      14.381  -0.526   0.659  1.00  0.00    -0.000 C 
BRANCH   8   9
ATOM      9  C   UNL     1      15.527  -0.393  -0.354  1.00  0.00    -0.003 C 
ATOM     10  C   UNL     1      14.999  -0.422  -1.787  1.00  0.00     0.004 C 
ENDBRANCH   8   9
ENDBRANCH   7   8
ENDBRANCH   1   7
TORSDOF 6
ENDMDL
MODEL 7
REMARK VINA RESULT:    -3.884     11.609     12.853
REMARK INTER + INTRA:          -5.493
REMARK INTER:                  -4.942
REMARK INTRA:                  -0.551
REMARK UNBOUND:                -0.247
REMARK SMILES CCCCCCCC(=O)[O-]
REMARK SMILES IDX 5 1 6 2 7 3 8 4 9 5 10 6 4 7 3 8 2 9 1 10
REMARK H PARENT
REMARK Flexibility Score: inf
ROOT
ATOM      1  C   UNL     1      12.381  -0.936   4.029  1.00  0.00     0.000 C 
ENDROOT
BRANCH   1   2
ATOM      2  C   UNL     1      12.647  -1.862   2.835  1.00  0.00     0.006 C 
BRANCH   2   3
ATOM      3  C   UNL     1      13.366  -1.113   1.708  1.00  0.00     0.053 C 
BRANCH   3   4
ATOM      4  C   UNL     1      12.710  -1.390   0.393  1.00  0.00     0.041 C 
ATOM      5  O   UNL     1      11.653  -2.073   0.343  1.00  0.00    -0.550 OA
ATOM      6  O   UNL     1      13.238  -0.851  -0.773  1.00  0.00    -0.550 OA
ENDBRANCH   3   4
ENDBRANCH   2   3
ENDBRANCH   1   2
BRANCH   1   7
ATOM      7  C   UNL     1      11.964   0.464   3.556  1.00  0.00     0.000 C 
BRANCH   7   8
ATOM      8  C   UNL     1      10.441   0.669   3.583  1.00  0.00    -0.000 C 
BRANCH   8   9
ATOM      9  C   UNL     1       9.766   0.267   2.265  1.00  0.00    -0.003 C 
ATOM     10  C   UNL     1       8.784  -0.882   2.479  1.00  0.00     0.004 C 
ENDBRANCH   8   9
ENDBRANCH   7   8
ENDBRANCH   1   7
TORSDOF 6
ENDMDL
MODEL 8
REMARK VINA RESULT:    -3.833     11.557     12.727
REMARK INTER + INTRA:          -5.425
REMARK INTER:                  -4.986
REMARK INTRA:                  -0.439
REMARK UNBOUND:                -0.247
REMARK SMILES CCCCCCCC(=O)[O-]
REMARK SMILES IDX 5 1 6 2 7 3 8 4 9 5 10 6 4 7 3 8 2 9 1 10
REMARK H PARENT
REMARK Flexibility Score: inf
ROOT
ATOM      1  C   UNL     1      11.623   0.608   0.924  1.00  0.00     0.000 C 
ENDROOT
BRANCH   1   2
ATOM      2  C   UNL     1      12.801  -0.161   0.311  1.00  0.00     0.006 C 
BRANCH   2   3
ATOM      3  C   UNL     1      12.576  -1.673   0.400  1.00  0.00     0.053 C 
BRANCH   3   4
ATOM      4  C   UNL     1      13.501  -2.282   1.406  1.00  0.00     0.041 C 
ATOM      5  O   UNL     1      13.039  -2.947   2.371  1.00  0.00    -0.550 OA
ATOM      6  O   UNL     1      14.876  -2.156   1.251  1.00  0.00    -0.550 OA
ENDBRANCH   3   4
ENDBRANCH   2   3
ENDBRANCH   1   2
BRANCH   1   7
ATOM      7  C   UNL     1      11.755   0.685   2.452  1.00  0.00     0.000 C 
BRANCH   7   8
ATOM      8  C   UNL     1      10.644  -0.086   3.182  1.00  0.00    -0.000 C 
BRANCH   8   9
ATOM      9  C   UNL     1       9.291   0.002   2.461  1.00  0.00    -0.003 C 
ATOM     10  C   UNL     1       8.600  -1.359   2.421  1.00  0.00     0.004 C 
ENDBRANCH   8   9
ENDBRANCH   7   8
ENDBRANCH   1   7
TORSDOF 6
ENDMDL
MODEL 9
REMARK VINA RESULT:    -3.824     11.591     13.051
REMARK INTER + INTRA:          -5.413
REMARK INTER:                  -4.783
REMARK INTRA:                  -0.630
REMARK UNBOUND:                -0.247
REMARK SMILES CCCCCCCC(=O)[O-]
REMARK SMILES IDX 5 1 6 2 7 3 8 4 9 5 10 6 4 7 3 8 2 9 1 10
REMARK H PARENT
REMARK Flexibility Score: inf
ROOT
ATOM      1  C   UNL     1      11.408   0.632   3.655  1.00  0.00     0.000 C 
ENDROOT
BRANCH   1   2
ATOM      2  C   UNL     1      12.800   0.030   3.885  1.00  0.00     0.006 C 
BRANCH   2   3
ATOM      3  C   UNL     1      12.724  -1.494   4.023  1.00  0.00     0.053 C 
BRANCH   3   4
ATOM      4  C   UNL     1      13.694  -2.153   3.094  1.00  0.00     0.041 C 
ATOM      5  O   UNL     1      13.533  -3.356   2.758  1.00  0.00    -0.550 OA
ATOM      6  O   UNL     1      14.749  -1.424   2.560  1.00  0.00    -0.550 OA
ENDBRANCH   3   4
ENDBRANCH   2   3
ENDBRANCH   1   2
BRANCH   1   7
ATOM      7  C   UNL     1      10.779   0.084   2.366  1.00  0.00     0.000 C 
BRANCH   7   8
ATOM      8  C   UNL     1      11.455   0.630   1.098  1.00  0.00    -0.000 C 
BRANCH   8   9
ATOM      9  C   UNL     1      12.047  -0.480   0.219  1.00  0.00    -0.003 C 
ATOM     10  C   UNL     1      11.295  -1.795   0.413  1.00  0.00     0.004 C 
ENDBRANCH   8   9
ENDBRANCH   7   8
ENDBRANCH   1   7
TORSDOF 6
ENDMDL
