MODEL 1
REMARK VINA RESULT:    -3.153      0.000      0.000
REMARK INTER + INTRA:          -3.534
REMARK INTER:                  -3.522
REMARK INTRA:                  -0.012
REMARK UNBOUND:                -0.012
REMARK SMILES CCCC(=O)[O-]
REMARK SMILES IDX 3 1 4 2 5 3 6 4 2 5 1 6
REMARK H PARENT
REMARK Flexibility Score: inf
ROOT
ATOM      1  C   UNL     1     -14.064   6.936   0.146  1.00  0.00     0.052 C 
ENDROOT
BRANCH   1   2
ATOM      2  C   UNL     1     -13.136   8.104   0.286  1.00  0.00     0.041 C 
ATOM      3  O   UNL     1     -13.370   9.003   1.136  1.00  0.00    -0.550 OA
ATOM      4  O   UNL     1     -11.994   8.182  -0.501  1.00  0.00    -0.550 OA
ENDBRANCH   1   2
BRANCH   1   5
ATOM      5  C   UNL     1     -13.483   5.856  -0.774  1.00  0.00     0.003 C 
ATOM      6  C   UNL     1     -14.569   4.996  -1.420  1.00  0.00     0.004 C 
ENDBRANCH   1   5
TORSDOF 2
ENDMDL
MODEL 2
REMARK VINA RESULT:    -3.013      2.699      3.597
REMARK INTER + INTRA:          -3.378
REMARK INTER:                  -3.368
REMARK INTRA:                  -0.010
REMARK UNBOUND:                -0.012
REMARK SMILES CCCC(=O)[O-]
REMARK SMILES IDX 3 1 4 2 5 3 6 4 2 5 1 6
REMARK H PARENT
REMARK Flexibility Score: inf
ROOT
ATOM      1  C   UNL     1     -13.611   6.307  -0.337  1.00  0.00     0.052 C 
ENDROOT
BRANCH   1   2
ATOM      2  C   UNL     1     -14.745   5.424  -0.762  1.00  0.00     0.041 C 
ATOM      3  O   UNL     1     -15.849   5.476  -0.159  1.00  0.00    -0.550 OA
ATOM      4  O   UNL     1     -14.591   4.568  -1.845  1.00  0.00    -0.550 OA
ENDBRANCH   1   2
BRANCH   1   5
ATOM      5  C   UNL     1     -14.105   7.524   0.455  1.00  0.00     0.003 C 
ATOM      6  C   UNL     1     -13.047   8.621   0.555  1.00  0.00     0.004 C 
ENDBRANCH   1   5
TORSDOF 2
ENDMDL
MODEL 3
REMARK VINA RESULT:    -2.795      9.973     11.353
REMARK INTER + INTRA:          -3.134
REMARK INTER:                  -3.124
REMARK INTRA:                  -0.010
REMARK UNBOUND:                -0.012
REMARK SMILES CCCC(=O)[O-]
REMARK SMILES IDX 3 1 4 2 5 3 6 4 2 5 1 6
REMARK H PARENT
REMARK Flexibility Score: inf
ROOT
ATOM      1  C   UNL     1     -14.385  12.947   9.121  1.00  0.00     0.052 C 
ENDROOT
BRANCH   1   2
ATOM      2  C   UNL     1     -14.243  13.258   7.662  1.00  0.00     0.041 C 
ATOM      3  O   UNL     1     -13.143  13.664   7.204  1.00  0.00    -0.550 OA
ATOM      4  O   UNL     1     -15.317  13.068   6.803  1.00  0.00    -0.550 OA
ENDBRANCH   1   2
BRANCH   1   5
ATOM      5  C   UNL     1     -14.018  14.153   9.996  1.00  0.00     0.003 C 
ATOM      6  C   UNL     1     -13.663  13.746  11.426  1.00  0.00     0.004 C 
ENDBRANCH   1   5
TORSDOF 2
ENDMDL
MODEL 4
REMARK VINA RESULT:    -2.747     23.628     24.057
REMARK INTER + INTRA:          -3.081
REMARK INTER:                  -3.075
REMARK INTRA:                  -0.006
REMARK UNBOUND:                -0.012
REMARK SMILES CCCC(=O)[O-]
REMARK SMILES IDX 3 1 4 2 5 3 6 4 2 5 1 6
REMARK H PARENT
REMARK Flexibility Score: inf
ROOT
ATOM      1  C   UNL     1       0.999  21.254  11.651  1.00  0.00     0.052 C 
ENDROOT
BRANCH   1   2
ATOM      2  C   UNL     1       1.549  22.513  11.051  1.00  0.00     0.041 C 
ATOM      3  O   UNL     1       2.347  22.456  10.079  1.00  0.00    -0.550 OA
ATOM      4  O   UNL     1       1.153  23.749  11.545  1.00  0.00    -0.550 OA
ENDBRANCH   1   2
BRANCH   1   5
ATOM      5  C   UNL     1       2.054  20.513  12.481  1.00  0.00     0.003 C 
ATOM      6  C   UNL     1       1.543  19.173  13.008  1.00  0.00     0.004 C 
ENDBRANCH   1   5
TORSDOF 2
ENDMDL
MODEL 5
REMARK VINA RESULT:    -2.559     10.691     11.729
REMARK INTER + INTRA:          -2.870
REMARK INTER:                  -2.856
REMARK INTRA:                  -0.014
REMARK UNBOUND:                -0.012
REMARK SMILES CCCC(=O)[O-]
REMARK SMILES IDX 3 1 4 2 5 3 6 4 2 5 1 6
REMARK H PARENT
REMARK Flexibility Score: inf
ROOT
ATOM      1  C   UNL     1     -14.648  12.955   9.367  1.00  0.00     0.052 C 
ENDROOT
BRANCH   1   2
ATOM      2  C   UNL     1     -14.059  13.682  10.537  1.00  0.00     0.041 C 
ATOM      3  O   UNL     1     -13.636  14.861  10.404  1.00  0.00    -0.550 OA
ATOM      4  O   UNL     1     -14.007  13.070  11.783  1.00  0.00    -0.550 OA
ENDBRANCH   1   2
BRANCH   1   5
ATOM      5  C   UNL     1     -13.949  13.331   8.055  1.00  0.00     0.003 C 
ATOM      6  C   UNL     1     -14.834  13.084   6.834  1.00  0.00     0.004 C 
ENDBRANCH   1   5
TORSDOF 2
ENDMDL
MODEL 6
REMARK VINA RESULT:    -2.505     23.384     24.222
REMARK INTER + INTRA:          -2.811
REMARK INTER:                  -2.773
REMARK INTRA:                  -0.038
REMARK UNBOUND:                -0.012
REMARK SMILES CCCC(=O)[O-]
REMARK SMILES IDX 3 1 4 2 5 3 6 4 2 5 1 6
REMARK H PARENT
REMARK Flexibility Score: inf
ROOT
ATOM      1  C   UNL     1       0.888  21.280  11.638  1.00  0.00     0.052 C 
ENDROOT
BRANCH   1   2
ATOM      2  C   UNL     1       1.799  20.382  12.419  1.00  0.00     0.041 C 
ATOM      3  O   UNL     1       3.030  20.638  12.494  1.00  0.00    -0.550 OA
ATOM      4  O   UNL     1       1.283  19.281  13.090  1.00  0.00    -0.550 OA
ENDBRANCH   1   2
BRANCH   1   5
ATOM      5  C   UNL     1       1.652  22.445  10.998  1.00  0.00     0.003 C 
ATOM      6  C   UNL     1       1.340  23.783  11.668  1.00  0.00     0.004 C 
ENDBRANCH   1   5
TORSDOF 2
ENDMDL
MODEL 7
REMARK VINA RESULT:    -2.453     23.491     24.536
REMARK INTER + INTRA:          -2.753
REMARK INTER:                  -2.691
REMARK INTRA:                  -0.062
REMARK UNBOUND:                -0.012
REMARK SMILES CCCC(=O)[O-]
REMARK SMILES IDX 3 1 4 2 5 3 6 4 2 5 1 6
REMARK H PARENT
REMARK Flexibility Score: inf
ROOT
ATOM      1  C   UNL     1       1.894  22.263  10.575  1.00  0.00     0.052 C 
ENDROOT
BRANCH   1   2
ATOM      2  C   UNL     1       0.898  21.647  11.510  1.00  0.00     0.041 C 
ATOM      3  O   UNL     1       1.166  20.569  12.103  1.00  0.00    -0.550 OA
ATOM      4  O   UNL     1      -0.314  22.281  11.750  1.00  0.00    -0.550 OA
ENDBRANCH   1   2
BRANCH   1   5
ATOM      5  C   UNL     1       3.093  22.849  11.331  1.00  0.00     0.003 C 
ATOM      6  C   UNL     1       2.706  24.052  12.191  1.00  0.00     0.004 C 
ENDBRANCH   1   5
TORSDOF 2
ENDMDL
MODEL 8
REMARK VINA RESULT:    -2.387      2.237      2.673
REMARK INTER + INTRA:          -2.678
REMARK INTER:                  -2.640
REMARK INTRA:                  -0.038
REMARK UNBOUND:                -0.012
REMARK SMILES CCCC(=O)[O-]
REMARK SMILES IDX 3 1 4 2 5 3 6 4 2 5 1 6
REMARK H PARENT
REMARK Flexibility Score: inf
ROOT
ATOM      1  C   UNL     1     -15.899   5.657  -0.253  1.00  0.00     0.052 C 
ENDROOT
BRANCH   1   2
ATOM      2  C   UNL     1     -14.464   6.083  -0.334  1.00  0.00     0.041 C 
ATOM      3  O   UNL     1     -14.062   7.084   0.314  1.00  0.00    -0.550 OA
ATOM      4  O   UNL     1     -13.565   5.353  -1.099  1.00  0.00    -0.550 OA
ENDBRANCH   1   2
BRANCH   1   5
ATOM      5  C   UNL     1     -16.095   4.225  -0.763  1.00  0.00     0.003 C 
ATOM      6  C   UNL     1     -16.851   4.179  -2.090  1.00  0.00     0.004 C 
ENDBRANCH   1   5
TORSDOF 2
ENDMDL
MODEL 9
REMARK VINA RESULT:    -2.366      9.296      9.910
REMARK INTER + INTRA:          -2.655
REMARK INTER:                  -2.614
REMARK INTRA:                  -0.041
REMARK UNBOUND:                -0.012
REMARK SMILES CCCC(=O)[O-]
REMARK SMILES IDX 3 1 4 2 5 3 6 4 2 5 1 6
REMARK H PARENT
REMARK Flexibility Score: inf
ROOT
ATOM      1  C   UNL     1     -15.281  12.590   7.113  1.00  0.00     0.052 C 
ENDROOT
BRANCH   1   2
ATOM      2  C   UNL     1     -14.140  13.267   7.811  1.00  0.00     0.041 C 
ATOM      3  O   UNL     1     -13.179  13.737   7.146  1.00  0.00    -0.550 OA
ATOM      4  O   UNL     1     -14.155  13.409   9.192  1.00  0.00    -0.550 OA
ENDBRANCH   1   2
BRANCH   1   5
ATOM      5  C   UNL     1     -16.090  11.711   8.074  1.00  0.00     0.003 C 
ATOM      6  C   UNL     1     -15.607  10.261   8.082  1.00  0.00     0.004 C 
ENDBRANCH   1   5
TORSDOF 2
ENDMDL
