MODEL 1
REMARK VINA RESULT:    -3.801      0.000      0.000
REMARK INTER + INTRA:          -4.673
REMARK INTER:                  -4.579
REMARK INTRA:                  -0.094
REMARK UNBOUND:                -0.094
REMARK SMILES CC[C@@H](C)[C@@H]([NH3+])C(=O)[O-]
REMARK SMILES IDX 3 1 4 2 5 3 6 4 7 8 8 9 9 10 2 11 1 12
REMARK H PARENT 6 5 6 6 6 7
REMARK Flexibility Score: inf
ROOT
ATOM      1  C   UNL     1      23.585  38.807   3.348  1.00  0.00     0.050 C 
ATOM      2  C   UNL     1      23.644  40.131   4.140  1.00  0.00     0.014 C 
ENDROOT
BRANCH   1   3
ATOM      3  C   UNL     1      22.350  38.801   2.389  1.00  0.00     0.230 C 
BRANCH   3   4
ATOM      4  N   UNL     1      22.563  39.644   1.202  1.00  0.00    -0.350 N 
ATOM      5  H   UNL     1      23.049  39.098   0.453  1.00  0.00     0.345 HD
ATOM      6  H   UNL     1      21.646  39.949   0.805  1.00  0.00     0.345 HD
ATOM      7  H   UNL     1      23.143  40.481   1.440  1.00  0.00     0.345 HD
ENDBRANCH   3   4
BRANCH   3   8
ATOM      8  C   UNL     1      22.024  37.396   1.943  1.00  0.00     0.099 C 
ATOM      9  O   UNL     1      21.820  37.150   0.725  1.00  0.00    -0.544 OA
ATOM     10  O   UNL     1      21.952  36.366   2.873  1.00  0.00    -0.544 OA
ENDBRANCH   3   8
ENDBRANCH   1   3
BRANCH   1  11
ATOM     11  C   UNL     1      24.909  38.575   2.574  1.00  0.00     0.006 C 
ATOM     12  C   UNL     1      26.052  38.064   3.455  1.00  0.00     0.004 C 
ENDBRANCH   1  11
TORSDOF 4
ENDMDL
MODEL 2
REMARK VINA RESULT:    -3.727      1.802      2.796
REMARK INTER + INTRA:          -4.583
REMARK INTER:                  -4.689
REMARK INTRA:                   0.106
REMARK UNBOUND:                -0.094
REMARK SMILES CC[C@@H](C)[C@@H]([NH3+])C(=O)[O-]
REMARK SMILES IDX 3 1 4 2 5 3 6 4 7 8 8 9 9 10 2 11 1 12
REMARK H PARENT 6 5 6 6 6 7
REMARK Flexibility Score: inf
ROOT
ATOM      1  C   UNL     1      23.466  39.650   2.370  1.00  0.00     0.050 C 
ATOM      2  C   UNL     1      23.334  40.117   3.836  1.00  0.00     0.014 C 
ENDROOT
BRANCH   1   3
ATOM      3  C   UNL     1      23.715  38.107   2.312  1.00  0.00     0.230 C 
BRANCH   3   4
ATOM      4  N   UNL     1      24.568  37.639   3.416  1.00  0.00    -0.350 N 
ATOM      5  H   UNL     1      25.260  36.936   3.066  1.00  0.00     0.345 HD
ATOM      6  H   UNL     1      25.121  38.434   3.808  1.00  0.00     0.345 HD
ATOM      7  H   UNL     1      23.992  37.199   4.169  1.00  0.00     0.345 HD
ENDBRANCH   3   4
BRANCH   3   8
ATOM      8  C   UNL     1      22.408  37.351   2.346  1.00  0.00     0.099 C 
ATOM      9  O   UNL     1      21.871  37.064   3.448  1.00  0.00    -0.544 OA
ATOM     10  O   UNL     1      21.789  36.973   1.161  1.00  0.00    -0.544 OA
ENDBRANCH   3   8
ENDBRANCH   1   3
BRANCH   1  11
ATOM     11  C   UNL     1      22.212  40.056   1.552  1.00  0.00     0.006 C 
ATOM     12  C   UNL     1      22.370  41.382   0.805  1.00  0.00     0.004 C 
ENDBRANCH   1  11
TORSDOF 4
ENDMDL
MODEL 3
REMARK VINA RESULT:    -3.592      1.727      2.298
REMARK INTER + INTRA:          -4.421
REMARK INTER:                  -4.351
REMARK INTRA:                  -0.070
REMARK UNBOUND:                -0.094
REMARK SMILES CC[C@@H](C)[C@@H]([NH3+])C(=O)[O-]
REMARK SMILES IDX 3 1 4 2 5 3 6 4 7 8 8 9 9 10 2 11 1 12
REMARK H PARENT 6 5 6 6 6 7
REMARK Flexibility Score: inf
ROOT
ATOM      1  C   UNL     1      22.802  39.545   2.983  1.00  0.00     0.050 C 
ATOM      2  C   UNL     1      22.714  40.565   1.827  1.00  0.00     0.014 C 
ENDROOT
BRANCH   1   3
ATOM      3  C   UNL     1      23.269  38.153   2.445  1.00  0.00     0.230 C 
BRANCH   3   4
ATOM      4  N   UNL     1      24.280  37.531   3.315  1.00  0.00    -0.350 N 
ATOM      5  H   UNL     1      24.120  37.807   4.312  1.00  0.00     0.345 HD
ATOM      6  H   UNL     1      24.200  36.490   3.275  1.00  0.00     0.345 HD
ATOM      7  H   UNL     1      25.243  37.825   3.033  1.00  0.00     0.345 HD
ENDBRANCH   3   4
BRANCH   3   8
ATOM      8  C   UNL     1      22.097  37.212   2.303  1.00  0.00     0.099 C 
ATOM      9  O   UNL     1      21.374  37.253   1.272  1.00  0.00    -0.544 OA
ATOM     10  O   UNL     1      21.812  36.292   3.305  1.00  0.00    -0.544 OA
ENDBRANCH   3   8
ENDBRANCH   1   3
BRANCH   1  11
ATOM     11  C   UNL     1      23.741  40.068   4.102  1.00  0.00     0.006 C 
ATOM     12  C   UNL     1      23.430  41.501   4.542  1.00  0.00     0.004 C 
ENDBRANCH   1  11
TORSDOF 4
ENDMDL
MODEL 4
REMARK VINA RESULT:    -3.429      2.599      3.610
REMARK INTER + INTRA:          -4.224
REMARK INTER:                  -4.149
REMARK INTRA:                  -0.075
REMARK UNBOUND:                -0.094
REMARK SMILES CC[C@@H](C)[C@@H]([NH3+])C(=O)[O-]
REMARK SMILES IDX 3 1 4 2 5 3 6 4 7 8 8 9 9 10 2 11 1 12
REMARK H PARENT 6 5 6 6 6 7
REMARK Flexibility Score: inf
ROOT
ATOM      1  C   UNL     1      23.636  40.032   3.089  1.00  0.00     0.050 C 
ATOM      2  C   UNL     1      23.258  41.013   4.219  1.00  0.00     0.014 C 
ENDROOT
BRANCH   1   3
ATOM      3  C   UNL     1      24.047  38.647   3.686  1.00  0.00     0.230 C 
BRANCH   3   4
ATOM      4  N   UNL     1      23.105  37.579   3.316  1.00  0.00    -0.350 N 
ATOM      5  H   UNL     1      22.922  36.957   4.137  1.00  0.00     0.345 HD
ATOM      6  H   UNL     1      22.184  37.989   3.038  1.00  0.00     0.345 HD
ATOM      7  H   UNL     1      23.488  37.001   2.532  1.00  0.00     0.345 HD
ENDBRANCH   3   4
BRANCH   3   8
ATOM      8  C   UNL     1      25.434  38.258   3.232  1.00  0.00     0.099 C 
ATOM      9  O   UNL     1      26.270  37.813   4.062  1.00  0.00    -0.544 OA
ATOM     10  O   UNL     1      25.793  38.383   1.896  1.00  0.00    -0.544 OA
ENDBRANCH   3   8
ENDBRANCH   1   3
BRANCH   1  11
ATOM     11  C   UNL     1      22.469  39.892   2.075  1.00  0.00     0.006 C 
ATOM     12  C   UNL     1      22.387  41.045   1.071  1.00  0.00     0.004 C 
ENDBRANCH   1  11
TORSDOF 4
ENDMDL
MODEL 5
REMARK VINA RESULT:    -3.401      2.509      3.741
REMARK INTER + INTRA:          -4.190
REMARK INTER:                  -4.096
REMARK INTRA:                  -0.094
REMARK UNBOUND:                -0.094
REMARK SMILES CC[C@@H](C)[C@@H]([NH3+])C(=O)[O-]
REMARK SMILES IDX 3 1 4 2 5 3 6 4 7 8 8 9 9 10 2 11 1 12
REMARK H PARENT 6 5 6 6 6 7
REMARK Flexibility Score: inf
ROOT
ATOM      1  C   UNL     1      22.410  38.218   1.551  1.00  0.00     0.050 C 
ATOM      2  C   UNL     1      22.083  39.703   1.280  1.00  0.00     0.014 C 
ENDROOT
BRANCH   1   3
ATOM      3  C   UNL     1      22.631  37.980   3.080  1.00  0.00     0.230 C 
BRANCH   3   4
ATOM      4  N   UNL     1      22.675  36.550   3.421  1.00  0.00    -0.350 N 
ATOM      5  H   UNL     1      21.921  36.318   4.109  1.00  0.00     0.345 HD
ATOM      6  H   UNL     1      22.494  35.970   2.570  1.00  0.00     0.345 HD
ATOM      7  H   UNL     1      23.601  36.295   3.835  1.00  0.00     0.345 HD
ENDBRANCH   3   4
BRANCH   3   8
ATOM      8  C   UNL     1      23.909  38.636   3.546  1.00  0.00     0.099 C 
ATOM      9  O   UNL     1      25.022  38.100   3.301  1.00  0.00    -0.544 OA
ATOM     10  O   UNL     1      23.865  39.838   4.243  1.00  0.00    -0.544 OA
ENDBRANCH   3   8
ENDBRANCH   1   3
BRANCH   1  11
ATOM     11  C   UNL     1      21.292  37.302   0.987  1.00  0.00     0.006 C 
ATOM     12  C   UNL     1      21.763  36.386  -0.146  1.00  0.00     0.004 C 
ENDBRANCH   1  11
TORSDOF 4
ENDMDL
MODEL 6
REMARK VINA RESULT:    -3.320      8.927     10.703
REMARK INTER + INTRA:          -4.093
REMARK INTER:                  -4.028
REMARK INTRA:                  -0.065
REMARK UNBOUND:                -0.094
REMARK SMILES CC[C@@H](C)[C@@H]([NH3+])C(=O)[O-]
REMARK SMILES IDX 3 1 4 2 5 3 6 4 7 8 8 9 9 10 2 11 1 12
REMARK H PARENT 6 5 6 6 6 7
REMARK Flexibility Score: inf
ROOT
ATOM      1  C   UNL     1      14.678  37.657  -4.280  1.00  0.00     0.050 C 
ATOM      2  C   UNL     1      15.742  36.798  -4.997  1.00  0.00     0.014 C 
ENDROOT
BRANCH   1   3
ATOM      3  C   UNL     1      15.316  38.418  -3.072  1.00  0.00     0.230 C 
BRANCH   3   4
ATOM      4  N   UNL     1      14.318  39.174  -2.300  1.00  0.00    -0.350 N 
ATOM      5  H   UNL     1      14.384  40.194  -2.524  1.00  0.00     0.345 HD
ATOM      6  H   UNL     1      13.353  38.871  -2.561  1.00  0.00     0.345 HD
ATOM      7  H   UNL     1      14.467  39.043  -1.273  1.00  0.00     0.345 HD
ENDBRANCH   3   4
BRANCH   3   8
ATOM      8  C   UNL     1      16.028  37.457  -2.149  1.00  0.00     0.099 C 
ATOM      9  O   UNL     1      15.367  36.640  -1.455  1.00  0.00    -0.544 OA
ATOM     10  O   UNL     1      17.414  37.466  -2.064  1.00  0.00    -0.544 OA
ENDBRANCH   3   8
ENDBRANCH   1   3
BRANCH   1  11
ATOM     11  C   UNL     1      14.004  38.636  -5.278  1.00  0.00     0.006 C 
ATOM     12  C   UNL     1      13.989  38.126  -6.721  1.00  0.00     0.004 C 
ENDBRANCH   1  11
TORSDOF 4
ENDMDL
MODEL 7
REMARK VINA RESULT:    -3.220      2.428      3.049
REMARK INTER + INTRA:          -3.972
REMARK INTER:                  -3.901
REMARK INTRA:                  -0.072
REMARK UNBOUND:                -0.094
REMARK SMILES CC[C@@H](C)[C@@H]([NH3+])C(=O)[O-]
REMARK SMILES IDX 3 1 4 2 5 3 6 4 7 8 8 9 9 10 2 11 1 12
REMARK H PARENT 6 5 6 6 6 7
REMARK Flexibility Score: inf
ROOT
ATOM      1  C   UNL     1      22.572  37.884   1.884  1.00  0.00     0.050 C 
ATOM      2  C   UNL     1      22.922  38.131   3.367  1.00  0.00     0.014 C 
ENDROOT
BRANCH   1   3
ATOM      3  C   UNL     1      21.768  36.551   1.730  1.00  0.00     0.230 C 
BRANCH   3   4
ATOM      4  N   UNL     1      20.618  36.486   2.645  1.00  0.00    -0.350 N 
ATOM      5  H   UNL     1      19.750  36.811   2.159  1.00  0.00     0.345 HD
ATOM      6  H   UNL     1      20.445  35.498   2.939  1.00  0.00     0.345 HD
ATOM      7  H   UNL     1      20.779  37.085   3.487  1.00  0.00     0.345 HD
ENDBRANCH   3   4
BRANCH   3   8
ATOM      8  C   UNL     1      21.279  36.381   0.311  1.00  0.00     0.099 C 
ATOM      9  O   UNL     1      22.103  36.244  -0.631  1.00  0.00    -0.544 OA
ATOM     10  O   UNL     1      19.916  36.370   0.038  1.00  0.00    -0.544 OA
ENDBRANCH   3   8
ENDBRANCH   1   3
BRANCH   1  11
ATOM     11  C   UNL     1      21.793  39.091   1.298  1.00  0.00     0.006 C 
ATOM     12  C   UNL     1      22.488  40.436   1.522  1.00  0.00     0.004 C 
ENDBRANCH   1  11
TORSDOF 4
ENDMDL
MODEL 8
REMARK VINA RESULT:    -3.193      2.626      3.743
REMARK INTER + INTRA:          -3.940
REMARK INTER:                  -4.149
REMARK INTRA:                   0.209
REMARK UNBOUND:                -0.094
REMARK SMILES CC[C@@H](C)[C@@H]([NH3+])C(=O)[O-]
REMARK SMILES IDX 3 1 4 2 5 3 6 4 7 8 8 9 9 10 2 11 1 12
REMARK H PARENT 6 5 6 6 6 7
REMARK Flexibility Score: inf
ROOT
ATOM      1  C   UNL     1      22.146  38.835   1.992  1.00  0.00     0.050 C 
ATOM      2  C   UNL     1      22.162  37.709   0.935  1.00  0.00     0.014 C 
ENDROOT
BRANCH   1   3
ATOM      3  C   UNL     1      22.674  38.301   3.363  1.00  0.00     0.230 C 
BRANCH   3   4
ATOM      4  N   UNL     1      22.982  36.862   3.319  1.00  0.00    -0.350 N 
ATOM      5  H   UNL     1      23.528  36.635   2.456  1.00  0.00     0.345 HD
ATOM      6  H   UNL     1      23.581  36.596   4.133  1.00  0.00     0.345 HD
ATOM      7  H   UNL     1      22.103  36.295   3.324  1.00  0.00     0.345 HD
ENDBRANCH   3   4
BRANCH   3   8
ATOM      8  C   UNL     1      23.909  39.055   3.793  1.00  0.00     0.099 C 
ATOM      9  O   UNL     1      25.053  38.609   3.512  1.00  0.00    -0.544 OA
ATOM     10  O   UNL     1      23.791  40.248   4.495  1.00  0.00    -0.544 OA
ENDBRANCH   3   8
ENDBRANCH   1   3
BRANCH   1  11
ATOM     11  C   UNL     1      22.967  40.056   1.501  1.00  0.00     0.006 C 
ATOM     12  C   UNL     1      22.126  41.109   0.774  1.00  0.00     0.004 C 
ENDBRANCH   1  11
TORSDOF 4
ENDMDL
MODEL 9
REMARK VINA RESULT:    -3.119      8.840     10.604
REMARK INTER + INTRA:          -3.851
REMARK INTER:                  -3.726
REMARK INTRA:                  -0.125
REMARK UNBOUND:                -0.094
REMARK SMILES CC[C@@H](C)[C@@H]([NH3+])C(=O)[O-]
REMARK SMILES IDX 3 1 4 2 5 3 6 4 7 8 8 9 9 10 2 11 1 12
REMARK H PARENT 6 5 6 6 6 7
REMARK Flexibility Score: inf
ROOT
ATOM      1  C   UNL     1      15.268  36.865  -4.624  1.00  0.00     0.050 C 
ATOM      2  C   UNL     1      15.215  37.087  -6.150  1.00  0.00     0.014 C 
ENDROOT
BRANCH   1   3
ATOM      3  C   UNL     1      15.775  38.156  -3.903  1.00  0.00     0.230 C 
BRANCH   3   4
ATOM      4  N   UNL     1      14.736  39.194  -3.822  1.00  0.00    -0.350 N 
ATOM      5  H   UNL     1      13.876  38.811  -3.365  1.00  0.00     0.345 HD
ATOM      6  H   UNL     1      15.063  39.988  -3.227  1.00  0.00     0.345 HD
ATOM      7  H   UNL     1      14.485  39.543  -4.775  1.00  0.00     0.345 HD
ENDBRANCH   3   4
BRANCH   3   8
ATOM      8  C   UNL     1      16.261  37.837  -2.509  1.00  0.00     0.099 C 
ATOM      9  O   UNL     1      15.560  38.142  -1.509  1.00  0.00    -0.544 OA
ATOM     10  O   UNL     1      17.482  37.200  -2.323  1.00  0.00    -0.544 OA
ENDBRANCH   3   8
ENDBRANCH   1   3
BRANCH   1  11
ATOM     11  C   UNL     1      13.880  36.422  -4.089  1.00  0.00     0.006 C 
ATOM     12  C   UNL     1      13.907  35.082  -3.349  1.00  0.00     0.004 C 
ENDBRANCH   1  11
TORSDOF 4
ENDMDL
