MODEL 1
REMARK VINA RESULT:    -6.303      0.000      0.000
REMARK INTER + INTRA:          -6.303
REMARK INTER:                  -6.303
REMARK INTRA:                   0.000
REMARK UNBOUND:                 0.000
REMARK SMILES Cc1cc2cc3c(C)cc(=O)oc3c(C)c2o1
REMARK SMILES IDX 8 1 7 2 9 3 10 4 11 5 12 6 13 7 6 8 5 9 4 10 3 11 2 12 17 13
REMARK SMILES IDX 16 14 14 15 15 16 1 17
REMARK H PARENT
REMARK Flexibility Score: inf
ROOT
ATOM      1  C   UNL     1      43.220   6.507 114.368  1.00  0.00     0.045 C 
ATOM      2  C   UNL     1      44.513   7.187 114.736  1.00  0.00    -0.033 A 
ATOM      3  C   UNL     1      45.614   7.074 113.877  1.00  0.00     0.098 A 
ATOM      4  C   UNL     1      46.816   7.702 114.208  1.00  0.00     0.336 A 
ATOM      5  O   UNL     1      47.807   7.605 113.439  1.00  0.00    -0.246 OA
ATOM      6  O   UNL     1      46.923   8.404 115.329  1.00  0.00    -0.422 OA
ATOM      7  C   UNL     1      45.920   8.551 116.190  1.00  0.00     0.145 A 
ATOM      8  C   UNL     1      44.652   7.941 115.922  1.00  0.00     0.022 A 
ATOM      9  C   UNL     1      43.587   8.111 116.840  1.00  0.00     0.024 A 
ATOM     10  C   UNL     1      43.818   8.877 117.977  1.00  0.00     0.022 A 
ATOM     11  C   UNL     1      42.976   9.214 119.011  1.00  0.00     0.054 A 
ATOM     12  C   UNL     1      43.762  10.000 119.847  1.00  0.00     0.102 A 
ATOM     13  O   UNL     1      44.980  10.133 119.357  1.00  0.00    -0.461 OA
ATOM     14  C   UNL     1      45.029   9.461 118.232  1.00  0.00     0.140 A 
ATOM     15  C   UNL     1      46.117   9.314 117.366  1.00  0.00     0.036 A 
ATOM     16  C   UNL     1      47.431   9.985 117.649  1.00  0.00     0.052 C 
ATOM     17  C   UNL     1      43.302  10.634 121.116  1.00  0.00     0.087 C 
ENDROOT
TORSDOF 0
ENDMDL
MODEL 2
REMARK VINA RESULT:    -6.247      2.523      6.229
REMARK INTER + INTRA:          -6.247
REMARK INTER:                  -6.247
REMARK INTRA:                   0.000
REMARK UNBOUND:                 0.000
REMARK SMILES Cc1cc2cc3c(C)cc(=O)oc3c(C)c2o1
REMARK SMILES IDX 8 1 7 2 9 3 10 4 11 5 12 6 13 7 6 8 5 9 4 10 3 11 2 12 17 13
REMARK SMILES IDX 16 14 14 15 15 16 1 17
REMARK H PARENT
REMARK Flexibility Score: inf
ROOT
ATOM      1  C   UNL     1      44.324   9.168 114.787  1.00  0.00     0.045 C 
ATOM      2  C   UNL     1      45.674   9.105 115.452  1.00  0.00    -0.033 A 
ATOM      3  C   UNL     1      45.887   9.819 116.639  1.00  0.00     0.098 A 
ATOM      4  C   UNL     1      47.134   9.764 117.263  1.00  0.00     0.336 A 
ATOM      5  O   UNL     1      47.329  10.403 118.330  1.00  0.00    -0.246 OA
ATOM      6  O   UNL     1      48.118   9.043 116.742  1.00  0.00    -0.422 OA
ATOM      7  C   UNL     1      47.987   8.343 115.619  1.00  0.00     0.145 A 
ATOM      8  C   UNL     1      46.737   8.343 114.918  1.00  0.00     0.022 A 
ATOM      9  C   UNL     1      46.604   7.587 113.728  1.00  0.00     0.024 A 
ATOM     10  C   UNL     1      47.704   6.862 113.285  1.00  0.00     0.022 A 
ATOM     11  C   UNL     1      47.852   6.044 112.189  1.00  0.00     0.054 A 
ATOM     12  C   UNL     1      49.164   5.595 112.274  1.00  0.00     0.102 A 
ATOM     13  O   UNL     1      49.764   6.095 113.338  1.00  0.00    -0.461 OA
ATOM     14  C   UNL     1      48.897   6.862 113.956  1.00  0.00     0.140 A 
ATOM     15  C   UNL     1      49.087   7.601 115.127  1.00  0.00     0.036 A 
ATOM     16  C   UNL     1      50.396   7.565 115.864  1.00  0.00     0.052 C 
ATOM     17  C   UNL     1      49.817   4.657 111.316  1.00  0.00     0.087 C 
ENDROOT
TORSDOF 0
ENDMDL
MODEL 3
REMARK VINA RESULT:    -6.114      1.933      3.298
REMARK INTER + INTRA:          -6.114
REMARK INTER:                  -6.114
REMARK INTRA:                   0.000
REMARK UNBOUND:                 0.000
REMARK SMILES Cc1cc2cc3c(C)cc(=O)oc3c(C)c2o1
REMARK SMILES IDX 8 1 7 2 9 3 10 4 11 5 12 6 13 7 6 8 5 9 4 10 3 11 2 12 17 13
REMARK SMILES IDX 16 14 14 15 15 16 1 17
REMARK H PARENT
REMARK Flexibility Score: inf
ROOT
ATOM      1  C   UNL     1      46.472   7.627 113.486  1.00  0.00     0.045 C 
ATOM      2  C   UNL     1      45.308   7.641 114.442  1.00  0.00    -0.033 A 
ATOM      3  C   UNL     1      44.103   7.036 114.063  1.00  0.00     0.098 A 
ATOM      4  C   UNL     1      43.020   7.043 114.944  1.00  0.00     0.336 A 
ATOM      5  O   UNL     1      41.936   6.499 114.608  1.00  0.00    -0.246 OA
ATOM      6  O   UNL     1      43.123   7.618 116.135  1.00  0.00    -0.422 OA
ATOM      7  C   UNL     1      44.235   8.213 116.558  1.00  0.00     0.145 A 
ATOM      8  C   UNL     1      45.393   8.246 115.716  1.00  0.00     0.022 A 
ATOM      9  C   UNL     1      46.576   8.873 116.179  1.00  0.00     0.024 A 
ATOM     10  C   UNL     1      46.565   9.433 117.452  1.00  0.00     0.022 A 
ATOM     11  C   UNL     1      47.558  10.081 118.150  1.00  0.00     0.054 A 
ATOM     12  C   UNL     1      46.963  10.406 119.363  1.00  0.00     0.102 A 
ATOM     13  O   UNL     1      45.713   9.987 119.402  1.00  0.00    -0.461 OA
ATOM     14  C   UNL     1      45.458   9.400 118.256  1.00  0.00     0.140 A 
ATOM     15  C   UNL     1      44.262   8.806 117.843  1.00  0.00     0.036 A 
ATOM     16  C   UNL     1      43.066   8.755 118.751  1.00  0.00     0.052 C 
ATOM     17  C   UNL     1      47.638  11.113 120.490  1.00  0.00     0.087 C 
ENDROOT
TORSDOF 0
ENDMDL
MODEL 4
REMARK VINA RESULT:    -6.086      1.508      5.861
REMARK INTER + INTRA:          -6.086
REMARK INTER:                  -6.086
REMARK INTRA:                   0.000
REMARK UNBOUND:                 0.000
REMARK SMILES Cc1cc2cc3c(C)cc(=O)oc3c(C)c2o1
REMARK SMILES IDX 8 1 7 2 9 3 10 4 11 5 12 6 13 7 6 8 5 9 4 10 3 11 2 12 17 13
REMARK SMILES IDX 16 14 14 15 15 16 1 17
REMARK H PARENT
REMARK Flexibility Score: inf
ROOT
ATOM      1  C   UNL     1      47.022  10.247 119.364  1.00  0.00     0.045 C 
ATOM      2  C   UNL     1      45.767   9.651 118.781  1.00  0.00    -0.033 A 
ATOM      3  C   UNL     1      44.568   9.741 119.500  1.00  0.00     0.098 A 
ATOM      4  C   UNL     1      43.400   9.194 118.966  1.00  0.00     0.336 A 
ATOM      5  O   UNL     1      42.321   9.273 119.608  1.00  0.00    -0.246 OA
ATOM      6  O   UNL     1      43.417   8.590 117.785  1.00  0.00    -0.422 OA
ATOM      7  C   UNL     1      44.519   8.467 117.050  1.00  0.00     0.145 A 
ATOM      8  C   UNL     1      45.759   9.005 117.525  1.00  0.00     0.022 A 
ATOM      9  C   UNL     1      46.925   8.878 116.731  1.00  0.00     0.024 A 
ATOM     10  C   UNL     1      46.816   8.233 115.505  1.00  0.00     0.022 A 
ATOM     11  C   UNL     1      47.764   7.984 114.540  1.00  0.00     0.054 A 
ATOM     12  C   UNL     1      47.066   7.315 113.541  1.00  0.00     0.102 A 
ATOM     13  O   UNL     1      45.795   7.173 113.870  1.00  0.00    -0.461 OA
ATOM     14  C   UNL     1      45.630   7.720 115.051  1.00  0.00     0.140 A 
ATOM     15  C   UNL     1      44.454   7.806 115.800  1.00  0.00     0.036 A 
ATOM     16  C   UNL     1      43.156   7.261 115.273  1.00  0.00     0.052 C 
ATOM     17  C   UNL     1      47.650   6.835 112.256  1.00  0.00     0.087 C 
ENDROOT
TORSDOF 0
ENDMDL
MODEL 5
REMARK VINA RESULT:    -6.057      1.671      6.099
REMARK INTER + INTRA:          -6.057
REMARK INTER:                  -6.057
REMARK INTRA:                   0.000
REMARK UNBOUND:                 0.000
REMARK SMILES Cc1cc2cc3c(C)cc(=O)oc3c(C)c2o1
REMARK SMILES IDX 8 1 7 2 9 3 10 4 11 5 12 6 13 7 6 8 5 9 4 10 3 11 2 12 17 13
REMARK SMILES IDX 16 14 14 15 15 16 1 17
REMARK H PARENT
REMARK Flexibility Score: inf
ROOT
ATOM      1  C   UNL     1      47.512  10.234 118.275  1.00  0.00     0.045 C 
ATOM      2  C   UNL     1      46.365   9.431 117.717  1.00  0.00    -0.033 A 
ATOM      3  C   UNL     1      45.156   9.385 118.422  1.00  0.00     0.098 A 
ATOM      4  C   UNL     1      44.087   8.645 117.912  1.00  0.00     0.336 A 
ATOM      5  O   UNL     1      42.999   8.601 118.541  1.00  0.00    -0.246 OA
ATOM      6  O   UNL     1      44.209   7.986 116.767  1.00  0.00    -0.422 OA
ATOM      7  C   UNL     1      45.328   7.986 116.047  1.00  0.00     0.145 A 
ATOM      8  C   UNL     1      46.470   8.723 116.500  1.00  0.00     0.022 A 
ATOM      9  C   UNL     1      47.654   8.724 115.722  1.00  0.00     0.024 A 
ATOM     10  C   UNL     1      47.657   8.004 114.533  1.00  0.00     0.022 A 
ATOM     11  C   UNL     1      48.646   7.843 113.590  1.00  0.00     0.054 A 
ATOM     12  C   UNL     1      48.066   7.026 112.626  1.00  0.00     0.102 A 
ATOM     13  O   UNL     1      46.826   6.719 112.954  1.00  0.00    -0.461 OA
ATOM     14  C   UNL     1      46.566   7.300 114.102  1.00  0.00     0.140 A 
ATOM     15  C   UNL     1      45.378   7.254 114.837  1.00  0.00     0.036 A 
ATOM     16  C   UNL     1      44.181   6.499 114.332  1.00  0.00     0.052 C 
ATOM     17  C   UNL     1      48.733   6.567 111.374  1.00  0.00     0.087 C 
ENDROOT
TORSDOF 0
ENDMDL
MODEL 6
REMARK VINA RESULT:    -6.047      1.542      5.866
REMARK INTER + INTRA:          -6.047
REMARK INTER:                  -6.047
REMARK INTRA:                   0.000
REMARK UNBOUND:                 0.000
REMARK SMILES Cc1cc2cc3c(C)cc(=O)oc3c(C)c2o1
REMARK SMILES IDX 8 1 7 2 9 3 10 4 11 5 12 6 13 7 6 8 5 9 4 10 3 11 2 12 17 13
REMARK SMILES IDX 16 14 14 15 15 16 1 17
REMARK H PARENT
REMARK Flexibility Score: inf
ROOT
ATOM      1  C   UNL     1      41.229   9.933 121.217  1.00  0.00     0.045 C 
ATOM      2  C   UNL     1      42.691  10.283 121.122  1.00  0.00    -0.033 A 
ATOM      3  C   UNL     1      43.277  11.056 122.133  1.00  0.00     0.098 A 
ATOM      4  C   UNL     1      44.632  11.383 122.054  1.00  0.00     0.336 A 
ATOM      5  O   UNL     1      45.163  12.076 122.960  1.00  0.00    -0.246 OA
ATOM      6  O   UNL     1      45.367  10.969 121.030  1.00  0.00    -0.422 OA
ATOM      7  C   UNL     1      44.876  10.234 120.036  1.00  0.00     0.145 A 
ATOM      8  C   UNL     1      43.495   9.853 120.044  1.00  0.00     0.022 A 
ATOM      9  C   UNL     1      42.983   9.062 118.985  1.00  0.00     0.024 A 
ATOM     10  C   UNL     1      43.855   8.681 117.972  1.00  0.00     0.022 A 
ATOM     11  C   UNL     1      43.637   7.916 116.849  1.00  0.00     0.054 A 
ATOM     12  C   UNL     1      44.877   7.872 116.223  1.00  0.00     0.102 A 
ATOM     13  O   UNL     1      45.776   8.551 116.910  1.00  0.00    -0.461 OA
ATOM     14  C   UNL     1      45.174   9.045 117.966  1.00  0.00     0.140 A 
ATOM     15  C   UNL     1      45.727   9.835 118.978  1.00  0.00     0.036 A 
ATOM     16  C   UNL     1      47.184  10.201 118.968  1.00  0.00     0.052 C 
ATOM     17  C   UNL     1      45.176   7.143 114.956  1.00  0.00     0.087 C 
ENDROOT
TORSDOF 0
ENDMDL
MODEL 7
REMARK VINA RESULT:    -5.911      8.177      9.310
REMARK INTER + INTRA:          -5.911
REMARK INTER:                  -5.911
REMARK INTRA:                   0.000
REMARK UNBOUND:                 0.000
REMARK SMILES Cc1cc2cc3c(C)cc(=O)oc3c(C)c2o1
REMARK SMILES IDX 8 1 7 2 9 3 10 4 11 5 12 6 13 7 6 8 5 9 4 10 3 11 2 12 17 13
REMARK SMILES IDX 16 14 14 15 15 16 1 17
REMARK H PARENT
REMARK Flexibility Score: inf
ROOT
ATOM      1  C   UNL     1      41.195  17.158 115.922  1.00  0.00     0.045 C 
ATOM      2  C   UNL     1      40.731  16.711 114.560  1.00  0.00    -0.033 A 
ATOM      3  C   UNL     1      40.047  17.616 113.739  1.00  0.00     0.098 A 
ATOM      4  C   UNL     1      39.616  17.211 112.474  1.00  0.00     0.336 A 
ATOM      5  O   UNL     1      39.001  18.021 111.733  1.00  0.00    -0.246 OA
ATOM      6  O   UNL     1      39.849  15.977 112.046  1.00  0.00    -0.422 OA
ATOM      7  C   UNL     1      40.491  15.067 112.773  1.00  0.00     0.145 A 
ATOM      8  C   UNL     1      40.969  15.404 114.081  1.00  0.00     0.022 A 
ATOM      9  C   UNL     1      41.660  14.431 114.844  1.00  0.00     0.024 A 
ATOM     10  C   UNL     1      41.853  13.174 114.283  1.00  0.00     0.022 A 
ATOM     11  C   UNL     1      42.489  12.062 114.783  1.00  0.00     0.054 A 
ATOM     12  C   UNL     1      42.368  11.117 113.771  1.00  0.00     0.102 A 
ATOM     13  O   UNL     1      41.714  11.615 112.738  1.00  0.00    -0.461 OA
ATOM     14  C   UNL     1      41.396  12.853 113.033  1.00  0.00     0.140 A 
ATOM     15  C   UNL     1      40.697  13.771 112.244  1.00  0.00     0.036 A 
ATOM     16  C   UNL     1      40.228  13.409 110.863  1.00  0.00     0.052 C 
ATOM     17  C   UNL     1      42.914   9.730 113.818  1.00  0.00     0.087 C 
ENDROOT
TORSDOF 0
ENDMDL
MODEL 8
REMARK VINA RESULT:    -5.881      4.317      5.168
REMARK INTER + INTRA:          -5.881
REMARK INTER:                  -5.881
REMARK INTRA:                   0.000
REMARK UNBOUND:                 0.000
REMARK SMILES Cc1cc2cc3c(C)cc(=O)oc3c(C)c2o1
REMARK SMILES IDX 8 1 7 2 9 3 10 4 11 5 12 6 13 7 6 8 5 9 4 10 3 11 2 12 17 13
REMARK SMILES IDX 16 14 14 15 15 16 1 17
REMARK H PARENT
REMARK Flexibility Score: inf
ROOT
ATOM      1  C   UNL     1      44.173   9.004 117.871  1.00  0.00     0.045 C 
ATOM      2  C   UNL     1      43.883   8.775 116.410  1.00  0.00    -0.033 A 
ATOM      3  C   UNL     1      44.114   7.509 115.858  1.00  0.00     0.098 A 
ATOM      4  C   UNL     1      43.846   7.286 114.505  1.00  0.00     0.336 A 
ATOM      5  O   UNL     1      44.051   6.150 114.004  1.00  0.00    -0.246 OA
ATOM      6  O   UNL     1      43.376   8.264 113.742  1.00  0.00    -0.422 OA
ATOM      7  C   UNL     1      43.136   9.490 114.200  1.00  0.00     0.145 A 
ATOM      8  C   UNL     1      43.381   9.798 115.577  1.00  0.00     0.022 A 
ATOM      9  C   UNL     1      43.113  11.104 116.058  1.00  0.00     0.024 A 
ATOM     10  C   UNL     1      42.611  12.042 115.163  1.00  0.00     0.022 A 
ATOM     11  C   UNL     1      42.254  13.356 115.356  1.00  0.00     0.054 A 
ATOM     12  C   UNL     1      41.817  13.776 114.105  1.00  0.00     0.102 A 
ATOM     13  O   UNL     1      41.899  12.796 113.225  1.00  0.00    -0.461 OA
ATOM     14  C   UNL     1      42.377  11.745 113.848  1.00  0.00     0.140 A 
ATOM     15  C   UNL     1      42.636  10.478 113.319  1.00  0.00     0.036 A 
ATOM     16  C   UNL     1      42.346  10.164 111.878  1.00  0.00     0.052 C 
ATOM     17  C   UNL     1      41.303  15.139 113.785  1.00  0.00     0.087 C 
ENDROOT
TORSDOF 0
ENDMDL
MODEL 9
REMARK VINA RESULT:    -5.672      1.693      3.311
REMARK INTER + INTRA:          -5.672
REMARK INTER:                  -5.672
REMARK INTRA:                   0.000
REMARK UNBOUND:                 0.000
REMARK SMILES Cc1cc2cc3c(C)cc(=O)oc3c(C)c2o1
REMARK SMILES IDX 8 1 7 2 9 3 10 4 11 5 12 6 13 7 6 8 5 9 4 10 3 11 2 12 17 13
REMARK SMILES IDX 16 14 14 15 15 16 1 17
REMARK H PARENT
REMARK Flexibility Score: inf
ROOT
ATOM      1  C   UNL     1      49.937   8.072 115.768  1.00  0.00     0.045 C 
ATOM      2  C   UNL     1      48.714   7.935 114.900  1.00  0.00    -0.033 A 
ATOM      3  C   UNL     1      48.857   7.482 113.582  1.00  0.00     0.098 A 
ATOM      4  C   UNL     1      47.728   7.350 112.771  1.00  0.00     0.336 A 
ATOM      5  O   UNL     1      47.851   6.943 111.587  1.00  0.00    -0.246 OA
ATOM      6  O   UNL     1      46.523   7.650 113.238  1.00  0.00    -0.422 OA
ATOM      7  C   UNL     1      46.315   8.086 114.478  1.00  0.00     0.145 A 
ATOM      8  C   UNL     1      47.421   8.246 115.375  1.00  0.00     0.022 A 
ATOM      9  C   UNL     1      47.188   8.702 116.696  1.00  0.00     0.024 A 
ATOM     10  C   UNL     1      45.878   8.975 117.074  1.00  0.00     0.022 A 
ATOM     11  C   UNL     1      45.369   9.409 118.275  1.00  0.00     0.054 A 
ATOM     12  C   UNL     1      43.999   9.493 118.053  1.00  0.00     0.102 A 
ATOM     13  O   UNL     1      43.700   9.135 116.819  1.00  0.00    -0.461 OA
ATOM     14  C   UNL     1      44.823   8.821 116.216  1.00  0.00     0.140 A 
ATOM     15  C   UNL     1      44.998   8.387 114.899  1.00  0.00     0.036 A 
ATOM     16  C   UNL     1      43.823   8.198 113.981  1.00  0.00     0.052 C 
ATOM     17  C   UNL     1      42.987   9.908 119.066  1.00  0.00     0.087 C 
ENDROOT
TORSDOF 0
ENDMDL
