MODEL 1
REMARK VINA RESULT:    -6.256      0.000      0.000
REMARK INTER + INTRA:          -7.049
REMARK INTER:                  -6.804
REMARK INTRA:                  -0.244
REMARK UNBOUND:                -0.244
REMARK SMILES CC(C)c1cc2c(cc1O)[C@]1(C)CCCC(C)(C)[C@H]1CC2=O
REMARK SMILES IDX 4 1 9 2 8 3 7 4 6 5 5 6 21 7 22 8 20 9 19 10 11 11 13 12
REMARK SMILES IDX 14 13 15 14 16 15 17 16 18 17 12 18 2 19 1 20 3 21 10 22
REMARK H PARENT 10 23
REMARK Flexibility Score: inf
ROOT
ATOM      1  C   UNL     1     -16.627  -2.313 -17.216  1.00  0.00    -0.003 A 
ATOM      2  C   UNL     1     -15.466  -1.693 -17.738  1.00  0.00     0.119 A 
ATOM      3  C   UNL     1     -14.339  -2.461 -18.043  1.00  0.00     0.051 A 
ATOM      4  C   UNL     1     -14.353  -3.868 -17.939  1.00  0.00    -0.027 A 
ATOM      5  C   UNL     1     -15.532  -4.496 -17.465  1.00  0.00     0.022 A 
ATOM      6  C   UNL     1     -16.647  -3.718 -17.115  1.00  0.00     0.020 A 
ATOM      7  C   UNL     1     -15.613  -5.977 -17.390  1.00  0.00     0.163 C 
ATOM      8  O   UNL     1     -16.572  -6.531 -16.787  1.00  0.00    -0.294 OA
ATOM      9  C   UNL     1     -14.554  -6.850 -18.012  1.00  0.00     0.086 C 
ATOM     10  C   UNL     1     -13.642  -6.038 -18.966  1.00  0.00     0.013 C 
ATOM     11  C   UNL     1     -13.116  -4.740 -18.244  1.00  0.00    -0.003 C 
ATOM     12  C   UNL     1     -12.108  -4.033 -19.189  1.00  0.00     0.012 C 
ATOM     13  C   UNL     1     -10.894  -4.894 -19.585  1.00  0.00     0.001 C 
ATOM     14  C   UNL     1     -11.115  -6.415 -19.537  1.00  0.00     0.007 C 
ATOM     15  C   UNL     1     -12.572  -6.875 -19.805  1.00  0.00    -0.031 C 
ATOM     16  C   UNL     1     -12.851  -6.703 -21.322  1.00  0.00     0.011 C 
ATOM     17  C   UNL     1     -12.627  -8.397 -19.507  1.00  0.00     0.011 C 
ATOM     18  C   UNL     1     -12.435  -5.008 -16.873  1.00  0.00     0.017 C 
ENDROOT
BRANCH   1  19
ATOM     19  C   UNL     1     -17.869  -1.510 -16.839  1.00  0.00     0.017 C 
ATOM     20  C   UNL     1     -19.125  -2.371 -17.022  1.00  0.00     0.012 C 
ATOM     21  C   UNL     1     -17.804  -0.933 -15.415  1.00  0.00     0.012 C 
ENDBRANCH   1  19
BRANCH   2  22
ATOM     22  O   UNL     1     -15.385  -0.320 -17.993  1.00  0.00    -0.508 OA
ATOM     23  H   UNL     1     -14.524   0.205 -18.021  1.00  0.00     0.293 HD
ENDBRANCH   2  22
TORSDOF 2
ENDMDL
MODEL 2
REMARK VINA RESULT:    -5.991      1.882      2.620
REMARK INTER + INTRA:          -6.760
REMARK INTER:                  -6.520
REMARK INTRA:                  -0.240
REMARK UNBOUND:                -0.244
REMARK SMILES CC(C)c1cc2c(cc1O)[C@]1(C)CCCC(C)(C)[C@H]1CC2=O
REMARK SMILES IDX 4 1 9 2 8 3 7 4 6 5 5 6 21 7 22 8 20 9 19 10 11 11 13 12
REMARK SMILES IDX 14 13 15 14 16 15 17 16 18 17 12 18 2 19 1 20 3 21 10 22
REMARK H PARENT 10 23
REMARK Flexibility Score: inf
ROOT
ATOM      1  C   UNL     1     -16.758  -4.025 -16.464  1.00  0.00    -0.003 A 
ATOM      2  C   UNL     1     -15.790  -3.125 -15.955  1.00  0.00     0.119 A 
ATOM      3  C   UNL     1     -14.485  -3.146 -16.453  1.00  0.00     0.051 A 
ATOM      4  C   UNL     1     -14.118  -3.980 -17.529  1.00  0.00    -0.027 A 
ATOM      5  C   UNL     1     -15.099  -4.845 -18.075  1.00  0.00     0.022 A 
ATOM      6  C   UNL     1     -16.398  -4.856 -17.542  1.00  0.00     0.020 A 
ATOM      7  C   UNL     1     -14.774  -5.702 -19.245  1.00  0.00     0.163 C 
ATOM      8  O   UNL     1     -15.570  -6.611 -19.605  1.00  0.00    -0.294 OA
ATOM      9  C   UNL     1     -13.492  -5.520 -20.015  1.00  0.00     0.086 C 
ATOM     10  C   UNL     1     -12.798  -4.184 -19.648  1.00  0.00     0.013 C 
ATOM     11  C   UNL     1     -12.678  -4.044 -18.082  1.00  0.00    -0.003 C 
ATOM     12  C   UNL     1     -11.863  -2.759 -17.770  1.00  0.00     0.012 C 
ATOM     13  C   UNL     1     -10.444  -2.744 -18.370  1.00  0.00     0.001 C 
ATOM     14  C   UNL     1     -10.243  -3.613 -19.621  1.00  0.00     0.007 C 
ATOM     15  C   UNL     1     -11.506  -3.799 -20.503  1.00  0.00    -0.031 C 
ATOM     16  C   UNL     1     -11.758  -2.464 -21.254  1.00  0.00     0.011 C 
ATOM     17  C   UNL     1     -11.154  -4.861 -21.578  1.00  0.00     0.011 C 
ATOM     18  C   UNL     1     -12.007  -5.260 -17.386  1.00  0.00     0.017 C 
ENDROOT
BRANCH   1  19
ATOM     19  C   UNL     1     -18.188  -4.059 -15.928  1.00  0.00     0.017 C 
ATOM     20  C   UNL     1     -19.051  -3.035 -16.675  1.00  0.00     0.012 C 
ATOM     21  C   UNL     1     -18.822  -5.458 -15.992  1.00  0.00     0.012 C 
ENDBRANCH   1  19
BRANCH   2  22
ATOM     22  O   UNL     1     -16.079  -2.175 -14.970  1.00  0.00    -0.508 OA
ATOM     23  H   UNL     1     -16.976  -2.078 -14.516  1.00  0.00     0.293 HD
ENDBRANCH   2  22
TORSDOF 2
ENDMDL
MODEL 3
REMARK VINA RESULT:    -5.775      1.638      6.075
REMARK INTER + INTRA:          -6.526
REMARK INTER:                  -6.302
REMARK INTRA:                  -0.224
REMARK UNBOUND:                -0.244
REMARK SMILES CC(C)c1cc2c(cc1O)[C@]1(C)CCCC(C)(C)[C@H]1CC2=O
REMARK SMILES IDX 4 1 9 2 8 3 7 4 6 5 5 6 21 7 22 8 20 9 19 10 11 11 13 12
REMARK SMILES IDX 14 13 15 14 16 15 17 16 18 17 12 18 2 19 1 20 3 21 10 22
REMARK H PARENT 10 23
REMARK Flexibility Score: inf
ROOT
ATOM      1  C   UNL     1     -12.414  -4.065 -19.002  1.00  0.00    -0.003 A 
ATOM      2  C   UNL     1     -12.615  -2.679 -18.792  1.00  0.00     0.119 A 
ATOM      3  C   UNL     1     -13.862  -2.208 -18.371  1.00  0.00     0.051 A 
ATOM      4  C   UNL     1     -14.916  -3.090 -18.051  1.00  0.00    -0.027 A 
ATOM      5  C   UNL     1     -14.700  -4.481 -18.212  1.00  0.00     0.022 A 
ATOM      6  C   UNL     1     -13.462  -4.949 -18.679  1.00  0.00     0.020 A 
ATOM      7  C   UNL     1     -15.761  -5.451 -17.835  1.00  0.00     0.163 C 
ATOM      8  O   UNL     1     -15.656  -6.665 -18.161  1.00  0.00    -0.294 OA
ATOM      9  C   UNL     1     -16.987  -5.013 -17.077  1.00  0.00     0.086 C 
ATOM     10  C   UNL     1     -16.809  -3.590 -16.491  1.00  0.00     0.013 C 
ATOM     11  C   UNL     1     -16.310  -2.597 -17.610  1.00  0.00    -0.003 C 
ATOM     12  C   UNL     1     -16.274  -1.166 -17.009  1.00  0.00     0.012 C 
ATOM     13  C   UNL     1     -17.631  -0.662 -16.482  1.00  0.00     0.001 C 
ATOM     14  C   UNL     1     -18.625  -1.754 -16.056  1.00  0.00     0.007 C 
ATOM     15  C   UNL     1     -17.978  -3.065 -15.538  1.00  0.00    -0.031 C 
ATOM     16  C   UNL     1     -17.408  -2.783 -14.122  1.00  0.00     0.011 C 
ATOM     17  C   UNL     1     -19.125  -4.097 -15.364  1.00  0.00     0.011 C 
ATOM     18  C   UNL     1     -17.188  -2.595 -18.893  1.00  0.00     0.017 C 
ENDROOT
BRANCH   1  19
ATOM     19  C   UNL     1     -11.079  -4.620 -19.491  1.00  0.00     0.017 C 
ATOM     20  C   UNL     1     -10.962  -6.104 -19.120  1.00  0.00     0.012 C 
ATOM     21  C   UNL     1     -10.857  -4.414 -20.998  1.00  0.00     0.012 C 
ENDBRANCH   1  19
BRANCH   2  22
ATOM     22  O   UNL     1     -11.603  -1.729 -18.964  1.00  0.00    -0.508 OA
ATOM     23  H   UNL     1     -11.136  -1.249 -18.208  1.00  0.00     0.293 HD
ENDBRANCH   2  22
TORSDOF 2
ENDMDL
MODEL 4
REMARK VINA RESULT:    -5.235      1.337      3.309
REMARK INTER + INTRA:          -5.939
REMARK INTER:                  -5.697
REMARK INTRA:                  -0.241
REMARK UNBOUND:                -0.244
REMARK SMILES CC(C)c1cc2c(cc1O)[C@]1(C)CCCC(C)(C)[C@H]1CC2=O
REMARK SMILES IDX 4 1 9 2 8 3 7 4 6 5 5 6 21 7 22 8 20 9 19 10 11 11 13 12
REMARK SMILES IDX 14 13 15 14 16 15 17 16 18 17 12 18 2 19 1 20 3 21 10 22
REMARK H PARENT 10 23
REMARK Flexibility Score: inf
ROOT
ATOM      1  C   UNL     1     -16.499  -3.279 -16.954  1.00  0.00    -0.003 A 
ATOM      2  C   UNL     1     -16.754  -4.666 -17.075  1.00  0.00     0.119 A 
ATOM      3  C   UNL     1     -15.949  -5.457 -17.899  1.00  0.00     0.051 A 
ATOM      4  C   UNL     1     -14.814  -4.930 -18.549  1.00  0.00    -0.027 A 
ATOM      5  C   UNL     1     -14.527  -3.551 -18.389  1.00  0.00     0.022 A 
ATOM      6  C   UNL     1     -15.364  -2.748 -17.597  1.00  0.00     0.020 A 
ATOM      7  C   UNL     1     -13.312  -2.962 -19.010  1.00  0.00     0.163 C 
ATOM      8  O   UNL     1     -13.159  -1.711 -19.040  1.00  0.00    -0.294 OA
ATOM      9  C   UNL     1     -12.249  -3.833 -19.627  1.00  0.00     0.086 C 
ATOM     10  C   UNL     1     -12.435  -5.318 -19.226  1.00  0.00     0.013 C 
ATOM     11  C   UNL     1     -13.922  -5.772 -19.486  1.00  0.00    -0.003 C 
ATOM     12  C   UNL     1     -14.024  -7.293 -19.196  1.00  0.00     0.012 C 
ATOM     13  C   UNL     1     -13.092  -8.170 -20.054  1.00  0.00     0.001 C 
ATOM     14  C   UNL     1     -11.829  -7.473 -20.585  1.00  0.00     0.007 C 
ATOM     15  C   UNL     1     -11.287  -6.326 -19.692  1.00  0.00    -0.031 C 
ATOM     16  C   UNL     1     -10.623  -6.970 -18.446  1.00  0.00     0.011 C 
ATOM     17  C   UNL     1     -10.157  -5.626 -20.494  1.00  0.00     0.011 C 
ATOM     18  C   UNL     1     -14.430  -5.488 -20.928  1.00  0.00     0.017 C 
ENDROOT
BRANCH   1  19
ATOM     19  C   UNL     1     -17.372  -2.371 -16.090  1.00  0.00     0.017 C 
ATOM     20  C   UNL     1     -16.854  -2.367 -14.646  1.00  0.00     0.012 C 
ATOM     21  C   UNL     1     -17.477  -0.938 -16.637  1.00  0.00     0.012 C 
ENDBRANCH   1  19
BRANCH   2  22
ATOM     22  O   UNL     1     -17.781  -5.315 -16.380  1.00  0.00    -0.508 OA
ATOM     23  H   UNL     1     -18.132  -5.024 -15.479  1.00  0.00     0.293 HD
ENDBRANCH   2  22
TORSDOF 2
ENDMDL
MODEL 5
REMARK VINA RESULT:    -5.159      1.806      2.748
REMARK INTER + INTRA:          -5.856
REMARK INTER:                  -6.034
REMARK INTRA:                   0.178
REMARK UNBOUND:                -0.244
REMARK SMILES CC(C)c1cc2c(cc1O)[C@]1(C)CCCC(C)(C)[C@H]1CC2=O
REMARK SMILES IDX 4 1 9 2 8 3 7 4 6 5 5 6 21 7 22 8 20 9 19 10 11 11 13 12
REMARK SMILES IDX 14 13 15 14 16 15 17 16 18 17 12 18 2 19 1 20 3 21 10 22
REMARK H PARENT 10 23
REMARK Flexibility Score: inf
ROOT
ATOM      1  C   UNL     1     -15.912  -2.813 -16.538  1.00  0.00    -0.003 A 
ATOM      2  C   UNL     1     -16.557  -3.277 -17.710  1.00  0.00     0.119 A 
ATOM      3  C   UNL     1     -15.819  -3.920 -18.708  1.00  0.00     0.051 A 
ATOM      4  C   UNL     1     -14.449  -4.212 -18.542  1.00  0.00    -0.027 A 
ATOM      5  C   UNL     1     -13.813  -3.794 -17.346  1.00  0.00     0.022 A 
ATOM      6  C   UNL     1     -14.545  -3.107 -16.365  1.00  0.00     0.020 A 
ATOM      7  C   UNL     1     -12.385  -4.127 -17.103  1.00  0.00     0.163 C 
ATOM      8  O   UNL     1     -11.763  -3.591 -16.146  1.00  0.00    -0.294 OA
ATOM      9  C   UNL     1     -11.645  -5.092 -17.992  1.00  0.00     0.086 C 
ATOM     10  C   UNL     1     -12.619  -5.883 -18.900  1.00  0.00     0.013 C 
ATOM     11  C   UNL     1     -13.603  -4.896 -19.636  1.00  0.00    -0.003 C 
ATOM     12  C   UNL     1     -14.467  -5.721 -20.628  1.00  0.00     0.012 C 
ATOM     13  C   UNL     1     -13.659  -6.487 -21.693  1.00  0.00     0.001 C 
ATOM     14  C   UNL     1     -12.215  -6.840 -21.303  1.00  0.00     0.007 C 
ATOM     15  C   UNL     1     -11.976  -7.047 -19.785  1.00  0.00    -0.031 C 
ATOM     16  C   UNL     1     -12.605  -8.410 -19.389  1.00  0.00     0.011 C 
ATOM     17  C   UNL     1     -10.443  -7.182 -19.583  1.00  0.00     0.011 C 
ATOM     18  C   UNL     1     -12.892  -3.748 -20.406  1.00  0.00     0.017 C 
ENDROOT
BRANCH   1  19
ATOM     19  C   UNL     1     -16.673  -2.079 -15.436  1.00  0.00     0.017 C 
ATOM     20  C   UNL     1     -17.479  -0.922 -16.039  1.00  0.00     0.012 C 
ATOM     21  C   UNL     1     -17.580  -3.006 -14.611  1.00  0.00     0.012 C 
ENDBRANCH   1  19
BRANCH   2  22
ATOM     22  O   UNL     1     -17.933  -3.146 -17.924  1.00  0.00    -0.508 OA
ATOM     23  H   UNL     1     -18.364  -3.066 -18.834  1.00  0.00     0.293 HD
ENDBRANCH   2  22
TORSDOF 2
ENDMDL
MODEL 6
REMARK VINA RESULT:    -5.074      1.361      6.588
REMARK INTER + INTRA:          -5.763
REMARK INTER:                  -5.525
REMARK INTRA:                  -0.239
REMARK UNBOUND:                -0.244
REMARK SMILES CC(C)c1cc2c(cc1O)[C@]1(C)CCCC(C)(C)[C@H]1CC2=O
REMARK SMILES IDX 4 1 9 2 8 3 7 4 6 5 5 6 21 7 22 8 20 9 19 10 11 11 13 12
REMARK SMILES IDX 14 13 15 14 16 15 17 16 18 17 12 18 2 19 1 20 3 21 10 22
REMARK H PARENT 10 23
REMARK Flexibility Score: inf
ROOT
ATOM      1  C   UNL     1     -13.479  -6.432 -18.840  1.00  0.00    -0.003 A 
ATOM      2  C   UNL     1     -14.626  -6.891 -18.148  1.00  0.00     0.119 A 
ATOM      3  C   UNL     1     -15.490  -5.975 -17.541  1.00  0.00     0.051 A 
ATOM      4  C   UNL     1     -15.309  -4.583 -17.680  1.00  0.00    -0.027 A 
ATOM      5  C   UNL     1     -14.190  -4.121 -18.417  1.00  0.00     0.022 A 
ATOM      6  C   UNL     1     -13.297  -5.043 -18.986  1.00  0.00     0.020 A 
ATOM      7  C   UNL     1     -13.988  -2.666 -18.636  1.00  0.00     0.163 C 
ATOM      8  O   UNL     1     -12.899  -2.241 -19.112  1.00  0.00    -0.294 OA
ATOM      9  C   UNL     1     -15.059  -1.666 -18.286  1.00  0.00     0.086 C 
ATOM     10  C   UNL     1     -16.416  -2.364 -18.022  1.00  0.00     0.013 C 
ATOM     11  C   UNL     1     -16.231  -3.549 -17.000  1.00  0.00    -0.003 C 
ATOM     12  C   UNL     1     -17.633  -4.129 -16.669  1.00  0.00     0.012 C 
ATOM     13  C   UNL     1     -18.616  -3.111 -16.059  1.00  0.00     0.001 C 
ATOM     14  C   UNL     1     -18.350  -1.639 -16.412  1.00  0.00     0.007 C 
ATOM     15  C   UNL     1     -17.672  -1.405 -17.787  1.00  0.00    -0.031 C 
ATOM     16  C   UNL     1     -18.735  -1.661 -18.888  1.00  0.00     0.011 C 
ATOM     17  C   UNL     1     -17.303   0.101 -17.858  1.00  0.00     0.011 C 
ATOM     18  C   UNL     1     -15.518  -3.143 -15.680  1.00  0.00     0.017 C 
ENDROOT
BRANCH   1  19
ATOM     19  C   UNL     1     -12.491  -7.397 -19.491  1.00  0.00     0.017 C 
ATOM     20  C   UNL     1     -12.668  -7.378 -21.015  1.00  0.00     0.012 C 
ATOM     21  C   UNL     1     -11.030  -7.113 -19.107  1.00  0.00     0.012 C 
ENDBRANCH   1  19
BRANCH   2  22
ATOM     22  O   UNL     1     -14.966  -8.244 -18.051  1.00  0.00    -0.508 OA
ATOM     23  H   UNL     1     -14.505  -8.905 -17.442  1.00  0.00     0.293 HD
ENDBRANCH   2  22
TORSDOF 2
ENDMDL
MODEL 7
REMARK VINA RESULT:    -4.970      2.970      5.089
REMARK INTER + INTRA:          -5.650
REMARK INTER:                  -5.411
REMARK INTRA:                  -0.239
REMARK UNBOUND:                -0.244
REMARK SMILES CC(C)c1cc2c(cc1O)[C@]1(C)CCCC(C)(C)[C@H]1CC2=O
REMARK SMILES IDX 4 1 9 2 8 3 7 4 6 5 5 6 21 7 22 8 20 9 19 10 11 11 13 12
REMARK SMILES IDX 14 13 15 14 16 15 17 16 18 17 12 18 2 19 1 20 3 21 10 22
REMARK H PARENT 10 23
REMARK Flexibility Score: inf
ROOT
ATOM      1  C   UNL     1     -11.158  -1.237 -19.774  1.00  0.00    -0.003 A 
ATOM      2  C   UNL     1     -11.823  -1.779 -20.901  1.00  0.00     0.119 A 
ATOM      3  C   UNL     1     -12.444  -3.028 -20.812  1.00  0.00     0.051 A 
ATOM      4  C   UNL     1     -12.515  -3.734 -19.593  1.00  0.00    -0.027 A 
ATOM      5  C   UNL     1     -11.894  -3.169 -18.452  1.00  0.00     0.022 A 
ATOM      6  C   UNL     1     -11.231  -1.936 -18.553  1.00  0.00     0.020 A 
ATOM      7  C   UNL     1     -11.990  -3.849 -17.134  1.00  0.00     0.163 C 
ATOM      8  O   UNL     1     -11.278  -3.462 -16.168  1.00  0.00    -0.294 OA
ATOM      9  C   UNL     1     -12.918  -5.017 -16.923  1.00  0.00     0.086 C 
ATOM     10  C   UNL     1     -13.928  -5.153 -18.089  1.00  0.00     0.013 C 
ATOM     11  C   UNL     1     -13.171  -5.126 -19.472  1.00  0.00    -0.003 C 
ATOM     12  C   UNL     1     -14.206  -5.397 -20.597  1.00  0.00     0.012 C 
ATOM     13  C   UNL     1     -14.944  -6.743 -20.474  1.00  0.00     0.001 C 
ATOM     14  C   UNL     1     -15.043  -7.318 -19.052  1.00  0.00     0.007 C 
ATOM     15  C   UNL     1     -15.064  -6.261 -17.916  1.00  0.00    -0.031 C 
ATOM     16  C   UNL     1     -16.460  -5.582 -17.930  1.00  0.00     0.011 C 
ATOM     17  C   UNL     1     -14.953  -7.036 -16.576  1.00  0.00     0.011 C 
ATOM     18  C   UNL     1     -12.011  -6.155 -19.581  1.00  0.00     0.017 C 
ENDROOT
BRANCH   1  19
ATOM     19  C   UNL     1     -10.440   0.109 -19.834  1.00  0.00     0.017 C 
ATOM     20  C   UNL     1     -11.266   1.176 -19.105  1.00  0.00     0.012 C 
ATOM     21  C   UNL     1      -9.008   0.052 -19.276  1.00  0.00     0.012 C 
ENDBRANCH   1  19
BRANCH   2  22
ATOM     22  O   UNL     1     -11.916  -1.110 -22.125  1.00  0.00    -0.508 OA
ATOM     23  H   UNL     1     -11.222  -1.160 -22.857  1.00  0.00     0.293 HD
ENDBRANCH   2  22
TORSDOF 2
ENDMDL
MODEL 8
REMARK VINA RESULT:    -4.926      1.931      4.298
REMARK INTER + INTRA:          -5.602
REMARK INTER:                  -5.742
REMARK INTRA:                   0.140
REMARK UNBOUND:                -0.244
REMARK SMILES CC(C)c1cc2c(cc1O)[C@]1(C)CCCC(C)(C)[C@H]1CC2=O
REMARK SMILES IDX 4 1 9 2 8 3 7 4 6 5 5 6 21 7 22 8 20 9 19 10 11 11 13 12
REMARK SMILES IDX 14 13 15 14 16 15 17 16 18 17 12 18 2 19 1 20 3 21 10 22
REMARK H PARENT 10 23
REMARK Flexibility Score: inf
ROOT
ATOM      1  C   UNL     1     -16.871  -6.190 -16.598  1.00  0.00    -0.003 A 
ATOM      2  C   UNL     1     -15.799  -7.073 -16.874  1.00  0.00     0.119 A 
ATOM      3  C   UNL     1     -14.700  -6.630 -17.615  1.00  0.00     0.051 A 
ATOM      4  C   UNL     1     -14.577  -5.285 -18.021  1.00  0.00    -0.027 A 
ATOM      5  C   UNL     1     -15.626  -4.387 -17.701  1.00  0.00     0.022 A 
ATOM      6  C   UNL     1     -16.750  -4.845 -16.997  1.00  0.00     0.020 A 
ATOM      7  C   UNL     1     -15.515  -2.949 -18.060  1.00  0.00     0.163 C 
ATOM      8  O   UNL     1     -16.518  -2.192 -17.961  1.00  0.00    -0.294 OA
ATOM      9  C   UNL     1     -14.220  -2.366 -18.561  1.00  0.00     0.086 C 
ATOM     10  C   UNL     1     -13.035  -3.335 -18.322  1.00  0.00     0.013 C 
ATOM     11  C   UNL     1     -13.388  -4.773 -18.863  1.00  0.00    -0.003 C 
ATOM     12  C   UNL     1     -12.129  -5.669 -18.720  1.00  0.00     0.012 C 
ATOM     13  C   UNL     1     -10.891  -5.155 -19.481  1.00  0.00     0.001 C 
ATOM     14  C   UNL     1     -10.851  -3.639 -19.734  1.00  0.00     0.007 C 
ATOM     15  C   UNL     1     -11.581  -2.776 -18.672  1.00  0.00    -0.031 C 
ATOM     16  C   UNL     1     -10.705  -2.764 -17.390  1.00  0.00     0.011 C 
ATOM     17  C   UNL     1     -11.607  -1.321 -19.213  1.00  0.00     0.011 C 
ATOM     18  C   UNL     1     -13.871  -4.795 -20.340  1.00  0.00     0.017 C 
ENDROOT
BRANCH   1  19
ATOM     19  C   UNL     1     -18.105  -6.640 -15.819  1.00  0.00     0.017 C 
ATOM     20  C   UNL     1     -17.682  -7.271 -14.487  1.00  0.00     0.012 C 
ATOM     21  C   UNL     1     -19.118  -5.506 -15.590  1.00  0.00     0.012 C 
ENDBRANCH   1  19
BRANCH   2  22
ATOM     22  O   UNL     1     -15.764  -8.394 -16.416  1.00  0.00    -0.508 OA
ATOM     23  H   UNL     1     -14.941  -8.980 -16.425  1.00  0.00     0.293 HD
ENDBRANCH   2  22
TORSDOF 2
ENDMDL
MODEL 9
REMARK VINA RESULT:    -4.782      3.122      5.147
REMARK INTER + INTRA:          -5.446
REMARK INTER:                  -5.207
REMARK INTRA:                  -0.239
REMARK UNBOUND:                -0.244
REMARK SMILES CC(C)c1cc2c(cc1O)[C@]1(C)CCCC(C)(C)[C@H]1CC2=O
REMARK SMILES IDX 4 1 9 2 8 3 7 4 6 5 5 6 21 7 22 8 20 9 19 10 11 11 13 12
REMARK SMILES IDX 14 13 15 14 16 15 17 16 18 17 12 18 2 19 1 20 3 21 10 22
REMARK H PARENT 10 23
REMARK Flexibility Score: inf
ROOT
ATOM      1  C   UNL     1     -10.653  -0.606 -20.078  1.00  0.00    -0.003 A 
ATOM      2  C   UNL     1      -9.790  -1.692 -20.361  1.00  0.00     0.119 A 
ATOM      3  C   UNL     1     -10.178  -2.996 -20.039  1.00  0.00     0.051 A 
ATOM      4  C   UNL     1     -11.459  -3.280 -19.523  1.00  0.00    -0.027 A 
ATOM      5  C   UNL     1     -12.344  -2.198 -19.287  1.00  0.00     0.022 A 
ATOM      6  C   UNL     1     -11.935  -0.885 -19.567  1.00  0.00     0.020 A 
ATOM      7  C   UNL     1     -13.723  -2.453 -18.796  1.00  0.00     0.163 C 
ATOM      8  O   UNL     1     -14.441  -1.496 -18.396  1.00  0.00    -0.294 OA
ATOM      9  C   UNL     1     -14.291  -3.848 -18.748  1.00  0.00     0.086 C 
ATOM     10  C   UNL     1     -13.418  -4.840 -19.557  1.00  0.00     0.013 C 
ATOM     11  C   UNL     1     -11.905  -4.706 -19.134  1.00  0.00    -0.003 C 
ATOM     12  C   UNL     1     -11.095  -5.805 -19.872  1.00  0.00     0.012 C 
ATOM     13  C   UNL     1     -11.556  -7.244 -19.575  1.00  0.00     0.001 C 
ATOM     14  C   UNL     1     -13.023  -7.395 -19.142  1.00  0.00     0.007 C 
ATOM     15  C   UNL     1     -13.989  -6.323 -19.711  1.00  0.00    -0.031 C 
ATOM     16  C   UNL     1     -14.215  -6.640 -21.214  1.00  0.00     0.011 C 
ATOM     17  C   UNL     1     -15.354  -6.522 -18.999  1.00  0.00     0.011 C 
ATOM     18  C   UNL     1     -11.661  -4.827 -17.604  1.00  0.00     0.017 C 
ENDROOT
BRANCH   1  19
ATOM     19  C   UNL     1     -10.258   0.837 -20.384  1.00  0.00     0.017 C 
ATOM     20  C   UNL     1     -10.618   1.183 -21.834  1.00  0.00     0.012 C 
ATOM     21  C   UNL     1     -10.881   1.851 -19.410  1.00  0.00     0.012 C 
ENDBRANCH   1  19
BRANCH   2  22
ATOM     22  O   UNL     1      -8.546  -1.535 -20.981  1.00  0.00    -0.508 OA
ATOM     23  H   UNL     1      -7.691  -1.969 -20.663  1.00  0.00     0.293 HD
ENDBRANCH   2  22
TORSDOF 2
ENDMDL
