MODEL 1
REMARK VINA RESULT:    -4.219      0.000      0.000
REMARK INTER + INTRA:          -4.343
REMARK INTER:                  -4.343
REMARK INTRA:                   0.000
REMARK UNBOUND:                 0.000
REMARK SMILES Oc1ccc2[nH]ccc2c1
REMARK SMILES IDX 3 1 4 2 5 3 9 4 8 5 7 6 6 7 10 8 2 9 1 11
REMARK H PARENT 6 10 1 12
REMARK Flexibility Score: inf
ROOT
ATOM      1  C   UNL     1      22.874  -5.737   8.982  1.00  0.00     0.048 A 
ATOM      2  C   UNL     1      23.250  -6.998   8.485  1.00  0.00     0.030 A 
ATOM      3  C   UNL     1      23.999  -7.038   7.310  1.00  0.00     0.046 A 
ATOM      4  C   UNL     1      24.364  -5.895   6.650  1.00  0.00     0.003 A 
ATOM      5  C   UNL     1      25.087  -6.272   5.541  1.00  0.00     0.028 A 
ATOM      6  C   UNL     1      25.125  -7.663   5.587  1.00  0.00     0.083 A 
ATOM      7  N   UNL     1      24.459  -8.125   6.670  1.00  0.00    -0.361 N 
ATOM      8  C   UNL     1      24.008  -4.631   7.115  1.00  0.00     0.056 A 
ATOM      9  C   UNL     1      23.250  -4.554   8.300  1.00  0.00     0.116 A 
ATOM     10  H   UNL     1      24.330  -9.124   6.947  1.00  0.00     0.166 HD
ENDROOT
BRANCH   9  11
ATOM     11  O   UNL     1      22.877  -3.305   8.792  1.00  0.00    -0.508 OA
ATOM     12  H   UNL     1      22.090  -3.200   9.423  1.00  0.00     0.293 HD
ENDBRANCH   9  11
TORSDOF 1
ENDMDL
MODEL 2
REMARK VINA RESULT:    -4.013      1.680      2.347
REMARK INTER + INTRA:          -4.130
REMARK INTER:                  -4.130
REMARK INTRA:                   0.000
REMARK UNBOUND:                 0.000
REMARK SMILES Oc1ccc2[nH]ccc2c1
REMARK SMILES IDX 3 1 4 2 5 3 9 4 8 5 7 6 6 7 10 8 2 9 1 11
REMARK H PARENT 6 10 1 12
REMARK Flexibility Score: inf
ROOT
ATOM      1  C   UNL     1      23.412  -5.222   8.251  1.00  0.00     0.048 A 
ATOM      2  C   UNL     1      23.976  -4.816   7.028  1.00  0.00     0.030 A 
ATOM      3  C   UNL     1      24.368  -5.809   6.132  1.00  0.00     0.046 A 
ATOM      4  C   UNL     1      24.215  -7.139   6.419  1.00  0.00     0.003 A 
ATOM      5  C   UNL     1      24.694  -7.851   5.341  1.00  0.00     0.028 A 
ATOM      6  C   UNL     1      25.125  -6.889   4.433  1.00  0.00     0.083 A 
ATOM      7  N   UNL     1      24.923  -5.644   4.920  1.00  0.00    -0.361 N 
ATOM      8  C   UNL     1      23.660  -7.574   7.620  1.00  0.00     0.056 A 
ATOM      9  C   UNL     1      23.253  -6.597   8.550  1.00  0.00     0.116 A 
ATOM     10  H   UNL     1      25.154  -4.741   4.448  1.00  0.00     0.166 HD
ENDROOT
BRANCH   9  11
ATOM     11  O   UNL     1      22.694  -6.998   9.761  1.00  0.00    -0.508 OA
ATOM     12  H   UNL     1      22.973  -6.572  10.638  1.00  0.00     0.293 HD
ENDBRANCH   9  11
TORSDOF 1
ENDMDL
MODEL 3
REMARK VINA RESULT:    -3.912      0.959      1.044
REMARK INTER + INTRA:          -4.027
REMARK INTER:                  -4.027
REMARK INTRA:                   0.000
REMARK UNBOUND:                 0.000
REMARK SMILES Oc1ccc2[nH]ccc2c1
REMARK SMILES IDX 3 1 4 2 5 3 9 4 8 5 7 6 6 7 10 8 2 9 1 11
REMARK H PARENT 6 10 1 12
REMARK Flexibility Score: inf
ROOT
ATOM      1  C   UNL     1      22.708  -4.738   8.500  1.00  0.00     0.048 A 
ATOM      2  C   UNL     1      23.057  -6.081   8.734  1.00  0.00     0.030 A 
ATOM      3  C   UNL     1      23.882  -6.711   7.804  1.00  0.00     0.046 A 
ATOM      4  C   UNL     1      24.345  -6.057   6.694  1.00  0.00     0.003 A 
ATOM      5  C   UNL     1      25.124  -6.946   5.987  1.00  0.00     0.028 A 
ATOM      6  C   UNL     1      25.091  -8.125   6.725  1.00  0.00     0.083 A 
ATOM      7  N   UNL     1      24.332  -7.975   7.834  1.00  0.00    -0.361 N 
ATOM      8  C   UNL     1      24.018  -4.728   6.433  1.00  0.00     0.056 A 
ATOM      9  C   UNL     1      23.186  -4.061   7.352  1.00  0.00     0.116 A 
ATOM     10  H   UNL     1      24.137  -8.699   8.562  1.00  0.00     0.166 HD
ENDROOT
BRANCH   9  11
ATOM     11  O   UNL     1      22.840  -2.731   7.121  1.00  0.00    -0.508 OA
ATOM     12  H   UNL     1      22.020  -2.486   6.577  1.00  0.00     0.293 HD
ENDBRANCH   9  11
TORSDOF 1
ENDMDL
MODEL 4
REMARK VINA RESULT:    -3.875      2.529      3.518
REMARK INTER + INTRA:          -3.989
REMARK INTER:                  -3.989
REMARK INTRA:                   0.000
REMARK UNBOUND:                 0.000
REMARK SMILES Oc1ccc2[nH]ccc2c1
REMARK SMILES IDX 3 1 4 2 5 3 9 4 8 5 7 6 6 7 10 8 2 9 1 11
REMARK H PARENT 6 10 1 12
REMARK Flexibility Score: inf
ROOT
ATOM      1  C   UNL     1      24.378  -5.964   6.855  1.00  0.00     0.048 A 
ATOM      2  C   UNL     1      24.476  -5.293   5.622  1.00  0.00     0.030 A 
ATOM      3  C   UNL     1      24.647  -6.063   4.473  1.00  0.00     0.046 A 
ATOM      4  C   UNL     1      24.719  -7.429   4.527  1.00  0.00     0.003 A 
ATOM      5  C   UNL     1      24.888  -7.884   3.238  1.00  0.00     0.028 A 
ATOM      6  C   UNL     1      24.910  -6.738   2.448  1.00  0.00     0.083 A 
ATOM      7  N   UNL     1      24.762  -5.629   3.208  1.00  0.00    -0.361 N 
ATOM      8  C   UNL     1      24.626  -8.125   5.730  1.00  0.00     0.056 A 
ATOM      9  C   UNL     1      24.453  -7.377   6.912  1.00  0.00     0.116 A 
ATOM     10  H   UNL     1      24.743  -4.639   2.874  1.00  0.00     0.166 HD
ENDROOT
BRANCH   9  11
ATOM     11  O   UNL     1      24.356  -8.042   8.132  1.00  0.00    -0.508 OA
ATOM     12  H   UNL     1      23.518  -7.984   8.700  1.00  0.00     0.293 HD
ENDBRANCH   9  11
TORSDOF 1
ENDMDL
MODEL 5
REMARK VINA RESULT:    -3.579      2.087      3.386
REMARK INTER + INTRA:          -3.684
REMARK INTER:                  -3.684
REMARK INTRA:                   0.000
REMARK UNBOUND:                 0.000
REMARK SMILES Oc1ccc2[nH]ccc2c1
REMARK SMILES IDX 3 1 4 2 5 3 9 4 8 5 7 6 6 7 10 8 2 9 1 11
REMARK H PARENT 6 10 1 12
REMARK Flexibility Score: inf
ROOT
ATOM      1  C   UNL     1      24.877  -7.475   5.455  1.00  0.00     0.048 A 
ATOM      2  C   UNL     1      24.465  -8.055   6.668  1.00  0.00     0.030 A 
ATOM      3  C   UNL     1      23.894  -7.220   7.628  1.00  0.00     0.046 A 
ATOM      4  C   UNL     1      23.734  -5.878   7.410  1.00  0.00     0.003 A 
ATOM      5  C   UNL     1      23.148  -5.345   8.538  1.00  0.00     0.028 A 
ATOM      6  C   UNL     1      22.980  -6.422   9.403  1.00  0.00     0.083 A 
ATOM      7  N   UNL     1      23.437  -7.565   8.842  1.00  0.00    -0.361 N 
ATOM      8  C   UNL     1      24.131  -5.273   6.221  1.00  0.00     0.056 A 
ATOM      9  C   UNL     1      24.712  -6.086   5.229  1.00  0.00     0.116 A 
ATOM     10  H   UNL     1      23.433  -8.518   9.270  1.00  0.00     0.166 HD
ENDROOT
BRANCH   9  11
ATOM     11  O   UNL     1      25.121  -5.512   4.027  1.00  0.00    -0.508 OA
ATOM     12  H   UNL     1      26.102  -5.365   3.819  1.00  0.00     0.293 HD
ENDBRANCH   9  11
TORSDOF 1
ENDMDL
MODEL 6
REMARK VINA RESULT:    -3.493      2.544      3.576
REMARK INTER + INTRA:          -3.595
REMARK INTER:                  -3.595
REMARK INTRA:                   0.000
REMARK UNBOUND:                 0.000
REMARK SMILES Oc1ccc2[nH]ccc2c1
REMARK SMILES IDX 3 1 4 2 5 3 9 4 8 5 7 6 6 7 10 8 2 9 1 11
REMARK H PARENT 6 10 1 12
REMARK Flexibility Score: inf
ROOT
ATOM      1  C   UNL     1      23.867  -7.891   7.496  1.00  0.00     0.048 A 
ATOM      2  C   UNL     1      23.236  -7.075   8.453  1.00  0.00     0.030 A 
ATOM      3  C   UNL     1      23.258  -5.696   8.249  1.00  0.00     0.046 A 
ATOM      4  C   UNL     1      23.869  -5.140   7.157  1.00  0.00     0.003 A 
ATOM      5  C   UNL     1      23.714  -3.775   7.249  1.00  0.00     0.028 A 
ATOM      6  C   UNL     1      22.997  -3.569   8.425  1.00  0.00     0.083 A 
ATOM      7  N   UNL     1      22.721  -4.746   9.030  1.00  0.00    -0.361 N 
ATOM      8  C   UNL     1      24.502  -5.919   6.191  1.00  0.00     0.056 A 
ATOM      9  C   UNL     1      24.500  -7.317   6.367  1.00  0.00     0.116 A 
ATOM     10  H   UNL     1      22.198  -4.883   9.924  1.00  0.00     0.166 HD
ENDROOT
BRANCH   9  11
ATOM     11  O   UNL     1      25.125  -8.125   5.419  1.00  0.00    -0.508 OA
ATOM     12  H   UNL     1      25.045  -7.933   4.427  1.00  0.00     0.293 HD
ENDBRANCH   9  11
TORSDOF 1
ENDMDL
MODEL 7
REMARK VINA RESULT:    -3.403      2.585      4.003
REMARK INTER + INTRA:          -3.502
REMARK INTER:                  -3.502
REMARK INTRA:                   0.000
REMARK UNBOUND:                 0.000
REMARK SMILES Oc1ccc2[nH]ccc2c1
REMARK SMILES IDX 3 1 4 2 5 3 9 4 8 5 7 6 6 7 10 8 2 9 1 11
REMARK H PARENT 6 10 1 12
REMARK Flexibility Score: inf
ROOT
ATOM      1  C   UNL     1      24.768  -5.816   5.429  1.00  0.00     0.048 A 
ATOM      2  C   UNL     1      24.268  -4.910   6.381  1.00  0.00     0.030 A 
ATOM      3  C   UNL     1      23.639  -5.432   7.510  1.00  0.00     0.046 A 
ATOM      4  C   UNL     1      23.505  -6.782   7.699  1.00  0.00     0.003 A 
ATOM      5  C   UNL     1      22.847  -6.967   8.895  1.00  0.00     0.028 A 
ATOM      6  C   UNL     1      22.610  -5.685   9.382  1.00  0.00     0.083 A 
ATOM      7  N   UNL     1      23.096  -4.752   8.532  1.00  0.00    -0.361 N 
ATOM      8  C   UNL     1      23.989  -7.706   6.776  1.00  0.00     0.056 A 
ATOM      9  C   UNL     1      24.630  -7.212   5.622  1.00  0.00     0.116 A 
ATOM     10  H   UNL     1      23.055  -3.715   8.651  1.00  0.00     0.166 HD
ENDROOT
BRANCH   9  11
ATOM     11  O   UNL     1      25.125  -8.110   4.679  1.00  0.00    -0.508 OA
ATOM     12  H   UNL     1      24.724  -9.034   4.569  1.00  0.00     0.293 HD
ENDBRANCH   9  11
TORSDOF 1
ENDMDL
MODEL 8
REMARK VINA RESULT:    -2.822      1.133      2.391
REMARK INTER + INTRA:          -2.904
REMARK INTER:                  -2.904
REMARK INTRA:                   0.000
REMARK UNBOUND:                 0.000
REMARK SMILES Oc1ccc2[nH]ccc2c1
REMARK SMILES IDX 3 1 4 2 5 3 9 4 8 5 7 6 6 7 10 8 2 9 1 11
REMARK H PARENT 6 10 1 12
REMARK Flexibility Score: inf
ROOT
ATOM      1  C   UNL     1      24.244  -4.154   6.116  1.00  0.00     0.048 A 
ATOM      2  C   UNL     1      24.761  -5.461   6.048  1.00  0.00     0.030 A 
ATOM      3  C   UNL     1      24.362  -6.371   7.025  1.00  0.00     0.046 A 
ATOM      4  C   UNL     1      23.494  -6.018   8.025  1.00  0.00     0.003 A 
ATOM      5  C   UNL     1      23.304  -7.130   8.816  1.00  0.00     0.028 A 
ATOM      6  C   UNL     1      24.088  -8.125   8.239  1.00  0.00     0.083 A 
ATOM      7  N   UNL     1      24.731  -7.656   7.146  1.00  0.00    -0.361 N 
ATOM      8  C   UNL     1      22.964  -4.734   8.120  1.00  0.00     0.056 A 
ATOM      9  C   UNL     1      23.347  -3.788   7.149  1.00  0.00     0.116 A 
ATOM     10  H   UNL     1      25.382  -8.188   6.525  1.00  0.00     0.166 HD
ENDROOT
BRANCH   9  11
ATOM     11  O   UNL     1      22.835  -2.495   7.216  1.00  0.00    -0.508 OA
ATOM     12  H   UNL     1      23.442  -1.693   7.344  1.00  0.00     0.293 HD
ENDBRANCH   9  11
TORSDOF 1
ENDMDL
