MODEL 1
REMARK VINA RESULT:    56.562      0.000      0.000
REMARK INTER + INTRA:          77.046
REMARK INTER:                  78.055
REMARK INTRA:                  -1.009
REMARK UNBOUND:                -1.009
REMARK SMILES O=C([O-])[C@@H]1O[C@@H](Oc2cc3oc(-c4ccccc4)cc(=O)c3c(O)c2O)[C@H](O)[C@H](O)[C@@H]1O
REMARK SMILES IDX 7 1 6 2 4 3 31 4 5 5 29 6 27 7 2 8 1 9 3 10 32 11 30 13
REMARK SMILES IDX 28 15 8 17 25 18 9 19 23 20 10 21 22 22 11 23 20 24 12 25
REMARK SMILES IDX 19 26 21 27 26 28 24 30 13 32 14 33 18 34 15 35 17 36 16 37
REMARK H PARENT 32 12 30 14 28 16 26 29 24 31
REMARK Flexibility Score: inf
ROOT
ATOM      1  O   UNL     1      15.542  49.145  58.995  1.00  0.00    -0.458 OA
ENDROOT
BRANCH   1   2
ATOM      2  C   UNL     1      16.410  49.831  59.908  1.00  0.00     0.339 C 
ATOM      3  C   UNL     1      14.599  50.691  61.132  1.00  0.00     0.199 C 
ATOM      4  C   UNL     1      14.874  52.154  60.714  1.00  0.00     0.180 C 
ATOM      5  O   UNL     1      15.804  49.943  61.190  1.00  0.00    -0.328 OA
ATOM      6  C   UNL     1      15.567  52.145  59.335  1.00  0.00     0.181 C 
ATOM      7  C   UNL     1      16.796  51.210  59.337  1.00  0.00     0.214 C 
BRANCH   3   8
ATOM      8  C   UNL     1      13.910  50.610  62.466  1.00  0.00     0.073 C 
ATOM      9  O   UNL     1      13.637  49.495  62.984  1.00  0.00    -0.547 OA
ATOM     10  O   UNL     1      13.484  51.774  63.096  1.00  0.00    -0.547 OA
ENDBRANCH   3   8
BRANCH   4  11
ATOM     11  O   UNL     1      15.692  52.782  61.672  1.00  0.00    -0.387 OA
ATOM     12  H   UNL     1      15.814  53.722  61.383  1.00  0.00     0.211 HD
ENDBRANCH   4  11
BRANCH   6  13
ATOM     13  O   UNL     1      15.894  53.443  58.900  1.00  0.00    -0.387 OA
ATOM     14  H   UNL     1      16.870  53.575  59.017  1.00  0.00     0.211 HD
ENDBRANCH   6  13
BRANCH   7  15
ATOM     15  O   UNL     1      17.832  51.752  60.119  1.00  0.00    -0.384 OA
ATOM     16  H   UNL     1      18.061  52.637  59.734  1.00  0.00     0.211 HD
ENDBRANCH   7  15
ENDBRANCH   1   2
BRANCH   1  17
ATOM     17  C   UNL     1      15.797  47.918  58.358  1.00  0.00     0.172 A 
ATOM     18  C   UNL     1      14.744  47.001  58.262  1.00  0.00     0.201 A 
ATOM     19  C   UNL     1      17.055  47.579  57.839  1.00  0.00     0.098 A 
ATOM     20  C   UNL     1      14.921  45.760  57.618  1.00  0.00     0.176 A 
ATOM     21  C   UNL     1      17.262  46.344  57.225  1.00  0.00     0.146 A 
ATOM     22  C   UNL     1      16.209  45.401  57.124  1.00  0.00     0.111 A 
ATOM     23  O   UNL     1      18.471  46.071  56.746  1.00  0.00    -0.456 OA
ATOM     24  C   UNL     1      16.533  44.142  56.560  1.00  0.00     0.197 A 
ATOM     25  C   UNL     1      18.787  44.916  56.169  1.00  0.00     0.138 A 
ATOM     26  C   UNL     1      17.817  43.912  56.065  1.00  0.00     0.100 A 
ATOM     27  O   UNL     1      15.701  43.199  56.513  1.00  0.00    -0.289 OA
BRANCH  18  28
ATOM     28  O   UNL     1      13.503  47.356  58.795  1.00  0.00    -0.502 OA
ATOM     29  H   UNL     1      13.407  47.848  59.673  1.00  0.00     0.293 HD
ENDBRANCH  18  28
BRANCH  20  30
ATOM     30  O   UNL     1      13.790  44.950  57.471  1.00  0.00    -0.504 OA
ATOM     31  H   UNL     1      12.856  45.208  57.753  1.00  0.00     0.293 HD
ENDBRANCH  20  30
BRANCH  25  32
ATOM     32  C   UNL     1      20.164  44.734  55.648  1.00  0.00     0.017 A 
ATOM     33  C   UNL     1      20.547  45.213  54.379  1.00  0.00     0.012 A 
ATOM     34  C   UNL     1      21.112  44.045  56.426  1.00  0.00     0.012 A 
ATOM     35  C   UNL     1      21.849  45.014  53.911  1.00  0.00     0.001 A 
ATOM     36  C   UNL     1      22.414  43.854  55.956  1.00  0.00     0.001 A 
ATOM     37  C   UNL     1      22.783  44.337  54.700  1.00  0.00     0.000 A 
ENDBRANCH  25  32
ENDBRANCH   1  17
TORSDOF 9
ENDMDL
MODEL 2
REMARK VINA RESULT:    56.574      1.125      2.264
REMARK INTER + INTRA:          77.062
REMARK INTER:                  78.014
REMARK INTRA:                  -0.953
REMARK UNBOUND:                -1.009
REMARK SMILES O=C([O-])[C@@H]1O[C@@H](Oc2cc3oc(-c4ccccc4)cc(=O)c3c(O)c2O)[C@H](O)[C@H](O)[C@@H]1O
REMARK SMILES IDX 7 1 6 2 4 3 31 4 5 5 29 6 27 7 2 8 1 9 3 10 32 11 30 13
REMARK SMILES IDX 28 15 8 17 25 18 9 19 23 20 10 21 22 22 11 23 20 24 12 25
REMARK SMILES IDX 19 26 21 27 26 28 24 30 13 32 14 33 18 34 15 35 17 36 16 37
REMARK H PARENT 32 12 30 14 28 16 26 29 24 31
REMARK Flexibility Score: inf
ROOT
ATOM      1  O   UNL     1      16.378  48.958  59.554  1.00  0.00    -0.458 OA
ENDROOT
BRANCH   1   2
ATOM      2  C   UNL     1      16.103  50.314  59.176  1.00  0.00     0.339 C 
ATOM      3  C   UNL     1      17.342  51.168  60.980  1.00  0.00     0.199 C 
ATOM      4  C   UNL     1      16.100  51.750  61.695  1.00  0.00     0.180 C 
ATOM      5  O   UNL     1      17.166  51.172  59.572  1.00  0.00    -0.328 OA
ATOM      6  C   UNL     1      14.871  50.902  61.305  1.00  0.00     0.181 C 
ATOM      7  C   UNL     1      14.755  50.766  59.771  1.00  0.00     0.214 C 
BRANCH   3   8
ATOM      8  C   UNL     1      18.592  51.932  61.318  1.00  0.00     0.073 C 
ATOM      9  O   UNL     1      19.675  51.691  60.724  1.00  0.00    -0.547 OA
ATOM     10  O   UNL     1      18.579  52.851  62.362  1.00  0.00    -0.547 OA
ENDBRANCH   3   8
BRANCH   4  11
ATOM     11  O   UNL     1      15.913  53.092  61.316  1.00  0.00    -0.387 OA
ATOM     12  H   UNL     1      15.052  53.141  60.827  1.00  0.00     0.211 HD
ENDBRANCH   4  11
BRANCH   6  13
ATOM     13  O   UNL     1      13.685  51.395  61.881  1.00  0.00    -0.387 OA
ATOM     14  H   UNL     1      13.561  50.958  62.762  1.00  0.00     0.211 HD
ENDBRANCH   6  13
BRANCH   7  15
ATOM     15  O   UNL     1      14.390  51.993  59.189  1.00  0.00    -0.384 OA
ATOM     16  H   UNL     1      14.593  51.932  58.220  1.00  0.00     0.211 HD
ENDBRANCH   7  15
ENDBRANCH   1   2
BRANCH   1  17
ATOM     17  C   UNL     1      16.478  47.851  58.693  1.00  0.00     0.172 A 
ATOM     18  C   UNL     1      15.306  47.145  58.398  1.00  0.00     0.201 A 
ATOM     19  C   UNL     1      17.695  47.426  58.142  1.00  0.00     0.098 A 
ATOM     20  C   UNL     1      15.327  46.039  57.526  1.00  0.00     0.176 A 
ATOM     21  C   UNL     1      17.746  46.314  57.300  1.00  0.00     0.146 A 
ATOM     22  C   UNL     1      16.569  45.583  56.996  1.00  0.00     0.111 A 
ATOM     23  O   UNL     1      18.922  45.952  56.800  1.00  0.00    -0.456 OA
ATOM     24  C   UNL     1      16.729  44.421  56.202  1.00  0.00     0.197 A 
ATOM     25  C   UNL     1      19.090  44.894  56.014  1.00  0.00     0.138 A 
ATOM     26  C   UNL     1      17.986  44.092  55.695  1.00  0.00     0.100 A 
ATOM     27  O   UNL     1      15.769  43.646  55.954  1.00  0.00    -0.289 OA
BRANCH  18  28
ATOM     28  O   UNL     1      14.107  47.581  58.967  1.00  0.00    -0.502 OA
ATOM     29  H   UNL     1      13.334  47.926  58.413  1.00  0.00     0.293 HD
ENDBRANCH  18  28
BRANCH  20  30
ATOM     30  O   UNL     1      14.095  45.459  57.202  1.00  0.00    -0.504 OA
ATOM     31  H   UNL     1      13.237  45.609  57.708  1.00  0.00     0.293 HD
ENDBRANCH  20  30
BRANCH  25  32
ATOM     32  C   UNL     1      20.448  44.603  55.494  1.00  0.00     0.017 A 
ATOM     33  C   UNL     1      20.856  45.017  54.210  1.00  0.00     0.012 A 
ATOM     34  C   UNL     1      21.350  43.871  56.288  1.00  0.00     0.012 A 
ATOM     35  C   UNL     1      22.139  44.715  53.744  1.00  0.00     0.001 A 
ATOM     36  C   UNL     1      22.634  43.578  55.820  1.00  0.00     0.001 A 
ATOM     37  C   UNL     1      23.028  43.998  54.548  1.00  0.00     0.000 A 
ENDBRANCH  25  32
ENDBRANCH   1  17
TORSDOF 9
ENDMDL
MODEL 3
REMARK VINA RESULT:    57.417      1.087      2.385
REMARK INTER + INTRA:          78.225
REMARK INTER:                  78.542
REMARK INTRA:                  -0.317
REMARK UNBOUND:                -1.009
REMARK SMILES O=C([O-])[C@@H]1O[C@@H](Oc2cc3oc(-c4ccccc4)cc(=O)c3c(O)c2O)[C@H](O)[C@H](O)[C@@H]1O
REMARK SMILES IDX 7 1 6 2 4 3 31 4 5 5 29 6 27 7 2 8 1 9 3 10 32 11 30 13
REMARK SMILES IDX 28 15 8 17 25 18 9 19 23 20 10 21 22 22 11 23 20 24 12 25
REMARK SMILES IDX 19 26 21 27 26 28 24 30 13 32 14 33 18 34 15 35 17 36 16 37
REMARK H PARENT 32 12 30 14 28 16 26 29 24 31
REMARK Flexibility Score: inf
ROOT
ATOM      1  O   UNL     1      15.937  49.648  58.378  1.00  0.00    -0.458 OA
ENDROOT
BRANCH   1   2
ATOM      2  C   UNL     1      15.158  50.063  59.508  1.00  0.00     0.339 C 
ATOM      3  C   UNL     1      15.523  52.337  59.046  1.00  0.00     0.199 C 
ATOM      4  C   UNL     1      16.378  52.566  60.314  1.00  0.00     0.180 C 
ATOM      5  O   UNL     1      14.551  51.326  59.264  1.00  0.00    -0.328 OA
ATOM      6  C   UNL     1      17.063  51.235  60.688  1.00  0.00     0.181 C 
ATOM      7  C   UNL     1      16.034  50.087  60.776  1.00  0.00     0.214 C 
BRANCH   3   8
ATOM      8  C   UNL     1      14.828  53.595  58.604  1.00  0.00     0.073 C 
ATOM      9  O   UNL     1      14.315  53.679  57.457  1.00  0.00    -0.547 OA
ATOM     10  O   UNL     1      14.830  54.712  59.432  1.00  0.00    -0.547 OA
ENDBRANCH   3   8
BRANCH   4  11
ATOM     11  O   UNL     1      15.561  53.014  61.369  1.00  0.00    -0.387 OA
ATOM     12  H   UNL     1      15.880  52.568  62.196  1.00  0.00     0.211 HD
ENDBRANCH   4  11
BRANCH   6  13
ATOM     13  O   UNL     1      17.829  51.347  61.863  1.00  0.00    -0.387 OA
ATOM     14  H   UNL     1      17.514  50.662  62.508  1.00  0.00     0.211 HD
ENDBRANCH   6  13
BRANCH   7  15
ATOM     15  O   UNL     1      15.202  50.249  61.899  1.00  0.00    -0.384 OA
ATOM     16  H   UNL     1      15.587  50.981  62.448  1.00  0.00     0.211 HD
ENDBRANCH   7  15
ENDBRANCH   1   2
BRANCH   1  17
ATOM     17  C   UNL     1      16.129  48.330  57.929  1.00  0.00     0.172 A 
ATOM     18  C   UNL     1      15.043  47.450  58.004  1.00  0.00     0.201 A 
ATOM     19  C   UNL     1      17.356  47.868  57.433  1.00  0.00     0.098 A 
ATOM     20  C   UNL     1      15.156  46.120  57.553  1.00  0.00     0.176 A 
ATOM     21  C   UNL     1      17.501  46.547  57.009  1.00  0.00     0.146 A 
ATOM     22  C   UNL     1      16.413  45.640  57.084  1.00  0.00     0.111 A 
ATOM     23  O   UNL     1      18.683  46.158  56.544  1.00  0.00    -0.456 OA
ATOM     24  C   UNL     1      16.675  44.299  56.711  1.00  0.00     0.197 A 
ATOM     25  C   UNL     1      18.940  44.917  56.143  1.00  0.00     0.138 A 
ATOM     26  C   UNL     1      17.933  43.947  56.221  1.00  0.00     0.100 A 
ATOM     27  O   UNL     1      15.811  43.392  56.832  1.00  0.00    -0.289 OA
BRANCH  18  28
ATOM     28  O   UNL     1      13.833  47.930  58.512  1.00  0.00    -0.502 OA
ATOM     29  H   UNL     1      13.262  47.398  59.155  1.00  0.00     0.293 HD
ENDBRANCH  18  28
BRANCH  20  30
ATOM     30  O   UNL     1      13.993  45.342  57.564  1.00  0.00    -0.504 OA
ATOM     31  H   UNL     1      13.158  45.561  58.085  1.00  0.00     0.293 HD
ENDBRANCH  20  30
BRANCH  25  32
ATOM     32  C   UNL     1      20.292  44.605  55.617  1.00  0.00     0.017 A 
ATOM     33  C   UNL     1      21.237  43.888  56.378  1.00  0.00     0.012 A 
ATOM     34  C   UNL     1      20.655  45.057  54.335  1.00  0.00     0.012 A 
ATOM     35  C   UNL     1      22.508  43.622  55.859  1.00  0.00     0.001 A 
ATOM     36  C   UNL     1      21.925  44.782  53.819  1.00  0.00     0.001 A 
ATOM     37  C   UNL     1      22.850  44.066  54.579  1.00  0.00     0.000 A 
ENDBRANCH  25  32
ENDBRANCH   1  17
TORSDOF 9
ENDMDL
MODEL 4
REMARK VINA RESULT:    58.692      2.636      4.421
REMARK INTER + INTRA:          79.985
REMARK INTER:                  80.988
REMARK INTRA:                  -1.004
REMARK UNBOUND:                -1.009
REMARK SMILES O=C([O-])[C@@H]1O[C@@H](Oc2cc3oc(-c4ccccc4)cc(=O)c3c(O)c2O)[C@H](O)[C@H](O)[C@@H]1O
REMARK SMILES IDX 7 1 6 2 4 3 31 4 5 5 29 6 27 7 2 8 1 9 3 10 32 11 30 13
REMARK SMILES IDX 28 15 8 17 25 18 9 19 23 20 10 21 22 22 11 23 20 24 12 25
REMARK SMILES IDX 19 26 21 27 26 28 24 30 13 32 14 33 18 34 15 35 17 36 16 37
REMARK H PARENT 32 12 30 14 28 16 26 29 24 31
REMARK Flexibility Score: inf
ROOT
ATOM      1  O   UNL     1      16.633  49.619  58.475  1.00  0.00    -0.458 OA
ENDROOT
BRANCH   1   2
ATOM      2  C   UNL     1      15.658  49.903  59.488  1.00  0.00     0.339 C 
ATOM      3  C   UNL     1      15.694  52.203  59.012  1.00  0.00     0.199 C 
ATOM      4  C   UNL     1      16.332  52.582  60.369  1.00  0.00     0.180 C 
ATOM      5  O   UNL     1      14.885  51.044  59.136  1.00  0.00    -0.328 OA
ATOM      6  C   UNL     1      17.176  51.387  60.861  1.00  0.00     0.181 C 
ATOM      7  C   UNL     1      16.350  50.083  60.854  1.00  0.00     0.214 C 
BRANCH   3   8
ATOM      8  C   UNL     1      14.862  53.323  58.453  1.00  0.00     0.073 C 
ATOM      9  O   UNL     1      14.212  53.172  57.385  1.00  0.00    -0.547 OA
ATOM     10  O   UNL     1      14.878  54.570  59.068  1.00  0.00    -0.547 OA
ENDBRANCH   3   8
BRANCH   4  11
ATOM     11  O   UNL     1      15.325  52.892  61.303  1.00  0.00    -0.387 OA
ATOM     12  H   UNL     1      15.204  53.876  61.286  1.00  0.00     0.211 HD
ENDBRANCH   4  11
BRANCH   6  13
ATOM     13  O   UNL     1      17.758  51.634  62.119  1.00  0.00    -0.387 OA
ATOM     14  H   UNL     1      17.303  51.064  62.791  1.00  0.00     0.211 HD
ENDBRANCH   6  13
BRANCH   7  15
ATOM     15  O   UNL     1      15.368  50.110  61.860  1.00  0.00    -0.384 OA
ATOM     16  H   UNL     1      14.593  49.585  61.531  1.00  0.00     0.211 HD
ENDBRANCH   7  15
ENDBRANCH   1   2
BRANCH   1  17
ATOM     17  C   UNL     1      16.753  48.428  57.738  1.00  0.00     0.172 A 
ATOM     18  C   UNL     1      17.113  48.528  56.389  1.00  0.00     0.201 A 
ATOM     19  C   UNL     1      16.512  47.164  58.295  1.00  0.00     0.098 A 
ATOM     20  C   UNL     1      17.272  47.375  55.595  1.00  0.00     0.176 A 
ATOM     21  C   UNL     1      16.634  46.010  57.520  1.00  0.00     0.146 A 
ATOM     22  C   UNL     1      16.991  46.093  56.150  1.00  0.00     0.111 A 
ATOM     23  O   UNL     1      16.399  44.835  58.094  1.00  0.00    -0.456 OA
ATOM     24  C   UNL     1      17.009  44.878  55.422  1.00  0.00     0.197 A 
ATOM     25  C   UNL     1      16.456  43.677  57.443  1.00  0.00     0.138 A 
ATOM     26  C   UNL     1      16.763  43.671  56.077  1.00  0.00     0.100 A 
ATOM     27  O   UNL     1      17.216  44.847  54.181  1.00  0.00    -0.289 OA
BRANCH  18  28
ATOM     28  O   UNL     1      17.337  49.798  55.853  1.00  0.00    -0.502 OA
ATOM     29  H   UNL     1      16.884  50.629  56.210  1.00  0.00     0.293 HD
ENDBRANCH  18  28
BRANCH  20  30
ATOM     30  O   UNL     1      17.738  47.560  54.288  1.00  0.00    -0.504 OA
ATOM     31  H   UNL     1      17.361  47.102  53.473  1.00  0.00     0.293 HD
ENDBRANCH  20  30
BRANCH  25  32
ATOM     32  C   UNL     1      16.199  42.425  58.196  1.00  0.00     0.017 A 
ATOM     33  C   UNL     1      14.932  41.807  58.199  1.00  0.00     0.012 A 
ATOM     34  C   UNL     1      17.236  41.847  58.951  1.00  0.00     0.012 A 
ATOM     35  C   UNL     1      14.719  40.635  58.930  1.00  0.00     0.001 A 
ATOM     36  C   UNL     1      17.019  40.671  59.674  1.00  0.00     0.001 A 
ATOM     37  C   UNL     1      15.762  40.066  59.664  1.00  0.00     0.000 A 
ENDBRANCH  25  32
ENDBRANCH   1  17
TORSDOF 9
ENDMDL
MODEL 5
REMARK VINA RESULT:    59.406      2.758      9.058
REMARK INTER + INTRA:          80.970
REMARK INTER:                  79.124
REMARK INTRA:                   1.847
REMARK UNBOUND:                -1.009
REMARK SMILES O=C([O-])[C@@H]1O[C@@H](Oc2cc3oc(-c4ccccc4)cc(=O)c3c(O)c2O)[C@H](O)[C@H](O)[C@@H]1O
REMARK SMILES IDX 7 1 6 2 4 3 31 4 5 5 29 6 27 7 2 8 1 9 3 10 32 11 30 13
REMARK SMILES IDX 28 15 8 17 25 18 9 19 23 20 10 21 22 22 11 23 20 24 12 25
REMARK SMILES IDX 19 26 21 27 26 28 24 30 13 32 14 33 18 34 15 35 17 36 16 37
REMARK H PARENT 32 12 30 14 28 16 26 29 24 31
REMARK Flexibility Score: inf
ROOT
ATOM      1  O   UNL     1      16.656  47.309  58.971  1.00  0.00    -0.458 OA
ENDROOT
BRANCH   1   2
ATOM      2  C   UNL     1      17.883  46.846  58.390  1.00  0.00     0.339 C 
ATOM      3  C   UNL     1      16.919  46.676  56.254  1.00  0.00     0.199 C 
ATOM      4  C   UNL     1      17.021  45.133  56.215  1.00  0.00     0.180 C 
ATOM      5  O   UNL     1      17.972  47.236  57.025  1.00  0.00    -0.328 OA
ATOM      6  C   UNL     1      16.966  44.604  57.664  1.00  0.00     0.181 C 
ATOM      7  C   UNL     1      18.004  45.319  58.555  1.00  0.00     0.214 C 
BRANCH   3   8
ATOM      8  C   UNL     1      16.952  47.275  54.876  1.00  0.00     0.073 C 
ATOM      9  O   UNL     1      17.569  48.350  54.654  1.00  0.00    -0.547 OA
ATOM     10  O   UNL     1      16.218  46.688  53.850  1.00  0.00    -0.547 OA
ENDBRANCH   3   8
BRANCH   4  11
ATOM     11  O   UNL     1      18.223  44.747  55.595  1.00  0.00    -0.387 OA
ATOM     12  H   UNL     1      18.181  43.766  55.460  1.00  0.00     0.211 HD
ENDBRANCH   4  11
BRANCH   6  13
ATOM     13  O   UNL     1      17.098  43.205  57.720  1.00  0.00    -0.387 OA
ATOM     14  H   UNL     1      17.617  42.972  58.532  1.00  0.00     0.211 HD
ENDBRANCH   6  13
BRANCH   7  15
ATOM     15  O   UNL     1      19.310  44.927  58.210  1.00  0.00    -0.384 OA
ATOM     16  H   UNL     1      19.404  45.043  57.229  1.00  0.00     0.211 HD
ENDBRANCH   7  15
ENDBRANCH   1   2
BRANCH   1  17
ATOM     17  C   UNL     1      16.159  48.624  58.944  1.00  0.00     0.172 A 
ATOM     18  C   UNL     1      15.528  49.061  57.774  1.00  0.00     0.201 A 
ATOM     19  C   UNL     1      16.289  49.505  60.027  1.00  0.00     0.098 A 
ATOM     20  C   UNL     1      14.988  50.359  57.684  1.00  0.00     0.176 A 
ATOM     21  C   UNL     1      15.789  50.806  59.950  1.00  0.00     0.146 A 
ATOM     22  C   UNL     1      15.152  51.267  58.771  1.00  0.00     0.111 A 
ATOM     23  O   UNL     1      15.933  51.602  61.004  1.00  0.00    -0.456 OA
ATOM     24  C   UNL     1      14.752  52.626  58.753  1.00  0.00     0.197 A 
ATOM     25  C   UNL     1      15.523  52.866  61.029  1.00  0.00     0.138 A 
ATOM     26  C   UNL     1      14.919  53.415  59.891  1.00  0.00     0.100 A 
ATOM     27  O   UNL     1      14.267  53.165  57.724  1.00  0.00    -0.289 OA
BRANCH  18  28
ATOM     28  O   UNL     1      15.420  48.169  56.705  1.00  0.00    -0.502 OA
ATOM     29  H   UNL     1      16.169  47.544  56.437  1.00  0.00     0.293 HD
ENDBRANCH  18  28
BRANCH  20  30
ATOM     30  O   UNL     1      14.279  50.676  56.520  1.00  0.00    -0.504 OA
ATOM     31  H   UNL     1      14.311  51.569  56.052  1.00  0.00     0.293 HD
ENDBRANCH  20  30
BRANCH  25  32
ATOM     32  C   UNL     1      15.715  53.652  62.272  1.00  0.00     0.017 A 
ATOM     33  C   UNL     1      16.998  53.921  62.790  1.00  0.00     0.012 A 
ATOM     34  C   UNL     1      14.589  54.122  62.973  1.00  0.00     0.012 A 
ATOM     35  C   UNL     1      17.145  54.654  63.972  1.00  0.00     0.001 A 
ATOM     36  C   UNL     1      14.742  54.859  64.151  1.00  0.00     0.001 A 
ATOM     37  C   UNL     1      16.018  55.124  64.650  1.00  0.00     0.000 A 
ENDBRANCH  25  32
ENDBRANCH   1  17
TORSDOF 9
ENDMDL
