MODEL 1
REMARK VINA RESULT:    -3.370      0.000      0.000
REMARK INTER + INTRA:          -4.552
REMARK INTER:                  -4.749
REMARK INTRA:                   0.197
REMARK UNBOUND:                 0.197
REMARK SMILES CC1=CCC(=C(C)C)C(=O)CC(C)=CCC1
REMARK SMILES IDX 12 1 14 2 13 3 15 4 16 5 2 6 1 7 3 8 11 10 9 11 10 12 5 13
REMARK SMILES IDX 6 14 7 15 8 16 4 17
REMARK H PARENT
REMARK Flexibility Score: 60.00
ROOT
ATOM      1  C   UNL     1      25.272 -44.560  -8.563  1.00  0.00    -0.070 C 
ATOM      2  C   UNL     1      25.566 -43.250  -8.772  1.00  0.00    -0.027 C 
ATOM      3  C   UNL     1      24.818 -44.955  -7.179  1.00  0.00     0.039 C 
ENDROOT
BRANCH   2   4
ATOM      4  C   UNL     1      26.130 -42.654 -10.039  1.00  0.00     0.032 C 
BRANCH   4   5
ATOM      5  C   UNL     1      27.630 -42.337  -9.945  1.00  0.00     0.034 C 
BRANCH   5   6
ATOM      6  C   UNL     1      28.429 -43.336 -10.761  1.00  0.00    -0.077 C 
ATOM      7  C   UNL     1      28.770 -42.984 -12.186  1.00  0.00     0.039 C 
ATOM      8  C   UNL     1      28.919 -44.490 -10.252  1.00  0.00    -0.023 CG0
ATOM      9  G   UNL     1      28.671 -45.016  -8.858  1.00  0.00     0.000 G0
ENDBRANCH   5   6
ENDBRANCH   4   5
ENDBRANCH   2   4
BRANCH   1  10
ATOM     10  C   UNL     1      25.294 -45.632  -9.650  1.00  0.00     0.111 C 
BRANCH  10  11
ATOM     11  C   UNL     1      26.636 -46.295  -9.829  1.00  0.00     0.163 C 
ATOM     12  O   UNL     1      26.846 -46.905 -10.913  1.00  0.00    -0.294 OA
BRANCH  11  13
ATOM     13  C   UNL     1      27.730 -46.202  -8.805  1.00  0.00    -0.002 C 
ATOM     14  C   UNL     1      27.846 -47.144  -7.818  1.00  0.00    -0.069 C 
ATOM     15  C   UNL     1      26.984 -48.387  -7.798  1.00  0.00     0.039 C 
ATOM     16  C   UNL     1      28.877 -47.020  -6.718  1.00  0.00     0.039 C 
BRANCH  13  17
ATOM     17  C   UNL     1      28.677 -45.004  -8.850  1.00  0.00     0.066 CG0
ATOM     18  G   UNL     1      28.913 -44.515 -10.259  1.00  0.00     0.000 G0
ENDBRANCH  13  17
ENDBRANCH  11  13
ENDBRANCH  10  11
ENDBRANCH   1  10
TORSDOF 0
ENDMDL
MODEL 2
REMARK VINA RESULT:    -3.178     12.911     14.287
REMARK INTER + INTRA:          -4.281
REMARK INTER:                  -4.607
REMARK INTRA:                   0.325
REMARK UNBOUND:                 0.197
REMARK SMILES CC1=CCC(=C(C)C)C(=O)CC(C)=CCC1
REMARK SMILES IDX 12 1 14 2 13 3 15 4 16 5 2 6 1 7 3 8 11 10 9 11 10 12 5 13
REMARK SMILES IDX 6 14 7 15 8 16 4 17
REMARK H PARENT
REMARK Flexibility Score: 60.00
ROOT
ATOM      1  C   UNL     1      25.169 -34.060 -14.357  1.00  0.00    -0.070 C 
ATOM      2  C   UNL     1      26.521 -34.027 -14.497  1.00  0.00    -0.027 C 
ATOM      3  C   UNL     1      24.379 -34.748 -15.442  1.00  0.00     0.039 C 
ENDROOT
BRANCH   2   4
ATOM      4  C   UNL     1      27.493 -33.311 -13.592  1.00  0.00     0.032 C 
BRANCH   4   5
ATOM      5  C   UNL     1      27.519 -31.791 -13.810  1.00  0.00     0.034 C 
BRANCH   5   6
ATOM      6  C   UNL     1      27.646 -31.073 -12.481  1.00  0.00    -0.077 C 
ATOM      7  C   UNL     1      28.932 -31.223 -11.707  1.00  0.00     0.039 C 
ATOM      8  C   UNL     1      26.698 -30.241 -11.990  1.00  0.00    -0.023 CG0
ATOM      9  G   UNL     1      25.348 -29.977 -12.612  1.00  0.00     0.000 G0
ENDBRANCH   5   6
ENDBRANCH   4   5
ENDBRANCH   2   4
BRANCH   1  10
ATOM     10  C   UNL     1      24.415 -33.522 -13.144  1.00  0.00     0.111 C 
BRANCH  10  11
ATOM     11  C   UNL     1      23.989 -32.082 -13.278  1.00  0.00     0.163 C 
ATOM     12  O   UNL     1      23.281 -31.771 -14.274  1.00  0.00    -0.294 OA
BRANCH  11  13
ATOM     13  C   UNL     1      24.323 -31.039 -12.250  1.00  0.00    -0.002 C 
ATOM     14  C   UNL     1      23.682 -31.019 -11.040  1.00  0.00    -0.069 C 
ATOM     15  C   UNL     1      22.729 -32.117 -10.625  1.00  0.00     0.039 C 
ATOM     16  C   UNL     1      23.930 -29.922 -10.027  1.00  0.00     0.039 C 
BRANCH  13  17
ATOM     17  C   UNL     1      25.351 -29.964 -12.602  1.00  0.00     0.066 CG0
ATOM     18  G   UNL     1      26.702 -30.245 -11.990  1.00  0.00     0.000 G0
ENDBRANCH  13  17
ENDBRANCH  11  13
ENDBRANCH  10  11
ENDBRANCH   1  10
TORSDOF 0
ENDMDL
MODEL 3
REMARK VINA RESULT:    -2.888     10.911     12.935
REMARK INTER + INTRA:          -3.872
REMARK INTER:                  -4.051
REMARK INTRA:                   0.179
REMARK UNBOUND:                 0.197
REMARK SMILES CC1=CCC(=C(C)C)C(=O)CC(C)=CCC1
REMARK SMILES IDX 12 1 14 2 13 3 15 4 16 5 2 6 1 7 3 8 11 10 9 11 10 12 5 13
REMARK SMILES IDX 6 14 7 15 8 16 4 17
REMARK H PARENT
REMARK Flexibility Score: 60.00
ROOT
ATOM      1  C   UNL     1      24.663 -33.965 -14.880  1.00  0.00    -0.070 C 
ATOM      2  C   UNL     1      23.880 -33.705 -13.801  1.00  0.00    -0.027 C 
ATOM      3  C   UNL     1      24.596 -35.356 -15.464  1.00  0.00     0.039 C 
ENDROOT
BRANCH   2   4
ATOM      4  C   UNL     1      23.862 -32.425 -13.000  1.00  0.00     0.032 C 
BRANCH   4   5
ATOM      5  C   UNL     1      24.682 -32.508 -11.705  1.00  0.00     0.034 C 
BRANCH   5   6
ATOM      6  C   UNL     1      25.971 -31.723 -11.849  1.00  0.00    -0.077 C 
ATOM      7  C   UNL     1      25.961 -30.260 -11.486  1.00  0.00     0.039 C 
ATOM      8  C   UNL     1      27.149 -32.284 -12.210  1.00  0.00    -0.023 CG0
ATOM      9  G   UNL     1      27.351 -33.723 -12.622  1.00  0.00     0.000 G0
ENDBRANCH   5   6
ENDBRANCH   4   5
ENDBRANCH   2   4
BRANCH   1  10
ATOM     10  C   UNL     1      25.536 -32.929 -15.582  1.00  0.00     0.111 C 
BRANCH  10  11
ATOM     11  C   UNL     1      26.945 -32.855 -15.052  1.00  0.00     0.163 C 
ATOM     12  O   UNL     1      27.633 -31.844 -15.359  1.00  0.00    -0.294 OA
BRANCH  11  13
ATOM     13  C   UNL     1      27.523 -33.897 -14.137  1.00  0.00    -0.002 C 
ATOM     14  C   UNL     1      28.147 -35.005 -14.646  1.00  0.00    -0.069 C 
ATOM     15  C   UNL     1      28.413 -35.161 -16.128  1.00  0.00     0.039 C 
ATOM     16  C   UNL     1      28.651 -36.116 -13.751  1.00  0.00     0.039 C 
BRANCH  13  17
ATOM     17  C   UNL     1      27.353 -33.726 -12.629  1.00  0.00     0.066 CG0
ATOM     18  G   UNL     1      27.146 -32.283 -12.238  1.00  0.00     0.000 G0
ENDBRANCH  13  17
ENDBRANCH  11  13
ENDBRANCH  10  11
ENDBRANCH   1  10
TORSDOF 0
ENDMDL
MODEL 4
REMARK VINA RESULT:    -2.860      1.789      3.974
REMARK INTER + INTRA:          -3.833
REMARK INTER:                  -4.040
REMARK INTRA:                   0.207
REMARK UNBOUND:                 0.197
REMARK SMILES CC1=CCC(=C(C)C)C(=O)CC(C)=CCC1
REMARK SMILES IDX 12 1 14 2 13 3 15 4 16 5 2 6 1 7 3 8 11 10 9 11 10 12 5 13
REMARK SMILES IDX 6 14 7 15 8 16 4 17
REMARK H PARENT
REMARK Flexibility Score: 60.00
ROOT
ATOM      1  C   UNL     1      25.265 -44.532  -7.941  1.00  0.00    -0.070 C 
ATOM      2  C   UNL     1      26.040 -45.193  -7.042  1.00  0.00    -0.027 C 
ATOM      3  C   UNL     1      24.271 -43.536  -7.396  1.00  0.00     0.039 C 
ENDROOT
BRANCH   2   4
ATOM      4  C   UNL     1      27.022 -46.297  -7.353  1.00  0.00     0.032 C 
BRANCH   4   5
ATOM      5  C   UNL     1      28.391 -45.778  -7.815  1.00  0.00     0.034 C 
BRANCH   5   6
ATOM      6  C   UNL     1      28.776 -46.417  -9.136  1.00  0.00    -0.077 C 
ATOM      7  C   UNL     1      28.989 -47.909  -9.173  1.00  0.00     0.039 C 
ATOM      8  C   UNL     1      28.859 -45.730 -10.299  1.00  0.00    -0.023 CG0
ATOM      9  G   UNL     1      28.693 -44.237 -10.455  1.00  0.00     0.000 G0
ENDBRANCH   5   6
ENDBRANCH   4   5
ENDBRANCH   2   4
BRANCH   1  10
ATOM     10  C   UNL     1      25.391 -44.672  -9.455  1.00  0.00     0.111 C 
BRANCH  10  11
ATOM     11  C   UNL     1      26.195 -43.576 -10.107  1.00  0.00     0.163 C 
ATOM     12  O   UNL     1      25.921 -42.385  -9.793  1.00  0.00    -0.294 OA
BRANCH  11  13
ATOM     13  C   UNL     1      27.329 -43.853 -11.051  1.00  0.00    -0.002 C 
ATOM     14  C   UNL     1      27.135 -43.812 -12.407  1.00  0.00    -0.069 C 
ATOM     15  C   UNL     1      25.829 -43.347 -13.012  1.00  0.00     0.039 C 
ATOM     16  C   UNL     1      28.235 -44.182 -13.378  1.00  0.00     0.039 C 
BRANCH  13  17
ATOM     17  C   UNL     1      28.689 -44.238 -10.473  1.00  0.00     0.066 CG0
ATOM     18  G   UNL     1      28.836 -45.732 -10.306  1.00  0.00     0.000 G0
ENDBRANCH  13  17
ENDBRANCH  11  13
ENDBRANCH  10  11
ENDBRANCH   1  10
TORSDOF 0
ENDMDL
MODEL 5
REMARK VINA RESULT:    -2.837     10.311     12.774
REMARK INTER + INTRA:          -3.801
REMARK INTER:                  -4.616
REMARK INTRA:                   0.815
REMARK UNBOUND:                 0.197
REMARK SMILES CC1=CCC(=C(C)C)C(=O)CC(C)=CCC1
REMARK SMILES IDX 12 1 14 2 13 3 15 4 16 5 2 6 1 7 3 8 11 10 9 11 10 12 5 13
REMARK SMILES IDX 6 14 7 15 8 16 4 17
REMARK H PARENT
REMARK Flexibility Score: 60.00
ROOT
ATOM      1  C   UNL     1      25.382 -34.129 -15.353  1.00  0.00    -0.070 C 
ATOM      2  C   UNL     1      26.568 -34.601 -15.820  1.00  0.00    -0.027 C 
ATOM      3  C   UNL     1      24.179 -35.029 -15.490  1.00  0.00     0.039 C 
ENDROOT
BRANCH   2   4
ATOM      4  C   UNL     1      27.869 -33.838 -15.879  1.00  0.00     0.032 C 
BRANCH   4   5
ATOM      5  C   UNL     1      29.024 -34.552 -15.161  1.00  0.00     0.034 C 
BRANCH   5   6
ATOM      6  C   UNL     1      28.547 -35.120 -13.839  1.00  0.00    -0.077 C 
ATOM      7  C   UNL     1      28.657 -36.607 -13.619  1.00  0.00     0.039 C 
ATOM      8  C   UNL     1      28.102 -34.354 -12.816  1.00  0.00    -0.023 CG0
ATOM      9  G   UNL     1      27.910 -32.856 -12.854  1.00  0.00     0.000 G0
ENDBRANCH   5   6
ENDBRANCH   4   5
ENDBRANCH   2   4
BRANCH   1  10
ATOM     10  C   UNL     1      25.209 -32.795 -14.634  1.00  0.00     0.111 C 
BRANCH  10  11
ATOM     11  C   UNL     1      25.318 -32.890 -13.133  1.00  0.00     0.163 C 
ATOM     12  O   UNL     1      24.369 -33.441 -12.511  1.00  0.00    -0.294 OA
BRANCH  11  13
ATOM     13  C   UNL     1      26.524 -32.414 -12.376  1.00  0.00    -0.002 C 
ATOM     14  C   UNL     1      26.390 -31.568 -11.307  1.00  0.00    -0.069 C 
ATOM     15  C   UNL     1      25.034 -31.195 -10.751  1.00  0.00     0.039 C 
ATOM     16  C   UNL     1      27.593 -30.996 -10.589  1.00  0.00     0.039 C 
BRANCH  13  17
ATOM     17  C   UNL     1      27.909 -32.844 -12.856  1.00  0.00     0.066 CG0
ATOM     18  G   UNL     1      28.086 -34.343 -12.818  1.00  0.00     0.000 G0
ENDBRANCH  13  17
ENDBRANCH  11  13
ENDBRANCH  10  11
ENDBRANCH   1  10
TORSDOF 0
ENDMDL
MODEL 6
REMARK VINA RESULT:    -2.804      1.982      3.522
REMARK INTER + INTRA:          -3.753
REMARK INTER:                  -4.010
REMARK INTRA:                   0.257
REMARK UNBOUND:                 0.197
REMARK SMILES CC1=CCC(=C(C)C)C(=O)CC(C)=CCC1
REMARK SMILES IDX 12 1 14 2 13 3 15 4 16 5 2 6 1 7 3 8 11 10 9 11 10 12 5 13
REMARK SMILES IDX 6 14 7 15 8 16 4 17
REMARK H PARENT
REMARK Flexibility Score: 60.00
ROOT
ATOM      1  C   UNL     1      26.819 -47.235  -7.759  1.00  0.00    -0.070 C 
ATOM      2  C   UNL     1      25.863 -46.377  -7.316  1.00  0.00    -0.027 C 
ATOM      3  C   UNL     1      26.558 -48.711  -7.583  1.00  0.00     0.039 C 
ENDROOT
BRANCH   2   4
ATOM      4  C   UNL     1      25.957 -44.870  -7.298  1.00  0.00     0.032 C 
BRANCH   4   5
ATOM      5  C   UNL     1      25.045 -44.193  -8.331  1.00  0.00     0.034 C 
BRANCH   5   6
ATOM      6  C   UNL     1      25.858 -43.729  -9.524  1.00  0.00    -0.077 C 
ATOM      7  C   UNL     1      26.468 -42.351  -9.480  1.00  0.00     0.039 C 
ATOM      8  C   UNL     1      26.130 -44.516 -10.591  1.00  0.00    -0.023 CG0
ATOM      9  G   UNL     1      25.598 -45.911 -10.817  1.00  0.00     0.000 G0
ENDBRANCH   5   6
ENDBRANCH   4   5
ENDBRANCH   2   4
BRANCH   1  10
ATOM     10  C   UNL     1      28.089 -46.808  -8.489  1.00  0.00     0.111 C 
BRANCH  10  11
ATOM     11  C   UNL     1      27.923 -46.676  -9.981  1.00  0.00     0.163 C 
ATOM     12  O   UNL     1      28.929 -46.319 -10.652  1.00  0.00    -0.294 OA
BRANCH  11  13
ATOM     13  C   UNL     1      26.640 -47.008 -10.687  1.00  0.00    -0.002 C 
ATOM     14  C   UNL     1      26.444 -48.248 -11.234  1.00  0.00    -0.069 C 
ATOM     15  C   UNL     1      27.432 -49.376 -11.028  1.00  0.00     0.039 C 
ATOM     16  C   UNL     1      25.202 -48.578 -12.034  1.00  0.00     0.039 C 
BRANCH  13  17
ATOM     17  C   UNL     1      25.579 -45.919 -10.834  1.00  0.00     0.066 CG0
ATOM     18  G   UNL     1      26.138 -44.540 -10.579  1.00  0.00     0.000 G0
ENDBRANCH  13  17
ENDBRANCH  11  13
ENDBRANCH  10  11
ENDBRANCH   1  10
TORSDOF 0
ENDMDL
MODEL 7
REMARK VINA RESULT:    -2.714      2.356      4.323
REMARK INTER + INTRA:          -3.628
REMARK INTER:                  -3.997
REMARK INTRA:                   0.369
REMARK UNBOUND:                 0.197
REMARK SMILES CC1=CCC(=C(C)C)C(=O)CC(C)=CCC1
REMARK SMILES IDX 12 1 14 2 13 3 15 4 16 5 2 6 1 7 3 8 11 10 9 11 10 12 5 13
REMARK SMILES IDX 6 14 7 15 8 16 4 17
REMARK H PARENT
REMARK Flexibility Score: 60.00
ROOT
ATOM      1  C   UNL     1      26.417 -43.021 -11.919  1.00  0.00    -0.070 C 
ATOM      2  C   UNL     1      25.756 -42.627 -10.799  1.00  0.00    -0.027 C 
ATOM      3  C   UNL     1      25.765 -42.724 -13.247  1.00  0.00     0.039 C 
ENDROOT
BRANCH   2   4
ATOM      4  C   UNL     1      26.170 -42.908  -9.375  1.00  0.00     0.032 C 
BRANCH   4   5
ATOM      5  C   UNL     1      25.308 -43.979  -8.693  1.00  0.00     0.034 C 
BRANCH   5   6
ATOM      6  C   UNL     1      26.145 -45.206  -8.383  1.00  0.00    -0.077 C 
ATOM      7  C   UNL     1      26.809 -45.296  -7.033  1.00  0.00     0.039 C 
ATOM      8  C   UNL     1      26.262 -46.259  -9.225  1.00  0.00    -0.023 CG0
ATOM      9  G   UNL     1      25.683 -46.344 -10.618  1.00  0.00     0.000 G0
ENDBRANCH   5   6
ENDBRANCH   4   5
ENDBRANCH   2   4
BRANCH   1  10
ATOM     10  C   UNL     1      27.800 -43.666 -11.921  1.00  0.00     0.111 C 
BRANCH  10  11
ATOM     11  C   UNL     1      27.810 -45.096 -11.442  1.00  0.00     0.163 C 
ATOM     12  O   UNL     1      28.784 -45.467 -10.732  1.00  0.00    -0.294 OA
BRANCH  11  13
ATOM     13  C   UNL     1      26.690 -46.054 -11.727  1.00  0.00    -0.002 C 
ATOM     14  C   UNL     1      26.549 -46.615 -12.969  1.00  0.00    -0.069 C 
ATOM     15  C   UNL     1      27.584 -46.418 -14.055  1.00  0.00     0.039 C 
ATOM     16  C   UNL     1      25.375 -47.507 -13.310  1.00  0.00     0.039 C 
BRANCH  13  17
ATOM     17  C   UNL     1      25.676 -46.348 -10.623  1.00  0.00     0.066 CG0
ATOM     18  G   UNL     1      26.287 -46.246  -9.246  1.00  0.00     0.000 G0
ENDBRANCH  13  17
ENDBRANCH  11  13
ENDBRANCH  10  11
ENDBRANCH   1  10
TORSDOF 0
ENDMDL
MODEL 8
REMARK VINA RESULT:    -2.706      1.536      2.184
REMARK INTER + INTRA:          -3.616
REMARK INTER:                  -4.047
REMARK INTRA:                   0.431
REMARK UNBOUND:                 0.197
REMARK SMILES CC1=CCC(=C(C)C)C(=O)CC(C)=CCC1
REMARK SMILES IDX 12 1 14 2 13 3 15 4 16 5 2 6 1 7 3 8 11 10 9 11 10 12 5 13
REMARK SMILES IDX 6 14 7 15 8 16 4 17
REMARK H PARENT
REMARK Flexibility Score: 60.00
ROOT
ATOM      1  C   UNL     1      25.933 -44.711  -7.854  1.00  0.00    -0.070 C 
ATOM      2  C   UNL     1      25.364 -43.765  -8.646  1.00  0.00    -0.027 C 
ATOM      3  C   UNL     1      25.004 -45.621  -7.089  1.00  0.00     0.039 C 
ENDROOT
BRANCH   2   4
ATOM      4  C   UNL     1      26.093 -42.690  -9.416  1.00  0.00     0.032 C 
BRANCH   4   5
ATOM      5  C   UNL     1      26.297 -43.038 -10.897  1.00  0.00     0.034 C 
BRANCH   5   6
ATOM      6  C   UNL     1      27.690 -43.596 -11.118  1.00  0.00    -0.077 C 
ATOM      7  C   UNL     1      28.832 -42.625 -11.281  1.00  0.00     0.039 C 
ATOM      8  C   UNL     1      27.973 -44.919 -11.097  1.00  0.00    -0.023 CG0
ATOM      9  G   UNL     1      26.965 -46.035 -10.962  1.00  0.00     0.000 G0
ENDBRANCH   5   6
ENDBRANCH   4   5
ENDBRANCH   2   4
BRANCH   1  10
ATOM     10  C   UNL     1      27.435 -44.960  -7.753  1.00  0.00     0.111 C 
BRANCH  10  11
ATOM     11  C   UNL     1      27.909 -46.162  -8.529  1.00  0.00     0.163 C 
ATOM     12  O   UNL     1      29.010 -46.679  -8.193  1.00  0.00    -0.294 OA
BRANCH  11  13
ATOM     13  C   UNL     1      27.100 -46.789  -9.628  1.00  0.00    -0.002 C 
ATOM     14  C   UNL     1      26.538 -48.027  -9.464  1.00  0.00    -0.069 C 
ATOM     15  C   UNL     1      26.576 -48.749  -8.135  1.00  0.00     0.039 C 
ATOM     16  C   UNL     1      25.801 -48.722 -10.588  1.00  0.00     0.039 C 
BRANCH  13  17
ATOM     17  C   UNL     1      26.964 -46.045 -10.956  1.00  0.00     0.066 CG0
ATOM     18  G   UNL     1      27.977 -44.935 -11.094  1.00  0.00     0.000 G0
ENDBRANCH  13  17
ENDBRANCH  11  13
ENDBRANCH  10  11
ENDBRANCH   1  10
TORSDOF 0
ENDMDL
MODEL 9
REMARK VINA RESULT:    -2.471      2.245      4.408
REMARK INTER + INTRA:          -3.284
REMARK INTER:                  -3.439
REMARK INTRA:                   0.155
REMARK UNBOUND:                 0.197
REMARK SMILES CC1=CCC(=C(C)C)C(=O)CC(C)=CCC1
REMARK SMILES IDX 12 1 14 2 13 3 15 4 16 5 2 6 1 7 3 8 11 10 9 11 10 12 5 13
REMARK SMILES IDX 6 14 7 15 8 16 4 17
REMARK H PARENT
REMARK Flexibility Score: 60.00
ROOT
ATOM      1  C   UNL     1      26.223 -45.938  -7.998  1.00  0.00    -0.070 C 
ATOM      2  C   UNL     1      26.171 -47.264  -8.292  1.00  0.00    -0.027 C 
ATOM      3  C   UNL     1      25.309 -45.435  -6.908  1.00  0.00     0.039 C 
ENDROOT
BRANCH   2   4
ATOM      4  C   UNL     1      26.917 -47.960  -9.404  1.00  0.00     0.032 C 
BRANCH   4   5
ATOM      5  C   UNL     1      26.261 -47.778 -10.781  1.00  0.00     0.034 C 
BRANCH   5   6
ATOM      6  C   UNL     1      27.311 -47.435 -11.820  1.00  0.00    -0.077 C 
ATOM      7  C   UNL     1      28.285 -48.508 -12.234  1.00  0.00     0.039 C 
ATOM      8  C   UNL     1      27.369 -46.240 -12.453  1.00  0.00    -0.023 CG0
ATOM      9  G   UNL     1      26.492 -45.045 -12.164  1.00  0.00     0.000 G0
ENDBRANCH   5   6
ENDBRANCH   4   5
ENDBRANCH   2   4
BRANCH   1  10
ATOM     10  C   UNL     1      27.196 -44.951  -8.638  1.00  0.00     0.111 C 
BRANCH  10  11
ATOM     11  C   UNL     1      26.586 -44.111  -9.730  1.00  0.00     0.163 C 
ATOM     12  O   UNL     1      25.620 -43.361  -9.421  1.00  0.00    -0.294 OA
BRANCH  11  13
ATOM     13  C   UNL     1      27.121 -44.092 -11.134  1.00  0.00    -0.002 C 
ATOM     14  C   UNL     1      28.111 -43.217 -11.493  1.00  0.00    -0.069 C 
ATOM     15  C   UNL     1      28.809 -42.342 -10.475  1.00  0.00     0.039 C 
ATOM     16  C   UNL     1      28.598 -43.110 -12.921  1.00  0.00     0.039 C 
BRANCH  13  17
ATOM     17  C   UNL     1      26.500 -45.028 -12.169  1.00  0.00     0.066 CG0
ATOM     18  G   UNL     1      27.379 -46.221 -12.459  1.00  0.00     0.000 G0
ENDBRANCH  13  17
ENDBRANCH  11  13
ENDBRANCH  10  11
ENDBRANCH   1  10
TORSDOF 0
ENDMDL
