MODEL 1
REMARK VINA RESULT:    -3.783      0.000      0.000
REMARK INTER + INTRA:          -4.961
REMARK INTER:                  -4.888
REMARK INTRA:                  -0.072
REMARK UNBOUND:                -0.072
REMARK SMILES CCCCCCC(=O)[O-]
REMARK SMILES IDX 5 1 6 2 7 3 8 4 9 5 4 6 3 7 2 8 1 9
REMARK H PARENT
REMARK Flexibility Score: inf
ROOT
ATOM      1  C   UNL     1      16.172  32.862  11.506  1.00  0.00     0.006 C 
ENDROOT
BRANCH   1   2
ATOM      2  C   UNL     1      16.269  33.728  10.244  1.00  0.00     0.053 C 
BRANCH   2   3
ATOM      3  C   UNL     1      17.503  34.573  10.284  1.00  0.00     0.041 C 
ATOM      4  O   UNL     1      17.441  35.800  10.012  1.00  0.00    -0.550 OA
ATOM      5  O   UNL     1      18.733  33.993  10.573  1.00  0.00    -0.550 OA
ENDBRANCH   2   3
ENDBRANCH   1   2
BRANCH   1   6
ATOM      6  C   UNL     1      14.771  32.261  11.702  1.00  0.00     0.000 C 
BRANCH   6   7
ATOM      7  C   UNL     1      14.793  30.724  11.781  1.00  0.00    -0.000 C 
BRANCH   7   8
ATOM      8  C   UNL     1      13.456  30.140  12.262  1.00  0.00    -0.003 C 
ATOM      9  C   UNL     1      13.636  29.006  13.270  1.00  0.00     0.004 C 
ENDBRANCH   7   8
ENDBRANCH   6   7
ENDBRANCH   1   6
TORSDOF 5
ENDMDL
MODEL 2
REMARK VINA RESULT:    -3.716     21.343     22.268
REMARK INTER + INTRA:          -4.875
REMARK INTER:                  -4.754
REMARK INTRA:                  -0.121
REMARK UNBOUND:                -0.072
REMARK SMILES CCCCCCC(=O)[O-]
REMARK SMILES IDX 5 1 6 2 7 3 8 4 9 5 4 6 3 7 2 8 1 9
REMARK H PARENT
REMARK Flexibility Score: inf
ROOT
ATOM      1  C   UNL     1      28.252  20.818  25.614  1.00  0.00     0.006 C 
ENDROOT
BRANCH   1   2
ATOM      2  C   UNL     1      26.919  20.551  24.903  1.00  0.00     0.053 C 
BRANCH   2   3
ATOM      3  C   UNL     1      25.790  20.577  25.885  1.00  0.00     0.041 C 
ATOM      4  O   UNL     1      25.270  19.501  26.281  1.00  0.00    -0.550 OA
ATOM      5  O   UNL     1      25.278  21.792  26.324  1.00  0.00    -0.550 OA
ENDBRANCH   2   3
ENDBRANCH   1   2
BRANCH   1   6
ATOM      6  C   UNL     1      29.416  21.015  24.630  1.00  0.00     0.000 C 
BRANCH   6   7
ATOM      7  C   UNL     1      29.233  20.215  23.329  1.00  0.00    -0.000 C 
BRANCH   7   8
ATOM      8  C   UNL     1      30.415  20.383  22.363  1.00  0.00    -0.003 C 
ATOM      9  C   UNL     1      31.204  19.089  22.165  1.00  0.00     0.004 C 
ENDBRANCH   7   8
ENDBRANCH   6   7
ENDBRANCH   1   6
TORSDOF 5
ENDMDL
MODEL 3
REMARK VINA RESULT:    -3.653      3.842      5.808
REMARK INTER + INTRA:          -4.794
REMARK INTER:                  -4.717
REMARK INTRA:                  -0.077
REMARK UNBOUND:                -0.072
REMARK SMILES CCCCCCC(=O)[O-]
REMARK SMILES IDX 5 1 6 2 7 3 8 4 9 5 4 6 3 7 2 8 1 9
REMARK H PARENT
REMARK Flexibility Score: inf
ROOT
ATOM      1  C   UNL     1      15.002  31.295  11.638  1.00  0.00     0.006 C 
ENDROOT
BRANCH   1   2
ATOM      2  C   UNL     1      13.569  30.867  11.976  1.00  0.00     0.053 C 
BRANCH   2   3
ATOM      3  C   UNL     1      13.525  29.412  12.318  1.00  0.00     0.041 C 
ATOM      4  O   UNL     1      13.452  28.548  11.405  1.00  0.00    -0.550 OA
ATOM      5  O   UNL     1      13.516  29.010  13.649  1.00  0.00    -0.550 OA
ENDBRANCH   2   3
ENDBRANCH   1   2
BRANCH   1   6
ATOM      6  C   UNL     1      15.174  32.823  11.623  1.00  0.00     0.000 C 
BRANCH   6   7
ATOM      7  C   UNL     1      16.651  33.253  11.653  1.00  0.00    -0.000 C 
BRANCH   7   8
ATOM      8  C   UNL     1      17.079  33.977  10.368  1.00  0.00    -0.003 C 
ATOM      9  C   UNL     1      18.574  34.296  10.341  1.00  0.00     0.004 C 
ENDBRANCH   7   8
ENDBRANCH   6   7
ENDBRANCH   1   6
TORSDOF 5
ENDMDL
MODEL 4
REMARK VINA RESULT:    -3.610     21.257     22.065
REMARK INTER + INTRA:          -4.737
REMARK INTER:                  -4.541
REMARK INTRA:                  -0.196
REMARK UNBOUND:                -0.072
REMARK SMILES CCCCCCC(=O)[O-]
REMARK SMILES IDX 5 1 6 2 7 3 8 4 9 5 4 6 3 7 2 8 1 9
REMARK H PARENT
REMARK Flexibility Score: inf
ROOT
ATOM      1  C   UNL     1      29.890  20.948  24.511  1.00  0.00     0.006 C 
ENDROOT
BRANCH   1   2
ATOM      2  C   UNL     1      30.112  19.612  23.792  1.00  0.00     0.053 C 
BRANCH   2   3
ATOM      3  C   UNL     1      30.436  19.842  22.349  1.00  0.00     0.041 C 
ATOM      4  O   UNL     1      30.455  18.876  21.542  1.00  0.00    -0.550 OA
ATOM      5  O   UNL     1      30.767  21.117  21.906  1.00  0.00    -0.550 OA
ENDBRANCH   2   3
ENDBRANCH   1   2
BRANCH   1   6
ATOM      6  C   UNL     1      28.532  21.014  25.228  1.00  0.00     0.000 C 
BRANCH   6   7
ATOM      7  C   UNL     1      27.633  19.808  24.904  1.00  0.00    -0.000 C 
BRANCH   7   8
ATOM      8  C   UNL     1      26.139  20.160  24.945  1.00  0.00    -0.003 C 
ATOM      9  C   UNL     1      25.790  21.121  26.082  1.00  0.00     0.004 C 
ENDBRANCH   7   8
ENDBRANCH   6   7
ENDBRANCH   1   6
TORSDOF 5
ENDMDL
MODEL 5
REMARK VINA RESULT:    -3.586     21.510     22.222
REMARK INTER + INTRA:          -4.707
REMARK INTER:                  -4.556
REMARK INTRA:                  -0.151
REMARK UNBOUND:                -0.072
REMARK SMILES CCCCCCC(=O)[O-]
REMARK SMILES IDX 5 1 6 2 7 3 8 4 9 5 4 6 3 7 2 8 1 9
REMARK H PARENT
REMARK Flexibility Score: inf
ROOT
ATOM      1  C   UNL     1      27.341  20.380  24.914  1.00  0.00     0.006 C 
ENDROOT
BRANCH   1   2
ATOM      2  C   UNL     1      26.207  20.466  25.943  1.00  0.00     0.053 C 
BRANCH   2   3
ATOM      3  C   UNL     1      25.083  19.556  25.560  1.00  0.00     0.041 C 
ATOM      4  O   UNL     1      25.107  18.951  24.457  1.00  0.00    -0.550 OA
ATOM      5  O   UNL     1      23.985  19.416  26.400  1.00  0.00    -0.550 OA
ENDBRANCH   2   3
ENDBRANCH   1   2
BRANCH   1   6
ATOM      6  C   UNL     1      28.616  21.102  25.378  1.00  0.00     0.000 C 
BRANCH   6   7
ATOM      7  C   UNL     1      29.816  20.836  24.453  1.00  0.00    -0.000 C 
BRANCH   7   8
ATOM      8  C   UNL     1      29.395  20.260  23.093  1.00  0.00    -0.003 C 
ATOM      9  C   UNL     1      30.588  19.963  22.184  1.00  0.00     0.004 C 
ENDBRANCH   7   8
ENDBRANCH   6   7
ENDBRANCH   1   6
TORSDOF 5
ENDMDL
MODEL 6
REMARK VINA RESULT:    -3.516     16.890     17.881
REMARK INTER + INTRA:          -4.616
REMARK INTER:                  -4.495
REMARK INTRA:                  -0.121
REMARK UNBOUND:                -0.072
REMARK SMILES CCCCCCC(=O)[O-]
REMARK SMILES IDX 5 1 6 2 7 3 8 4 9 5 4 6 3 7 2 8 1 9
REMARK H PARENT
REMARK Flexibility Score: inf
ROOT
ATOM      1  C   UNL     1      25.143  38.005  24.928  1.00  0.00     0.006 C 
ENDROOT
BRANCH   1   2
ATOM      2  C   UNL     1      25.778  38.186  26.312  1.00  0.00     0.053 C 
BRANCH   2   3
ATOM      3  C   UNL     1      24.720  38.390  27.350  1.00  0.00     0.041 C 
ATOM      4  O   UNL     1      23.583  38.818  27.019  1.00  0.00    -0.550 OA
ATOM      5  O   UNL     1      25.005  38.157  28.690  1.00  0.00    -0.550 OA
ENDBRANCH   2   3
ENDBRANCH   1   2
BRANCH   1   6
ATOM      6  C   UNL     1      25.677  39.013  23.898  1.00  0.00     0.000 C 
BRANCH   6   7
ATOM      7  C   UNL     1      25.680  38.451  22.466  1.00  0.00    -0.000 C 
BRANCH   7   8
ATOM      8  C   UNL     1      24.350  37.777  22.095  1.00  0.00    -0.003 C 
ATOM      9  C   UNL     1      23.177  38.757  22.082  1.00  0.00     0.004 C 
ENDBRANCH   7   8
ENDBRANCH   6   7
ENDBRANCH   1   6
TORSDOF 5
ENDMDL
MODEL 7
REMARK VINA RESULT:    -3.475     21.339     22.027
REMARK INTER + INTRA:          -4.563
REMARK INTER:                  -4.420
REMARK INTRA:                  -0.142
REMARK UNBOUND:                -0.072
REMARK SMILES CCCCCCC(=O)[O-]
REMARK SMILES IDX 5 1 6 2 7 3 8 4 9 5 4 6 3 7 2 8 1 9
REMARK H PARENT
REMARK Flexibility Score: inf
ROOT
ATOM      1  C   UNL     1      28.898  21.105  25.011  1.00  0.00     0.006 C 
ENDROOT
BRANCH   1   2
ATOM      2  C   UNL     1      28.782  20.340  23.687  1.00  0.00     0.053 C 
BRANCH   2   3
ATOM      3  C   UNL     1      30.140  20.004  23.157  1.00  0.00     0.041 C 
ATOM      4  O   UNL     1      30.567  20.558  22.110  1.00  0.00    -0.550 OA
ATOM      5  O   UNL     1      30.915  19.040  23.791  1.00  0.00    -0.550 OA
ENDBRANCH   2   3
ENDBRANCH   1   2
BRANCH   1   6
ATOM      6  C   UNL     1      27.802  20.716  26.015  1.00  0.00     0.000 C 
BRANCH   6   7
ATOM      7  C   UNL     1      26.395  20.731  25.391  1.00  0.00    -0.000 C 
BRANCH   7   8
ATOM      8  C   UNL     1      25.645  19.407  25.599  1.00  0.00    -0.003 C 
ATOM      9  C   UNL     1      24.198  19.613  26.048  1.00  0.00     0.004 C 
ENDBRANCH   7   8
ENDBRANCH   6   7
ENDBRANCH   1   6
TORSDOF 5
ENDMDL
MODEL 8
REMARK VINA RESULT:    -3.360     16.819     17.654
REMARK INTER + INTRA:          -4.414
REMARK INTER:                  -4.276
REMARK INTRA:                  -0.139
REMARK UNBOUND:                -0.072
REMARK SMILES CCCCCCC(=O)[O-]
REMARK SMILES IDX 5 1 6 2 7 3 8 4 9 5 4 6 3 7 2 8 1 9
REMARK H PARENT
REMARK Flexibility Score: inf
ROOT
ATOM      1  C   UNL     1      25.794  38.886  24.219  1.00  0.00     0.006 C 
ENDROOT
BRANCH   1   2
ATOM      2  C   UNL     1      24.571  37.973  24.068  1.00  0.00     0.053 C 
BRANCH   2   3
ATOM      3  C   UNL     1      24.129  37.924  22.639  1.00  0.00     0.041 C 
ATOM      4  O   UNL     1      24.791  37.267  21.794  1.00  0.00    -0.550 OA
ATOM      5  O   UNL     1      23.014  38.646  22.230  1.00  0.00    -0.550 OA
ENDBRANCH   2   3
ENDBRANCH   1   2
BRANCH   1   6
ATOM      6  C   UNL     1      26.277  38.989  25.675  1.00  0.00     0.000 C 
BRANCH   6   7
ATOM      7  C   UNL     1      25.559  37.998  26.608  1.00  0.00    -0.000 C 
BRANCH   7   8
ATOM      8  C   UNL     1      24.704  38.705  27.671  1.00  0.00    -0.003 C 
ATOM      9  C   UNL     1      24.887  38.109  29.067  1.00  0.00     0.004 C 
ENDBRANCH   7   8
ENDBRANCH   6   7
ENDBRANCH   1   6
TORSDOF 5
ENDMDL
MODEL 9
REMARK VINA RESULT:    -3.257      2.738      2.979
REMARK INTER + INTRA:          -4.282
REMARK INTER:                  -4.107
REMARK INTRA:                  -0.175
REMARK UNBOUND:                -0.072
REMARK SMILES CCCCCCC(=O)[O-]
REMARK SMILES IDX 5 1 6 2 7 3 8 4 9 5 4 6 3 7 2 8 1 9
REMARK H PARENT
REMARK Flexibility Score: inf
ROOT
ATOM      1  C   UNL     1      15.313  32.788  11.838  1.00  0.00     0.006 C 
ENDROOT
BRANCH   1   2
ATOM      2  C   UNL     1      14.843  33.746  10.736  1.00  0.00     0.053 C 
BRANCH   2   3
ATOM      3  C   UNL     1      13.645  34.518  11.191  1.00  0.00     0.041 C 
ATOM      4  O   UNL     1      12.991  35.214  10.370  1.00  0.00    -0.550 OA
ATOM      5  O   UNL     1      13.279  34.508  12.532  1.00  0.00    -0.550 OA
ENDBRANCH   2   3
ENDBRANCH   1   2
BRANCH   1   6
ATOM      6  C   UNL     1      14.927  31.328  11.555  1.00  0.00     0.000 C 
BRANCH   6   7
ATOM      7  C   UNL     1      13.591  30.931  12.207  1.00  0.00    -0.000 C 
BRANCH   7   8
ATOM      8  C   UNL     1      13.555  29.453  12.624  1.00  0.00    -0.003 C 
ATOM      9  C   UNL     1      13.243  28.518  11.455  1.00  0.00     0.004 C 
ENDBRANCH   7   8
ENDBRANCH   6   7
ENDBRANCH   1   6
TORSDOF 5
ENDMDL
