MODEL 1
REMARK VINA RESULT:    60.769      0.000      0.000
REMARK INTER + INTRA:          98.261
REMARK INTER:                  99.848
REMARK INTRA:                  -1.586
REMARK UNBOUND:                -1.586
REMARK SMILES COc1ccc([C@H]2CC(=O)c3c(O)cc(O[C@@H]4O[C@@H](CO[C@H]5O[C@@H](C)[C@H](O)[C@H](O)[C@@H]5O)[C@@H](O)[C@H](O)[C@H]4O)cc3O2)cc1O
REMARK SMILES IDX 19 1 32 2 34 3 36 4 17 5 18 6 20 7 21 8 22 9 25 10 24 11
REMARK SMILES IDX 26 12 23 13 28 14 30 15 27 16 29 18 31 20 33 22 35 24 16 26
REMARK SMILES IDX 15 27 14 28 38 29 12 30 39 31 11 32 40 33 9 34 7 35 10 36
REMARK SMILES IDX 8 37 13 38 6 40 41 41 5 42 42 43 4 44 3 45 43 46 2 48 1 49
REMARK SMILES IDX 37 50
REMARK H PARENT 27 17 29 19 31 21 33 23 35 25 13 39 43 47 37 51
REMARK Flexibility Score: inf
ROOT
ATOM      1  C   UNL     1      22.894  23.012  15.417  1.00  0.00     0.180 C 
ATOM      2  C   UNL     1      21.792  23.108  16.498  1.00  0.00     0.177 C 
ATOM      3  C   UNL     1      22.420  23.452  17.857  1.00  0.00     0.180 C 
ATOM      4  C   UNL     1      23.599  22.508  18.169  1.00  0.00     0.214 C 
ATOM      5  C   UNL     1      24.555  22.399  16.963  1.00  0.00     0.339 C 
ATOM      6  O   UNL     1      23.862  22.038  15.775  1.00  0.00    -0.332 OA
ENDROOT
BRANCH   1   7
ATOM      7  C   UNL     1      22.303  22.633  14.052  1.00  0.00     0.198 C 
BRANCH   7   8
ATOM      8  O   UNL     1      21.069  23.308  13.861  1.00  0.00    -0.347 OA
BRANCH   8   9
ATOM      9  C   UNL     1      20.531  23.025  12.584  1.00  0.00     0.281 C 
ATOM     10  C   UNL     1      21.562  20.440  10.197  1.00  0.00     0.041 C 
ATOM     11  C   UNL     1      20.720  21.590  10.753  1.00  0.00     0.150 C 
ATOM     12  C   UNL     1      19.220  21.219  10.763  1.00  0.00     0.174 C 
ATOM     13  O   UNL     1      21.161  21.862  12.070  1.00  0.00    -0.344 OA
ATOM     14  C   UNL     1      18.404  22.367  11.387  1.00  0.00     0.179 C 
ATOM     15  C   UNL     1      19.018  22.773  12.740  1.00  0.00     0.202 C 
BRANCH  12  16
ATOM     16  O   UNL     1      18.778  20.965   9.455  1.00  0.00    -0.388 OA
ATOM     17  H   UNL     1      19.505  20.471   8.997  1.00  0.00     0.211 HD
ENDBRANCH  12  16
BRANCH  14  18
ATOM     18  O   UNL     1      18.388  23.466  10.506  1.00  0.00    -0.387 OA
ATOM     19  H   UNL     1      17.815  23.210   9.736  1.00  0.00     0.211 HD
ENDBRANCH  14  18
BRANCH  15  20
ATOM     20  O   UNL     1      18.377  23.926  13.224  1.00  0.00    -0.385 OA
ATOM     21  H   UNL     1      17.398  23.769  13.150  1.00  0.00     0.211 HD
ENDBRANCH  15  20
ENDBRANCH   8   9
ENDBRANCH   7   8
ENDBRANCH   1   7
BRANCH   2  22
ATOM     22  O   UNL     1      21.109  21.880  16.592  1.00  0.00    -0.387 OA
ATOM     23  H   UNL     1      21.610  21.218  16.048  1.00  0.00     0.211 HD
ENDBRANCH   2  22
BRANCH   3  24
ATOM     24  O   UNL     1      22.859  24.787  17.842  1.00  0.00    -0.387 OA
ATOM     25  H   UNL     1      22.976  25.041  16.889  1.00  0.00     0.211 HD
ENDBRANCH   3  24
BRANCH   5  26
ATOM     26  O   UNL     1      25.287  23.617  16.791  1.00  0.00    -0.462 OA
BRANCH  26  27
ATOM     27  C   UNL     1      26.654  23.694  16.480  1.00  0.00     0.130 A 
ATOM     28  C   UNL     1      27.623  22.901  17.123  1.00  0.00     0.093 A 
ATOM     29  C   UNL     1      27.059  24.604  15.499  1.00  0.00     0.094 A 
ATOM     30  C   UNL     1      28.979  23.023  16.792  1.00  0.00     0.133 A 
ATOM     31  C   UNL     1      28.411  24.746  15.173  1.00  0.00     0.138 A 
ATOM     32  C   UNL     1      29.379  23.949  15.807  1.00  0.00     0.102 A 
ATOM     33  O   UNL     1      28.788  25.704  14.222  1.00  0.00    -0.484 OA
ATOM     34  C   UNL     1      30.792  24.122  15.401  1.00  0.00     0.174 C 
ATOM     35  C   UNL     1      30.148  26.077  13.964  1.00  0.00     0.211 C 
ATOM     36  O   UNL     1      31.730  23.591  16.056  1.00  0.00    -0.294 OA
ATOM     37  C   UNL     1      31.110  24.892  14.154  1.00  0.00     0.131 C 
BRANCH  30  38
ATOM     38  O   UNL     1      29.920  22.219  17.435  1.00  0.00    -0.507 OA
ATOM     39  H   UNL     1      30.899  22.476  17.479  1.00  0.00     0.293 HD
ENDBRANCH  30  38
BRANCH  35  40
ATOM     40  C   UNL     1      30.560  27.276  14.800  1.00  0.00    -0.003 A 
ATOM     41  C   UNL     1      31.919  27.632  14.876  1.00  0.00     0.057 A 
ATOM     42  C   UNL     1      29.624  28.018  15.541  1.00  0.00     0.011 A 
ATOM     43  C   UNL     1      32.331  28.728  15.642  1.00  0.00     0.158 A 
ATOM     44  C   UNL     1      30.031  29.112  16.307  1.00  0.00     0.051 A 
ATOM     45  C   UNL     1      31.388  29.484  16.360  1.00  0.00     0.160 A 
BRANCH  43  46
ATOM     46  O   UNL     1      33.688  29.051  15.678  1.00  0.00    -0.504 OA
ATOM     47  H   UNL     1      34.159  29.497  14.899  1.00  0.00     0.293 HD
ENDBRANCH  43  46
BRANCH  45  48
ATOM     48  O   UNL     1      31.828  30.588  17.110  1.00  0.00    -0.493 OA
ATOM     49  C   UNL     1      31.183  31.858  17.127  1.00  0.00     0.278 C 
ENDBRANCH  45  48
ENDBRANCH  35  40
ENDBRANCH  26  27
ENDBRANCH   5  26
BRANCH   4  50
ATOM     50  O   UNL     1      23.101  21.237  18.501  1.00  0.00    -0.384 OA
ATOM     51  H   UNL     1      23.370  20.622  17.770  1.00  0.00     0.211 HD
ENDBRANCH   4  50
TORSDOF 15
ENDMDL
MODEL 2
REMARK VINA RESULT:    62.627      0.822      1.677
REMARK INTER + INTRA:         101.314
REMARK INTER:                 102.799
REMARK INTRA:                  -1.486
REMARK UNBOUND:                -1.586
REMARK SMILES COc1ccc([C@H]2CC(=O)c3c(O)cc(O[C@@H]4O[C@@H](CO[C@H]5O[C@@H](C)[C@H](O)[C@H](O)[C@@H]5O)[C@@H](O)[C@H](O)[C@H]4O)cc3O2)cc1O
REMARK SMILES IDX 19 1 32 2 34 3 36 4 17 5 18 6 20 7 21 8 22 9 25 10 24 11
REMARK SMILES IDX 26 12 23 13 28 14 30 15 27 16 29 18 31 20 33 22 35 24 16 26
REMARK SMILES IDX 15 27 14 28 38 29 12 30 39 31 11 32 40 33 9 34 7 35 10 36
REMARK SMILES IDX 8 37 13 38 6 40 41 41 5 42 42 43 4 44 3 45 43 46 2 48 1 49
REMARK SMILES IDX 37 50
REMARK H PARENT 27 17 29 19 31 21 33 23 35 25 13 39 43 47 37 51
REMARK Flexibility Score: inf
ROOT
ATOM      1  C   UNL     1      22.498  23.447  15.552  1.00  0.00     0.180 C 
ATOM      2  C   UNL     1      21.658  23.213  16.829  1.00  0.00     0.177 C 
ATOM      3  C   UNL     1      22.579  23.130  18.055  1.00  0.00     0.180 C 
ATOM      4  C   UNL     1      23.732  22.136  17.807  1.00  0.00     0.214 C 
ATOM      5  C   UNL     1      24.402  22.395  16.441  1.00  0.00     0.339 C 
ATOM      6  O   UNL     1      23.452  22.410  15.384  1.00  0.00    -0.332 OA
ENDROOT
BRANCH   1   7
ATOM      7  C   UNL     1      21.607  23.497  14.302  1.00  0.00     0.198 C 
BRANCH   7   8
ATOM      8  O   UNL     1      22.333  23.021  13.179  1.00  0.00    -0.347 OA
BRANCH   8   9
ATOM      9  C   UNL     1      21.563  22.095  12.437  1.00  0.00     0.281 C 
ATOM     10  C   UNL     1      18.080  22.394  11.331  1.00  0.00     0.041 C 
ATOM     11  C   UNL     1      19.466  21.760  11.468  1.00  0.00     0.150 C 
ATOM     12  C   UNL     1      20.052  21.414  10.081  1.00  0.00     0.174 C 
ATOM     13  O   UNL     1      20.308  22.684  12.133  1.00  0.00    -0.344 OA
ATOM     14  C   UNL     1      21.472  20.839  10.245  1.00  0.00     0.179 C 
ATOM     15  C   UNL     1      22.317  21.773  11.131  1.00  0.00     0.202 C 
BRANCH  12  16
ATOM     16  O   UNL     1      19.226  20.485   9.427  1.00  0.00    -0.388 OA
ATOM     17  H   UNL     1      19.761  19.659   9.310  1.00  0.00     0.211 HD
ENDBRANCH  12  16
BRANCH  14  18
ATOM     18  O   UNL     1      21.397  19.555  10.817  1.00  0.00    -0.387 OA
ATOM     19  H   UNL     1      20.453  19.415  11.092  1.00  0.00     0.211 HD
ENDBRANCH  14  18
BRANCH  15  20
ATOM     20  O   UNL     1      23.552  21.166  11.417  1.00  0.00    -0.385 OA
ATOM     21  H   UNL     1      24.156  21.359  10.651  1.00  0.00     0.211 HD
ENDBRANCH  15  20
ENDBRANCH   8   9
ENDBRANCH   7   8
ENDBRANCH   1   7
BRANCH   2  22
ATOM     22  O   UNL     1      20.929  22.014  16.707  1.00  0.00    -0.387 OA
ATOM     23  H   UNL     1      19.987  22.258  16.508  1.00  0.00     0.211 HD
ENDBRANCH   2  22
BRANCH   3  24
ATOM     24  O   UNL     1      23.094  24.408  18.337  1.00  0.00    -0.387 OA
ATOM     25  H   UNL     1      24.034  24.418  18.014  1.00  0.00     0.211 HD
ENDBRANCH   3  24
BRANCH   5  26
ATOM     26  O   UNL     1      25.162  23.608  16.478  1.00  0.00    -0.462 OA
BRANCH  26  27
ATOM     27  C   UNL     1      26.548  23.694  16.268  1.00  0.00     0.130 A 
ATOM     28  C   UNL     1      27.472  22.915  16.989  1.00  0.00     0.093 A 
ATOM     29  C   UNL     1      27.018  24.597  15.309  1.00  0.00     0.094 A 
ATOM     30  C   UNL     1      28.848  23.045  16.758  1.00  0.00     0.133 A 
ATOM     31  C   UNL     1      28.388  24.746  15.082  1.00  0.00     0.138 A 
ATOM     32  C   UNL     1      29.313  23.964  15.796  1.00  0.00     0.102 A 
ATOM     33  O   UNL     1      28.828  25.698  14.151  1.00  0.00    -0.484 OA
ATOM     34  C   UNL     1      30.751  24.144  15.493  1.00  0.00     0.174 C 
ATOM     35  C   UNL     1      30.200  26.079  13.991  1.00  0.00     0.211 C 
ATOM     36  O   UNL     1      31.642  23.628  16.221  1.00  0.00    -0.294 OA
ATOM     37  C   UNL     1      31.154  24.903  14.264  1.00  0.00     0.131 C 
BRANCH  30  38
ATOM     38  O   UNL     1      29.745  22.255  17.477  1.00  0.00    -0.507 OA
ATOM     39  H   UNL     1      30.627  22.623  17.813  1.00  0.00     0.293 HD
ENDBRANCH  30  38
BRANCH  35  40
ATOM     40  C   UNL     1      30.540  27.290  14.842  1.00  0.00    -0.003 A 
ATOM     41  C   UNL     1      31.885  27.675  14.991  1.00  0.00     0.057 A 
ATOM     42  C   UNL     1      29.549  28.015  15.525  1.00  0.00     0.011 A 
ATOM     43  C   UNL     1      32.231  28.782  15.773  1.00  0.00     0.158 A 
ATOM     44  C   UNL     1      29.890  29.121  16.307  1.00  0.00     0.051 A 
ATOM     45  C   UNL     1      31.235  29.521  16.433  1.00  0.00     0.160 A 
BRANCH  43  46
ATOM     46  O   UNL     1      33.578  29.134  15.882  1.00  0.00    -0.504 OA
ATOM     47  H   UNL     1      33.877  30.092  16.022  1.00  0.00     0.293 HD
ENDBRANCH  43  46
BRANCH  45  48
ATOM     48  O   UNL     1      31.610  30.637  17.201  1.00  0.00    -0.493 OA
ATOM     49  C   UNL     1      31.128  31.961  16.985  1.00  0.00     0.278 C 
ENDBRANCH  45  48
ENDBRANCH  35  40
ENDBRANCH  26  27
ENDBRANCH   5  26
BRANCH   4  50
ATOM     50  O   UNL     1      23.231  20.825  17.851  1.00  0.00    -0.384 OA
ATOM     51  H   UNL     1      23.752  20.294  17.195  1.00  0.00     0.211 HD
ENDBRANCH   4  50
TORSDOF 15
ENDMDL
MODEL 3
REMARK VINA RESULT:    63.489      0.749      1.559
REMARK INTER + INTRA:         102.729
REMARK INTER:                 103.106
REMARK INTRA:                  -0.377
REMARK UNBOUND:                -1.586
REMARK SMILES COc1ccc([C@H]2CC(=O)c3c(O)cc(O[C@@H]4O[C@@H](CO[C@H]5O[C@@H](C)[C@H](O)[C@H](O)[C@@H]5O)[C@@H](O)[C@H](O)[C@H]4O)cc3O2)cc1O
REMARK SMILES IDX 19 1 32 2 34 3 36 4 17 5 18 6 20 7 21 8 22 9 25 10 24 11
REMARK SMILES IDX 26 12 23 13 28 14 30 15 27 16 29 18 31 20 33 22 35 24 16 26
REMARK SMILES IDX 15 27 14 28 38 29 12 30 39 31 11 32 40 33 9 34 7 35 10 36
REMARK SMILES IDX 8 37 13 38 6 40 41 41 5 42 42 43 4 44 3 45 43 46 2 48 1 49
REMARK SMILES IDX 37 50
REMARK H PARENT 27 17 29 19 31 21 33 23 35 25 13 39 43 47 37 51
REMARK Flexibility Score: inf
ROOT
ATOM      1  C   UNL     1      22.722  23.292  15.493  1.00  0.00     0.180 C 
ATOM      2  C   UNL     1      21.743  23.232  16.687  1.00  0.00     0.177 C 
ATOM      3  C   UNL     1      22.520  23.338  18.008  1.00  0.00     0.180 C 
ATOM      4  C   UNL     1      23.690  22.333  18.036  1.00  0.00     0.214 C 
ATOM      5  C   UNL     1      24.511  22.403  16.731  1.00  0.00     0.339 C 
ATOM      6  O   UNL     1      23.686  22.254  15.583  1.00  0.00    -0.332 OA
ENDROOT
BRANCH   1   7
ATOM      7  C   UNL     1      21.979  23.151  14.156  1.00  0.00     0.198 C 
BRANCH   7   8
ATOM      8  O   UNL     1      20.598  23.420  14.347  1.00  0.00    -0.347 OA
BRANCH   8   9
ATOM      9  C   UNL     1      19.813  22.729  13.396  1.00  0.00     0.281 C 
ATOM     10  C   UNL     1      16.176  22.824  12.940  1.00  0.00     0.041 C 
ATOM     11  C   UNL     1      17.624  22.434  12.639  1.00  0.00     0.150 C 
ATOM     12  C   UNL     1      17.984  22.746  11.170  1.00  0.00     0.174 C 
ATOM     13  O   UNL     1      18.467  23.164  13.511  1.00  0.00    -0.344 OA
ATOM     14  C   UNL     1      19.465  22.404  10.913  1.00  0.00     0.179 C 
ATOM     15  C   UNL     1      20.349  23.062  11.989  1.00  0.00     0.202 C 
BRANCH  12  16
ATOM     16  O   UNL     1      17.160  22.009  10.304  1.00  0.00    -0.388 OA
ATOM     17  H   UNL     1      16.799  22.649   9.638  1.00  0.00     0.211 HD
ENDBRANCH  12  16
BRANCH  14  18
ATOM     18  O   UNL     1      19.635  21.007  10.924  1.00  0.00    -0.387 OA
ATOM     19  H   UNL     1      20.562  20.831  11.235  1.00  0.00     0.211 HD
ENDBRANCH  14  18
BRANCH  15  20
ATOM     20  O   UNL     1      21.674  22.612  11.852  1.00  0.00    -0.385 OA
ATOM     21  H   UNL     1      21.633  21.635  11.671  1.00  0.00     0.211 HD
ENDBRANCH  15  20
ENDBRANCH   8   9
ENDBRANCH   7   8
ENDBRANCH   1   7
BRANCH   2  22
ATOM     22  O   UNL     1      21.029  22.019  16.658  1.00  0.00    -0.387 OA
ATOM     23  H   UNL     1      21.039  21.646  17.579  1.00  0.00     0.211 HD
ENDBRANCH   2  22
BRANCH   3  24
ATOM     24  O   UNL     1      23.004  24.649  18.159  1.00  0.00    -0.387 OA
ATOM     25  H   UNL     1      23.996  24.589  18.185  1.00  0.00     0.211 HD
ENDBRANCH   3  24
BRANCH   5  26
ATOM     26  O   UNL     1      25.266  23.619  16.678  1.00  0.00    -0.462 OA
BRANCH  26  27
ATOM     27  C   UNL     1      26.639  23.699  16.396  1.00  0.00     0.130 A 
ATOM     28  C   UNL     1      27.595  22.909  17.062  1.00  0.00     0.093 A 
ATOM     29  C   UNL     1      27.064  24.608  15.423  1.00  0.00     0.094 A 
ATOM     30  C   UNL     1      28.958  23.033  16.760  1.00  0.00     0.133 A 
ATOM     31  C   UNL     1      28.422  24.752  15.126  1.00  0.00     0.138 A 
ATOM     32  C   UNL     1      29.378  23.959  15.783  1.00  0.00     0.102 A 
ATOM     33  O   UNL     1      28.818  25.709  14.182  1.00  0.00    -0.484 OA
ATOM     34  C   UNL     1      30.799  24.134  15.408  1.00  0.00     0.174 C 
ATOM     35  C   UNL     1      30.182  26.085  13.953  1.00  0.00     0.211 C 
ATOM     36  O   UNL     1      31.724  23.607  16.084  1.00  0.00    -0.294 OA
ATOM     37  C   UNL     1      31.142  24.902  14.167  1.00  0.00     0.131 C 
BRANCH  30  38
ATOM     38  O   UNL     1      29.887  22.232  17.426  1.00  0.00    -0.507 OA
ATOM     39  H   UNL     1      29.752  21.951  18.389  1.00  0.00     0.293 HD
ENDBRANCH  30  38
BRANCH  35  40
ATOM     40  C   UNL     1      30.572  27.287  14.796  1.00  0.00    -0.003 A 
ATOM     41  C   UNL     1      31.927  27.655  14.889  1.00  0.00     0.057 A 
ATOM     42  C   UNL     1      29.621  28.018  15.526  1.00  0.00     0.011 A 
ATOM     43  C   UNL     1      32.320  28.753  15.661  1.00  0.00     0.158 A 
ATOM     44  C   UNL     1      30.008  29.116  16.298  1.00  0.00     0.051 A 
ATOM     45  C   UNL     1      31.361  29.499  16.369  1.00  0.00     0.160 A 
BRANCH  43  46
ATOM     46  O   UNL     1      33.674  29.089  15.714  1.00  0.00    -0.504 OA
ATOM     47  H   UNL     1      34.213  29.027  16.570  1.00  0.00     0.293 HD
ENDBRANCH  43  46
BRANCH  45  48
ATOM     48  O   UNL     1      31.782  30.606  17.126  1.00  0.00    -0.493 OA
ATOM     49  C   UNL     1      31.210  31.908  17.034  1.00  0.00     0.278 C 
ENDBRANCH  45  48
ENDBRANCH  35  40
ENDBRANCH  26  27
ENDBRANCH   5  26
BRANCH   4  50
ATOM     50  O   UNL     1      23.183  21.036  18.212  1.00  0.00    -0.384 OA
ATOM     51  H   UNL     1      22.401  20.947  17.607  1.00  0.00     0.211 HD
ENDBRANCH   4  50
TORSDOF 15
ENDMDL
