MODEL 1
REMARK VINA RESULT:    -2.568      0.000      0.000
REMARK INTER + INTRA:          -2.793
REMARK INTER:                  -2.793
REMARK INTRA:                   0.000
REMARK UNBOUND:                 0.000
REMARK SMILES [NH3+]CC(=O)[O-]
REMARK SMILES IDX 2 1 1 2 3 6 4 7 5 8
REMARK H PARENT 1 3 1 4 1 5
REMARK Flexibility Score: inf
ROOT
ATOM      1  C   UNL     1       0.931   6.696   1.460  1.00  0.00     0.312 C 
ENDROOT
BRANCH   1   2
ATOM      2  N   UNL     1       0.888   5.866   2.662  1.00  0.00    -0.353 N 
ATOM      3  H   UNL     1       0.781   4.859   2.398  1.00  0.00     0.344 HD
ATOM      4  H   UNL     1       1.783   5.983   3.191  1.00  0.00     0.344 HD
ATOM      5  H   UNL     1       0.092   6.159   3.273  1.00  0.00     0.344 HD
ENDBRANCH   1   2
BRANCH   1   6
ATOM      6  C   UNL     1       1.749   6.038   0.392  1.00  0.00     0.096 C 
ATOM      7  O   UNL     1       3.001   5.974   0.502  1.00  0.00    -0.544 OA
ATOM      8  O   UNL     1       1.122   5.450  -0.700  1.00  0.00    -0.544 OA
ENDBRANCH   1   6
TORSDOF 2
ENDMDL
MODEL 2
REMARK VINA RESULT:    -2.564      0.081      1.450
REMARK INTER + INTRA:          -2.789
REMARK INTER:                  -2.789
REMARK INTRA:                   0.000
REMARK UNBOUND:                 0.000
REMARK SMILES [NH3+]CC(=O)[O-]
REMARK SMILES IDX 2 1 1 2 3 6 4 7 5 8
REMARK H PARENT 1 3 1 4 1 5
REMARK Flexibility Score: inf
ROOT
ATOM      1  C   UNL     1       0.875   6.674   1.406  1.00  0.00     0.312 C 
ENDROOT
BRANCH   1   2
ATOM      2  N   UNL     1       0.844   5.884   2.635  1.00  0.00    -0.353 N 
ATOM      3  H   UNL     1       1.595   5.156   2.612  1.00  0.00     0.344 HD
ATOM      4  H   UNL     1       1.009   6.515   3.452  1.00  0.00     0.344 HD
ATOM      5  H   UNL     1      -0.091   5.426   2.744  1.00  0.00     0.344 HD
ENDBRANCH   1   2
BRANCH   1   6
ATOM      6  C   UNL     1       1.676   5.977   0.350  1.00  0.00     0.096 C 
ATOM      7  O   UNL     1       1.104   5.484  -0.657  1.00  0.00    -0.544 OA
ATOM      8  O   UNL     1       3.061   5.917   0.454  1.00  0.00    -0.544 OA
ENDBRANCH   1   6
TORSDOF 2
ENDMDL
MODEL 3
REMARK VINA RESULT:    -2.471     14.165     14.321
REMARK INTER + INTRA:          -2.687
REMARK INTER:                  -2.687
REMARK INTRA:                   0.000
REMARK UNBOUND:                 0.000
REMARK SMILES [NH3+]CC(=O)[O-]
REMARK SMILES IDX 2 1 1 2 3 6 4 7 5 8
REMARK H PARENT 1 3 1 4 1 5
REMARK Flexibility Score: inf
ROOT
ATOM      1  C   UNL     1       5.757  -7.255   2.327  1.00  0.00     0.312 C 
ENDROOT
BRANCH   1   2
ATOM      2  N   UNL     1       4.438  -7.100   2.936  1.00  0.00    -0.353 N 
ATOM      3  H   UNL     1       4.266  -7.874   3.620  1.00  0.00     0.344 HD
ATOM      4  H   UNL     1       4.400  -6.186   3.443  1.00  0.00     0.344 HD
ATOM      5  H   UNL     1       3.697  -7.109   2.197  1.00  0.00     0.344 HD
ENDBRANCH   1   2
BRANCH   1   6
ATOM      6  C   UNL     1       5.644  -7.895   0.978  1.00  0.00     0.096 C 
ATOM      7  O   UNL     1       6.378  -7.511   0.030  1.00  0.00    -0.544 OA
ATOM      8  O   UNL     1       4.762  -8.951   0.781  1.00  0.00    -0.544 OA
ENDBRANCH   1   6
TORSDOF 2
ENDMDL
MODEL 4
REMARK VINA RESULT:    -2.360     14.357     14.565
REMARK INTER + INTRA:          -2.567
REMARK INTER:                  -2.567
REMARK INTRA:                   0.000
REMARK UNBOUND:                 0.000
REMARK SMILES [NH3+]CC(=O)[O-]
REMARK SMILES IDX 2 1 1 2 3 6 4 7 5 8
REMARK H PARENT 1 3 1 4 1 5
REMARK Flexibility Score: inf
ROOT
ATOM      1  C   UNL     1       6.784  -7.361   2.213  1.00  0.00     0.312 C 
ENDROOT
BRANCH   1   2
ATOM      2  N   UNL     1       5.342  -7.166   2.361  1.00  0.00    -0.353 N 
ATOM      3  H   UNL     1       5.117  -6.144   2.356  1.00  0.00     0.344 HD
ATOM      4  H   UNL     1       4.851  -7.625   1.561  1.00  0.00     0.344 HD
ATOM      5  H   UNL     1       5.012  -7.598   3.255  1.00  0.00     0.344 HD
ENDBRANCH   1   2
BRANCH   1   6
ATOM      6  C   UNL     1       7.141  -7.586   0.776  1.00  0.00     0.096 C 
ATOM      7  O   UNL     1       6.236  -7.755  -0.083  1.00  0.00    -0.544 OA
ATOM      8  O   UNL     1       8.472  -7.557   0.378  1.00  0.00    -0.544 OA
ENDBRANCH   1   6
TORSDOF 2
ENDMDL
MODEL 5
REMARK VINA RESULT:    -2.293      2.017      2.255
REMARK INTER + INTRA:          -2.495
REMARK INTER:                  -2.495
REMARK INTRA:                   0.000
REMARK UNBOUND:                 0.000
REMARK SMILES [NH3+]CC(=O)[O-]
REMARK SMILES IDX 2 1 1 2 3 6 4 7 5 8
REMARK H PARENT 1 3 1 4 1 5
REMARK Flexibility Score: inf
ROOT
ATOM      1  C   UNL     1       2.465   7.362   0.601  1.00  0.00     0.312 C 
ENDROOT
BRANCH   1   2
ATOM      2  N   UNL     1       1.714   8.616   0.651  1.00  0.00    -0.353 N 
ATOM      3  H   UNL     1       1.803   9.122  -0.261  1.00  0.00     0.344 HD
ATOM      4  H   UNL     1       0.706   8.403   0.824  1.00  0.00     0.344 HD
ATOM      5  H   UNL     1       2.072   9.218   1.427  1.00  0.00     0.344 HD
ENDBRANCH   1   2
BRANCH   1   6
ATOM      6  C   UNL     1       1.536   6.193   0.497  1.00  0.00     0.096 C 
ATOM      7  O   UNL     1       1.392   5.593  -0.600  1.00  0.00    -0.544 OA
ATOM      8  O   UNL     1       0.866   5.735   1.626  1.00  0.00    -0.544 OA
ENDBRANCH   1   6
TORSDOF 2
ENDMDL
MODEL 6
REMARK VINA RESULT:    -2.267      4.419      4.782
REMARK INTER + INTRA:          -2.465
REMARK INTER:                  -2.465
REMARK INTRA:                   0.000
REMARK UNBOUND:                 0.000
REMARK SMILES [NH3+]CC(=O)[O-]
REMARK SMILES IDX 2 1 1 2 3 6 4 7 5 8
REMARK H PARENT 1 3 1 4 1 5
REMARK Flexibility Score: inf
ROOT
ATOM      1  C   UNL     1       6.039   4.896   2.267  1.00  0.00     0.312 C 
ENDROOT
BRANCH   1   2
ATOM      2  N   UNL     1       7.452   4.522   2.231  1.00  0.00    -0.353 N 
ATOM      3  H   UNL     1       8.022   5.227   2.754  1.00  0.00     0.344 HD
ATOM      4  H   UNL     1       7.570   3.587   2.685  1.00  0.00     0.344 HD
ATOM      5  H   UNL     1       7.783   4.462   1.241  1.00  0.00     0.344 HD
ENDBRANCH   1   2
BRANCH   1   6
ATOM      6  C   UNL     1       5.571   5.322   0.910  1.00  0.00     0.096 C 
ATOM      7  O   UNL     1       6.365   5.311  -0.067  1.00  0.00    -0.544 OA
ATOM      8  O   UNL     1       4.243   5.682   0.714  1.00  0.00    -0.544 OA
ENDBRANCH   1   6
TORSDOF 2
ENDMDL
MODEL 7
REMARK VINA RESULT:    -2.256     12.578     12.628
REMARK INTER + INTRA:          -2.454
REMARK INTER:                  -2.454
REMARK INTRA:                   0.000
REMARK UNBOUND:                 0.000
REMARK SMILES [NH3+]CC(=O)[O-]
REMARK SMILES IDX 2 1 1 2 3 6 4 7 5 8
REMARK H PARENT 1 3 1 4 1 5
REMARK Flexibility Score: inf
ROOT
ATOM      1  C   UNL     1       5.130  -2.813  -7.661  1.00  0.00     0.312 C 
ENDROOT
BRANCH   1   2
ATOM      2  N   UNL     1       5.177  -1.512  -6.996  1.00  0.00    -0.353 N 
ATOM      3  H   UNL     1       6.075  -1.026  -7.227  1.00  0.00     0.344 HD
ATOM      4  H   UNL     1       4.379  -0.927  -7.333  1.00  0.00     0.344 HD
ATOM      5  H   UNL     1       5.096  -1.634  -5.961  1.00  0.00     0.344 HD
ENDBRANCH   1   2
BRANCH   1   6
ATOM      6  C   UNL     1       4.066  -3.676  -7.056  1.00  0.00     0.096 C 
ATOM      7  O   UNL     1       4.364  -4.534  -6.185  1.00  0.00    -0.544 OA
ATOM      8  O   UNL     1       2.736  -3.497  -7.418  1.00  0.00    -0.544 OA
ENDBRANCH   1   6
TORSDOF 2
ENDMDL
MODEL 8
REMARK VINA RESULT:    -2.230      6.126      6.543
REMARK INTER + INTRA:          -2.426
REMARK INTER:                  -2.426
REMARK INTRA:                   0.000
REMARK UNBOUND:                 0.000
REMARK SMILES [NH3+]CC(=O)[O-]
REMARK SMILES IDX 2 1 1 2 3 6 4 7 5 8
REMARK H PARENT 1 3 1 4 1 5
REMARK Flexibility Score: inf
ROOT
ATOM      1  C   UNL     1       8.422   5.928   0.367  1.00  0.00     0.312 C 
ENDROOT
BRANCH   1   2
ATOM      2  N   UNL     1       9.389   4.897  -0.008  1.00  0.00    -0.353 N 
ATOM      3  H   UNL     1      10.144   4.837   0.714  1.00  0.00     0.344 HD
ATOM      4  H   UNL     1       8.900   3.975  -0.065  1.00  0.00     0.344 HD
ATOM      5  H   UNL     1       9.806   5.119  -0.941  1.00  0.00     0.344 HD
ENDBRANCH   1   2
BRANCH   1   6
ATOM      6  C   UNL     1       7.139   5.747  -0.385  1.00  0.00     0.096 C 
ATOM      7  O   UNL     1       7.083   6.015  -1.614  1.00  0.00    -0.544 OA
ATOM      8  O   UNL     1       6.021   5.234   0.260  1.00  0.00    -0.544 OA
ENDBRANCH   1   6
TORSDOF 2
ENDMDL
MODEL 9
REMARK VINA RESULT:    -2.212      2.501      2.746
REMARK INTER + INTRA:          -2.406
REMARK INTER:                  -2.406
REMARK INTRA:                   0.000
REMARK UNBOUND:                 0.000
REMARK SMILES [NH3+]CC(=O)[O-]
REMARK SMILES IDX 2 1 1 2 3 6 4 7 5 8
REMARK H PARENT 1 3 1 4 1 5
REMARK Flexibility Score: inf
ROOT
ATOM      1  C   UNL     1       1.916   6.338   0.622  1.00  0.00     0.312 C 
ENDROOT
BRANCH   1   2
ATOM      2  N   UNL     1       1.102   5.653  -0.380  1.00  0.00    -0.353 N 
ATOM      3  H   UNL     1       1.209   6.122  -1.310  1.00  0.00     0.344 HD
ATOM      4  H   UNL     1       1.423   4.661  -0.462  1.00  0.00     0.344 HD
ATOM      5  H   UNL     1       0.096   5.661  -0.093  1.00  0.00     0.344 HD
ENDBRANCH   1   2
BRANCH   1   6
ATOM      6  C   UNL     1       1.072   6.775   1.779  1.00  0.00     0.096 C 
ATOM      7  O   UNL     1       0.773   5.959   2.689  1.00  0.00    -0.544 OA
ATOM      8  O   UNL     1       0.658   8.099   1.877  1.00  0.00    -0.544 OA
ENDBRANCH   1   6
TORSDOF 2
ENDMDL
