MODEL 1
REMARK VINA RESULT:    -6.175      0.000      0.000
REMARK INTER + INTRA:          -7.827
REMARK INTER:                  -7.258
REMARK INTRA:                  -0.569
REMARK UNBOUND:                -0.569
REMARK SMILES C=C(C)[C@H]1CC[C@@]2(CO)CC[C@@]3(C)[C@H](CC[C@H]4[C@]5(C)CC[C@H](O)C(C)(C)[C@H]5CC[C@]43C)[C@@H]12
REMARK SMILES IDX 4 1 5 2 6 3 7 4 32 5 14 6 15 7 16 8 17 9 18 10 20 11 21 12
REMARK SMILES IDX 22 13 24 14 27 15 28 16 29 17 30 18 12 19 11 20 10 21 13 22
REMARK SMILES IDX 31 23 25 24 26 25 19 26 2 27 3 28 1 29 8 30 9 31 23 33
REMARK H PARENT 9 32 23 34
REMARK Flexibility Score: inf
ROOT
ATOM      1  C   UNL     1       5.439  -2.441  31.816  1.00  0.00     0.018 C 
ATOM      2  C   UNL     1       6.808  -2.925  31.375  1.00  0.00     0.009 C 
ATOM      3  C   UNL     1       6.601  -4.405  31.095  1.00  0.00     0.010 C 
ATOM      4  C   UNL     1       5.456  -4.891  32.041  1.00  0.00    -0.003 C 
ATOM      5  C   UNL     1       4.873  -3.589  32.695  1.00  0.00     0.008 C 
ATOM      6  C   UNL     1       5.041  -3.391  34.280  1.00  0.00    -0.000 C 
ATOM      7  C   UNL     1       3.652  -3.346  34.930  1.00  0.00     0.005 C 
ATOM      8  C   UNL     1       3.108  -4.753  35.072  1.00  0.00     0.005 C 
ATOM      9  C   UNL     1       3.807  -5.449  36.251  1.00  0.00     0.002 C 
ATOM     10  C   UNL     1       3.286  -6.931  36.564  1.00  0.00    -0.026 C 
ATOM     11  C   UNL     1       1.746  -6.864  36.864  1.00  0.00     0.010 C 
ATOM     12  C   UNL     1       1.156  -8.118  37.530  1.00  0.00     0.033 C 
ATOM     13  C   UNL     1       1.905  -8.537  38.807  1.00  0.00     0.120 C 
ATOM     14  C   UNL     1       3.449  -8.694  38.588  1.00  0.00    -0.006 C 
ATOM     15  C   UNL     1       4.029  -7.411  37.863  1.00  0.00     0.003 C 
ATOM     16  C   UNL     1       5.580  -7.397  37.732  1.00  0.00     0.005 C 
ATOM     17  C   UNL     1       6.130  -6.513  36.598  1.00  0.00     0.008 C 
ATOM     18  C   UNL     1       5.390  -5.158  36.366  1.00  0.00    -0.024 C 
ATOM     19  C   UNL     1       6.072  -4.311  35.099  1.00  0.00    -0.024 C 
ATOM     20  C   UNL     1       6.874  -5.208  34.096  1.00  0.00     0.008 C 
ATOM     21  C   UNL     1       5.989  -5.894  33.083  1.00  0.00     0.010 C 
ATOM     22  C   UNL     1       7.195  -3.351  35.635  1.00  0.00     0.012 C 
ATOM     23  C   UNL     1       5.591  -4.350  37.704  1.00  0.00     0.012 C 
ATOM     24  C   UNL     1       3.709 -10.021  37.822  1.00  0.00     0.014 C 
ATOM     25  C   UNL     1       4.126  -8.849  39.976  1.00  0.00     0.014 C 
ATOM     26  C   UNL     1       3.498  -7.908  35.364  1.00  0.00     0.012 C 
ENDROOT
BRANCH   1  27
ATOM     27  C   UNL     1       5.378  -1.030  32.395  1.00  0.00    -0.077 C 
ATOM     28  C   UNL     1       6.630  -0.279  32.779  1.00  0.00     0.039 C 
ATOM     29  C   UNL     1       4.184  -0.427  32.513  1.00  0.00     0.008 C 
ENDBRANCH   1  27
BRANCH   4  30
ATOM     30  C   UNL     1       4.364  -5.607  31.192  1.00  0.00     0.163 C 
BRANCH  30  31
ATOM     31  O   UNL     1       4.323  -5.078  29.893  1.00  0.00    -0.396 OA
ATOM     32  H   UNL     1       5.044  -5.531  29.384  1.00  0.00     0.210 HD
ENDBRANCH  30  31
ENDBRANCH   4  30
BRANCH  13  33
ATOM     33  O   UNL     1       1.587  -7.673  39.876  1.00  0.00    -0.393 OA
ATOM     34  H   UNL     1       0.842  -7.084  39.597  1.00  0.00     0.210 HD
ENDBRANCH  13  33
TORSDOF 4
ENDMDL
MODEL 2
REMARK VINA RESULT:    -6.085      1.417      1.996
REMARK INTER + INTRA:          -7.721
REMARK INTER:                  -7.071
REMARK INTRA:                  -0.650
REMARK UNBOUND:                -0.569
REMARK SMILES C=C(C)[C@H]1CC[C@@]2(CO)CC[C@@]3(C)[C@H](CC[C@H]4[C@]5(C)CC[C@H](O)C(C)(C)[C@H]5CC[C@]43C)[C@@H]12
REMARK SMILES IDX 4 1 5 2 6 3 7 4 32 5 14 6 15 7 16 8 17 9 18 10 20 11 21 12
REMARK SMILES IDX 22 13 24 14 27 15 28 16 29 17 30 18 12 19 11 20 10 21 13 22
REMARK SMILES IDX 31 23 25 24 26 25 19 26 2 27 3 28 1 29 8 30 9 31 23 33
REMARK H PARENT 9 32 23 34
REMARK Flexibility Score: inf
ROOT
ATOM      1  C   UNL     1       6.914  -1.250  31.246  1.00  0.00     0.018 C 
ATOM      2  C   UNL     1       8.151  -1.998  30.783  1.00  0.00     0.009 C 
ATOM      3  C   UNL     1       7.598  -3.276  30.174  1.00  0.00     0.010 C 
ATOM      4  C   UNL     1       6.270  -3.602  30.929  1.00  0.00    -0.003 C 
ATOM      5  C   UNL     1       5.977  -2.345  31.821  1.00  0.00     0.008 C 
ATOM      6  C   UNL     1       6.014  -2.517  33.417  1.00  0.00    -0.000 C 
ATOM      7  C   UNL     1       4.622  -2.217  33.988  1.00  0.00     0.005 C 
ATOM      8  C   UNL     1       3.719  -3.418  33.789  1.00  0.00     0.005 C 
ATOM      9  C   UNL     1       4.078  -4.498  34.822  1.00  0.00     0.002 C 
ATOM     10  C   UNL     1       3.159  -5.809  34.774  1.00  0.00    -0.026 C 
ATOM     11  C   UNL     1       1.666  -5.378  35.000  1.00  0.00     0.010 C 
ATOM     12  C   UNL     1       0.701  -6.525  35.343  1.00  0.00     0.033 C 
ATOM     13  C   UNL     1       1.169  -7.377  36.535  1.00  0.00     0.120 C 
ATOM     14  C   UNL     1       2.634  -7.910  36.368  1.00  0.00    -0.006 C 
ATOM     15  C   UNL     1       3.603  -6.722  35.974  1.00  0.00     0.003 C 
ATOM     16  C   UNL     1       5.110  -7.113  35.930  1.00  0.00     0.005 C 
ATOM     17  C   UNL     1       5.992  -6.211  35.048  1.00  0.00     0.008 C 
ATOM     18  C   UNL     1       5.660  -4.686  35.080  1.00  0.00    -0.024 C 
ATOM     19  C   UNL     1       6.675  -3.830  34.068  1.00  0.00    -0.024 C 
ATOM     20  C   UNL     1       7.321  -4.698  32.936  1.00  0.00     0.008 C 
ATOM     21  C   UNL     1       6.405  -4.899  31.752  1.00  0.00     0.010 C 
ATOM     22  C   UNL     1       7.942  -3.344  34.859  1.00  0.00     0.012 C 
ATOM     23  C   UNL     1       5.915  -4.245  36.571  1.00  0.00     0.012 C 
ATOM     24  C   UNL     1       2.623  -9.080  35.344  1.00  0.00     0.014 C 
ATOM     25  C   UNL     1       3.090  -8.517  37.722  1.00  0.00     0.014 C 
ATOM     26  C   UNL     1       3.241  -6.550  33.401  1.00  0.00     0.012 C 
ENDROOT
BRANCH   1  27
ATOM     27  C   UNL     1       7.159  -0.020  32.116  1.00  0.00    -0.077 C 
ATOM     28  C   UNL     1       8.421   0.133  32.932  1.00  0.00     0.039 C 
ATOM     29  C   UNL     1       6.252   0.971  32.111  1.00  0.00     0.008 C 
ENDBRANCH   1  27
BRANCH   4  30
ATOM     30  C   UNL     1       5.130  -3.806  29.888  1.00  0.00     0.163 C 
BRANCH  30  31
ATOM     31  O   UNL     1       4.355  -4.929  30.216  1.00  0.00    -0.396 OA
ATOM     32  H   UNL     1       3.722  -4.635  30.923  1.00  0.00     0.210 HD
ENDBRANCH  30  31
ENDBRANCH   4  30
BRANCH  13  33
ATOM     33  O   UNL     1       0.971  -6.686  37.748  1.00  0.00    -0.393 OA
ATOM     34  H   UNL     1       0.376  -5.914  37.581  1.00  0.00     0.210 HD
ENDBRANCH  13  33
TORSDOF 4
ENDMDL
MODEL 3
REMARK VINA RESULT:    -5.580      2.200      3.850
REMARK INTER + INTRA:          -7.128
REMARK INTER:                  -6.561
REMARK INTRA:                  -0.566
REMARK UNBOUND:                -0.569
REMARK SMILES C=C(C)[C@H]1CC[C@@]2(CO)CC[C@@]3(C)[C@H](CC[C@H]4[C@]5(C)CC[C@H](O)C(C)(C)[C@H]5CC[C@]43C)[C@@H]12
REMARK SMILES IDX 4 1 5 2 6 3 7 4 32 5 14 6 15 7 16 8 17 9 18 10 20 11 21 12
REMARK SMILES IDX 22 13 24 14 27 15 28 16 29 17 30 18 12 19 11 20 10 21 13 22
REMARK SMILES IDX 31 23 25 24 26 25 19 26 2 27 3 28 1 29 8 30 9 31 23 33
REMARK H PARENT 9 32 23 34
REMARK Flexibility Score: inf
ROOT
ATOM      1  C   UNL     1       7.869  -0.713  32.458  1.00  0.00     0.018 C 
ATOM      2  C   UNL     1       7.755  -0.724  30.945  1.00  0.00     0.009 C 
ATOM      3  C   UNL     1       6.258  -0.649  30.690  1.00  0.00     0.010 C 
ATOM      4  C   UNL     1       5.556  -1.339  31.903  1.00  0.00    -0.003 C 
ATOM      5  C   UNL     1       6.692  -1.596  32.954  1.00  0.00     0.008 C 
ATOM      6  C   UNL     1       7.073  -3.115  33.309  1.00  0.00    -0.000 C 
ATOM      7  C   UNL     1       6.782  -3.372  34.793  1.00  0.00     0.005 C 
ATOM      8  C   UNL     1       5.297  -3.603  34.990  1.00  0.00     0.005 C 
ATOM      9  C   UNL     1       4.937  -5.020  34.516  1.00  0.00     0.002 C 
ATOM     10  C   UNL     1       3.403  -5.431  34.723  1.00  0.00    -0.026 C 
ATOM     11  C   UNL     1       3.057  -5.312  36.250  1.00  0.00     0.010 C 
ATOM     12  C   UNL     1       1.754  -6.005  36.680  1.00  0.00     0.033 C 
ATOM     13  C   UNL     1       1.682  -7.482  36.257  1.00  0.00     0.120 C 
ATOM     14  C   UNL     1       1.950  -7.694  34.727  1.00  0.00    -0.006 C 
ATOM     15  C   UNL     1       3.273  -6.938  34.297  1.00  0.00     0.003 C 
ATOM     16  C   UNL     1       3.714  -7.207  32.828  1.00  0.00     0.005 C 
ATOM     17  C   UNL     1       4.611  -6.121  32.208  1.00  0.00     0.008 C 
ATOM     18  C   UNL     1       5.674  -5.485  33.158  1.00  0.00    -0.024 C 
ATOM     19  C   UNL     1       6.561  -4.313  32.367  1.00  0.00    -0.024 C 
ATOM     20  C   UNL     1       5.841  -3.711  31.113  1.00  0.00     0.008 C 
ATOM     21  C   UNL     1       4.843  -2.634  31.467  1.00  0.00     0.010 C 
ATOM     22  C   UNL     1       7.844  -4.950  31.723  1.00  0.00     0.012 C 
ATOM     23  C   UNL     1       6.624  -6.676  33.561  1.00  0.00     0.012 C 
ATOM     24  C   UNL     1       0.686  -7.251  33.936  1.00  0.00     0.014 C 
ATOM     25  C   UNL     1       2.119  -9.215  34.467  1.00  0.00     0.014 C 
ATOM     26  C   UNL     1       2.422  -4.504  33.936  1.00  0.00     0.012 C 
ENDROOT
BRANCH   1  27
ATOM     27  C   UNL     1       9.251  -1.014  33.031  1.00  0.00    -0.077 C 
ATOM     28  C   UNL     1      10.189  -1.989  32.361  1.00  0.00     0.039 C 
ATOM     29  C   UNL     1       9.658  -0.353  34.127  1.00  0.00     0.008 C 
ENDBRANCH   1  27
BRANCH   4  30
ATOM     30  C   UNL     1       4.486  -0.371  32.489  1.00  0.00     0.163 C 
BRANCH  30  31
ATOM     31  O   UNL     1       3.219  -0.974  32.486  1.00  0.00    -0.396 OA
ATOM     32  H   UNL     1       2.971  -1.101  31.534  1.00  0.00     0.210 HD
ENDBRANCH  30  31
ENDBRANCH   4  30
BRANCH  13  33
ATOM     33  O   UNL     1       2.514  -8.274  37.075  1.00  0.00    -0.393 OA
ATOM     34  H   UNL     1       3.135  -7.681  37.565  1.00  0.00     0.210 HD
ENDBRANCH  13  33
TORSDOF 4
ENDMDL
MODEL 4
REMARK VINA RESULT:    -5.356      1.594      7.629
REMARK INTER + INTRA:          -6.864
REMARK INTER:                  -6.283
REMARK INTRA:                  -0.581
REMARK UNBOUND:                -0.569
REMARK SMILES C=C(C)[C@H]1CC[C@@]2(CO)CC[C@@]3(C)[C@H](CC[C@H]4[C@]5(C)CC[C@H](O)C(C)(C)[C@H]5CC[C@]43C)[C@@H]12
REMARK SMILES IDX 4 1 5 2 6 3 7 4 32 5 14 6 15 7 16 8 17 9 18 10 20 11 21 12
REMARK SMILES IDX 22 13 24 14 27 15 28 16 29 17 30 18 12 19 11 20 10 21 13 22
REMARK SMILES IDX 31 23 25 24 26 25 19 26 2 27 3 28 1 29 8 30 9 31 23 33
REMARK H PARENT 9 32 23 34
REMARK Flexibility Score: inf
ROOT
ATOM      1  C   UNL     1       3.853  -8.243  38.977  1.00  0.00     0.018 C 
ATOM      2  C   UNL     1       5.001  -9.235  38.950  1.00  0.00     0.009 C 
ATOM      3  C   UNL     1       6.239  -8.358  38.851  1.00  0.00     0.010 C 
ATOM      4  C   UNL     1       5.817  -7.061  38.089  1.00  0.00    -0.003 C 
ATOM      5  C   UNL     1       4.255  -7.137  37.966  1.00  0.00     0.008 C 
ATOM      6  C   UNL     1       3.611  -7.273  36.502  1.00  0.00    -0.000 C 
ATOM      7  C   UNL     1       2.745  -6.039  36.217  1.00  0.00     0.005 C 
ATOM      8  C   UNL     1       3.629  -4.875  35.818  1.00  0.00     0.005 C 
ATOM      9  C   UNL     1       4.099  -5.071  34.368  1.00  0.00     0.002 C 
ATOM     10  C   UNL     1       4.997  -3.879  33.784  1.00  0.00    -0.026 C 
ATOM     11  C   UNL     1       4.170  -2.547  33.866  1.00  0.00     0.010 C 
ATOM     12  C   UNL     1       4.724  -1.382  33.030  1.00  0.00     0.033 C 
ATOM     13  C   UNL     1       4.951  -1.748  31.553  1.00  0.00     0.120 C 
ATOM     14  C   UNL     1       5.827  -3.034  31.369  1.00  0.00    -0.006 C 
ATOM     15  C   UNL     1       5.265  -4.209  32.271  1.00  0.00     0.003 C 
ATOM     16  C   UNL     1       5.971  -5.579  32.050  1.00  0.00     0.005 C 
ATOM     17  C   UNL     1       5.869  -6.561  33.231  1.00  0.00     0.008 C 
ATOM     18  C   UNL     1       4.503  -6.585  33.987  1.00  0.00    -0.024 C 
ATOM     19  C   UNL     1       4.537  -7.675  35.251  1.00  0.00    -0.024 C 
ATOM     20  C   UNL     1       5.979  -8.008  35.763  1.00  0.00     0.008 C 
ATOM     21  C   UNL     1       6.519  -6.972  36.719  1.00  0.00     0.010 C 
ATOM     22  C   UNL     1       4.038  -9.083  34.764  1.00  0.00     0.012 C 
ATOM     23  C   UNL     1       3.453  -7.062  32.913  1.00  0.00     0.012 C 
ATOM     24  C   UNL     1       7.310  -2.672  31.662  1.00  0.00     0.014 C 
ATOM     25  C   UNL     1       5.765  -3.458  29.877  1.00  0.00     0.014 C 
ATOM     26  C   UNL     1       6.319  -3.673  34.590  1.00  0.00     0.012 C 
ENDROOT
BRANCH   1  27
ATOM     27  C   UNL     1       2.452  -8.833  38.839  1.00  0.00    -0.077 C 
ATOM     28  C   UNL     1       2.208 -10.125  38.095  1.00  0.00     0.039 C 
ATOM     29  C   UNL     1       1.423  -8.213  39.439  1.00  0.00     0.008 C 
ENDBRANCH   1  27
BRANCH   4  30
ATOM     30  C   UNL     1       6.236  -5.818  38.929  1.00  0.00     0.163 C 
BRANCH  30  31
ATOM     31  O   UNL     1       6.165  -6.104  40.301  1.00  0.00    -0.396 OA
ATOM     32  H   UNL     1       6.238  -7.090  40.386  1.00  0.00     0.210 HD
ENDBRANCH  30  31
ENDBRANCH   4  30
BRANCH  13  33
ATOM     33  O   UNL     1       3.723  -1.817  30.864  1.00  0.00    -0.393 OA
ATOM     34  H   UNL     1       3.642  -2.710  30.446  1.00  0.00     0.210 HD
ENDBRANCH  13  33
TORSDOF 4
ENDMDL
MODEL 5
REMARK VINA RESULT:    -5.270      3.161      5.280
REMARK INTER + INTRA:          -6.763
REMARK INTER:                  -6.119
REMARK INTRA:                  -0.644
REMARK UNBOUND:                -0.569
REMARK SMILES C=C(C)[C@H]1CC[C@@]2(CO)CC[C@@]3(C)[C@H](CC[C@H]4[C@]5(C)CC[C@H](O)C(C)(C)[C@H]5CC[C@]43C)[C@@H]12
REMARK SMILES IDX 4 1 5 2 6 3 7 4 32 5 14 6 15 7 16 8 17 9 18 10 20 11 21 12
REMARK SMILES IDX 22 13 24 14 27 15 28 16 29 17 30 18 12 19 11 20 10 21 13 22
REMARK SMILES IDX 31 23 25 24 26 25 19 26 2 27 3 28 1 29 8 30 9 31 23 33
REMARK H PARENT 9 32 23 34
REMARK Flexibility Score: inf
ROOT
ATOM      1  C   UNL     1       3.043  -6.766  33.649  1.00  0.00     0.018 C 
ATOM      2  C   UNL     1       3.648  -6.011  32.479  1.00  0.00     0.009 C 
ATOM      3  C   UNL     1       5.057  -6.573  32.371  1.00  0.00     0.010 C 
ATOM      4  C   UNL     1       5.486  -7.005  33.810  1.00  0.00    -0.003 C 
ATOM      5  C   UNL     1       4.192  -6.881  34.687  1.00  0.00     0.008 C 
ATOM      6  C   UNL     1       4.169  -5.788  35.864  1.00  0.00    -0.000 C 
ATOM      7  C   UNL     1       4.015  -6.504  37.212  1.00  0.00     0.005 C 
ATOM      8  C   UNL     1       5.351  -7.074  37.644  1.00  0.00     0.005 C 
ATOM      9  C   UNL     1       6.239  -5.937  38.175  1.00  0.00     0.002 C 
ATOM     10  C   UNL     1       7.668  -6.401  38.730  1.00  0.00    -0.026 C 
ATOM     11  C   UNL     1       7.440  -7.439  39.885  1.00  0.00     0.010 C 
ATOM     12  C   UNL     1       8.670  -7.714  40.767  1.00  0.00     0.033 C 
ATOM     13  C   UNL     1       9.299  -6.436  41.349  1.00  0.00     0.120 C 
ATOM     14  C   UNL     1       9.624  -5.362  40.255  1.00  0.00    -0.006 C 
ATOM     15  C   UNL     1       8.360  -5.125  39.332  1.00  0.00     0.003 C 
ATOM     16  C   UNL     1       8.525  -3.966  38.305  1.00  0.00     0.005 C 
ATOM     17  C   UNL     1       7.611  -4.054  37.070  1.00  0.00     0.008 C 
ATOM     18  C   UNL     1       6.158  -4.566  37.328  1.00  0.00    -0.024 C 
ATOM     19  C   UNL     1       5.285  -4.632  35.907  1.00  0.00    -0.024 C 
ATOM     20  C   UNL     1       6.173  -4.723  34.620  1.00  0.00     0.008 C 
ATOM     21  C   UNL     1       6.644  -6.128  34.328  1.00  0.00     0.010 C 
ATOM     22  C   UNL     1       4.528  -3.275  35.675  1.00  0.00     0.012 C 
ATOM     23  C   UNL     1       5.515  -3.495  38.288  1.00  0.00     0.012 C 
ATOM     24  C   UNL     1      10.894  -5.813  39.478  1.00  0.00     0.014 C 
ATOM     25  C   UNL     1       9.995  -4.035  40.969  1.00  0.00     0.014 C 
ATOM     26  C   UNL     1       8.543  -7.089  37.634  1.00  0.00     0.012 C 
ENDROOT
BRANCH   1  27
ATOM     27  C   UNL     1       1.698  -6.254  34.156  1.00  0.00    -0.077 C 
ATOM     28  C   UNL     1       0.733  -7.157  34.886  1.00  0.00     0.039 C 
ATOM     29  C   UNL     1       1.393  -4.956  33.993  1.00  0.00     0.008 C 
ENDBRANCH   1  27
BRANCH   4  30
ATOM     30  C   UNL     1       5.976  -8.482  33.772  1.00  0.00     0.163 C 
BRANCH  30  31
ATOM     31  O   UNL     1       5.394  -9.222  34.813  1.00  0.00    -0.396 OA
ATOM     32  H   UNL     1       4.412  -9.165  34.681  1.00  0.00     0.210 HD
ENDBRANCH  30  31
ENDBRANCH   4  30
BRANCH  13  33
ATOM     33  O   UNL     1       8.509  -5.928  42.400  1.00  0.00    -0.393 OA
ATOM     34  H   UNL     1       8.891  -6.231  43.261  1.00  0.00     0.210 HD
ENDBRANCH  13  33
TORSDOF 4
ENDMDL
MODEL 6
REMARK VINA RESULT:    -5.237      1.996      2.739
REMARK INTER + INTRA:          -6.724
REMARK INTER:                  -6.029
REMARK INTRA:                  -0.695
REMARK UNBOUND:                -0.569
REMARK SMILES C=C(C)[C@H]1CC[C@@]2(CO)CC[C@@]3(C)[C@H](CC[C@H]4[C@]5(C)CC[C@H](O)C(C)(C)[C@H]5CC[C@]43C)[C@@H]12
REMARK SMILES IDX 4 1 5 2 6 3 7 4 32 5 14 6 15 7 16 8 17 9 18 10 20 11 21 12
REMARK SMILES IDX 22 13 24 14 27 15 28 16 29 17 30 18 12 19 11 20 10 21 13 22
REMARK SMILES IDX 31 23 25 24 26 25 19 26 2 27 3 28 1 29 8 30 9 31 23 33
REMARK H PARENT 9 32 23 34
REMARK Flexibility Score: inf
ROOT
ATOM      1  C   UNL     1       4.917  -2.335  31.320  1.00  0.00     0.018 C 
ATOM      2  C   UNL     1       6.028  -2.649  30.334  1.00  0.00     0.009 C 
ATOM      3  C   UNL     1       6.071  -4.168  30.305  1.00  0.00     0.010 C 
ATOM      4  C   UNL     1       5.603  -4.664  31.711  1.00  0.00    -0.003 C 
ATOM      5  C   UNL     1       5.078  -3.385  32.452  1.00  0.00     0.008 C 
ATOM      6  C   UNL     1       5.869  -2.879  33.755  1.00  0.00    -0.000 C 
ATOM      7  C   UNL     1       4.936  -2.954  34.970  1.00  0.00     0.005 C 
ATOM      8  C   UNL     1       4.855  -4.385  35.463  1.00  0.00     0.005 C 
ATOM      9  C   UNL     1       6.139  -4.728  36.235  1.00  0.00     0.002 C 
ATOM     10  C   UNL     1       6.169  -6.197  36.874  1.00  0.00    -0.026 C 
ATOM     11  C   UNL     1       4.947  -6.340  37.849  1.00  0.00     0.010 C 
ATOM     12  C   UNL     1       5.019  -7.536  38.814  1.00  0.00     0.033 C 
ATOM     13  C   UNL     1       6.325  -7.584  39.626  1.00  0.00     0.120 C 
ATOM     14  C   UNL     1       7.607  -7.512  38.728  1.00  0.00    -0.006 C 
ATOM     15  C   UNL     1       7.494  -6.302  37.714  1.00  0.00     0.003 C 
ATOM     16  C   UNL     1       8.781  -6.047  36.875  1.00  0.00     0.005 C 
ATOM     17  C   UNL     1       8.557  -5.301  35.548  1.00  0.00     0.008 C 
ATOM     18  C   UNL     1       7.496  -4.156  35.576  1.00  0.00    -0.024 C 
ATOM     19  C   UNL     1       7.338  -3.447  34.073  1.00  0.00    -0.024 C 
ATOM     20  C   UNL     1       7.806  -4.360  32.889  1.00  0.00     0.008 C 
ATOM     21  C   UNL     1       6.756  -5.358  32.464  1.00  0.00     0.010 C 
ATOM     22  C   UNL     1       8.323  -2.230  33.944  1.00  0.00     0.012 C 
ATOM     23  C   UNL     1       8.066  -3.098  36.595  1.00  0.00     0.012 C 
ATOM     24  C   UNL     1       7.809  -8.892  38.039  1.00  0.00     0.014 C 
ATOM     25  C   UNL     1       8.837  -7.298  39.649  1.00  0.00     0.014 C 
ATOM     26  C   UNL     1       6.058  -7.323  35.797  1.00  0.00     0.012 C 
ENDROOT
BRANCH   1  27
ATOM     27  C   UNL     1       4.787  -0.874  31.742  1.00  0.00    -0.077 C 
ATOM     28  C   UNL     1       5.949   0.085  31.639  1.00  0.00     0.039 C 
ATOM     29  C   UNL     1       3.595  -0.423  32.165  1.00  0.00     0.008 C 
ENDBRANCH   1  27
BRANCH   4  30
ATOM     30  C   UNL     1       4.452  -5.696  31.529  1.00  0.00     0.163 C 
BRANCH  30  31
ATOM     31  O   UNL     1       3.379  -5.395  32.382  1.00  0.00    -0.396 OA
ATOM     32  H   UNL     1       3.710  -4.706  33.015  1.00  0.00     0.210 HD
ENDBRANCH  30  31
ENDBRANCH   4  30
BRANCH  13  33
ATOM     33  O   UNL     1       6.313  -6.609  40.644  1.00  0.00    -0.393 OA
ATOM     34  H   UNL     1       5.383  -6.493  40.963  1.00  0.00     0.210 HD
ENDBRANCH  13  33
TORSDOF 4
ENDMDL
MODEL 7
REMARK VINA RESULT:    -4.986      2.781      4.714
REMARK INTER + INTRA:          -6.429
REMARK INTER:                  -5.782
REMARK INTRA:                  -0.647
REMARK UNBOUND:                -0.569
REMARK SMILES C=C(C)[C@H]1CC[C@@]2(CO)CC[C@@]3(C)[C@H](CC[C@H]4[C@]5(C)CC[C@H](O)C(C)(C)[C@H]5CC[C@]43C)[C@@H]12
REMARK SMILES IDX 4 1 5 2 6 3 7 4 32 5 14 6 15 7 16 8 17 9 18 10 20 11 21 12
REMARK SMILES IDX 22 13 24 14 27 15 28 16 29 17 30 18 12 19 11 20 10 21 13 22
REMARK SMILES IDX 31 23 25 24 26 25 19 26 2 27 3 28 1 29 8 30 9 31 23 33
REMARK H PARENT 9 32 23 34
REMARK Flexibility Score: inf
ROOT
ATOM      1  C   UNL     1       9.515  -2.685  37.841  1.00  0.00     0.018 C 
ATOM      2  C   UNL     1      10.670  -3.548  37.368  1.00  0.00     0.009 C 
ATOM      3  C   UNL     1      10.310  -3.884  35.930  1.00  0.00     0.010 C 
ATOM      4  C   UNL     1       8.750  -3.898  35.843  1.00  0.00    -0.003 C 
ATOM      5  C   UNL     1       8.249  -3.334  37.218  1.00  0.00     0.008 C 
ATOM      6  C   UNL     1       7.427  -4.313  38.190  1.00  0.00    -0.000 C 
ATOM      7  C   UNL     1       6.012  -3.754  38.387  1.00  0.00     0.005 C 
ATOM      8  C   UNL     1       5.159  -4.087  37.180  1.00  0.00     0.005 C 
ATOM      9  C   UNL     1       4.749  -5.567  37.243  1.00  0.00     0.002 C 
ATOM     10  C   UNL     1       3.785  -6.050  36.058  1.00  0.00    -0.026 C 
ATOM     11  C   UNL     1       2.486  -5.170  36.082  1.00  0.00     0.010 C 
ATOM     12  C   UNL     1       1.309  -5.721  35.260  1.00  0.00     0.033 C 
ATOM     13  C   UNL     1       0.945  -7.173  35.617  1.00  0.00     0.120 C 
ATOM     14  C   UNL     1       2.174  -8.144  35.555  1.00  0.00    -0.006 C 
ATOM     15  C   UNL     1       3.388  -7.538  36.371  1.00  0.00     0.003 C 
ATOM     16  C   UNL     1       4.611  -8.493  36.501  1.00  0.00     0.005 C 
ATOM     17  C   UNL     1       5.957  -7.795  36.769  1.00  0.00     0.008 C 
ATOM     18  C   UNL     1       5.912  -6.570  37.736  1.00  0.00    -0.024 C 
ATOM     19  C   UNL     1       7.429  -5.898  37.922  1.00  0.00    -0.024 C 
ATOM     20  C   UNL     1       8.414  -6.221  36.748  1.00  0.00     0.008 C 
ATOM     21  C   UNL     1       8.225  -5.317  35.553  1.00  0.00     0.010 C 
ATOM     22  C   UNL     1       8.164  -6.554  39.145  1.00  0.00     0.012 C 
ATOM     23  C   UNL     1       5.428  -7.158  39.115  1.00  0.00     0.012 C 
ATOM     24  C   UNL     1       2.502  -8.435  34.063  1.00  0.00     0.014 C 
ATOM     25  C   UNL     1       1.757  -9.500  36.184  1.00  0.00     0.014 C 
ATOM     26  C   UNL     1       4.442  -5.896  34.649  1.00  0.00     0.012 C 
ENDROOT
BRANCH   1  27
ATOM     27  C   UNL     1       9.473  -2.379  39.336  1.00  0.00    -0.077 C 
ATOM     28  C   UNL     1      10.039  -3.338  40.356  1.00  0.00     0.039 C 
ATOM     29  C   UNL     1       8.967  -1.203  39.744  1.00  0.00     0.008 C 
ENDBRANCH   1  27
BRANCH   4  30
ATOM     30  C   UNL     1       8.298  -2.967  34.679  1.00  0.00     0.163 C 
BRANCH  30  31
ATOM     31  O   UNL     1       6.968  -3.235  34.320  1.00  0.00    -0.396 OA
ATOM     32  H   UNL     1       6.857  -4.220  34.375  1.00  0.00     0.210 HD
ENDBRANCH  30  31
ENDBRANCH   4  30
BRANCH  13  33
ATOM     33  O   UNL     1       0.265  -7.226  36.851  1.00  0.00    -0.393 OA
ATOM     34  H   UNL     1      -0.529  -7.808  36.751  1.00  0.00     0.210 HD
ENDBRANCH  13  33
TORSDOF 4
ENDMDL
MODEL 8
REMARK VINA RESULT:    -4.839      2.347      7.476
REMARK INTER + INTRA:          -6.257
REMARK INTER:                  -5.563
REMARK INTRA:                  -0.693
REMARK UNBOUND:                -0.569
REMARK SMILES C=C(C)[C@H]1CC[C@@]2(CO)CC[C@@]3(C)[C@H](CC[C@H]4[C@]5(C)CC[C@H](O)C(C)(C)[C@H]5CC[C@]43C)[C@@H]12
REMARK SMILES IDX 4 1 5 2 6 3 7 4 32 5 14 6 15 7 16 8 17 9 18 10 20 11 21 12
REMARK SMILES IDX 22 13 24 14 27 15 28 16 29 17 30 18 12 19 11 20 10 21 13 22
REMARK SMILES IDX 31 23 25 24 26 25 19 26 2 27 3 28 1 29 8 30 9 31 23 33
REMARK H PARENT 9 32 23 34
REMARK Flexibility Score: inf
ROOT
ATOM      1  C   UNL     1       4.497  -9.182  35.366  1.00  0.00     0.018 C 
ATOM      2  C   UNL     1       3.133  -9.418  34.743  1.00  0.00     0.009 C 
ATOM      3  C   UNL     1       3.356  -9.146  33.264  1.00  0.00     0.010 C 
ATOM      4  C   UNL     1       4.502  -8.088  33.163  1.00  0.00    -0.003 C 
ATOM      5  C   UNL     1       5.071  -7.949  34.619  1.00  0.00     0.008 C 
ATOM      6  C   UNL     1       4.896  -6.542  35.374  1.00  0.00    -0.000 C 
ATOM      7  C   UNL     1       6.283  -5.953  35.665  1.00  0.00     0.005 C 
ATOM      8  C   UNL     1       6.839  -5.312  34.409  1.00  0.00     0.005 C 
ATOM      9  C   UNL     1       6.143  -3.961  34.179  1.00  0.00     0.002 C 
ATOM     10  C   UNL     1       6.678  -3.135  32.914  1.00  0.00    -0.026 C 
ATOM     11  C   UNL     1       8.215  -2.880  33.100  1.00  0.00     0.010 C 
ATOM     12  C   UNL     1       8.815  -1.806  32.177  1.00  0.00     0.033 C 
ATOM     13  C   UNL     1       8.067  -0.464  32.240  1.00  0.00     0.120 C 
ATOM     14  C   UNL     1       6.525  -0.611  32.000  1.00  0.00    -0.006 C 
ATOM     15  C   UNL     1       5.935  -1.749  32.928  1.00  0.00     0.003 C 
ATOM     16  C   UNL     1       4.384  -1.877  32.879  1.00  0.00     0.005 C 
ATOM     17  C   UNL     1       3.830  -3.252  33.289  1.00  0.00     0.008 C 
ATOM     18  C   UNL     1       4.558  -3.959  34.476  1.00  0.00    -0.024 C 
ATOM     19  C   UNL     1       3.871  -5.445  34.802  1.00  0.00    -0.024 C 
ATOM     20  C   UNL     1       3.081  -6.057  33.595  1.00  0.00     0.008 C 
ATOM     21  C   UNL     1       3.975  -6.754  32.598  1.00  0.00     0.010 C 
ATOM     22  C   UNL     1       2.738  -5.292  35.879  1.00  0.00     0.012 C 
ATOM     23  C   UNL     1       4.345  -3.003  35.710  1.00  0.00     0.012 C 
ATOM     24  C   UNL     1       6.279  -0.846  30.482  1.00  0.00     0.014 C 
ATOM     25  C   UNL     1       5.845   0.740  32.349  1.00  0.00     0.014 C 
ATOM     26  C   UNL     1       6.478  -3.902  31.568  1.00  0.00     0.012 C 
ENDROOT
BRANCH   1  27
ATOM     27  C   UNL     1       4.543  -9.152  36.892  1.00  0.00    -0.077 C 
ATOM     28  C   UNL     1       3.317  -8.831  37.713  1.00  0.00     0.039 C 
ATOM     29  C   UNL     1       5.690  -9.471  37.514  1.00  0.00     0.008 C 
ENDBRANCH   1  27
BRANCH   4  30
ATOM     30  C   UNL     1       5.603  -8.622  32.200  1.00  0.00     0.163 C 
BRANCH  30  31
ATOM     31  O   UNL     1       6.877  -8.448  32.761  1.00  0.00    -0.396 OA
ATOM     32  H   UNL     1       7.300  -7.698  32.267  1.00  0.00     0.210 HD
ENDBRANCH  30  31
ENDBRANCH   4  30
BRANCH  13  33
ATOM     33  O   UNL     1       8.373   0.220  33.435  1.00  0.00    -0.393 OA
ATOM     34  H   UNL     1       9.279  -0.046  33.730  1.00  0.00     0.210 HD
ENDBRANCH  13  33
TORSDOF 4
ENDMDL
MODEL 9
REMARK VINA RESULT:    -4.799      2.602      7.597
REMARK INTER + INTRA:          -6.209
REMARK INTER:                  -5.516
REMARK INTRA:                  -0.693
REMARK UNBOUND:                -0.569
REMARK SMILES C=C(C)[C@H]1CC[C@@]2(CO)CC[C@@]3(C)[C@H](CC[C@H]4[C@]5(C)CC[C@H](O)C(C)(C)[C@H]5CC[C@]43C)[C@@H]12
REMARK SMILES IDX 4 1 5 2 6 3 7 4 32 5 14 6 15 7 16 8 17 9 18 10 20 11 21 12
REMARK SMILES IDX 22 13 24 14 27 15 28 16 29 17 30 18 12 19 11 20 10 21 13 22
REMARK SMILES IDX 31 23 25 24 26 25 19 26 2 27 3 28 1 29 8 30 9 31 23 33
REMARK H PARENT 9 32 23 34
REMARK Flexibility Score: inf
ROOT
ATOM      1  C   UNL     1       6.621  -8.239  37.500  1.00  0.00     0.018 C 
ATOM      2  C   UNL     1       5.712  -9.236  36.805  1.00  0.00     0.009 C 
ATOM      3  C   UNL     1       6.234  -9.271  35.377  1.00  0.00     0.010 C 
ATOM      4  C   UNL     1       6.841  -7.862  35.080  1.00  0.00    -0.003 C 
ATOM      5  C   UNL     1       6.852  -7.112  36.458  1.00  0.00     0.008 C 
ATOM      6  C   UNL     1       5.920  -5.815  36.627  1.00  0.00    -0.000 C 
ATOM      7  C   UNL     1       6.807  -4.591  36.893  1.00  0.00     0.005 C 
ATOM      8  C   UNL     1       7.407  -4.102  35.591  1.00  0.00     0.005 C 
ATOM      9  C   UNL     1       6.335  -3.344  34.793  1.00  0.00     0.002 C 
ATOM     10  C   UNL     1       6.844  -2.709  33.413  1.00  0.00    -0.026 C 
ATOM     11  C   UNL     1       8.026  -1.724  33.724  1.00  0.00     0.010 C 
ATOM     12  C   UNL     1       8.394  -0.764  32.580  1.00  0.00     0.033 C 
ATOM     13  C   UNL     1       7.192   0.036  32.048  1.00  0.00     0.120 C 
ATOM     14  C   UNL     1       5.981  -0.874  31.647  1.00  0.00    -0.006 C 
ATOM     15  C   UNL     1       5.646  -1.883  32.821  1.00  0.00     0.003 C 
ATOM     16  C   UNL     1       4.361  -2.732  32.588  1.00  0.00     0.005 C 
ATOM     17  C   UNL     1       4.304  -4.055  33.372  1.00  0.00     0.008 C 
ATOM     18  C   UNL     1       4.867  -4.013  34.828  1.00  0.00    -0.024 C 
ATOM     19  C   UNL     1       4.762  -5.512  35.555  1.00  0.00    -0.024 C 
ATOM     20  C   UNL     1       4.673  -6.703  34.541  1.00  0.00     0.008 C 
ATOM     21  C   UNL     1       6.021  -7.122  34.005  1.00  0.00     0.010 C 
ATOM     22  C   UNL     1       3.399  -5.646  36.323  1.00  0.00     0.012 C 
ATOM     23  C   UNL     1       3.939  -2.995  35.594  1.00  0.00     0.012 C 
ATOM     24  C   UNL     1       6.308  -1.569  30.295  1.00  0.00     0.014 C 
ATOM     25  C   UNL     1       4.751   0.037  31.386  1.00  0.00     0.014 C 
ATOM     26  C   UNL     1       7.371  -3.789  32.414  1.00  0.00     0.012 C 
ENDROOT
BRANCH   1  27
ATOM     27  C   UNL     1       6.200  -7.810  38.903  1.00  0.00    -0.077 C 
ATOM     28  C   UNL     1       4.773  -7.951  39.377  1.00  0.00     0.039 C 
ATOM     29  C   UNL     1       7.134  -7.347  39.750  1.00  0.00     0.008 C 
ENDBRANCH   1  27
BRANCH   4  30
ATOM     30  C   UNL     1       8.294  -8.037  34.547  1.00  0.00     0.163 C 
BRANCH  30  31
ATOM     31  O   UNL     1       9.165  -7.141  35.184  1.00  0.00    -0.396 OA
ATOM     32  H   UNL     1       8.677  -6.279  35.255  1.00  0.00     0.210 HD
ENDBRANCH  30  31
ENDBRANCH   4  30
BRANCH  13  33
ATOM     33  O   UNL     1       6.836   1.057  32.952  1.00  0.00    -0.393 OA
ATOM     34  H   UNL     1       7.537   1.127  33.647  1.00  0.00     0.210 HD
ENDBRANCH  13  33
TORSDOF 4
ENDMDL
