MODEL 1
REMARK VINA RESULT:    -7.901      0.000      0.000
REMARK INTER + INTRA:         -11.776
REMARK INTER:                 -10.903
REMARK INTRA:                  -0.873
REMARK UNBOUND:                -0.873
REMARK SMILES O=C([O-])[C@H]1O[C@H](Oc2cc3oc(-c4ccccc4)cc(=O)c3c(O)c2O)[C@@H](O)[C@@H](O)[C@@H]1O
REMARK SMILES IDX 7 1 6 2 4 3 31 4 5 5 29 6 27 7 2 8 1 9 3 10 32 11 30 13
REMARK SMILES IDX 28 15 8 17 25 18 9 19 23 20 10 21 22 22 11 23 20 24 12 25
REMARK SMILES IDX 19 26 21 27 26 28 24 30 13 32 14 33 18 34 15 35 17 36 16 37
REMARK H PARENT 32 12 30 14 28 16 26 29 24 31
REMARK Flexibility Score: inf
ROOT
ATOM      1  O   UNL     1      16.558 -44.956  30.981  1.00  0.00    -0.458 OA
ENDROOT
BRANCH   1   2
ATOM      2  C   UNL     1      16.400 -44.655  32.372  1.00  0.00     0.339 C 
ATOM      3  C   UNL     1      18.715 -44.435  32.713  1.00  0.00     0.199 C 
ATOM      4  C   UNL     1      18.628 -42.913  32.951  1.00  0.00     0.180 C 
ATOM      5  O   UNL     1      17.523 -45.084  33.129  1.00  0.00    -0.328 OA
ATOM      6  C   UNL     1      17.409 -42.345  32.209  1.00  0.00     0.181 C 
ATOM      7  C   UNL     1      16.144 -43.148  32.564  1.00  0.00     0.214 C 
BRANCH   3   8
ATOM      8  C   UNL     1      19.862 -45.011  33.491  1.00  0.00     0.073 C 
ATOM      9  O   UNL     1      20.563 -44.268  34.231  1.00  0.00    -0.547 OA
ATOM     10  O   UNL     1      20.135 -46.373  33.428  1.00  0.00    -0.547 OA
ENDBRANCH   3   8
BRANCH   4  11
ATOM     11  O   UNL     1      19.799 -42.296  32.478  1.00  0.00    -0.387 OA
ATOM     12  H   UNL     1      20.266 -42.962  31.907  1.00  0.00     0.211 HD
ENDBRANCH   4  11
BRANCH   6  13
ATOM     13  O   UNL     1      17.240 -40.992  32.549  1.00  0.00    -0.387 OA
ATOM     14  H   UNL     1      16.364 -40.710  32.171  1.00  0.00     0.211 HD
ENDBRANCH   6  13
BRANCH   7  15
ATOM     15  O   UNL     1      15.781 -42.892  33.898  1.00  0.00    -0.384 OA
ATOM     16  H   UNL     1      15.371 -43.725  34.247  1.00  0.00     0.211 HD
ENDBRANCH   7  15
ENDBRANCH   1   2
BRANCH   1  17
ATOM     17  C   UNL     1      15.793 -44.451  29.912  1.00  0.00     0.172 A 
ATOM     18  C   UNL     1      14.482 -44.883  29.596  1.00  0.00     0.201 A 
ATOM     19  C   UNL     1      16.397 -43.462  29.135  1.00  0.00     0.098 A 
ATOM     20  C   UNL     1      13.824 -44.358  28.451  1.00  0.00     0.176 A 
ATOM     21  C   UNL     1      15.748 -42.915  28.031  1.00  0.00     0.146 A 
ATOM     22  C   UNL     1      14.457 -43.358  27.673  1.00  0.00     0.111 A 
ATOM     23  O   UNL     1      16.368 -41.979  27.319  1.00  0.00    -0.456 OA
ATOM     24  C   UNL     1      13.864 -42.775  26.532  1.00  0.00     0.197 A 
ATOM     25  C   UNL     1      15.834 -41.404  26.244  1.00  0.00     0.138 A 
ATOM     26  C   UNL     1      14.557 -41.799  25.815  1.00  0.00     0.100 A 
ATOM     27  O   UNL     1      12.717 -43.117  26.138  1.00  0.00    -0.289 OA
BRANCH  18  28
ATOM     28  O   UNL     1      13.849 -45.803  30.434  1.00  0.00    -0.502 OA
ATOM     29  H   UNL     1      14.221 -46.709  30.680  1.00  0.00     0.293 HD
ENDBRANCH  18  28
BRANCH  20  30
ATOM     30  O   UNL     1      12.562 -44.819  28.061  1.00  0.00    -0.504 OA
ATOM     31  H   UNL     1      12.310 -45.791  27.961  1.00  0.00     0.293 HD
ENDBRANCH  20  30
BRANCH  25  32
ATOM     32  C   UNL     1      16.618 -40.370  25.524  1.00  0.00     0.017 A 
ATOM     33  C   UNL     1      17.925 -40.666  25.094  1.00  0.00     0.012 A 
ATOM     34  C   UNL     1      16.100 -39.081  25.284  1.00  0.00     0.012 A 
ATOM     35  C   UNL     1      18.688 -39.704  24.424  1.00  0.00     0.001 A 
ATOM     36  C   UNL     1      16.868 -38.122  24.615  1.00  0.00     0.001 A 
ATOM     37  C   UNL     1      18.160 -38.434  24.183  1.00  0.00     0.000 A 
ENDBRANCH  25  32
ENDBRANCH   1  17
TORSDOF 9
ENDMDL
MODEL 2
REMARK VINA RESULT:    -7.872      2.824      6.334
REMARK INTER + INTRA:         -11.737
REMARK INTER:                 -10.605
REMARK INTRA:                  -1.132
REMARK UNBOUND:                -0.873
REMARK SMILES O=C([O-])[C@H]1O[C@H](Oc2cc3oc(-c4ccccc4)cc(=O)c3c(O)c2O)[C@@H](O)[C@@H](O)[C@@H]1O
REMARK SMILES IDX 7 1 6 2 4 3 31 4 5 5 29 6 27 7 2 8 1 9 3 10 32 11 30 13
REMARK SMILES IDX 28 15 8 17 25 18 9 19 23 20 10 21 22 22 11 23 20 24 12 25
REMARK SMILES IDX 19 26 21 27 26 28 24 30 13 32 14 33 18 34 15 35 17 36 16 37
REMARK H PARENT 32 12 30 14 28 16 26 29 24 31
REMARK Flexibility Score: inf
ROOT
ATOM      1  O   UNL     1      16.880 -43.416  28.810  1.00  0.00    -0.458 OA
ENDROOT
BRANCH   1   2
ATOM      2  C   UNL     1      17.279 -42.592  29.911  1.00  0.00     0.339 C 
ATOM      3  C   UNL     1      16.797 -44.261  31.494  1.00  0.00     0.199 C 
ATOM      4  C   UNL     1      18.282 -44.481  31.850  1.00  0.00     0.180 C 
ATOM      5  O   UNL     1      16.563 -42.919  31.094  1.00  0.00    -0.328 OA
ATOM      6  C   UNL     1      19.161 -44.109  30.645  1.00  0.00     0.181 C 
ATOM      7  C   UNL     1      18.800 -42.703  30.134  1.00  0.00     0.214 C 
BRANCH   3   8
ATOM      8  C   UNL     1      15.935 -44.554  32.687  1.00  0.00     0.073 C 
ATOM      9  O   UNL     1      15.328 -43.619  33.275  1.00  0.00    -0.547 OA
ATOM     10  O   UNL     1      15.774 -45.863  33.129  1.00  0.00    -0.547 OA
ENDBRANCH   3   8
BRANCH   4  11
ATOM     11  O   UNL     1      18.489 -45.830  32.187  1.00  0.00    -0.387 OA
ATOM     12  H   UNL     1      18.960 -45.839  33.063  1.00  0.00     0.211 HD
ENDBRANCH   4  11
BRANCH   6  13
ATOM     13  O   UNL     1      20.514 -44.161  31.017  1.00  0.00    -0.387 OA
ATOM     14  H   UNL     1      20.536 -44.216  32.010  1.00  0.00     0.211 HD
ENDBRANCH   6  13
BRANCH   7  15
ATOM     15  O   UNL     1      19.215 -41.738  31.069  1.00  0.00    -0.384 OA
ATOM     16  H   UNL     1      19.974 -41.249  30.658  1.00  0.00     0.211 HD
ENDBRANCH   7  15
ENDBRANCH   1   2
BRANCH   1  17
ATOM     17  C   UNL     1      15.631 -43.414  28.158  1.00  0.00     0.172 A 
ATOM     18  C   UNL     1      15.262 -42.492  27.147  1.00  0.00     0.201 A 
ATOM     19  C   UNL     1      14.724 -44.395  28.558  1.00  0.00     0.098 A 
ATOM     20  C   UNL     1      13.950 -42.532  26.603  1.00  0.00     0.176 A 
ATOM     21  C   UNL     1      13.448 -44.466  28.007  1.00  0.00     0.146 A 
ATOM     22  C   UNL     1      13.043 -43.535  27.027  1.00  0.00     0.111 A 
ATOM     23  O   UNL     1      12.618 -45.417  28.425  1.00  0.00    -0.456 OA
ATOM     24  C   UNL     1      11.729 -43.652  26.524  1.00  0.00     0.197 A 
ATOM     25  C   UNL     1      11.378 -45.560  27.966  1.00  0.00     0.138 A 
ATOM     26  C   UNL     1      10.895 -44.664  26.998  1.00  0.00     0.100 A 
ATOM     27  O   UNL     1      11.284 -42.858  25.652  1.00  0.00    -0.289 OA
BRANCH  18  28
ATOM     28  O   UNL     1      16.208 -41.575  26.686  1.00  0.00    -0.502 OA
ATOM     29  H   UNL     1      17.073 -41.821  26.229  1.00  0.00     0.293 HD
ENDBRANCH  18  28
BRANCH  20  30
ATOM     30  O   UNL     1      13.523 -41.590  25.662  1.00  0.00    -0.504 OA
ATOM     31  H   UNL     1      12.909 -40.814  25.862  1.00  0.00     0.293 HD
ENDBRANCH  20  30
BRANCH  25  32
ATOM     32  C   UNL     1      10.538 -46.657  28.507  1.00  0.00     0.017 A 
ATOM     33  C   UNL     1       9.863 -46.476  29.729  1.00  0.00     0.012 A 
ATOM     34  C   UNL     1      10.420 -47.896  27.844  1.00  0.00     0.012 A 
ATOM     35  C   UNL     1       9.076 -47.501  30.264  1.00  0.00     0.001 A 
ATOM     36  C   UNL     1       9.632 -48.918  28.385  1.00  0.00     0.001 A 
ATOM     37  C   UNL     1       8.959 -48.719  29.593  1.00  0.00     0.000 A 
ENDBRANCH  25  32
ENDBRANCH   1  17
TORSDOF 9
ENDMDL
MODEL 3
REMARK VINA RESULT:    -7.761      2.602      6.426
REMARK INTER + INTRA:         -11.584
REMARK INTER:                 -10.565
REMARK INTRA:                  -1.018
REMARK UNBOUND:                -0.873
REMARK SMILES O=C([O-])[C@H]1O[C@H](Oc2cc3oc(-c4ccccc4)cc(=O)c3c(O)c2O)[C@@H](O)[C@@H](O)[C@@H]1O
REMARK SMILES IDX 7 1 6 2 4 3 31 4 5 5 29 6 27 7 2 8 1 9 3 10 32 11 30 13
REMARK SMILES IDX 28 15 8 17 25 18 9 19 23 20 10 21 22 22 11 23 20 24 12 25
REMARK SMILES IDX 19 26 21 27 26 28 24 30 13 32 14 33 18 34 15 35 17 36 16 37
REMARK H PARENT 32 12 30 14 28 16 26 29 24 31
REMARK Flexibility Score: inf
ROOT
ATOM      1  O   UNL     1      13.115 -44.851  29.621  1.00  0.00    -0.458 OA
ENDROOT
BRANCH   1   2
ATOM      2  C   UNL     1      12.058 -44.236  28.876  1.00  0.00     0.339 C 
ATOM      3  C   UNL     1      10.862 -46.250  28.674  1.00  0.00     0.199 C 
ATOM      4  C   UNL     1       9.725 -45.775  29.601  1.00  0.00     0.180 C 
ATOM      5  O   UNL     1      11.446 -45.156  27.982  1.00  0.00    -0.328 OA
ATOM      6  C   UNL     1      10.269 -44.731  30.590  1.00  0.00     0.181 C 
ATOM      7  C   UNL     1      11.020 -43.620  29.835  1.00  0.00     0.214 C 
BRANCH   3   8
ATOM      8  C   UNL     1      10.326 -47.217  27.659  1.00  0.00     0.073 C 
ATOM      9  O   UNL     1      10.342 -46.923  26.433  1.00  0.00    -0.547 OA
ATOM     10  O   UNL     1       9.842 -48.457  28.062  1.00  0.00    -0.547 OA
ENDBRANCH   3   8
BRANCH   4  11
ATOM     11  O   UNL     1       9.208 -46.873  30.311  1.00  0.00    -0.387 OA
ATOM     12  H   UNL     1       8.582 -47.343  29.699  1.00  0.00     0.211 HD
ENDBRANCH   4  11
BRANCH   6  13
ATOM     13  O   UNL     1       9.207 -44.187  31.330  1.00  0.00    -0.387 OA
ATOM     14  H   UNL     1       8.368 -44.475  30.880  1.00  0.00     0.211 HD
ENDBRANCH   6  13
BRANCH   7  15
ATOM     15  O   UNL     1      10.105 -42.840  29.107  1.00  0.00    -0.384 OA
ATOM     16  H   UNL     1      10.377 -42.892  28.155  1.00  0.00     0.211 HD
ENDBRANCH   7  15
ENDBRANCH   1   2
BRANCH   1  17
ATOM     17  C   UNL     1      14.455 -44.426  29.700  1.00  0.00     0.172 A 
ATOM     18  C   UNL     1      15.324 -44.729  30.777  1.00  0.00     0.201 A 
ATOM     19  C   UNL     1      14.924 -43.660  28.633  1.00  0.00     0.098 A 
ATOM     20  C   UNL     1      16.639 -44.191  30.794  1.00  0.00     0.176 A 
ATOM     21  C   UNL     1      16.222 -43.156  28.621  1.00  0.00     0.146 A 
ATOM     22  C   UNL     1      17.094 -43.412  29.701  1.00  0.00     0.111 A 
ATOM     23  O   UNL     1      16.620 -42.427  27.584  1.00  0.00    -0.456 OA
ATOM     24  C   UNL     1      18.390 -42.855  29.635  1.00  0.00     0.197 A 
ATOM     25  C   UNL     1      17.836 -41.896  27.487  1.00  0.00     0.138 A 
ATOM     26  C   UNL     1      18.758 -42.093  28.526  1.00  0.00     0.100 A 
ATOM     27  O   UNL     1      19.230 -43.028  30.559  1.00  0.00    -0.289 OA
BRANCH  18  28
ATOM     28  O   UNL     1      14.877 -45.575  31.794  1.00  0.00    -0.502 OA
ATOM     29  H   UNL     1      13.961 -45.998  31.829  1.00  0.00     0.293 HD
ENDBRANCH  18  28
BRANCH  20  30
ATOM     30  O   UNL     1      17.499 -44.402  31.877  1.00  0.00    -0.504 OA
ATOM     31  H   UNL     1      17.741 -43.703  32.564  1.00  0.00     0.293 HD
ENDBRANCH  20  30
BRANCH  25  32
ATOM     32  C   UNL     1      18.172 -41.097  26.282  1.00  0.00     0.017 A 
ATOM     33  C   UNL     1      18.322 -39.701  26.395  1.00  0.00     0.012 A 
ATOM     34  C   UNL     1      18.315 -41.693  25.013  1.00  0.00     0.012 A 
ATOM     35  C   UNL     1      18.626 -38.926  25.272  1.00  0.00     0.001 A 
ATOM     36  C   UNL     1      18.618 -40.912  23.892  1.00  0.00     0.001 A 
ATOM     37  C   UNL     1      18.776 -39.530  24.022  1.00  0.00     0.000 A 
ENDBRANCH  25  32
ENDBRANCH   1  17
TORSDOF 9
ENDMDL
MODEL 4
REMARK VINA RESULT:    -7.544      2.926      4.052
REMARK INTER + INTRA:         -11.283
REMARK INTER:                 -10.031
REMARK INTRA:                  -1.252
REMARK UNBOUND:                -0.873
REMARK SMILES O=C([O-])[C@H]1O[C@H](Oc2cc3oc(-c4ccccc4)cc(=O)c3c(O)c2O)[C@@H](O)[C@@H](O)[C@@H]1O
REMARK SMILES IDX 7 1 6 2 4 3 31 4 5 5 29 6 27 7 2 8 1 9 3 10 32 11 30 13
REMARK SMILES IDX 28 15 8 17 25 18 9 19 23 20 10 21 22 22 11 23 20 24 12 25
REMARK SMILES IDX 19 26 21 27 26 28 24 30 13 32 14 33 18 34 15 35 17 36 16 37
REMARK H PARENT 32 12 30 14 28 16 26 29 24 31
REMARK Flexibility Score: inf
ROOT
ATOM      1  O   UNL     1      15.768 -43.000  29.392  1.00  0.00    -0.458 OA
ENDROOT
BRANCH   1   2
ATOM      2  C   UNL     1      15.917 -42.357  30.662  1.00  0.00     0.339 C 
ATOM      3  C   UNL     1      17.151 -44.145  31.560  1.00  0.00     0.199 C 
ATOM      4  C   UNL     1      18.459 -43.331  31.626  1.00  0.00     0.180 C 
ATOM      5  O   UNL     1      16.018 -43.303  31.717  1.00  0.00    -0.328 OA
ATOM      6  C   UNL     1      18.438 -42.236  30.547  1.00  0.00     0.181 C 
ATOM      7  C   UNL     1      17.139 -41.417  30.641  1.00  0.00     0.214 C 
BRANCH   3   8
ATOM      8  C   UNL     1      17.130 -45.171  32.655  1.00  0.00     0.073 C 
ATOM      9  O   UNL     1      18.197 -45.487  33.248  1.00  0.00    -0.547 OA
ATOM     10  O   UNL     1      15.929 -45.753  33.046  1.00  0.00    -0.547 OA
ENDBRANCH   3   8
BRANCH   4  11
ATOM     11  O   UNL     1      19.555 -44.184  31.411  1.00  0.00    -0.387 OA
ATOM     12  H   UNL     1      20.369 -43.680  31.675  1.00  0.00     0.211 HD
ENDBRANCH   4  11
BRANCH   6  13
ATOM     13  O   UNL     1      19.555 -41.399  30.705  1.00  0.00    -0.387 OA
ATOM     14  H   UNL     1      19.585 -41.140  31.665  1.00  0.00     0.211 HD
ENDBRANCH   6  13
BRANCH   7  15
ATOM     15  O   UNL     1      17.156 -40.633  31.808  1.00  0.00    -0.384 OA
ATOM     16  H   UNL     1      18.109 -40.453  32.018  1.00  0.00     0.211 HD
ENDBRANCH   7  15
ENDBRANCH   1   2
BRANCH   1  17
ATOM     17  C   UNL     1      14.570 -43.459  28.809  1.00  0.00     0.172 A 
ATOM     18  C   UNL     1      13.890 -44.636  29.209  1.00  0.00     0.201 A 
ATOM     19  C   UNL     1      14.048 -42.682  27.776  1.00  0.00     0.098 A 
ATOM     20  C   UNL     1      12.726 -45.050  28.508  1.00  0.00     0.176 A 
ATOM     21  C   UNL     1      12.888 -43.057  27.105  1.00  0.00     0.146 A 
ATOM     22  C   UNL     1      12.215 -44.246  27.458  1.00  0.00     0.111 A 
ATOM     23  O   UNL     1      12.433 -42.286  26.123  1.00  0.00    -0.456 OA
ATOM     24  C   UNL     1      11.055 -44.579  26.724  1.00  0.00     0.197 A 
ATOM     25  C   UNL     1      11.340 -42.565  25.418  1.00  0.00     0.138 A 
ATOM     26  C   UNL     1      10.621 -43.738  25.700  1.00  0.00     0.100 A 
ATOM     27  O   UNL     1      10.397 -45.626  26.970  1.00  0.00    -0.289 OA
BRANCH  18  28
ATOM     28  O   UNL     1      14.367 -45.357  30.306  1.00  0.00    -0.502 OA
ATOM     29  H   UNL     1      15.149 -45.079  30.881  1.00  0.00     0.293 HD
ENDBRANCH  18  28
BRANCH  20  30
ATOM     30  O   UNL     1      12.073 -46.246  28.821  1.00  0.00    -0.504 OA
ATOM     31  H   UNL     1      11.082 -46.334  28.988  1.00  0.00     0.293 HD
ENDBRANCH  20  30
BRANCH  25  32
ATOM     32  C   UNL     1      10.925 -41.631  24.343  1.00  0.00     0.017 A 
ATOM     33  C   UNL     1      11.809 -41.360  23.281  1.00  0.00     0.012 A 
ATOM     34  C   UNL     1       9.676 -40.977  24.369  1.00  0.00     0.012 A 
ATOM     35  C   UNL     1      11.445 -40.474  22.262  1.00  0.00     0.001 A 
ATOM     36  C   UNL     1       9.318 -40.091  23.347  1.00  0.00     0.001 A 
ATOM     37  C   UNL     1      10.201 -39.841  22.293  1.00  0.00     0.000 A 
ENDBRANCH  25  32
ENDBRANCH   1  17
TORSDOF 9
ENDMDL
MODEL 5
REMARK VINA RESULT:    -7.527      2.375      6.863
REMARK INTER + INTRA:         -11.260
REMARK INTER:                 -10.110
REMARK INTRA:                  -1.150
REMARK UNBOUND:                -0.873
REMARK SMILES O=C([O-])[C@H]1O[C@H](Oc2cc3oc(-c4ccccc4)cc(=O)c3c(O)c2O)[C@@H](O)[C@@H](O)[C@@H]1O
REMARK SMILES IDX 7 1 6 2 4 3 31 4 5 5 29 6 27 7 2 8 1 9 3 10 32 11 30 13
REMARK SMILES IDX 28 15 8 17 25 18 9 19 23 20 10 21 22 22 11 23 20 24 12 25
REMARK SMILES IDX 19 26 21 27 26 28 24 30 13 32 14 33 18 34 15 35 17 36 16 37
REMARK H PARENT 32 12 30 14 28 16 26 29 24 31
REMARK Flexibility Score: inf
ROOT
ATOM      1  O   UNL     1      12.991 -45.506  28.830  1.00  0.00    -0.458 OA
ENDROOT
BRANCH   1   2
ATOM      2  C   UNL     1      11.673 -45.070  29.179  1.00  0.00     0.339 C 
ATOM      3  C   UNL     1      11.023 -44.830  26.932  1.00  0.00     0.199 C 
ATOM      4  C   UNL     1      10.038 -46.015  26.995  1.00  0.00     0.180 C 
ATOM      5  O   UNL     1      11.135 -44.194  28.197  1.00  0.00    -0.328 OA
ATOM      6  C   UNL     1      10.501 -47.013  28.069  1.00  0.00     0.181 C 
ATOM      7  C   UNL     1      10.752 -46.285  29.402  1.00  0.00     0.214 C 
BRANCH   3   8
ATOM      8  C   UNL     1      10.543 -43.816  25.937  1.00  0.00     0.073 C 
ATOM      9  O   UNL     1      11.372 -43.122  25.288  1.00  0.00    -0.547 OA
ATOM     10  O   UNL     1       9.181 -43.661  25.697  1.00  0.00    -0.547 OA
ENDBRANCH   3   8
BRANCH   4  11
ATOM     11  O   UNL     1       9.994 -46.655  25.744  1.00  0.00    -0.387 OA
ATOM     12  H   UNL     1      10.730 -47.323  25.735  1.00  0.00     0.211 HD
ENDBRANCH   4  11
BRANCH   6  13
ATOM     13  O   UNL     1       9.526 -48.011  28.233  1.00  0.00    -0.387 OA
ATOM     14  H   UNL     1       9.696 -48.434  29.118  1.00  0.00     0.211 HD
ENDBRANCH   6  13
BRANCH   7  15
ATOM     15  O   UNL     1       9.527 -45.862  29.948  1.00  0.00    -0.384 OA
ATOM     16  H   UNL     1       8.996 -45.483  29.201  1.00  0.00     0.211 HD
ENDBRANCH   7  15
ENDBRANCH   1   2
BRANCH   1  17
ATOM     17  C   UNL     1      14.206 -44.861  29.134  1.00  0.00     0.172 A 
ATOM     18  C   UNL     1      14.889 -44.991  30.368  1.00  0.00     0.201 A 
ATOM     19  C   UNL     1      14.742 -44.051  28.133  1.00  0.00     0.098 A 
ATOM     20  C   UNL     1      16.073 -44.240  30.599  1.00  0.00     0.176 A 
ATOM     21  C   UNL     1      15.921 -43.339  28.335  1.00  0.00     0.146 A 
ATOM     22  C   UNL     1      16.598 -43.421  29.570  1.00  0.00     0.111 A 
ATOM     23  O   UNL     1      16.389 -42.576  27.352  1.00  0.00    -0.456 OA
ATOM     24  C   UNL     1      17.777 -42.657  29.715  1.00  0.00     0.197 A 
ATOM     25  C   UNL     1      17.501 -41.852  27.454  1.00  0.00     0.138 A 
ATOM     26  C   UNL     1      18.225 -41.869  28.656  1.00  0.00     0.100 A 
ATOM     27  O   UNL     1      18.441 -42.667  30.787  1.00  0.00    -0.289 OA
BRANCH  18  28
ATOM     28  O   UNL     1      14.396 -45.877  31.328  1.00  0.00    -0.502 OA
ATOM     29  H   UNL     1      13.440 -46.198  31.377  1.00  0.00     0.293 HD
ENDBRANCH  18  28
BRANCH  20  30
ATOM     30  O   UNL     1      16.731 -44.281  31.833  1.00  0.00    -0.504 OA
ATOM     31  H   UNL     1      16.604 -43.609  32.575  1.00  0.00     0.293 HD
ENDBRANCH  20  30
BRANCH  25  32
ATOM     32  C   UNL     1      17.929 -41.035  26.291  1.00  0.00     0.017 A 
ATOM     33  C   UNL     1      18.273 -39.683  26.483  1.00  0.00     0.012 A 
ATOM     34  C   UNL     1      17.971 -41.567  24.986  1.00  0.00     0.012 A 
ATOM     35  C   UNL     1      18.668 -38.890  25.401  1.00  0.00     0.001 A 
ATOM     36  C   UNL     1      18.366 -40.769  23.907  1.00  0.00     0.001 A 
ATOM     37  C   UNL     1      18.717 -39.432  24.115  1.00  0.00     0.000 A 
ENDBRANCH  25  32
ENDBRANCH   1  17
TORSDOF 9
ENDMDL
MODEL 6
REMARK VINA RESULT:    -7.506      2.965      4.601
REMARK INTER + INTRA:         -11.232
REMARK INTER:                 -10.086
REMARK INTRA:                  -1.145
REMARK UNBOUND:                -0.873
REMARK SMILES O=C([O-])[C@H]1O[C@H](Oc2cc3oc(-c4ccccc4)cc(=O)c3c(O)c2O)[C@@H](O)[C@@H](O)[C@@H]1O
REMARK SMILES IDX 7 1 6 2 4 3 31 4 5 5 29 6 27 7 2 8 1 9 3 10 32 11 30 13
REMARK SMILES IDX 28 15 8 17 25 18 9 19 23 20 10 21 22 22 11 23 20 24 12 25
REMARK SMILES IDX 19 26 21 27 26 28 24 30 13 32 14 33 18 34 15 35 17 36 16 37
REMARK H PARENT 32 12 30 14 28 16 26 29 24 31
REMARK Flexibility Score: inf
ROOT
ATOM      1  O   UNL     1      15.159 -43.002  29.871  1.00  0.00    -0.458 OA
ENDROOT
BRANCH   1   2
ATOM      2  C   UNL     1      16.475 -42.696  29.395  1.00  0.00     0.339 C 
ATOM      3  C   UNL     1      17.496 -43.418  31.386  1.00  0.00     0.199 C 
ATOM      4  C   UNL     1      18.149 -44.644  30.714  1.00  0.00     0.180 C 
ATOM      5  O   UNL     1      17.348 -42.351  30.461  1.00  0.00    -0.328 OA
ATOM      6  C   UNL     1      17.304 -45.080  29.506  1.00  0.00     0.181 C 
ATOM      7  C   UNL     1      17.034 -43.879  28.581  1.00  0.00     0.214 C 
BRANCH   3   8
ATOM      8  C   UNL     1      18.350 -42.942  32.523  1.00  0.00     0.073 C 
ATOM      9  O   UNL     1      17.825 -42.353  33.507  1.00  0.00    -0.547 OA
ATOM     10  O   UNL     1      19.720 -43.178  32.516  1.00  0.00    -0.547 OA
ENDBRANCH   3   8
BRANCH   4  11
ATOM     11  O   UNL     1      18.229 -45.699  31.639  1.00  0.00    -0.387 OA
ATOM     12  H   UNL     1      17.678 -45.438  32.424  1.00  0.00     0.211 HD
ENDBRANCH   4  11
BRANCH   6  13
ATOM     13  O   UNL     1      17.976 -46.095  28.805  1.00  0.00    -0.387 OA
ATOM     14  H   UNL     1      17.683 -46.959  29.202  1.00  0.00     0.211 HD
ENDBRANCH   6  13
BRANCH   7  15
ATOM     15  O   UNL     1      18.227 -43.496  27.942  1.00  0.00    -0.384 OA
ATOM     16  H   UNL     1      17.989 -42.784  27.294  1.00  0.00     0.211 HD
ENDBRANCH   7  15
ENDBRANCH   1   2
BRANCH   1  17
ATOM     17  C   UNL     1      14.083 -43.513  29.119  1.00  0.00     0.172 A 
ATOM     18  C   UNL     1      13.484 -44.777  29.344  1.00  0.00     0.201 A 
ATOM     19  C   UNL     1      13.601 -42.695  28.097  1.00  0.00     0.098 A 
ATOM     20  C   UNL     1      12.448 -45.228  28.482  1.00  0.00     0.176 A 
ATOM     21  C   UNL     1      12.563 -43.112  27.268  1.00  0.00     0.146 A 
ATOM     22  C   UNL     1      11.977 -44.383  27.447  1.00  0.00     0.111 A 
ATOM     23  O   UNL     1      12.143 -42.299  26.304  1.00  0.00    -0.456 OA
ATOM     24  C   UNL     1      10.942 -44.751  26.559  1.00  0.00     0.197 A 
ATOM     25  C   UNL     1      11.165 -42.611  25.458  1.00  0.00     0.138 A 
ATOM     26  C   UNL     1      10.540 -43.864  25.561  1.00  0.00     0.100 A 
ATOM     27  O   UNL     1      10.368 -45.870  26.644  1.00  0.00    -0.289 OA
BRANCH  18  28
ATOM     28  O   UNL     1      13.908 -45.547  30.428  1.00  0.00    -0.502 OA
ATOM     29  H   UNL     1      13.666 -45.367  31.392  1.00  0.00     0.293 HD
ENDBRANCH  18  28
BRANCH  20  30
ATOM     30  O   UNL     1      11.887 -46.501  28.622  1.00  0.00    -0.504 OA
ATOM     31  H   UNL     1      12.277 -47.243  29.185  1.00  0.00     0.293 HD
ENDBRANCH  20  30
BRANCH  25  32
ATOM     32  C   UNL     1      10.779 -41.625  24.418  1.00  0.00     0.017 A 
ATOM     33  C   UNL     1       9.513 -41.013  24.479  1.00  0.00     0.012 A 
ATOM     34  C   UNL     1      11.636 -41.304  23.346  1.00  0.00     0.012 A 
ATOM     35  C   UNL     1       9.122 -40.090  23.504  1.00  0.00     0.001 A 
ATOM     36  C   UNL     1      11.239 -40.381  22.373  1.00  0.00     0.001 A 
ATOM     37  C   UNL     1       9.984 -39.772  22.453  1.00  0.00     0.000 A 
ENDBRANCH  25  32
ENDBRANCH   1  17
TORSDOF 9
ENDMDL
MODEL 7
REMARK VINA RESULT:    -7.473      2.144      5.598
REMARK INTER + INTRA:         -11.185
REMARK INTER:                 -10.271
REMARK INTRA:                  -0.914
REMARK UNBOUND:                -0.873
REMARK SMILES O=C([O-])[C@H]1O[C@H](Oc2cc3oc(-c4ccccc4)cc(=O)c3c(O)c2O)[C@@H](O)[C@@H](O)[C@@H]1O
REMARK SMILES IDX 7 1 6 2 4 3 31 4 5 5 29 6 27 7 2 8 1 9 3 10 32 11 30 13
REMARK SMILES IDX 28 15 8 17 25 18 9 19 23 20 10 21 22 22 11 23 20 24 12 25
REMARK SMILES IDX 19 26 21 27 26 28 24 30 13 32 14 33 18 34 15 35 17 36 16 37
REMARK H PARENT 32 12 30 14 28 16 26 29 24 31
REMARK Flexibility Score: inf
ROOT
ATOM      1  O   UNL     1      18.060 -43.143  29.947  1.00  0.00    -0.458 OA
ENDROOT
BRANCH   1   2
ATOM      2  C   UNL     1      18.143 -42.570  31.256  1.00  0.00     0.339 C 
ATOM      3  C   UNL     1      16.894 -44.308  32.230  1.00  0.00     0.199 C 
ATOM      4  C   UNL     1      18.103 -44.864  33.010  1.00  0.00     0.180 C 
ATOM      5  O   UNL     1      17.009 -42.905  32.045  1.00  0.00    -0.328 OA
ATOM      6  C   UNL     1      19.401 -44.515  32.264  1.00  0.00     0.181 C 
ATOM      7  C   UNL     1      19.448 -43.010  31.948  1.00  0.00     0.214 C 
BRANCH   3   8
ATOM      8  C   UNL     1      15.627 -44.581  32.986  1.00  0.00     0.073 C 
ATOM      9  O   UNL     1      15.327 -45.761  33.315  1.00  0.00    -0.547 OA
ATOM     10  O   UNL     1      14.794 -43.531  33.357  1.00  0.00    -0.547 OA
ENDBRANCH   3   8
BRANCH   4  11
ATOM     11  O   UNL     1      17.986 -46.260  33.127  1.00  0.00    -0.387 OA
ATOM     12  H   UNL     1      18.787 -46.654  32.691  1.00  0.00     0.211 HD
ENDBRANCH   4  11
BRANCH   6  13
ATOM     13  O   UNL     1      20.507 -44.884  33.048  1.00  0.00    -0.387 OA
ATOM     14  H   UNL     1      20.149 -45.163  33.933  1.00  0.00     0.211 HD
ENDBRANCH   6  13
BRANCH   7  15
ATOM     15  O   UNL     1      19.626 -42.281  33.137  1.00  0.00    -0.384 OA
ATOM     16  H   UNL     1      20.186 -42.840  33.734  1.00  0.00     0.211 HD
ENDBRANCH   7  15
ENDBRANCH   1   2
BRANCH   1  17
ATOM     17  C   UNL     1      17.061 -42.912  28.981  1.00  0.00     0.172 A 
ATOM     18  C   UNL     1      17.160 -41.947  27.949  1.00  0.00     0.201 A 
ATOM     19  C   UNL     1      15.914 -43.700  29.078  1.00  0.00     0.098 A 
ATOM     20  C   UNL     1      16.064 -41.743  27.068  1.00  0.00     0.176 A 
ATOM     21  C   UNL     1      14.848 -43.534  28.199  1.00  0.00     0.146 A 
ATOM     22  C   UNL     1      14.907 -42.553  27.186  1.00  0.00     0.111 A 
ATOM     23  O   UNL     1      13.774 -44.306  28.335  1.00  0.00    -0.456 OA
ATOM     24  C   UNL     1      13.783 -42.424  26.341  1.00  0.00     0.197 A 
ATOM     25  C   UNL     1      12.703 -44.216  27.550  1.00  0.00     0.138 A 
ATOM     26  C   UNL     1      12.679 -43.255  26.527  1.00  0.00     0.100 A 
ATOM     27  O   UNL     1      13.749 -41.568  25.415  1.00  0.00    -0.289 OA
BRANCH  18  28
ATOM     28  O   UNL     1      18.348 -41.229  27.801  1.00  0.00    -0.502 OA
ATOM     29  H   UNL     1      18.467 -40.430  27.196  1.00  0.00     0.293 HD
ENDBRANCH  18  28
BRANCH  20  30
ATOM     30  O   UNL     1      16.093 -40.746  26.087  1.00  0.00    -0.504 OA
ATOM     31  H   UNL     1      15.288 -40.224  25.773  1.00  0.00     0.293 HD
ENDBRANCH  20  30
BRANCH  25  32
ATOM     32  C   UNL     1      11.560 -45.130  27.796  1.00  0.00     0.017 A 
ATOM     33  C   UNL     1      11.327 -45.615  29.096  1.00  0.00     0.012 A 
ATOM     34  C   UNL     1      10.713 -45.554  26.752  1.00  0.00     0.012 A 
ATOM     35  C   UNL     1      10.263 -46.486  29.350  1.00  0.00     0.001 A 
ATOM     36  C   UNL     1       9.651 -46.427  27.011  1.00  0.00     0.001 A 
ATOM     37  C   UNL     1       9.425 -46.891  28.309  1.00  0.00     0.000 A 
ENDBRANCH  25  32
ENDBRANCH   1  17
TORSDOF 9
ENDMDL
MODEL 8
REMARK VINA RESULT:    -7.446      3.097      8.553
REMARK INTER + INTRA:         -11.148
REMARK INTER:                  -9.749
REMARK INTRA:                  -1.399
REMARK UNBOUND:                -0.873
REMARK SMILES O=C([O-])[C@H]1O[C@H](Oc2cc3oc(-c4ccccc4)cc(=O)c3c(O)c2O)[C@@H](O)[C@@H](O)[C@@H]1O
REMARK SMILES IDX 7 1 6 2 4 3 31 4 5 5 29 6 27 7 2 8 1 9 3 10 32 11 30 13
REMARK SMILES IDX 28 15 8 17 25 18 9 19 23 20 10 21 22 22 11 23 20 24 12 25
REMARK SMILES IDX 19 26 21 27 26 28 24 30 13 32 14 33 18 34 15 35 17 36 16 37
REMARK H PARENT 32 12 30 14 28 16 26 29 24 31
REMARK Flexibility Score: inf
ROOT
ATOM      1  O   UNL     1      12.873 -45.531  28.498  1.00  0.00    -0.458 OA
ENDROOT
BRANCH   1   2
ATOM      2  C   UNL     1      11.541 -45.270  28.953  1.00  0.00     0.339 C 
ATOM      3  C   UNL     1      10.750 -44.849  26.779  1.00  0.00     0.199 C 
ATOM      4  C   UNL     1       9.887 -46.126  26.746  1.00  0.00     0.180 C 
ATOM      5  O   UNL     1      10.871 -44.350  28.103  1.00  0.00    -0.328 OA
ATOM      6  C   UNL     1      10.499 -47.186  27.676  1.00  0.00     0.181 C 
ATOM      7  C   UNL     1      10.752 -46.589  29.073  1.00  0.00     0.214 C 
BRANCH   3   8
ATOM      8  C   UNL     1      10.123 -43.784  25.929  1.00  0.00     0.073 C 
ATOM      9  O   UNL     1       8.875 -43.768  25.750  1.00  0.00    -0.547 OA
ATOM     10  O   UNL     1      10.910 -42.787  25.363  1.00  0.00    -0.547 OA
ENDBRANCH   3   8
BRANCH   4  11
ATOM     11  O   UNL     1       9.834 -46.624  25.433  1.00  0.00    -0.387 OA
ATOM     12  H   UNL     1      10.290 -45.959  24.853  1.00  0.00     0.211 HD
ENDBRANCH   4  11
BRANCH   6  13
ATOM     13  O   UNL     1       9.633 -48.288  27.767  1.00  0.00    -0.387 OA
ATOM     14  H   UNL     1      10.085 -49.045  27.307  1.00  0.00     0.211 HD
ENDBRANCH   6  13
BRANCH   7  15
ATOM     15  O   UNL     1       9.525 -46.353  29.717  1.00  0.00    -0.384 OA
ATOM     16  H   UNL     1       8.815 -46.694  29.114  1.00  0.00     0.211 HD
ENDBRANCH   7  15
ENDBRANCH   1   2
BRANCH   1  17
ATOM     17  C   UNL     1      14.012 -44.729  28.706  1.00  0.00     0.172 A 
ATOM     18  C   UNL     1      14.327 -43.580  27.940  1.00  0.00     0.201 A 
ATOM     19  C   UNL     1      14.863 -45.121  29.739  1.00  0.00     0.098 A 
ATOM     20  C   UNL     1      15.540 -42.881  28.185  1.00  0.00     0.176 A 
ATOM     21  C   UNL     1      16.036 -44.423  30.012  1.00  0.00     0.146 A 
ATOM     22  C   UNL     1      16.391 -43.298  29.238  1.00  0.00     0.111 A 
ATOM     23  O   UNL     1      16.817 -44.839  31.004  1.00  0.00    -0.456 OA
ATOM     24  C   UNL     1      17.604 -42.648  29.555  1.00  0.00     0.197 A 
ATOM     25  C   UNL     1      17.961 -44.244  31.334  1.00  0.00     0.138 A 
ATOM     26  C   UNL     1      18.391 -43.126  30.603  1.00  0.00     0.100 A 
ATOM     27  O   UNL     1      18.000 -41.640  28.910  1.00  0.00    -0.289 OA
BRANCH  18  28
ATOM     28  O   UNL     1      13.423 -43.140  26.971  1.00  0.00    -0.502 OA
ATOM     29  H   UNL     1      13.235 -43.616  26.101  1.00  0.00     0.293 HD
ENDBRANCH  18  28
BRANCH  20  30
ATOM     30  O   UNL     1      15.923 -41.790  27.398  1.00  0.00    -0.504 OA
ATOM     31  H   UNL     1      16.688 -41.796  26.740  1.00  0.00     0.293 HD
ENDBRANCH  20  30
BRANCH  25  32
ATOM     32  C   UNL     1      18.753 -44.797  32.461  1.00  0.00     0.017 A 
ATOM     33  C   UNL     1      19.756 -44.008  33.056  1.00  0.00     0.012 A 
ATOM     34  C   UNL     1      18.552 -46.109  32.935  1.00  0.00     0.012 A 
ATOM     35  C   UNL     1      20.524 -44.511  34.110  1.00  0.00     0.001 A 
ATOM     36  C   UNL     1      19.324 -46.608  33.990  1.00  0.00     0.001 A 
ATOM     37  C   UNL     1      20.307 -45.808  34.579  1.00  0.00     0.000 A 
ENDBRANCH  25  32
ENDBRANCH   1  17
TORSDOF 9
ENDMDL
MODEL 9
REMARK VINA RESULT:    -7.319      2.836      5.777
REMARK INTER + INTRA:         -10.973
REMARK INTER:                 -10.018
REMARK INTRA:                  -0.955
REMARK UNBOUND:                -0.873
REMARK SMILES O=C([O-])[C@H]1O[C@H](Oc2cc3oc(-c4ccccc4)cc(=O)c3c(O)c2O)[C@@H](O)[C@@H](O)[C@@H]1O
REMARK SMILES IDX 7 1 6 2 4 3 31 4 5 5 29 6 27 7 2 8 1 9 3 10 32 11 30 13
REMARK SMILES IDX 28 15 8 17 25 18 9 19 23 20 10 21 22 22 11 23 20 24 12 25
REMARK SMILES IDX 19 26 21 27 26 28 24 30 13 32 14 33 18 34 15 35 17 36 16 37
REMARK H PARENT 32 12 30 14 28 16 26 29 24 31
REMARK Flexibility Score: inf
ROOT
ATOM      1  O   UNL     1      17.472 -41.671  28.962  1.00  0.00    -0.458 OA
ENDROOT
BRANCH   1   2
ATOM      2  C   UNL     1      18.253 -41.294  30.100  1.00  0.00     0.339 C 
ATOM      3  C   UNL     1      17.431 -43.067  31.406  1.00  0.00     0.199 C 
ATOM      4  C   UNL     1      18.786 -43.803  31.426  1.00  0.00     0.180 C 
ATOM      5  O   UNL     1      17.616 -41.662  31.316  1.00  0.00    -0.328 OA
ATOM      6  C   UNL     1      19.589 -43.437  30.167  1.00  0.00     0.181 C 
ATOM      7  C   UNL     1      19.664 -41.908  30.006  1.00  0.00     0.214 C 
BRANCH   3   8
ATOM      8  C   UNL     1      16.669 -43.362  32.665  1.00  0.00     0.073 C 
ATOM      9  O   UNL     1      16.653 -42.524  33.607  1.00  0.00    -0.547 OA
ATOM     10  O   UNL     1      15.949 -44.545  32.785  1.00  0.00    -0.547 OA
ENDBRANCH   3   8
BRANCH   4  11
ATOM     11  O   UNL     1      18.567 -45.191  31.459  1.00  0.00    -0.387 OA
ATOM     12  H   UNL     1      17.603 -45.336  31.265  1.00  0.00     0.211 HD
ENDBRANCH   4  11
BRANCH   6  13
ATOM     13  O   UNL     1      20.880 -43.982  30.258  1.00  0.00    -0.387 OA
ATOM     14  H   UNL     1      21.209 -44.095  29.326  1.00  0.00     0.211 HD
ENDBRANCH   6  13
BRANCH   7  15
ATOM     15  O   UNL     1      20.487 -41.366  31.008  1.00  0.00    -0.384 OA
ATOM     16  H   UNL     1      20.024 -41.517  31.872  1.00  0.00     0.211 HD
ENDBRANCH   7  15
ENDBRANCH   1   2
BRANCH   1  17
ATOM     17  C   UNL     1      16.101 -41.426  28.754  1.00  0.00     0.172 A 
ATOM     18  C   UNL     1      15.510 -40.138  28.779  1.00  0.00     0.201 A 
ATOM     19  C   UNL     1      15.303 -42.544  28.512  1.00  0.00     0.098 A 
ATOM     20  C   UNL     1      14.103 -40.007  28.629  1.00  0.00     0.176 A 
ATOM     21  C   UNL     1      13.929 -42.424  28.328  1.00  0.00     0.146 A 
ATOM     22  C   UNL     1      13.311 -41.157  28.388  1.00  0.00     0.111 A 
ATOM     23  O   UNL     1      13.211 -43.520  28.106  1.00  0.00    -0.456 OA
ATOM     24  C   UNL     1      11.911 -41.108  28.212  1.00  0.00     0.197 A 
ATOM     25  C   UNL     1      11.892 -43.508  27.927  1.00  0.00     0.138 A 
ATOM     26  C   UNL     1      11.202 -42.288  27.985  1.00  0.00     0.100 A 
ATOM     27  O   UNL     1      11.278 -40.019  28.256  1.00  0.00    -0.289 OA
BRANCH  18  28
ATOM     28  O   UNL     1      16.328 -39.017  28.927  1.00  0.00    -0.502 OA
ATOM     29  H   UNL     1      15.996 -38.081  29.105  1.00  0.00     0.293 HD
ENDBRANCH  18  28
BRANCH  20  30
ATOM     30  O   UNL     1      13.473 -38.762  28.727  1.00  0.00    -0.504 OA
ATOM     31  H   UNL     1      12.855 -38.373  28.030  1.00  0.00     0.293 HD
ENDBRANCH  20  30
BRANCH  25  32
ATOM     32  C   UNL     1      11.193 -44.795  27.687  1.00  0.00     0.017 A 
ATOM     33  C   UNL     1      11.107 -45.742  28.725  1.00  0.00     0.012 A 
ATOM     34  C   UNL     1      10.634 -45.112  26.431  1.00  0.00     0.012 A 
ATOM     35  C   UNL     1      10.464 -46.966  28.519  1.00  0.00     0.001 A 
ATOM     36  C   UNL     1       9.993 -46.339  26.231  1.00  0.00     0.001 A 
ATOM     37  C   UNL     1       9.905 -47.264  27.274  1.00  0.00     0.000 A 
ENDBRANCH  25  32
ENDBRANCH   1  17
TORSDOF 9
ENDMDL
