MODEL 1
REMARK VINA RESULT:    -3.257      0.000      0.000
REMARK INTER + INTRA:          -4.104
REMARK INTER:                  -4.019
REMARK INTRA:                  -0.085
REMARK UNBOUND:                -0.085
REMARK SMILES CCCCCC(=O)[O-]
REMARK SMILES IDX 4 1 5 2 6 3 7 4 8 5 3 6 2 7 1 8
REMARK H PARENT
REMARK Flexibility Score: inf
ROOT
ATOM      1  C   UNL     1     -18.640   3.718 -19.106  1.00  0.00     0.006 C 
ENDROOT
BRANCH   1   2
ATOM      2  C   UNL     1     -17.284   4.094 -19.718  1.00  0.00     0.053 C 
BRANCH   2   3
ATOM      3  C   UNL     1     -16.168   3.938 -18.731  1.00  0.00     0.041 C 
ATOM      4  O   UNL     1     -16.245   3.075 -17.817  1.00  0.00    -0.550 OA
ATOM      5  O   UNL     1     -15.027   4.723 -18.843  1.00  0.00    -0.550 OA
ENDBRANCH   2   3
ENDBRANCH   1   2
BRANCH   1   6
ATOM      6  C   UNL     1     -19.751   4.702 -19.504  1.00  0.00     0.000 C 
BRANCH   6   7
ATOM      7  C   UNL     1     -21.127   4.174 -19.086  1.00  0.00    -0.003 C 
ATOM      8  C   UNL     1     -21.005   3.137 -17.973  1.00  0.00     0.004 C 
ENDBRANCH   6   7
ENDBRANCH   1   6
TORSDOF 4
ENDMDL
MODEL 2
REMARK VINA RESULT:    -2.877      2.858      4.435
REMARK INTER + INTRA:          -3.635
REMARK INTER:                  -3.525
REMARK INTRA:                  -0.110
REMARK UNBOUND:                -0.085
REMARK SMILES CCCCCC(=O)[O-]
REMARK SMILES IDX 4 1 5 2 6 3 7 4 8 5 3 6 2 7 1 8
REMARK H PARENT
REMARK Flexibility Score: inf
ROOT
ATOM      1  C   UNL     1     -17.947   4.077 -18.703  1.00  0.00     0.006 C 
ENDROOT
BRANCH   1   2
ATOM      2  C   UNL     1     -19.013   2.979 -18.606  1.00  0.00     0.053 C 
BRANCH   2   3
ATOM      3  C   UNL     1     -20.399   3.547 -18.612  1.00  0.00     0.041 C 
ATOM      4  O   UNL     1     -21.253   3.144 -17.780  1.00  0.00    -0.550 OA
ATOM      5  O   UNL     1     -20.736   4.546 -19.516  1.00  0.00    -0.550 OA
ENDBRANCH   2   3
ENDBRANCH   1   2
BRANCH   1   6
ATOM      6  C   UNL     1     -17.251   4.093 -20.073  1.00  0.00     0.000 C 
BRANCH   6   7
ATOM      7  C   UNL     1     -15.796   3.627 -19.954  1.00  0.00    -0.003 C 
ATOM      8  C   UNL     1     -15.026   4.474 -18.944  1.00  0.00     0.004 C 
ENDBRANCH   6   7
ENDBRANCH   1   6
TORSDOF 4
ENDMDL
MODEL 3
REMARK VINA RESULT:    -2.556      2.962      4.318
REMARK INTER + INTRA:          -3.239
REMARK INTER:                  -3.208
REMARK INTRA:                  -0.030
REMARK UNBOUND:                -0.085
REMARK SMILES CCCCCC(=O)[O-]
REMARK SMILES IDX 4 1 5 2 6 3 7 4 8 5 3 6 2 7 1 8
REMARK H PARENT
REMARK Flexibility Score: inf
ROOT
ATOM      1  C   UNL     1     -18.431   3.094 -19.566  1.00  0.00     0.006 C 
ENDROOT
BRANCH   1   2
ATOM      2  C   UNL     1     -18.854   4.459 -20.124  1.00  0.00     0.053 C 
BRANCH   2   3
ATOM      3  C   UNL     1     -20.152   4.922 -19.537  1.00  0.00     0.041 C 
ATOM      4  O   UNL     1     -20.401   6.153 -19.439  1.00  0.00    -0.550 OA
ATOM      5  O   UNL     1     -21.101   3.993 -19.130  1.00  0.00    -0.550 OA
ENDBRANCH   2   3
ENDBRANCH   1   2
BRANCH   1   6
ATOM      6  C   UNL     1     -17.939   3.188 -18.113  1.00  0.00     0.000 C 
BRANCH   6   7
ATOM      7  C   UNL     1     -16.425   2.964 -18.032  1.00  0.00    -0.003 C 
ATOM      8  C   UNL     1     -15.805   2.875 -19.424  1.00  0.00     0.004 C 
ENDBRANCH   6   7
ENDBRANCH   1   6
TORSDOF 4
ENDMDL
MODEL 4
REMARK VINA RESULT:    -1.786     20.400     21.413
REMARK INTER + INTRA:          -2.289
REMARK INTER:                  -2.185
REMARK INTRA:                  -0.104
REMARK UNBOUND:                -0.085
REMARK SMILES CCCCCC(=O)[O-]
REMARK SMILES IDX 4 1 5 2 6 3 7 4 8 5 3 6 2 7 1 8
REMARK H PARENT
REMARK Flexibility Score: inf
ROOT
ATOM      1  C   UNL     1     -32.102  18.296 -10.415  1.00  0.00     0.006 C 
ENDROOT
BRANCH   1   2
ATOM      2  C   UNL     1     -30.611  18.446 -10.745  1.00  0.00     0.053 C 
BRANCH   2   3
ATOM      3  C   UNL     1     -30.073  17.237 -11.445  1.00  0.00     0.041 C 
ATOM      4  O   UNL     1     -30.335  16.084 -11.013  1.00  0.00    -0.550 OA
ATOM      5  O   UNL     1     -29.308  17.383 -12.596  1.00  0.00    -0.550 OA
ENDBRANCH   2   3
ENDBRANCH   1   2
BRANCH   1   6
ATOM      6  C   UNL     1     -32.855  19.632 -10.503  1.00  0.00     0.000 C 
BRANCH   6   7
ATOM      7  C   UNL     1     -31.877  20.813 -10.509  1.00  0.00    -0.003 C 
ATOM      8  C   UNL     1     -32.621  22.145 -10.480  1.00  0.00     0.004 C 
ENDBRANCH   6   7
ENDBRANCH   1   6
TORSDOF 4
ENDMDL
MODEL 5
REMARK VINA RESULT:    -1.604     21.982     23.043
REMARK INTER + INTRA:          -2.064
REMARK INTER:                  -1.975
REMARK INTRA:                  -0.089
REMARK UNBOUND:                -0.085
REMARK SMILES CCCCCC(=O)[O-]
REMARK SMILES IDX 4 1 5 2 6 3 7 4 8 5 3 6 2 7 1 8
REMARK H PARENT
REMARK Flexibility Score: inf
ROOT
ATOM      1  C   UNL     1     -31.931  19.434 -10.416  1.00  0.00     0.006 C 
ENDROOT
BRANCH   1   2
ATOM      2  C   UNL     1     -33.076  20.450 -10.323  1.00  0.00     0.053 C 
BRANCH   2   3
ATOM      3  C   UNL     1     -32.580  21.859 -10.440  1.00  0.00     0.041 C 
ATOM      4  O   UNL     1     -31.380  22.085 -10.746  1.00  0.00    -0.550 OA
ATOM      5  O   UNL     1     -33.453  22.922 -10.244  1.00  0.00    -0.550 OA
ENDBRANCH   2   3
ENDBRANCH   1   2
BRANCH   1   6
ATOM      6  C   UNL     1     -32.442  17.988 -10.500  1.00  0.00     0.000 C 
BRANCH   6   7
ATOM      7  C   UNL     1     -31.289  17.013 -10.759  1.00  0.00    -0.003 C 
ATOM      8  C   UNL     1     -29.974  17.758 -10.972  1.00  0.00     0.004 C 
ENDBRANCH   6   7
ENDBRANCH   1   6
TORSDOF 4
ENDMDL
MODEL 6
REMARK VINA RESULT:    -1.492      1.265      1.970
REMARK INTER + INTRA:          -1.926
REMARK INTER:                  -1.810
REMARK INTRA:                  -0.116
REMARK UNBOUND:                -0.085
REMARK SMILES CCCCCC(=O)[O-]
REMARK SMILES IDX 4 1 5 2 6 3 7 4 8 5 3 6 2 7 1 8
REMARK H PARENT
REMARK Flexibility Score: inf
ROOT
ATOM      1  C   UNL     1     -19.100   3.227 -19.594  1.00  0.00     0.006 C 
ENDROOT
BRANCH   1   2
ATOM      2  C   UNL     1     -17.611   2.875 -19.714  1.00  0.00     0.053 C 
BRANCH   2   3
ATOM      3  C   UNL     1     -16.782   3.622 -18.715  1.00  0.00     0.041 C 
ATOM      4  O   UNL     1     -15.863   4.391 -19.102  1.00  0.00    -0.550 OA
ATOM      5  O   UNL     1     -17.045   3.494 -17.357  1.00  0.00    -0.550 OA
ENDBRANCH   2   3
ENDBRANCH   1   2
BRANCH   1   6
ATOM      6  C   UNL     1     -19.409   4.635 -20.125  1.00  0.00     0.000 C 
BRANCH   6   7
ATOM      7  C   UNL     1     -20.626   5.235 -19.412  1.00  0.00    -0.003 C 
ATOM      8  C   UNL     1     -20.487   6.748 -19.264  1.00  0.00     0.004 C 
ENDBRANCH   6   7
ENDBRANCH   1   6
TORSDOF 4
ENDMDL
MODEL 7
REMARK VINA RESULT:    -0.441     20.947     21.925
REMARK INTER + INTRA:          -0.629
REMARK INTER:                  -0.520
REMARK INTRA:                  -0.109
REMARK UNBOUND:                -0.085
REMARK SMILES CCCCCC(=O)[O-]
REMARK SMILES IDX 4 1 5 2 6 3 7 4 8 5 3 6 2 7 1 8
REMARK H PARENT
REMARK Flexibility Score: inf
ROOT
ATOM      1  C   UNL     1     -30.661  18.785 -10.412  1.00  0.00     0.006 C 
ENDROOT
BRANCH   1   2
ATOM      2  C   UNL     1     -30.799  20.275 -10.747  1.00  0.00     0.053 C 
BRANCH   2   3
ATOM      3  C   UNL     1     -32.193  20.771 -10.513  1.00  0.00     0.041 C 
ATOM      4  O   UNL     1     -33.120  19.959 -10.255  1.00  0.00    -0.550 OA
ATOM      5  O   UNL     1     -32.460  22.134 -10.546  1.00  0.00    -0.550 OA
ENDBRANCH   2   3
ENDBRANCH   1   2
BRANCH   1   6
ATOM      6  C   UNL     1     -29.657  18.073 -11.332  1.00  0.00     0.000 C 
BRANCH   6   7
ATOM      7  C   UNL     1     -29.923  16.564 -11.369  1.00  0.00    -0.003 C 
ATOM      8  C   UNL     1     -31.312  16.235 -10.830  1.00  0.00     0.004 C 
ENDBRANCH   6   7
ENDBRANCH   1   6
TORSDOF 4
ENDMDL
