MODEL 1
REMARK VINA RESULT:     6.033      0.000      0.000
REMARK INTER + INTRA:           6.929
REMARK INTER:                   7.091
REMARK INTRA:                  -0.162
REMARK UNBOUND:                -0.162
REMARK SMILES COc1ccc(C=CC(=O)[O-])cc1
REMARK SMILES IDX 6 1 5 2 12 3 4 4 13 5 3 6 7 7 8 8 9 9 10 10 11 11 2 12 1 13
REMARK H PARENT
REMARK Flexibility Score: inf
ROOT
ATOM      1  C   UNL     1      92.846   9.328  62.146  1.00  0.00    -0.025 A 
ATOM      2  C   UNL     1      92.038   8.175  62.157  1.00  0.00     0.012 A 
ATOM      3  C   UNL     1      92.230  10.587  62.067  1.00  0.00     0.012 A 
ATOM      4  C   UNL     1      90.647   8.285  62.064  1.00  0.00     0.047 A 
ATOM      5  C   UNL     1      90.839  10.694  61.973  1.00  0.00     0.047 A 
ATOM      6  C   UNL     1      90.036   9.540  61.969  1.00  0.00     0.118 A 
ENDROOT
BRANCH   1   7
ATOM      7  C   UNL     1      94.326   9.268  62.255  1.00  0.00     0.010 C 
ATOM      8  C   UNL     1      94.976   8.576  63.199  1.00  0.00     0.025 C 
BRANCH   8   9
ATOM      9  C   UNL     1      96.445   8.534  63.261  1.00  0.00     0.064 C 
ATOM     10  O   UNL     1      97.113   8.564  62.195  1.00  0.00    -0.545 OA
ATOM     11  O   UNL     1      97.110   8.461  64.480  1.00  0.00    -0.545 OA
ENDBRANCH   8   9
ENDBRANCH   1   7
BRANCH   6  12
ATOM     12  O   UNL     1      88.637   9.595  61.875  1.00  0.00    -0.497 OA
ATOM     13  C   UNL     1      87.873  10.793  61.956  1.00  0.00     0.278 C 
ENDBRANCH   6  12
TORSDOF 3
ENDMDL
MODEL 2
REMARK VINA RESULT:     6.308      1.073      6.344
REMARK INTER + INTRA:           7.252
REMARK INTER:                   7.418
REMARK INTRA:                  -0.165
REMARK UNBOUND:                -0.162
REMARK SMILES COc1ccc(C=CC(=O)[O-])cc1
REMARK SMILES IDX 6 1 5 2 12 3 4 4 13 5 3 6 7 7 8 8 9 9 10 10 11 11 2 12 1 13
REMARK H PARENT
REMARK Flexibility Score: inf
ROOT
ATOM      1  C   UNL     1      92.071   8.678  61.971  1.00  0.00    -0.025 A 
ATOM      2  C   UNL     1      92.900   9.813  61.878  1.00  0.00     0.012 A 
ATOM      3  C   UNL     1      92.661   7.425  62.199  1.00  0.00     0.012 A 
ATOM      4  C   UNL     1      94.288   9.685  61.986  1.00  0.00     0.047 A 
ATOM      5  C   UNL     1      94.050   7.300  62.306  1.00  0.00     0.047 A 
ATOM      6  C   UNL     1      94.875   8.433  62.197  1.00  0.00     0.118 A 
ENDROOT
BRANCH   1   7
ATOM      7  C   UNL     1      90.592   8.759  61.875  1.00  0.00     0.010 C 
ATOM      8  C   UNL     1      89.890   9.874  62.117  1.00  0.00     0.025 C 
BRANCH   8   9
ATOM      9  C   UNL     1      88.424   9.912  61.998  1.00  0.00     0.064 C 
ATOM     10  O   UNL     1      87.834  11.022  61.934  1.00  0.00    -0.545 OA
ATOM     11  O   UNL     1      87.677   8.740  61.957  1.00  0.00    -0.545 OA
ENDBRANCH   8   9
ENDBRANCH   1   7
BRANCH   6  12
ATOM     12  O   UNL     1      96.273   8.360  62.296  1.00  0.00    -0.497 OA
ATOM     13  C   UNL     1      97.075   9.282  63.026  1.00  0.00     0.278 C 
ENDBRANCH   6  12
TORSDOF 3
ENDMDL
MODEL 3
REMARK VINA RESULT:     6.491     15.691     16.916
REMARK INTER + INTRA:           7.467
REMARK INTER:                   7.627
REMARK INTRA:                  -0.161
REMARK UNBOUND:                -0.162
REMARK SMILES COc1ccc(C=CC(=O)[O-])cc1
REMARK SMILES IDX 6 1 5 2 12 3 4 4 13 5 3 6 7 7 8 8 9 9 10 10 11 11 2 12 1 13
REMARK H PARENT
REMARK Flexibility Score: inf
ROOT
ATOM      1  C   UNL     1      79.160   0.155  64.587  1.00  0.00    -0.025 A 
ATOM      2  C   UNL     1      79.969   1.021  63.825  1.00  0.00     0.012 A 
ATOM      3  C   UNL     1      77.768   0.205  64.417  1.00  0.00     0.012 A 
ATOM      4  C   UNL     1      79.389   1.931  62.936  1.00  0.00     0.047 A 
ATOM      5  C   UNL     1      77.190   1.115  63.527  1.00  0.00     0.047 A 
ATOM      6  C   UNL     1      78.000   1.989  62.780  1.00  0.00     0.118 A 
ENDROOT
BRANCH   1   7
ATOM      7  C   UNL     1      79.725  -0.836  65.537  1.00  0.00     0.010 C 
ATOM      8  C   UNL     1      79.352  -0.936  66.819  1.00  0.00     0.025 C 
BRANCH   8   9
ATOM      9  C   UNL     1      79.931  -1.944  67.722  1.00  0.00     0.064 C 
ATOM     10  O   UNL     1      79.170  -2.711  68.367  1.00  0.00    -0.545 OA
ATOM     11  O   UNL     1      81.308  -2.061  67.877  1.00  0.00    -0.545 OA
ENDBRANCH   8   9
ENDBRANCH   1   7
BRANCH   6  12
ATOM     12  O   UNL     1      77.469   2.921  61.875  1.00  0.00    -0.497 OA
ATOM     13  C   UNL     1      76.877   4.159  62.253  1.00  0.00     0.278 C 
ENDBRANCH   6  12
TORSDOF 3
ENDMDL
