MODEL 1
REMARK VINA RESULT:    -4.225      0.000      0.000
REMARK INTER + INTRA:          -8.714
REMARK INTER:                  -7.190
REMARK INTRA:                  -1.524
REMARK UNBOUND:                -1.524
REMARK SMILES CCCCCCCCCCCCCC(=O)[O-]
REMARK SMILES IDX 8 1 9 2 10 3 11 4 12 5 13 6 14 7 15 8 16 9 7 10 6 11 5 12
REMARK SMILES IDX 4 13 3 14 2 15 1 16
REMARK H PARENT
REMARK Flexibility Score: inf
ROOT
ATOM      1  C   UNL     1       4.024  -0.324  -4.296  1.00  0.00     0.000 C 
ENDROOT
BRANCH   1   2
ATOM      2  C   UNL     1       3.817   0.256  -5.705  1.00  0.00     0.000 C 
BRANCH   2   3
ATOM      3  C   UNL     1       2.358   0.670  -5.966  1.00  0.00     0.000 C 
BRANCH   3   4
ATOM      4  C   UNL     1       1.641   1.130  -4.677  1.00  0.00     0.000 C 
BRANCH   4   5
ATOM      5  C   UNL     1       0.371   0.318  -4.358  1.00  0.00     0.006 C 
BRANCH   5   6
ATOM      6  C   UNL     1       0.307  -1.045  -5.063  1.00  0.00     0.053 C 
BRANCH   6   7
ATOM      7  C   UNL     1       0.833  -2.148  -4.195  1.00  0.00     0.041 C 
ATOM      8  O   UNL     1       1.664  -2.974  -4.657  1.00  0.00    -0.550 OA
ATOM      9  O   UNL     1       0.423  -2.254  -2.873  1.00  0.00    -0.550 OA
ENDBRANCH   6   7
ENDBRANCH   5   6
ENDBRANCH   4   5
ENDBRANCH   3   4
ENDBRANCH   2   3
ENDBRANCH   1   2
BRANCH   1  10
ATOM     10  C   UNL     1       5.468  -0.148  -3.795  1.00  0.00     0.000 C 
BRANCH  10  11
ATOM     11  C   UNL     1       5.706   1.231  -3.160  1.00  0.00    -0.000 C 
BRANCH  11  12
ATOM     12  C   UNL     1       6.395   2.216  -4.122  1.00  0.00    -0.000 C 
BRANCH  12  13
ATOM     13  C   UNL     1       5.492   3.400  -4.501  1.00  0.00    -0.000 C 
BRANCH  13  14
ATOM     14  C   UNL     1       4.231   3.484  -3.627  1.00  0.00    -0.000 C 
BRANCH  14  15
ATOM     15  C   UNL     1       3.460   4.781  -3.902  1.00  0.00    -0.003 C 
ATOM     16  C   UNL     1       4.244   6.000  -3.423  1.00  0.00     0.004 C 
ENDBRANCH  14  15
ENDBRANCH  13  14
ENDBRANCH  12  13
ENDBRANCH  11  12
ENDBRANCH  10  11
ENDBRANCH   1  10
TORSDOF 12
ENDMDL
MODEL 2
REMARK VINA RESULT:    -3.978      1.492      2.127
REMARK INTER + INTRA:          -8.292
REMARK INTER:                  -6.846
REMARK INTRA:                  -1.446
REMARK UNBOUND:                -1.524
REMARK SMILES CCCCCCCCCCCCCC(=O)[O-]
REMARK SMILES IDX 8 1 9 2 10 3 11 4 12 5 13 6 14 7 15 8 16 9 7 10 6 11 5 12
REMARK SMILES IDX 4 13 3 14 2 15 1 16
REMARK H PARENT
REMARK Flexibility Score: inf
ROOT
ATOM      1  C   UNL     1       3.872   1.707  -4.400  1.00  0.00     0.000 C 
ENDROOT
BRANCH   1   2
ATOM      2  C   UNL     1       2.399   2.112  -4.223  1.00  0.00     0.000 C 
BRANCH   2   3
ATOM      3  C   UNL     1       1.577   1.932  -5.511  1.00  0.00     0.000 C 
BRANCH   3   4
ATOM      4  C   UNL     1       0.122   1.502  -5.220  1.00  0.00     0.000 C 
BRANCH   4   5
ATOM      5  C   UNL     1      -0.011   0.571  -4.000  1.00  0.00     0.006 C 
BRANCH   5   6
ATOM      6  C   UNL     1      -0.169  -0.913  -4.361  1.00  0.00     0.053 C 
BRANCH   6   7
ATOM      7  C   UNL     1       1.076  -1.474  -4.978  1.00  0.00     0.041 C 
ATOM      8  O   UNL     1       2.067  -1.757  -4.255  1.00  0.00    -0.550 OA
ATOM      9  O   UNL     1       1.137  -1.702  -6.346  1.00  0.00    -0.550 OA
ENDBRANCH   6   7
ENDBRANCH   5   6
ENDBRANCH   4   5
ENDBRANCH   3   4
ENDBRANCH   2   3
ENDBRANCH   1   2
BRANCH   1  10
ATOM     10  C   UNL     1       4.838   2.689  -3.714  1.00  0.00     0.000 C 
BRANCH  10  11
ATOM     11  C   UNL     1       5.945   3.182  -4.659  1.00  0.00    -0.000 C 
BRANCH  11  12
ATOM     12  C   UNL     1       5.392   3.953  -5.871  1.00  0.00    -0.000 C 
BRANCH  12  13
ATOM     13  C   UNL     1       5.008   5.401  -5.523  1.00  0.00    -0.000 C 
BRANCH  13  14
ATOM     14  C   UNL     1       3.489   5.628  -5.539  1.00  0.00    -0.000 C 
BRANCH  14  15
ATOM     15  C   UNL     1       3.024   6.311  -4.247  1.00  0.00    -0.003 C 
ATOM     16  C   UNL     1       4.109   6.255  -3.174  1.00  0.00     0.004 C 
ENDBRANCH  14  15
ENDBRANCH  13  14
ENDBRANCH  12  13
ENDBRANCH  11  12
ENDBRANCH  10  11
ENDBRANCH   1  10
TORSDOF 12
ENDMDL
MODEL 3
REMARK VINA RESULT:    -3.972      1.206      3.490
REMARK INTER + INTRA:          -8.283
REMARK INTER:                  -6.713
REMARK INTRA:                  -1.569
REMARK UNBOUND:                -1.524
REMARK SMILES CCCCCCCCCCCCCC(=O)[O-]
REMARK SMILES IDX 8 1 9 2 10 3 11 4 12 5 13 6 14 7 15 8 16 9 7 10 6 11 5 12
REMARK SMILES IDX 4 13 3 14 2 15 1 16
REMARK H PARENT
REMARK Flexibility Score: inf
ROOT
ATOM      1  C   UNL     1       4.082   5.204  -3.787  1.00  0.00     0.000 C 
ENDROOT
BRANCH   1   2
ATOM      2  C   UNL     1       3.427   3.865  -3.411  1.00  0.00     0.000 C 
BRANCH   2   3
ATOM      3  C   UNL     1       2.716   3.198  -4.602  1.00  0.00     0.000 C 
BRANCH   3   4
ATOM      4  C   UNL     1       2.366   1.720  -4.320  1.00  0.00     0.000 C 
BRANCH   4   5
ATOM      5  C   UNL     1       1.156   1.211  -5.128  1.00  0.00     0.006 C 
BRANCH   5   6
ATOM      6  C   UNL     1       0.510  -0.057  -4.553  1.00  0.00     0.053 C 
BRANCH   6   7
ATOM      7  C   UNL     1       1.209  -1.300  -5.015  1.00  0.00     0.041 C 
ATOM      8  O   UNL     1       1.096  -1.681  -6.210  1.00  0.00    -0.550 OA
ATOM      9  O   UNL     1       2.000  -2.025  -4.134  1.00  0.00    -0.550 OA
ENDBRANCH   6   7
ENDBRANCH   5   6
ENDBRANCH   4   5
ENDBRANCH   3   4
ENDBRANCH   2   3
ENDBRANCH   1   2
BRANCH   1  10
ATOM     10  C   UNL     1       5.018   5.079  -5.002  1.00  0.00     0.000 C 
BRANCH  10  11
ATOM     11  C   UNL     1       6.197   4.127  -4.742  1.00  0.00    -0.000 C 
BRANCH  11  12
ATOM     12  C   UNL     1       6.226   2.938  -5.718  1.00  0.00    -0.000 C 
BRANCH  12  13
ATOM     13  C   UNL     1       6.208   1.581  -4.996  1.00  0.00    -0.000 C 
BRANCH  13  14
ATOM     14  C   UNL     1       6.156   1.727  -3.468  1.00  0.00    -0.000 C 
BRANCH  14  15
ATOM     15  C   UNL     1       5.611   0.451  -2.815  1.00  0.00    -0.003 C 
ATOM     16  C   UNL     1       5.188  -0.570  -3.868  1.00  0.00     0.004 C 
ENDBRANCH  14  15
ENDBRANCH  13  14
ENDBRANCH  12  13
ENDBRANCH  11  12
ENDBRANCH  10  11
ENDBRANCH   1  10
TORSDOF 12
ENDMDL
MODEL 4
REMARK VINA RESULT:    -3.922      1.311      3.109
REMARK INTER + INTRA:          -8.197
REMARK INTER:                  -6.699
REMARK INTRA:                  -1.498
REMARK UNBOUND:                -1.524
REMARK SMILES CCCCCCCCCCCCCC(=O)[O-]
REMARK SMILES IDX 8 1 9 2 10 3 11 4 12 5 13 6 14 7 15 8 16 9 7 10 6 11 5 12
REMARK SMILES IDX 4 13 3 14 2 15 1 16
REMARK H PARENT
REMARK Flexibility Score: inf
ROOT
ATOM      1  C   UNL     1       3.174   3.561  -3.863  1.00  0.00     0.000 C 
ENDROOT
BRANCH   1   2
ATOM      2  C   UNL     1       2.945   3.202  -5.340  1.00  0.00     0.000 C 
BRANCH   2   3
ATOM      3  C   UNL     1       2.312   1.811  -5.521  1.00  0.00     0.000 C 
BRANCH   3   4
ATOM      4  C   UNL     1       1.439   1.405  -4.313  1.00  0.00     0.000 C 
BRANCH   4   5
ATOM      5  C   UNL     1       0.067   0.830  -4.713  1.00  0.00     0.006 C 
BRANCH   5   6
ATOM      6  C   UNL     1      -0.198  -0.584  -4.175  1.00  0.00     0.053 C 
BRANCH   6   7
ATOM      7  C   UNL     1       0.832  -1.564  -4.649  1.00  0.00     0.041 C 
ATOM      8  O   UNL     1       1.467  -2.265  -3.816  1.00  0.00    -0.550 OA
ATOM      9  O   UNL     1       1.079  -1.719  -6.006  1.00  0.00    -0.550 OA
ENDBRANCH   6   7
ENDBRANCH   5   6
ENDBRANCH   4   5
ENDBRANCH   3   4
ENDBRANCH   2   3
ENDBRANCH   1   2
BRANCH   1  10
ATOM     10  C   UNL     1       3.819   4.947  -3.688  1.00  0.00     0.000 C 
BRANCH  10  11
ATOM     11  C   UNL     1       4.734   5.322  -4.865  1.00  0.00    -0.000 C 
BRANCH  11  12
ATOM     12  C   UNL     1       6.192   4.877  -4.649  1.00  0.00    -0.000 C 
BRANCH  12  13
ATOM     13  C   UNL     1       6.563   3.645  -5.490  1.00  0.00    -0.000 C 
BRANCH  13  14
ATOM     14  C   UNL     1       7.155   2.509  -4.643  1.00  0.00    -0.000 C 
BRANCH  14  15
ATOM     15  C   UNL     1       6.114   1.410  -4.397  1.00  0.00    -0.003 C 
ATOM     16  C   UNL     1       5.817   1.255  -2.908  1.00  0.00     0.004 C 
ENDBRANCH  14  15
ENDBRANCH  13  14
ENDBRANCH  12  13
ENDBRANCH  11  12
ENDBRANCH  10  11
ENDBRANCH   1  10
TORSDOF 12
ENDMDL
MODEL 5
REMARK VINA RESULT:    -3.892      1.208      3.257
REMARK INTER + INTRA:          -8.146
REMARK INTER:                  -6.289
REMARK INTRA:                  -1.858
REMARK UNBOUND:                -1.524
REMARK SMILES CCCCCCCCCCCCCC(=O)[O-]
REMARK SMILES IDX 8 1 9 2 10 3 11 4 12 5 13 6 14 7 15 8 16 9 7 10 6 11 5 12
REMARK SMILES IDX 4 13 3 14 2 15 1 16
REMARK H PARENT
REMARK Flexibility Score: inf
ROOT
ATOM      1  C   UNL     1       3.125   3.178  -3.742  1.00  0.00     0.000 C 
ENDROOT
BRANCH   1   2
ATOM      2  C   UNL     1       2.260   2.090  -4.400  1.00  0.00     0.000 C 
BRANCH   2   3
ATOM      3  C   UNL     1       2.688   1.786  -5.846  1.00  0.00     0.000 C 
BRANCH   3   4
ATOM      4  C   UNL     1       2.587   0.281  -6.182  1.00  0.00     0.000 C 
BRANCH   4   5
ATOM      5  C   UNL     1       1.168  -0.164  -6.584  1.00  0.00     0.006 C 
BRANCH   5   6
ATOM      6  C   UNL     1       0.748  -1.519  -5.997  1.00  0.00     0.053 C 
BRANCH   6   7
ATOM      7  C   UNL     1       0.763  -1.508  -4.499  1.00  0.00     0.041 C 
ATOM      8  O   UNL     1       0.109  -0.637  -3.867  1.00  0.00    -0.550 OA
ATOM      9  O   UNL     1       1.481  -2.469  -3.800  1.00  0.00    -0.550 OA
ENDBRANCH   6   7
ENDBRANCH   5   6
ENDBRANCH   4   5
ENDBRANCH   3   4
ENDBRANCH   2   3
ENDBRANCH   1   2
BRANCH   1  10
ATOM     10  C   UNL     1       3.745   4.137  -4.773  1.00  0.00     0.000 C 
BRANCH  10  11
ATOM     11  C   UNL     1       5.259   4.311  -4.579  1.00  0.00    -0.000 C 
BRANCH  11  12
ATOM     12  C   UNL     1       6.077   3.194  -5.251  1.00  0.00    -0.000 C 
BRANCH  12  13
ATOM     13  C   UNL     1       6.621   2.171  -4.240  1.00  0.00    -0.000 C 
BRANCH  13  14
ATOM     14  C   UNL     1       6.044   0.764  -4.456  1.00  0.00    -0.000 C 
BRANCH  14  15
ATOM     15  C   UNL     1       5.324   0.268  -3.196  1.00  0.00    -0.003 C 
ATOM     16  C   UNL     1       4.682  -1.097  -3.430  1.00  0.00     0.004 C 
ENDBRANCH  14  15
ENDBRANCH  13  14
ENDBRANCH  12  13
ENDBRANCH  11  12
ENDBRANCH  10  11
ENDBRANCH   1  10
TORSDOF 12
ENDMDL
MODEL 6
REMARK VINA RESULT:    -3.844      1.029      2.085
REMARK INTER + INTRA:          -8.064
REMARK INTER:                  -6.627
REMARK INTRA:                  -1.437
REMARK UNBOUND:                -1.524
REMARK SMILES CCCCCCCCCCCCCC(=O)[O-]
REMARK SMILES IDX 8 1 9 2 10 3 11 4 12 5 13 6 14 7 15 8 16 9 7 10 6 11 5 12
REMARK SMILES IDX 4 13 3 14 2 15 1 16
REMARK H PARENT
REMARK Flexibility Score: inf
ROOT
ATOM      1  C   UNL     1       5.761   1.412  -3.193  1.00  0.00     0.000 C 
ENDROOT
BRANCH   1   2
ATOM      2  C   UNL     1       5.086   0.044  -3.391  1.00  0.00     0.000 C 
BRANCH   2   3
ATOM      3  C   UNL     1       4.166   0.010  -4.624  1.00  0.00     0.000 C 
BRANCH   3   4
ATOM      4  C   UNL     1       2.837   0.759  -4.382  1.00  0.00     0.000 C 
BRANCH   4   5
ATOM      5  C   UNL     1       1.825   0.601  -5.533  1.00  0.00     0.006 C 
BRANCH   5   6
ATOM      6  C   UNL     1       1.269  -0.822  -5.684  1.00  0.00     0.053 C 
BRANCH   6   7
ATOM      7  C   UNL     1       0.784  -1.374  -4.378  1.00  0.00     0.041 C 
ATOM      8  O   UNL     1      -0.182  -0.830  -3.781  1.00  0.00    -0.550 OA
ATOM      9  O   UNL     1       1.385  -2.499  -3.829  1.00  0.00    -0.550 OA
ENDBRANCH   6   7
ENDBRANCH   5   6
ENDBRANCH   4   5
ENDBRANCH   3   4
ENDBRANCH   2   3
ENDBRANCH   1   2
BRANCH   1  10
ATOM     10  C   UNL     1       6.397   1.945  -4.489  1.00  0.00     0.000 C 
BRANCH  10  11
ATOM     11  C   UNL     1       6.012   3.405  -4.777  1.00  0.00    -0.000 C 
BRANCH  11  12
ATOM     12  C   UNL     1       4.803   3.524  -5.722  1.00  0.00    -0.000 C 
BRANCH  12  13
ATOM     13  C   UNL     1       3.685   4.405  -5.141  1.00  0.00    -0.000 C 
BRANCH  13  14
ATOM     14  C   UNL     1       3.849   4.648  -3.633  1.00  0.00    -0.000 C 
BRANCH  14  15
ATOM     15  C   UNL     1       3.927   6.149  -3.326  1.00  0.00    -0.003 C 
ATOM     16  C   UNL     1       2.722   6.891  -3.897  1.00  0.00     0.004 C 
ENDBRANCH  14  15
ENDBRANCH  13  14
ENDBRANCH  12  13
ENDBRANCH  11  12
ENDBRANCH  10  11
ENDBRANCH   1  10
TORSDOF 12
ENDMDL
MODEL 7
REMARK VINA RESULT:    -3.843      1.617      2.576
REMARK INTER + INTRA:          -8.063
REMARK INTER:                  -6.437
REMARK INTRA:                  -1.626
REMARK UNBOUND:                -1.524
REMARK SMILES CCCCCCCCCCCCCC(=O)[O-]
REMARK SMILES IDX 8 1 9 2 10 3 11 4 12 5 13 6 14 7 15 8 16 9 7 10 6 11 5 12
REMARK SMILES IDX 4 13 3 14 2 15 1 16
REMARK H PARENT
REMARK Flexibility Score: inf
ROOT
ATOM      1  C   UNL     1       5.447   0.364  -2.925  1.00  0.00     0.000 C 
ENDROOT
BRANCH   1   2
ATOM      2  C   UNL     1       5.156  -0.672  -4.023  1.00  0.00     0.000 C 
BRANCH   2   3
ATOM      3  C   UNL     1       3.704  -0.609  -4.528  1.00  0.00     0.000 C 
BRANCH   3   4
ATOM      4  C   UNL     1       3.573   0.216  -5.828  1.00  0.00     0.000 C 
BRANCH   4   5
ATOM      5  C   UNL     1       2.429   1.247  -5.788  1.00  0.00     0.006 C 
BRANCH   5   6
ATOM      6  C   UNL     1       1.758   1.384  -4.414  1.00  0.00     0.053 C 
BRANCH   6   7
ATOM      7  C   UNL     1       0.307   1.015  -4.461  1.00  0.00     0.041 C 
ATOM      8  O   UNL     1      -0.171   0.218  -3.610  1.00  0.00    -0.550 OA
ATOM      9  O   UNL     1      -0.523   1.562  -5.430  1.00  0.00    -0.550 OA
ENDBRANCH   6   7
ENDBRANCH   5   6
ENDBRANCH   4   5
ENDBRANCH   3   4
ENDBRANCH   2   3
ENDBRANCH   1   2
BRANCH   1  10
ATOM     10  C   UNL     1       6.168   1.609  -3.470  1.00  0.00     0.000 C 
BRANCH  10  11
ATOM     11  C   UNL     1       5.213   2.793  -3.691  1.00  0.00    -0.000 C 
BRANCH  11  12
ATOM     12  C   UNL     1       5.336   3.398  -5.101  1.00  0.00    -0.000 C 
BRANCH  12  13
ATOM     13  C   UNL     1       4.314   4.519  -5.353  1.00  0.00    -0.000 C 
BRANCH  13  14
ATOM     14  C   UNL     1       3.423   4.789  -4.132  1.00  0.00    -0.000 C 
BRANCH  14  15
ATOM     15  C   UNL     1       3.739   6.158  -3.517  1.00  0.00    -0.003 C 
ATOM     16  C   UNL     1       2.641   7.170  -3.833  1.00  0.00     0.004 C 
ENDBRANCH  14  15
ENDBRANCH  13  14
ENDBRANCH  12  13
ENDBRANCH  11  12
ENDBRANCH  10  11
ENDBRANCH   1  10
TORSDOF 12
ENDMDL
MODEL 8
REMARK VINA RESULT:    -3.681      1.678      3.144
REMARK INTER + INTRA:          -7.787
REMARK INTER:                  -6.142
REMARK INTRA:                  -1.645
REMARK UNBOUND:                -1.524
REMARK SMILES CCCCCCCCCCCCCC(=O)[O-]
REMARK SMILES IDX 8 1 9 2 10 3 11 4 12 5 13 6 14 7 15 8 16 9 7 10 6 11 5 12
REMARK SMILES IDX 4 13 3 14 2 15 1 16
REMARK H PARENT
REMARK Flexibility Score: inf
ROOT
ATOM      1  C   UNL     1       4.367   2.890  -3.736  1.00  0.00     0.000 C 
ENDROOT
BRANCH   1   2
ATOM      2  C   UNL     1       3.511   1.727  -4.263  1.00  0.00     0.000 C 
BRANCH   2   3
ATOM      3  C   UNL     1       2.794   2.068  -5.581  1.00  0.00     0.000 C 
BRANCH   3   4
ATOM      4  C   UNL     1       1.283   1.757  -5.522  1.00  0.00     0.000 C 
BRANCH   4   5
ATOM      5  C   UNL     1       0.853   1.042  -4.227  1.00  0.00     0.006 C 
BRANCH   5   6
ATOM      6  C   UNL     1       0.207  -0.332  -4.456  1.00  0.00     0.053 C 
BRANCH   6   7
ATOM      7  C   UNL     1       1.194  -1.334  -4.974  1.00  0.00     0.041 C 
ATOM      8  O   UNL     1       2.194  -1.655  -4.278  1.00  0.00    -0.550 OA
ATOM      9  O   UNL     1       1.003  -1.927  -6.214  1.00  0.00    -0.550 OA
ENDBRANCH   6   7
ENDBRANCH   5   6
ENDBRANCH   4   5
ENDBRANCH   3   4
ENDBRANCH   2   3
ENDBRANCH   1   2
BRANCH   1  10
ATOM     10  C   UNL     1       3.527   4.137  -3.409  1.00  0.00     0.000 C 
BRANCH  10  11
ATOM     11  C   UNL     1       4.196   5.438  -3.878  1.00  0.00    -0.000 C 
BRANCH  11  12
ATOM     12  C   UNL     1       4.012   5.689  -5.386  1.00  0.00    -0.000 C 
BRANCH  12  13
ATOM     13  C   UNL     1       5.324   5.539  -6.173  1.00  0.00    -0.000 C 
BRANCH  13  14
ATOM     14  C   UNL     1       6.559   5.503  -5.260  1.00  0.00    -0.000 C 
BRANCH  14  15
ATOM     15  C   UNL     1       7.349   4.204  -5.460  1.00  0.00    -0.003 C 
ATOM     16  C   UNL     1       6.738   3.352  -6.569  1.00  0.00     0.004 C 
ENDBRANCH  14  15
ENDBRANCH  13  14
ENDBRANCH  12  13
ENDBRANCH  11  12
ENDBRANCH  10  11
ENDBRANCH   1  10
TORSDOF 12
ENDMDL
MODEL 9
REMARK VINA RESULT:    -3.583      1.344      3.242
REMARK INTER + INTRA:          -7.620
REMARK INTER:                  -5.928
REMARK INTRA:                  -1.692
REMARK UNBOUND:                -1.524
REMARK SMILES CCCCCCCCCCCCCC(=O)[O-]
REMARK SMILES IDX 8 1 9 2 10 3 11 4 12 5 13 6 14 7 15 8 16 9 7 10 6 11 5 12
REMARK SMILES IDX 4 13 3 14 2 15 1 16
REMARK H PARENT
REMARK Flexibility Score: inf
ROOT
ATOM      1  C   UNL     1       3.511   3.502  -6.145  1.00  0.00     0.000 C 
ENDROOT
BRANCH   1   2
ATOM      2  C   UNL     1       2.260   2.689  -6.515  1.00  0.00     0.000 C 
BRANCH   2   3
ATOM      3  C   UNL     1       2.405   1.193  -6.183  1.00  0.00     0.000 C 
BRANCH   3   4
ATOM      4  C   UNL     1       1.910   0.861  -4.758  1.00  0.00     0.000 C 
BRANCH   4   5
ATOM      5  C   UNL     1       0.378   0.735  -4.654  1.00  0.00     0.006 C 
BRANCH   5   6
ATOM      6  C   UNL     1      -0.108  -0.669  -4.268  1.00  0.00     0.053 C 
BRANCH   6   7
ATOM      7  C   UNL     1       0.886  -1.727  -4.639  1.00  0.00     0.041 C 
ATOM      8  O   UNL     1       1.581  -2.282  -3.747  1.00  0.00    -0.550 OA
ATOM      9  O   UNL     1       1.033  -2.115  -5.964  1.00  0.00    -0.550 OA
ENDBRANCH   6   7
ENDBRANCH   5   6
ENDBRANCH   4   5
ENDBRANCH   3   4
ENDBRANCH   2   3
ENDBRANCH   1   2
BRANCH   1  10
ATOM     10  C   UNL     1       3.307   4.349  -4.877  1.00  0.00     0.000 C 
BRANCH  10  11
ATOM     11  C   UNL     1       4.112   3.819  -3.679  1.00  0.00    -0.000 C 
BRANCH  11  12
ATOM     12  C   UNL     1       5.285   2.917  -4.105  1.00  0.00    -0.000 C 
BRANCH  12  13
ATOM     13  C   UNL     1       5.260   1.548  -3.406  1.00  0.00    -0.000 C 
BRANCH  13  14
ATOM     14  C   UNL     1       5.792   0.420  -4.302  1.00  0.00    -0.000 C 
BRANCH  14  15
ATOM     15  C   UNL     1       6.324   0.978  -5.628  1.00  0.00    -0.003 C 
ATOM     16  C   UNL     1       5.779   0.190  -6.816  1.00  0.00     0.004 C 
ENDBRANCH  14  15
ENDBRANCH  13  14
ENDBRANCH  12  13
ENDBRANCH  11  12
ENDBRANCH  10  11
ENDBRANCH   1  10
TORSDOF 12
ENDMDL
