MODEL 1
REMARK VINA RESULT:    -2.788      0.000      0.000
REMARK INTER + INTRA:          -4.274
REMARK INTER:                  -3.929
REMARK INTRA:                  -0.345
REMARK UNBOUND:                -0.345
REMARK SMILES CCCCCCCCC(=O)[O-]
REMARK SMILES IDX 6 1 7 2 8 3 9 4 10 5 11 6 5 7 4 8 3 9 2 10 1 11
REMARK H PARENT
REMARK Flexibility Score: inf
ROOT
ATOM      1  C   UNL     1     -14.776  -7.642 -12.125  1.00  0.00     0.000 C 
ENDROOT
BRANCH   1   2
ATOM      2  C   UNL     1     -15.318  -6.208 -12.098  1.00  0.00     0.006 C 
BRANCH   2   3
ATOM      3  C   UNL     1     -14.348  -5.267 -11.375  1.00  0.00     0.053 C 
BRANCH   3   4
ATOM      4  C   UNL     1     -14.599  -3.848 -11.774  1.00  0.00     0.041 C 
ATOM      5  O   UNL     1     -15.776  -3.402 -11.824  1.00  0.00    -0.550 OA
ATOM      6  O   UNL     1     -13.530  -3.002 -12.042  1.00  0.00    -0.550 OA
ENDBRANCH   3   4
ENDBRANCH   2   3
ENDBRANCH   1   2
BRANCH   1   7
ATOM      7  C   UNL     1     -13.361  -7.708 -11.539  1.00  0.00     0.000 C 
BRANCH   7   8
ATOM      8  C   UNL     1     -12.746  -9.101 -11.743  1.00  0.00    -0.000 C 
BRANCH   8   9
ATOM      9  C   UNL     1     -12.483  -9.832 -10.416  1.00  0.00    -0.000 C 
BRANCH   9  10
ATOM     10  C   UNL     1     -12.968 -11.289 -10.437  1.00  0.00    -0.003 C 
ATOM     11  C   UNL     1     -14.491 -11.361 -10.377  1.00  0.00     0.004 C 
ENDBRANCH   9  10
ENDBRANCH   8   9
ENDBRANCH   7   8
ENDBRANCH   1   7
TORSDOF 7
ENDMDL
MODEL 2
REMARK VINA RESULT:    -2.576     17.455     19.469
REMARK INTER + INTRA:          -3.975
REMARK INTER:                  -3.634
REMARK INTRA:                  -0.341
REMARK UNBOUND:                -0.345
REMARK SMILES CCCCCCCCC(=O)[O-]
REMARK SMILES IDX 6 1 7 2 8 3 9 4 10 5 11 6 5 7 4 8 3 9 2 10 1 11
REMARK H PARENT
REMARK Flexibility Score: inf
ROOT
ATOM      1  C   UNL     1     -20.583   4.940   1.514  1.00  0.00     0.000 C 
ENDROOT
BRANCH   1   2
ATOM      2  C   UNL     1     -20.898   5.814   2.735  1.00  0.00     0.006 C 
BRANCH   2   3
ATOM      3  C   UNL     1     -20.708   5.028   4.036  1.00  0.00     0.053 C 
BRANCH   3   4
ATOM      4  C   UNL     1     -20.457   5.959   5.179  1.00  0.00     0.041 C 
ATOM      5  O   UNL     1     -21.043   7.073   5.229  1.00  0.00    -0.550 OA
ATOM      6  O   UNL     1     -19.615   5.576   6.216  1.00  0.00    -0.550 OA
ENDBRANCH   3   4
ENDBRANCH   2   3
ENDBRANCH   1   2
BRANCH   1   7
ATOM      7  C   UNL     1     -20.803   3.455   1.827  1.00  0.00     0.000 C 
BRANCH   7   8
ATOM      8  C   UNL     1     -20.712   2.606   0.551  1.00  0.00    -0.000 C 
BRANCH   8   9
ATOM      9  C   UNL     1     -20.087   3.372  -0.627  1.00  0.00    -0.000 C 
BRANCH   9  10
ATOM     10  C   UNL     1     -20.736   3.019  -1.973  1.00  0.00    -0.003 C 
ATOM     11  C   UNL     1     -21.123   4.278  -2.743  1.00  0.00     0.004 C 
ENDBRANCH   9  10
ENDBRANCH   8   9
ENDBRANCH   7   8
ENDBRANCH   1   7
TORSDOF 7
ENDMDL
MODEL 3
REMARK VINA RESULT:    -2.438      4.207      6.702
REMARK INTER + INTRA:          -3.781
REMARK INTER:                  -3.614
REMARK INTRA:                  -0.168
REMARK UNBOUND:                -0.345
REMARK SMILES CCCCCCCCC(=O)[O-]
REMARK SMILES IDX 6 1 7 2 8 3 9 4 10 5 11 6 5 7 4 8 3 9 2 10 1 11
REMARK H PARENT
REMARK Flexibility Score: inf
ROOT
ATOM      1  C   UNL     1     -13.242  -8.249 -11.473  1.00  0.00     0.000 C 
ENDROOT
BRANCH   1   2
ATOM      2  C   UNL     1     -13.408  -9.763 -11.660  1.00  0.00     0.006 C 
BRANCH   2   3
ATOM      3  C   UNL     1     -12.883 -10.528 -10.442  1.00  0.00     0.053 C 
BRANCH   3   4
ATOM      4  C   UNL     1     -13.065 -12.000 -10.630  1.00  0.00     0.041 C 
ATOM      5  O   UNL     1     -12.241 -12.658 -11.320  1.00  0.00    -0.550 OA
ATOM      6  O   UNL     1     -14.115 -12.657 -10.001  1.00  0.00    -0.550 OA
ENDBRANCH   3   4
ENDBRANCH   2   3
ENDBRANCH   1   2
BRANCH   1   7
ATOM      7  C   UNL     1     -14.436  -7.487 -12.060  1.00  0.00     0.000 C 
BRANCH   7   8
ATOM      8  C   UNL     1     -14.294  -5.976 -11.820  1.00  0.00    -0.000 C 
BRANCH   8   9
ATOM      9  C   UNL     1     -15.652  -5.267 -11.693  1.00  0.00    -0.000 C 
BRANCH   9  10
ATOM     10  C   UNL     1     -15.516  -3.741 -11.588  1.00  0.00    -0.003 C 
ATOM     11  C   UNL     1     -14.053  -3.314 -11.669  1.00  0.00     0.004 C 
ENDBRANCH   9  10
ENDBRANCH   8   9
ENDBRANCH   7   8
ENDBRANCH   1   7
TORSDOF 7
ENDMDL
MODEL 4
REMARK VINA RESULT:    -2.376     16.620     18.359
REMARK INTER + INTRA:          -3.694
REMARK INTER:                  -3.371
REMARK INTRA:                  -0.323
REMARK UNBOUND:                -0.345
REMARK SMILES CCCCCCCCC(=O)[O-]
REMARK SMILES IDX 6 1 7 2 8 3 9 4 10 5 11 6 5 7 4 8 3 9 2 10 1 11
REMARK H PARENT
REMARK Flexibility Score: inf
ROOT
ATOM      1  C   UNL     1     -20.767   3.010   0.304  1.00  0.00     0.000 C 
ENDROOT
BRANCH   1   2
ATOM      2  C   UNL     1     -20.980   4.269   1.154  1.00  0.00     0.006 C 
BRANCH   2   3
ATOM      3  C   UNL     1     -20.277   4.143   2.508  1.00  0.00     0.053 C 
BRANCH   3   4
ATOM      4  C   UNL     1     -20.707   5.242   3.426  1.00  0.00     0.041 C 
ATOM      5  O   UNL     1     -20.648   5.085   4.675  1.00  0.00    -0.550 OA
ATOM      6  O   UNL     1     -21.125   6.460   2.905  1.00  0.00    -0.550 OA
ENDBRANCH   3   4
ENDBRANCH   2   3
ENDBRANCH   1   2
BRANCH   1   7
ATOM      7  C   UNL     1     -20.098   3.354  -1.033  1.00  0.00     0.000 C 
BRANCH   7   8
ATOM      8  C   UNL     1     -20.953   2.874  -2.215  1.00  0.00    -0.000 C 
BRANCH   8   9
ATOM      9  C   UNL     1     -21.023   3.906  -3.352  1.00  0.00    -0.000 C 
BRANCH   9  10
ATOM     10  C   UNL     1     -21.039   5.353  -2.838  1.00  0.00    -0.003 C 
ATOM     11  C   UNL     1     -20.388   6.299  -3.843  1.00  0.00     0.004 C 
ENDBRANCH   9  10
ENDBRANCH   8   9
ENDBRANCH   7   8
ENDBRANCH   1   7
TORSDOF 7
ENDMDL
MODEL 5
REMARK VINA RESULT:    -2.251     10.647     12.552
REMARK INTER + INTRA:          -3.517
REMARK INTER:                  -3.034
REMARK INTRA:                  -0.483
REMARK UNBOUND:                -0.345
REMARK SMILES CCCCCCCCC(=O)[O-]
REMARK SMILES IDX 6 1 7 2 8 3 9 4 10 5 11 6 5 7 4 8 3 9 2 10 1 11
REMARK H PARENT
REMARK Flexibility Score: inf
ROOT
ATOM      1  C   UNL     1      -2.177 -11.878  -9.458  1.00  0.00     0.000 C 
ENDROOT
BRANCH   1   2
ATOM      2  C   UNL     1      -2.673 -11.604 -10.884  1.00  0.00     0.006 C 
BRANCH   2   3
ATOM      3  C   UNL     1      -4.202 -11.650 -10.953  1.00  0.00     0.053 C 
BRANCH   3   4
ATOM      4  C   UNL     1      -4.744 -10.344 -11.439  1.00  0.00     0.041 C 
ATOM      5  O   UNL     1      -4.073  -9.288 -11.299  1.00  0.00    -0.550 OA
ATOM      6  O   UNL     1      -5.969 -10.300 -12.093  1.00  0.00    -0.550 OA
ENDBRANCH   3   4
ENDBRANCH   2   3
ENDBRANCH   1   2
BRANCH   1   7
ATOM      7  C   UNL     1      -0.948 -11.022  -9.128  1.00  0.00     0.000 C 
BRANCH   7   8
ATOM      8  C   UNL     1      -1.232 -10.088  -7.942  1.00  0.00    -0.000 C 
BRANCH   8   9
ATOM      9  C   UNL     1      -2.013  -8.829  -8.353  1.00  0.00    -0.000 C 
BRANCH   9  10
ATOM     10  C   UNL     1      -1.104  -7.608  -8.553  1.00  0.00    -0.003 C 
ATOM     11  C   UNL     1      -0.878  -7.330 -10.037  1.00  0.00     0.004 C 
ENDBRANCH   9  10
ENDBRANCH   8   9
ENDBRANCH   7   8
ENDBRANCH   1   7
TORSDOF 7
ENDMDL
MODEL 6
REMARK VINA RESULT:    -2.219     21.270     22.978
REMARK INTER + INTRA:          -3.472
REMARK INTER:                  -3.107
REMARK INTRA:                  -0.365
REMARK UNBOUND:                -0.345
REMARK SMILES CCCCCCCCC(=O)[O-]
REMARK SMILES IDX 6 1 7 2 8 3 9 4 10 5 11 6 5 7 4 8 3 9 2 10 1 11
REMARK H PARENT
REMARK Flexibility Score: inf
ROOT
ATOM      1  C   UNL     1      -1.190   5.856   1.952  1.00  0.00     0.000 C 
ENDROOT
BRANCH   1   2
ATOM      2  C   UNL     1      -1.189   5.907   3.485  1.00  0.00     0.006 C 
BRANCH   2   3
ATOM      3  C   UNL     1      -1.265   4.499   4.082  1.00  0.00     0.053 C 
BRANCH   3   4
ATOM      4  C   UNL     1      -1.842   4.545   5.461  1.00  0.00     0.041 C 
ATOM      5  O   UNL     1      -1.706   3.562   6.238  1.00  0.00    -0.550 OA
ATOM      6  O   UNL     1      -2.485   5.692   5.908  1.00  0.00    -0.550 OA
ENDBRANCH   3   4
ENDBRANCH   2   3
ENDBRANCH   1   2
BRANCH   1   7
ATOM      7  C   UNL     1      -2.473   6.474   1.381  1.00  0.00     0.000 C 
BRANCH   7   8
ATOM      8  C   UNL     1      -3.442   6.863   2.507  1.00  0.00    -0.000 C 
BRANCH   8   9
ATOM      9  C   UNL     1      -4.915   6.660   2.115  1.00  0.00    -0.000 C 
BRANCH   9  10
ATOM     10  C   UNL     1      -5.185   6.984   0.639  1.00  0.00    -0.003 C 
ATOM     11  C   UNL     1      -6.523   6.407   0.185  1.00  0.00     0.004 C 
ENDBRANCH   9  10
ENDBRANCH   8   9
ENDBRANCH   7   8
ENDBRANCH   1   7
TORSDOF 7
ENDMDL
MODEL 7
REMARK VINA RESULT:    -2.187     17.562     19.754
REMARK INTER + INTRA:          -3.427
REMARK INTER:                  -3.160
REMARK INTRA:                  -0.268
REMARK UNBOUND:                -0.345
REMARK SMILES CCCCCCCCC(=O)[O-]
REMARK SMILES IDX 6 1 7 2 8 3 9 4 10 5 11 6 5 7 4 8 3 9 2 10 1 11
REMARK H PARENT
REMARK Flexibility Score: inf
ROOT
ATOM      1  C   UNL     1     -20.177   4.029   2.295  1.00  0.00     0.000 C 
ENDROOT
BRANCH   1   2
ATOM      2  C   UNL     1     -21.124   3.479   1.221  1.00  0.00     0.006 C 
BRANCH   2   3
ATOM      3  C   UNL     1     -20.341   2.809   0.088  1.00  0.00     0.053 C 
BRANCH   3   4
ATOM      4  C   UNL     1     -20.298   3.695  -1.116  1.00  0.00     0.041 C 
ATOM      5  O   UNL     1     -20.910   3.366  -2.167  1.00  0.00    -0.550 OA
ATOM      6  O   UNL     1     -19.626   4.910  -1.062  1.00  0.00    -0.550 OA
ENDBRANCH   3   4
ENDBRANCH   2   3
ENDBRANCH   1   2
BRANCH   1   7
ATOM      7  C   UNL     1     -20.961   4.544   3.508  1.00  0.00     0.000 C 
BRANCH   7   8
ATOM      8  C   UNL     1     -21.111   6.072   3.455  1.00  0.00    -0.000 C 
BRANCH   8   9
ATOM      9  C   UNL     1     -20.976   6.728   4.839  1.00  0.00    -0.000 C 
BRANCH   9  10
ATOM     10  C   UNL     1     -20.103   5.908   5.800  1.00  0.00    -0.003 C 
ATOM     11  C   UNL     1     -19.129   6.804   6.558  1.00  0.00     0.004 C 
ENDBRANCH   9  10
ENDBRANCH   8   9
ENDBRANCH   7   8
ENDBRANCH   1   7
TORSDOF 7
ENDMDL
MODEL 8
REMARK VINA RESULT:    -2.063     21.697     23.109
REMARK INTER + INTRA:          -3.252
REMARK INTER:                  -2.799
REMARK INTRA:                  -0.452
REMARK UNBOUND:                -0.345
REMARK SMILES CCCCCCCCC(=O)[O-]
REMARK SMILES IDX 6 1 7 2 8 3 9 4 10 5 11 6 5 7 4 8 3 9 2 10 1 11
REMARK H PARENT
REMARK Flexibility Score: inf
ROOT
ATOM      1  C   UNL     1      -1.421   5.908   2.278  1.00  0.00     0.000 C 
ENDROOT
BRANCH   1   2
ATOM      2  C   UNL     1      -2.361   7.076   1.953  1.00  0.00     0.006 C 
BRANCH   2   3
ATOM      3  C   UNL     1      -3.379   6.680   0.879  1.00  0.00     0.053 C 
BRANCH   3   4
ATOM      4  C   UNL     1      -4.770   6.751   1.423  1.00  0.00     0.041 C 
ATOM      5  O   UNL     1      -5.759   6.653   0.649  1.00  0.00    -0.550 OA
ATOM      6  O   UNL     1      -4.976   6.875   2.791  1.00  0.00    -0.550 OA
ENDBRANCH   3   4
ENDBRANCH   2   3
ENDBRANCH   1   2
BRANCH   1   7
ATOM      7  C   UNL     1      -1.772   5.278   3.632  1.00  0.00     0.000 C 
BRANCH   7   8
ATOM      8  C   UNL     1      -1.625   6.301   4.768  1.00  0.00    -0.000 C 
BRANCH   8   9
ATOM      9  C   UNL     1      -2.866   6.363   5.673  1.00  0.00    -0.000 C 
BRANCH   9  10
ATOM     10  C   UNL     1      -2.544   6.052   7.142  1.00  0.00    -0.003 C 
ATOM     11  C   UNL     1      -2.123   4.595   7.315  1.00  0.00     0.004 C 
ENDBRANCH   9  10
ENDBRANCH   8   9
ENDBRANCH   7   8
ENDBRANCH   1   7
TORSDOF 7
ENDMDL
MODEL 9
REMARK VINA RESULT:    -2.062      6.613      8.568
REMARK INTER + INTRA:          -3.251
REMARK INTER:                  -2.807
REMARK INTRA:                  -0.445
REMARK UNBOUND:                -0.345
REMARK SMILES CCCCCCCCC(=O)[O-]
REMARK SMILES IDX 6 1 7 2 8 3 9 4 10 5 11 6 5 7 4 8 3 9 2 10 1 11
REMARK H PARENT
REMARK Flexibility Score: inf
ROOT
ATOM      1  C   UNL     1     -18.946 -11.664  -8.668  1.00  0.00     0.000 C 
ENDROOT
BRANCH   1   2
ATOM      2  C   UNL     1     -20.454 -11.919  -8.552  1.00  0.00     0.006 C 
BRANCH   2   3
ATOM      3  C   UNL     1     -20.763 -12.872  -7.393  1.00  0.00     0.053 C 
BRANCH   3   4
ATOM      4  C   UNL     1     -20.757 -12.135  -6.092  1.00  0.00     0.041 C 
ATOM      5  O   UNL     1     -20.374 -12.712  -5.040  1.00  0.00    -0.550 OA
ATOM      6  O   UNL     1     -21.125 -10.797  -6.050  1.00  0.00    -0.550 OA
ENDBRANCH   3   4
ENDBRANCH   2   3
ENDBRANCH   1   2
BRANCH   1   7
ATOM      7  C   UNL     1     -18.206 -12.932  -9.111  1.00  0.00     0.000 C 
BRANCH   7   8
ATOM      8  C   UNL     1     -17.454 -12.697 -10.430  1.00  0.00    -0.000 C 
BRANCH   8   9
ATOM      9  C   UNL     1     -17.344 -11.206 -10.790  1.00  0.00    -0.000 C 
BRANCH   9  10
ATOM     10  C   UNL     1     -15.895 -10.763 -11.038  1.00  0.00    -0.003 C 
ATOM     11  C   UNL     1     -14.914 -11.632 -10.256  1.00  0.00     0.004 C 
ENDBRANCH   9  10
ENDBRANCH   8   9
ENDBRANCH   7   8
ENDBRANCH   1   7
TORSDOF 7
ENDMDL
