MODEL 1
REMARK VINA RESULT:    -3.324      0.000      0.000
REMARK INTER + INTRA:          -3.943
REMARK INTER:                  -3.906
REMARK INTRA:                  -0.036
REMARK UNBOUND:                -0.036
REMARK SMILES O=C([O-])CCC(=O)[O-]
REMARK SMILES IDX 4 1 2 2 1 3 3 4 5 5 6 6 7 7 8 8
REMARK H PARENT
REMARK Flexibility Score: inf
ROOT
ATOM      1  C   UNL     1      -7.542  -2.252 -24.045  1.00  0.00     0.059 C 
ENDROOT
BRANCH   1   2
ATOM      2  C   UNL     1      -6.520  -1.898 -23.012  1.00  0.00     0.042 C 
ATOM      3  O   UNL     1      -5.665  -2.748 -22.649  1.00  0.00    -0.550 OA
ATOM      4  O   UNL     1      -6.541  -0.644 -22.414  1.00  0.00    -0.550 OA
ENDBRANCH   1   2
BRANCH   1   5
ATOM      5  C   UNL     1      -7.096  -3.481 -24.840  1.00  0.00     0.059 C 
BRANCH   5   6
ATOM      6  C   UNL     1      -8.242  -4.044 -25.621  1.00  0.00     0.042 C 
ATOM      7  O   UNL     1      -8.864  -3.321 -26.443  1.00  0.00    -0.550 OA
ATOM      8  O   UNL     1      -8.654  -5.352 -25.403  1.00  0.00    -0.550 OA
ENDBRANCH   5   6
ENDBRANCH   1   5
TORSDOF 3
ENDMDL
MODEL 2
REMARK VINA RESULT:    -3.312      0.068      4.394
REMARK INTER + INTRA:          -3.929
REMARK INTER:                  -3.892
REMARK INTRA:                  -0.037
REMARK UNBOUND:                -0.036
REMARK SMILES O=C([O-])CCC(=O)[O-]
REMARK SMILES IDX 4 1 2 2 1 3 3 4 5 5 6 6 7 7 8 8
REMARK H PARENT
REMARK Flexibility Score: inf
ROOT
ATOM      1  C   UNL     1      -7.130  -3.508 -24.854  1.00  0.00     0.059 C 
ENDROOT
BRANCH   1   2
ATOM      2  C   UNL     1      -8.262  -4.058 -25.662  1.00  0.00     0.042 C 
ATOM      3  O   UNL     1      -8.879  -3.320 -26.474  1.00  0.00    -0.550 OA
ATOM      4  O   UNL     1      -8.669  -5.375 -25.482  1.00  0.00    -0.550 OA
ENDBRANCH   1   2
BRANCH   1   5
ATOM      5  C   UNL     1      -7.585  -2.280 -24.063  1.00  0.00     0.059 C 
BRANCH   5   6
ATOM      6  C   UNL     1      -6.580  -1.935 -23.009  1.00  0.00     0.042 C 
ATOM      7  O   UNL     1      -5.712  -2.778 -22.661  1.00  0.00    -0.550 OA
ATOM      8  O   UNL     1      -6.633  -0.700 -22.376  1.00  0.00    -0.550 OA
ENDBRANCH   5   6
ENDBRANCH   1   5
TORSDOF 3
ENDMDL
MODEL 3
REMARK VINA RESULT:    -3.212     12.188     13.374
REMARK INTER + INTRA:          -3.812
REMARK INTER:                  -3.627
REMARK INTRA:                  -0.186
REMARK UNBOUND:                -0.036
REMARK SMILES O=C([O-])CCC(=O)[O-]
REMARK SMILES IDX 4 1 2 2 1 3 3 4 5 5 6 6 7 7 8 8
REMARK H PARENT
REMARK Flexibility Score: inf
ROOT
ATOM      1  C   UNL     1     -20.630  -0.106 -26.967  1.00  0.00     0.059 C 
ENDROOT
BRANCH   1   2
ATOM      2  C   UNL     1     -19.472  -0.403 -26.069  1.00  0.00     0.042 C 
ATOM      3  O   UNL     1     -18.480  -1.045 -26.503  1.00  0.00    -0.550 OA
ATOM      4  O   UNL     1     -19.510  -0.012 -24.735  1.00  0.00    -0.550 OA
ENDBRANCH   1   2
BRANCH   1   5
ATOM      5  C   UNL     1     -20.197   0.814 -28.111  1.00  0.00     0.059 C 
BRANCH   5   6
ATOM      6  C   UNL     1     -19.715   2.125 -27.573  1.00  0.00     0.042 C 
ATOM      7  O   UNL     1     -20.516   2.906 -26.996  1.00  0.00    -0.550 OA
ATOM      8  O   UNL     1     -18.391   2.505 -27.754  1.00  0.00    -0.550 OA
ENDBRANCH   5   6
ENDBRANCH   1   5
TORSDOF 3
ENDMDL
MODEL 4
REMARK VINA RESULT:    -3.207     12.126     13.273
REMARK INTER + INTRA:          -3.805
REMARK INTER:                  -3.618
REMARK INTRA:                  -0.187
REMARK UNBOUND:                -0.036
REMARK SMILES O=C([O-])CCC(=O)[O-]
REMARK SMILES IDX 4 1 2 2 1 3 3 4 5 5 6 6 7 7 8 8
REMARK H PARENT
REMARK Flexibility Score: inf
ROOT
ATOM      1  C   UNL     1     -20.113   0.817 -28.056  1.00  0.00     0.059 C 
ENDROOT
BRANCH   1   2
ATOM      2  C   UNL     1     -19.623   2.123 -27.516  1.00  0.00     0.042 C 
ATOM      3  O   UNL     1     -18.439   2.493 -27.730  1.00  0.00    -0.550 OA
ATOM      4  O   UNL     1     -20.461   2.910 -26.734  1.00  0.00    -0.550 OA
ENDBRANCH   1   2
BRANCH   1   5
ATOM      5  C   UNL     1     -20.605  -0.080 -26.919  1.00  0.00     0.059 C 
BRANCH   5   6
ATOM      6  C   UNL     1     -19.466  -0.468 -26.028  1.00  0.00     0.042 C 
ATOM      7  O   UNL     1     -19.465  -0.126 -24.817  1.00  0.00    -0.550 OA
ATOM      8  O   UNL     1     -18.383  -1.165 -26.549  1.00  0.00    -0.550 OA
ENDBRANCH   5   6
ENDBRANCH   1   5
TORSDOF 3
ENDMDL
MODEL 5
REMARK VINA RESULT:    -3.200      2.459      4.075
REMARK INTER + INTRA:          -3.798
REMARK INTER:                  -3.683
REMARK INTRA:                  -0.114
REMARK UNBOUND:                -0.036
REMARK SMILES O=C([O-])CCC(=O)[O-]
REMARK SMILES IDX 4 1 2 2 1 3 3 4 5 5 6 6 7 7 8 8
REMARK H PARENT
REMARK Flexibility Score: inf
ROOT
ATOM      1  C   UNL     1      -7.596  -0.848 -25.052  1.00  0.00     0.059 C 
ENDROOT
BRANCH   1   2
ATOM      2  C   UNL     1      -8.920  -0.153 -25.004  1.00  0.00     0.042 C 
ATOM      3  O   UNL     1      -9.758  -0.447 -24.111  1.00  0.00    -0.550 OA
ATOM      4  O   UNL     1      -9.248   0.785 -25.975  1.00  0.00    -0.550 OA
ENDBRANCH   1   2
BRANCH   1   5
ATOM      5  C   UNL     1      -7.567  -2.011 -24.058  1.00  0.00     0.059 C 
BRANCH   5   6
ATOM      6  C   UNL     1      -6.575  -1.743 -22.969  1.00  0.00     0.042 C 
ATOM      7  O   UNL     1      -6.551  -0.622 -22.396  1.00  0.00    -0.550 OA
ATOM      8  O   UNL     1      -5.646  -2.715 -22.621  1.00  0.00    -0.550 OA
ENDBRANCH   5   6
ENDBRANCH   1   5
TORSDOF 3
ENDMDL
MODEL 6
REMARK VINA RESULT:    -3.177      2.432      3.264
REMARK INTER + INTRA:          -3.770
REMARK INTER:                  -3.658
REMARK INTRA:                  -0.112
REMARK UNBOUND:                -0.036
REMARK SMILES O=C([O-])CCC(=O)[O-]
REMARK SMILES IDX 4 1 2 2 1 3 3 4 5 5 6 6 7 7 8 8
REMARK H PARENT
REMARK Flexibility Score: inf
ROOT
ATOM      1  C   UNL     1      -7.550  -2.081 -24.040  1.00  0.00     0.059 C 
ENDROOT
BRANCH   1   2
ATOM      2  C   UNL     1      -6.534  -1.815 -22.975  1.00  0.00     0.042 C 
ATOM      3  O   UNL     1      -6.471  -0.683 -22.427  1.00  0.00    -0.550 OA
ATOM      4  O   UNL     1      -5.622  -2.803 -22.622  1.00  0.00    -0.550 OA
ENDBRANCH   1   2
BRANCH   1   5
ATOM      5  C   UNL     1      -7.578  -0.934 -25.051  1.00  0.00     0.059 C 
BRANCH   5   6
ATOM      6  C   UNL     1      -8.883  -0.203 -24.977  1.00  0.00     0.042 C 
ATOM      7  O   UNL     1      -9.728  -0.504 -24.094  1.00  0.00    -0.550 OA
ATOM      8  O   UNL     1      -9.184   0.777 -25.914  1.00  0.00    -0.550 OA
ENDBRANCH   5   6
ENDBRANCH   1   5
TORSDOF 3
ENDMDL
MODEL 7
REMARK VINA RESULT:    -3.083      2.655      5.270
REMARK INTER + INTRA:          -3.660
REMARK INTER:                  -3.585
REMARK INTRA:                  -0.074
REMARK UNBOUND:                -0.036
REMARK SMILES O=C([O-])CCC(=O)[O-]
REMARK SMILES IDX 4 1 2 2 1 3 3 4 5 5 6 6 7 7 8 8
REMARK H PARENT
REMARK Flexibility Score: inf
ROOT
ATOM      1  C   UNL     1      -5.469  -0.520 -23.430  1.00  0.00     0.059 C 
ENDROOT
BRANCH   1   2
ATOM      2  C   UNL     1      -6.249  -1.769 -23.169  1.00  0.00     0.042 C 
ATOM      3  O   UNL     1      -5.718  -2.733 -22.558  1.00  0.00    -0.550 OA
ATOM      4  O   UNL     1      -7.550  -1.888 -23.644  1.00  0.00    -0.550 OA
ENDBRANCH   1   2
BRANCH   1   5
ATOM      5  C   UNL     1      -6.391   0.701 -23.407  1.00  0.00     0.059 C 
BRANCH   5   6
ATOM      6  C   UNL     1      -6.011   1.623 -22.291  1.00  0.00     0.042 C 
ATOM      7  O   UNL     1      -5.236   1.230 -21.381  1.00  0.00    -0.550 OA
ATOM      8  O   UNL     1      -6.554   2.900 -22.230  1.00  0.00    -0.550 OA
ENDBRANCH   5   6
ENDBRANCH   1   5
TORSDOF 3
ENDMDL
MODEL 8
REMARK VINA RESULT:    -3.059     13.399     14.450
REMARK INTER + INTRA:          -3.632
REMARK INTER:                  -3.508
REMARK INTRA:                  -0.124
REMARK UNBOUND:                -0.036
REMARK SMILES O=C([O-])CCC(=O)[O-]
REMARK SMILES IDX 4 1 2 2 1 3 3 4 5 5 6 6 7 7 8 8
REMARK H PARENT
REMARK Flexibility Score: inf
ROOT
ATOM      1  C   UNL     1     -20.880   0.268 -26.535  1.00  0.00     0.059 C 
ENDROOT
BRANCH   1   2
ATOM      2  C   UNL     1     -19.676  -0.057 -25.710  1.00  0.00     0.042 C 
ATOM      3  O   UNL     1     -18.598  -0.394 -26.266  1.00  0.00    -0.550 OA
ATOM      4  O   UNL     1     -19.758  -0.036 -24.322  1.00  0.00    -0.550 OA
ENDBRANCH   1   2
BRANCH   1   5
ATOM      5  C   UNL     1     -21.028   1.783 -26.690  1.00  0.00     0.059 C 
BRANCH   5   6
ATOM      6  C   UNL     1     -22.038   2.313 -25.721  1.00  0.00     0.042 C 
ATOM      7  O   UNL     1     -23.263   2.291 -26.009  1.00  0.00    -0.550 OA
ATOM      8  O   UNL     1     -21.622   2.874 -24.521  1.00  0.00    -0.550 OA
ENDBRANCH   5   6
ENDBRANCH   1   5
TORSDOF 3
ENDMDL
MODEL 9
REMARK VINA RESULT:    -2.932     13.099     14.311
REMARK INTER + INTRA:          -3.483
REMARK INTER:                  -3.429
REMARK INTRA:                  -0.055
REMARK UNBOUND:                -0.036
REMARK SMILES O=C([O-])CCC(=O)[O-]
REMARK SMILES IDX 4 1 2 2 1 3 3 4 5 5 6 6 7 7 8 8
REMARK H PARENT
REMARK Flexibility Score: inf
ROOT
ATOM      1  C   UNL     1     -21.419   1.152 -26.236  1.00  0.00     0.059 C 
ENDROOT
BRANCH   1   2
ATOM      2  C   UNL     1     -21.603   2.409 -27.025  1.00  0.00     0.042 C 
ATOM      3  O   UNL     1     -20.874   3.411 -26.802  1.00  0.00    -0.550 OA
ATOM      4  O   UNL     1     -22.613   2.491 -27.977  1.00  0.00    -0.550 OA
ENDBRANCH   1   2
BRANCH   1   5
ATOM      5  C   UNL     1     -20.517   0.173 -26.991  1.00  0.00     0.059 C 
BRANCH   5   6
ATOM      6  C   UNL     1     -19.448  -0.357 -26.087  1.00  0.00     0.042 C 
ATOM      7  O   UNL     1     -18.544  -1.103 -26.546  1.00  0.00    -0.550 OA
ATOM      8  O   UNL     1     -19.479  -0.066 -24.730  1.00  0.00    -0.550 OA
ENDBRANCH   5   6
ENDBRANCH   1   5
TORSDOF 3
ENDMDL
