MODEL 1
REMARK VINA RESULT:    -4.028      0.000      0.000
REMARK INTER + INTRA:          -5.085
REMARK INTER:                  -4.852
REMARK INTRA:                  -0.233
REMARK UNBOUND:                -0.233
REMARK SMILES NC(=O)C[C@@H]([NH3+])C(=O)[O-]
REMARK SMILES IDX 4 1 5 2 6 3 7 7 8 8 9 9 2 10 3 11 1 12
REMARK H PARENT 6 4 6 5 6 6 1 13 1 14
REMARK Flexibility Score: inf
ROOT
ATOM      1  C   UNL     1     135.890 136.501 130.416  1.00  0.00     0.171 C 
ENDROOT
BRANCH   1   2
ATOM      2  C   UNL     1     135.783 135.084 131.014  1.00  0.00     0.237 C 
BRANCH   2   3
ATOM      3  N   UNL     1     136.972 134.773 131.817  1.00  0.00    -0.350 N 
ATOM      4  H   UNL     1     136.746 134.018 132.506  1.00  0.00     0.345 HD
ATOM      5  H   UNL     1     137.759 134.454 131.206  1.00  0.00     0.345 HD
ATOM      6  H   UNL     1     137.272 135.622 132.350  1.00  0.00     0.345 HD
ENDBRANCH   2   3
BRANCH   2   7
ATOM      7  C   UNL     1     134.537 134.941 131.851  1.00  0.00     0.100 C 
ATOM      8  O   UNL     1     134.060 133.802 132.097  1.00  0.00    -0.544 OA
ATOM      9  O   UNL     1     133.919 136.071 132.373  1.00  0.00    -0.544 OA
ENDBRANCH   2   7
ENDBRANCH   1   2
BRANCH   1  10
ATOM     10  C   UNL     1     136.840 136.540 129.253  1.00  0.00     0.223 C 
ATOM     11  O   UNL     1     138.076 136.665 129.459  1.00  0.00    -0.275 OA
ATOM     12  N   UNL     1     136.357 136.397 127.917  1.00  0.00    -0.369 N 
ATOM     13  H   UNL     1     135.338 136.274 127.728  1.00  0.00     0.159 HD
ATOM     14  H   UNL     1     137.022 136.410 127.112  1.00  0.00     0.159 HD
ENDBRANCH   1  10
TORSDOF 4
ENDMDL
MODEL 2
REMARK VINA RESULT:    -3.990      2.675      4.308
REMARK INTER + INTRA:          -5.039
REMARK INTER:                  -4.714
REMARK INTRA:                  -0.325
REMARK UNBOUND:                -0.233
REMARK SMILES NC(=O)C[C@@H]([NH3+])C(=O)[O-]
REMARK SMILES IDX 4 1 5 2 6 3 7 7 8 8 9 9 2 10 3 11 1 12
REMARK H PARENT 6 4 6 5 6 6 1 13 1 14
REMARK Flexibility Score: inf
ROOT
ATOM      1  C   UNL     1     135.139 134.530 131.791  1.00  0.00     0.171 C 
ENDROOT
BRANCH   1   2
ATOM      2  C   UNL     1     134.635 135.916 131.342  1.00  0.00     0.237 C 
BRANCH   2   3
ATOM      3  N   UNL     1     133.610 136.414 132.266  1.00  0.00    -0.350 N 
ATOM      4  H   UNL     1     133.654 137.459 132.314  1.00  0.00     0.345 HD
ATOM      5  H   UNL     1     132.654 136.127 131.949  1.00  0.00     0.345 HD
ATOM      6  H   UNL     1     133.783 136.036 133.226  1.00  0.00     0.345 HD
ENDBRANCH   2   3
BRANCH   2   7
ATOM      7  C   UNL     1     135.772 136.901 131.246  1.00  0.00     0.100 C 
ATOM      8  O   UNL     1     136.122 137.574 132.251  1.00  0.00    -0.544 OA
ATOM      9  O   UNL     1     136.454 137.058 130.045  1.00  0.00    -0.544 OA
ENDBRANCH   2   7
ENDBRANCH   1   2
BRANCH   1  10
ATOM     10  C   UNL     1     134.650 134.182 133.169  1.00  0.00     0.223 C 
ATOM     11  O   UNL     1     135.111 134.794 134.168  1.00  0.00    -0.275 OA
ATOM     12  N   UNL     1     133.637 133.192 133.350  1.00  0.00    -0.369 N 
ATOM     13  H   UNL     1     133.230 132.689 132.532  1.00  0.00     0.159 HD
ATOM     14  H   UNL     1     133.289 132.964 134.308  1.00  0.00     0.159 HD
ENDBRANCH   1  10
TORSDOF 4
ENDMDL
MODEL 3
REMARK VINA RESULT:    -3.969      0.447      1.135
REMARK INTER + INTRA:          -5.013
REMARK INTER:                  -4.757
REMARK INTRA:                  -0.257
REMARK UNBOUND:                -0.233
REMARK SMILES NC(=O)C[C@@H]([NH3+])C(=O)[O-]
REMARK SMILES IDX 4 1 5 2 6 3 7 7 8 8 9 9 2 10 3 11 1 12
REMARK H PARENT 6 4 6 5 6 6 1 13 1 14
REMARK Flexibility Score: inf
ROOT
ATOM      1  C   UNL     1     135.777 136.648 130.684  1.00  0.00     0.171 C 
ENDROOT
BRANCH   1   2
ATOM      2  C   UNL     1     135.477 135.204 131.133  1.00  0.00     0.237 C 
BRANCH   2   3
ATOM      3  N   UNL     1     136.702 134.548 131.605  1.00  0.00    -0.350 N 
ATOM      4  H   UNL     1     137.495 134.773 130.960  1.00  0.00     0.345 HD
ATOM      5  H   UNL     1     136.946 134.868 132.571  1.00  0.00     0.345 HD
ATOM      6  H   UNL     1     136.570 133.510 131.608  1.00  0.00     0.345 HD
ENDBRANCH   2   3
BRANCH   2   7
ATOM      7  C   UNL     1     134.424 135.179 132.212  1.00  0.00     0.100 C 
ATOM      8  O   UNL     1     133.731 136.203 132.452  1.00  0.00    -0.544 OA
ATOM      9  O   UNL     1     134.200 134.015 132.936  1.00  0.00    -0.544 OA
ENDBRANCH   2   7
ENDBRANCH   1   2
BRANCH   1  10
ATOM     10  C   UNL     1     136.769 136.683 129.556  1.00  0.00     0.223 C 
ATOM     11  O   UNL     1     137.991 136.860 129.804  1.00  0.00    -0.275 OA
ATOM     12  N   UNL     1     136.343 136.475 128.210  1.00  0.00    -0.369 N 
ATOM     13  H   UNL     1     135.337 136.308 127.988  1.00  0.00     0.159 HD
ATOM     14  H   UNL     1     137.038 136.485 127.430  1.00  0.00     0.159 HD
ENDBRANCH   1  10
TORSDOF 4
ENDMDL
MODEL 4
REMARK VINA RESULT:    -3.966      2.139      3.944
REMARK INTER + INTRA:          -5.010
REMARK INTER:                  -4.542
REMARK INTRA:                  -0.468
REMARK UNBOUND:                -0.233
REMARK SMILES NC(=O)C[C@@H]([NH3+])C(=O)[O-]
REMARK SMILES IDX 4 1 5 2 6 3 7 7 8 8 9 9 2 10 3 11 1 12
REMARK H PARENT 6 4 6 5 6 6 1 13 1 14
REMARK Flexibility Score: inf
ROOT
ATOM      1  C   UNL     1     135.925 135.337 133.017  1.00  0.00     0.171 C 
ENDROOT
BRANCH   1   2
ATOM      2  C   UNL     1     136.371 134.785 131.648  1.00  0.00     0.237 C 
BRANCH   2   3
ATOM      3  N   UNL     1     135.574 133.609 131.283  1.00  0.00    -0.350 N 
ATOM      4  H   UNL     1     134.868 133.414 132.032  1.00  0.00     0.345 HD
ATOM      5  H   UNL     1     135.075 133.765 130.377  1.00  0.00     0.345 HD
ATOM      6  H   UNL     1     136.195 132.772 131.196  1.00  0.00     0.345 HD
ENDBRANCH   2   3
BRANCH   2   7
ATOM      7  C   UNL     1     136.263 135.840 130.577  1.00  0.00     0.100 C 
ATOM      8  O   UNL     1     136.581 135.577 129.387  1.00  0.00    -0.544 OA
ATOM      9  O   UNL     1     135.792 137.108 130.896  1.00  0.00    -0.544 OA
ENDBRANCH   2   7
ENDBRANCH   1   2
BRANCH   1  10
ATOM     10  C   UNL     1     134.453 135.139 133.240  1.00  0.00     0.223 C 
ATOM     11  O   UNL     1     134.031 134.042 133.691  1.00  0.00    -0.275 OA
ATOM     12  N   UNL     1     133.532 136.199 132.983  1.00  0.00    -0.369 N 
ATOM     13  H   UNL     1     133.865 137.122 132.627  1.00  0.00     0.159 HD
ATOM     14  H   UNL     1     132.510 136.063 133.154  1.00  0.00     0.159 HD
ENDBRANCH   1  10
TORSDOF 4
ENDMDL
MODEL 5
REMARK VINA RESULT:    -3.831      1.595      4.243
REMARK INTER + INTRA:          -4.847
REMARK INTER:                  -4.593
REMARK INTRA:                  -0.254
REMARK UNBOUND:                -0.233
REMARK SMILES NC(=O)C[C@@H]([NH3+])C(=O)[O-]
REMARK SMILES IDX 4 1 5 2 6 3 7 7 8 8 9 9 2 10 3 11 1 12
REMARK H PARENT 6 4 6 5 6 6 1 13 1 14
REMARK Flexibility Score: inf
ROOT
ATOM      1  C   UNL     1     135.952 134.852 130.816  1.00  0.00     0.171 C 
ENDROOT
BRANCH   1   2
ATOM      2  C   UNL     1     136.040 136.252 130.176  1.00  0.00     0.237 C 
BRANCH   2   3
ATOM      3  N   UNL     1     136.368 137.261 131.189  1.00  0.00    -0.350 N 
ATOM      4  H   UNL     1     135.504 137.791 131.454  1.00  0.00     0.345 HD
ATOM      5  H   UNL     1     136.768 136.811 132.045  1.00  0.00     0.345 HD
ATOM      6  H   UNL     1     137.061 137.942 130.802  1.00  0.00     0.345 HD
ENDBRANCH   2   3
BRANCH   2   7
ATOM      7  C   UNL     1     137.060 136.278 129.066  1.00  0.00     0.100 C 
ATOM      8  O   UNL     1     138.124 136.940 129.191  1.00  0.00    -0.544 OA
ATOM      9  O   UNL     1     136.837 135.553 127.902  1.00  0.00    -0.544 OA
ENDBRANCH   2   7
ENDBRANCH   1   2
BRANCH   1  10
ATOM     10  C   UNL     1     134.884 134.792 131.871  1.00  0.00     0.223 C 
ATOM     11  O   UNL     1     134.020 135.705 131.938  1.00  0.00    -0.275 OA
ATOM     12  N   UNL     1     134.816 133.686 132.771  1.00  0.00    -0.369 N 
ATOM     13  H   UNL     1     135.513 132.911 132.718  1.00  0.00     0.159 HD
ATOM     14  H   UNL     1     134.063 133.640 133.493  1.00  0.00     0.159 HD
ENDBRANCH   1  10
TORSDOF 4
ENDMDL
MODEL 6
REMARK VINA RESULT:    -3.828      2.826      4.280
REMARK INTER + INTRA:          -4.843
REMARK INTER:                  -4.421
REMARK INTRA:                  -0.423
REMARK UNBOUND:                -0.233
REMARK SMILES NC(=O)C[C@@H]([NH3+])C(=O)[O-]
REMARK SMILES IDX 4 1 5 2 6 3 7 7 8 8 9 9 2 10 3 11 1 12
REMARK H PARENT 6 4 6 5 6 6 1 13 1 14
REMARK Flexibility Score: inf
ROOT
ATOM      1  C   UNL     1     134.026 135.846 132.427  1.00  0.00     0.171 C 
ENDROOT
BRANCH   1   2
ATOM      2  C   UNL     1     135.431 136.384 132.087  1.00  0.00     0.237 C 
BRANCH   2   3
ATOM      3  N   UNL     1     135.966 137.167 133.207  1.00  0.00    -0.350 N 
ATOM      4  H   UNL     1     137.012 137.176 133.164  1.00  0.00     0.345 HD
ATOM      5  H   UNL     1     135.614 138.151 133.173  1.00  0.00     0.345 HD
ATOM      6  H   UNL     1     135.681 136.729 134.114  1.00  0.00     0.345 HD
ENDBRANCH   2   3
BRANCH   2   7
ATOM      7  C   UNL     1     136.373 135.260 131.740  1.00  0.00     0.100 C 
ATOM      8  O   UNL     1     137.550 135.250 132.189  1.00  0.00    -0.544 OA
ATOM      9  O   UNL     1     135.939 134.215 130.933  1.00  0.00    -0.544 OA
ENDBRANCH   2   7
ENDBRANCH   1   2
BRANCH   1  10
ATOM     10  C   UNL     1     134.068 134.876 133.573  1.00  0.00     0.223 C 
ATOM     11  O   UNL     1     134.196 135.304 134.750  1.00  0.00    -0.275 OA
ATOM     12  N   UNL     1     133.922 133.474 133.342  1.00  0.00    -0.369 N 
ATOM     13  H   UNL     1     133.796 133.103 132.376  1.00  0.00     0.159 HD
ATOM     14  H   UNL     1     133.937 132.804 134.144  1.00  0.00     0.159 HD
ENDBRANCH   1  10
TORSDOF 4
ENDMDL
MODEL 7
REMARK VINA RESULT:    -3.819      1.551      1.776
REMARK INTER + INTRA:          -4.833
REMARK INTER:                  -4.567
REMARK INTRA:                  -0.265
REMARK UNBOUND:                -0.233
REMARK SMILES NC(=O)C[C@@H]([NH3+])C(=O)[O-]
REMARK SMILES IDX 4 1 5 2 6 3 7 7 8 8 9 9 2 10 3 11 1 12
REMARK H PARENT 6 4 6 5 6 6 1 13 1 14
REMARK Flexibility Score: inf
ROOT
ATOM      1  C   UNL     1     135.167 136.154 130.873  1.00  0.00     0.171 C 
ENDROOT
BRANCH   1   2
ATOM      2  C   UNL     1     135.488 135.776 132.332  1.00  0.00     0.237 C 
BRANCH   2   3
ATOM      3  N   UNL     1     135.377 136.951 133.204  1.00  0.00    -0.350 N 
ATOM      4  H   UNL     1     135.049 137.775 132.647  1.00  0.00     0.345 HD
ATOM      5  H   UNL     1     134.699 136.774 133.981  1.00  0.00     0.345 HD
ATOM      6  H   UNL     1     136.313 137.183 133.609  1.00  0.00     0.345 HD
ENDBRANCH   2   3
BRANCH   2   7
ATOM      7  C   UNL     1     134.580 134.677 132.821  1.00  0.00     0.100 C 
ATOM      8  O   UNL     1     134.199 134.648 134.021  1.00  0.00    -0.544 OA
ATOM      9  O   UNL     1     134.141 133.696 131.940  1.00  0.00    -0.544 OA
ENDBRANCH   2   7
ENDBRANCH   1   2
BRANCH   1  10
ATOM     10  C   UNL     1     136.362 136.740 130.176  1.00  0.00     0.223 C 
ATOM     11  O   UNL     1     137.348 137.136 130.852  1.00  0.00    -0.275 OA
ATOM     12  N   UNL     1     136.407 136.813 128.751  1.00  0.00    -0.369 N 
ATOM     13  H   UNL     1     135.607 136.473 128.174  1.00  0.00     0.159 HD
ATOM     14  H   UNL     1     137.246 137.208 128.270  1.00  0.00     0.159 HD
ENDBRANCH   1  10
TORSDOF 4
ENDMDL
MODEL 8
REMARK VINA RESULT:    -3.782      2.176      3.881
REMARK INTER + INTRA:          -4.788
REMARK INTER:                  -4.518
REMARK INTRA:                  -0.270
REMARK UNBOUND:                -0.233
REMARK SMILES NC(=O)C[C@@H]([NH3+])C(=O)[O-]
REMARK SMILES IDX 4 1 5 2 6 3 7 7 8 8 9 9 2 10 3 11 1 12
REMARK H PARENT 6 4 6 5 6 6 1 13 1 14
REMARK Flexibility Score: inf
ROOT
ATOM      1  C   UNL     1     135.477 134.048 131.135  1.00  0.00     0.171 C 
ENDROOT
BRANCH   1   2
ATOM      2  C   UNL     1     136.340 135.265 130.745  1.00  0.00     0.237 C 
BRANCH   2   3
ATOM      3  N   UNL     1     135.514 136.296 130.105  1.00  0.00    -0.350 N 
ATOM      4  H   UNL     1     136.125 136.953 129.565  1.00  0.00     0.345 HD
ATOM      5  H   UNL     1     134.819 135.863 129.454  1.00  0.00     0.345 HD
ATOM      6  H   UNL     1     135.007 136.848 130.835  1.00  0.00     0.345 HD
ENDBRANCH   2   3
BRANCH   2   7
ATOM      7  C   UNL     1     137.048 135.836 131.947  1.00  0.00     0.100 C 
ATOM      8  O   UNL     1     137.942 135.173 132.537  1.00  0.00    -0.544 OA
ATOM      9  O   UNL     1     136.728 137.110 132.400  1.00  0.00    -0.544 OA
ENDBRANCH   2   7
ENDBRANCH   1   2
BRANCH   1  10
ATOM     10  C   UNL     1     134.509 134.384 132.233  1.00  0.00     0.223 C 
ATOM     11  O   UNL     1     133.810 135.429 132.151  1.00  0.00    -0.275 OA
ATOM     12  N   UNL     1     134.346 133.509 133.349  1.00  0.00    -0.369 N 
ATOM     13  H   UNL     1     134.903 132.630 133.424  1.00  0.00     0.159 HD
ATOM     14  H   UNL     1     133.660 133.739 134.103  1.00  0.00     0.159 HD
ENDBRANCH   1  10
TORSDOF 4
ENDMDL
MODEL 9
REMARK VINA RESULT:    -3.705      3.316      4.121
REMARK INTER + INTRA:          -4.696
REMARK INTER:                  -4.467
REMARK INTRA:                  -0.228
REMARK UNBOUND:                -0.233
REMARK SMILES NC(=O)C[C@@H]([NH3+])C(=O)[O-]
REMARK SMILES IDX 4 1 5 2 6 3 7 7 8 8 9 9 2 10 3 11 1 12
REMARK H PARENT 6 4 6 5 6 6 1 13 1 14
REMARK Flexibility Score: inf
ROOT
ATOM      1  C   UNL     1     134.382 135.578 132.500  1.00  0.00     0.171 C 
ENDROOT
BRANCH   1   2
ATOM      2  C   UNL     1     135.424 136.088 133.515  1.00  0.00     0.237 C 
BRANCH   2   3
ATOM      3  N   UNL     1     135.965 137.385 133.089  1.00  0.00    -0.350 N 
ATOM      4  H   UNL     1     135.193 138.090 133.037  1.00  0.00     0.345 HD
ATOM      5  H   UNL     1     136.691 137.723 133.761  1.00  0.00     0.345 HD
ATOM      6  H   UNL     1     136.390 137.297 132.137  1.00  0.00     0.345 HD
ENDBRANCH   2   3
BRANCH   2   7
ATOM      7  C   UNL     1     134.828 136.201 134.895  1.00  0.00     0.100 C 
ATOM      8  O   UNL     1     133.667 135.772 135.126  1.00  0.00    -0.544 OA
ATOM      9  O   UNL     1     135.569 136.764 135.927  1.00  0.00    -0.544 OA
ENDBRANCH   2   7
ENDBRANCH   1   2
BRANCH   1  10
ATOM     10  C   UNL     1     134.444 134.085 132.347  1.00  0.00     0.223 C 
ATOM     11  O   UNL     1     135.171 133.577 131.452  1.00  0.00    -0.275 OA
ATOM     12  N   UNL     1     133.716 133.235 133.233  1.00  0.00    -0.369 N 
ATOM     13  H   UNL     1     133.123 133.637 133.992  1.00  0.00     0.159 HD
ATOM     14  H   UNL     1     133.773 132.197 133.133  1.00  0.00     0.159 HD
ENDBRANCH   1  10
TORSDOF 4
ENDMDL
