MODEL 1
REMARK VINA RESULT:    -6.512      0.000      0.000
REMARK INTER + INTRA:          -8.714
REMARK INTER:                  -8.225
REMARK INTRA:                  -0.489
REMARK UNBOUND:                -0.489
REMARK SMILES Oc1cc(O)cc(CCc2ccccc2O)c1
REMARK SMILES IDX 9 1 10 2 12 3 13 4 11 5 14 6 15 7 16 8 8 10 7 11 6 12 17 13
REMARK SMILES IDX 4 14 2 15 3 16 5 17 1 19
REMARK H PARENT 16 9 5 18 1 20
REMARK Flexibility Score: inf
ROOT
ATOM      1  C   UNL     1     -33.547  95.519   8.491  1.00  0.00     0.044 C 
ENDROOT
BRANCH   1   2
ATOM      2  C   UNL     1     -34.028  94.278   7.778  1.00  0.00    -0.006 A 
ATOM      3  C   UNL     1     -33.985  92.884   5.783  1.00  0.00     0.001 A 
ATOM      4  C   UNL     1     -34.900  92.008   6.366  1.00  0.00     0.004 A 
ATOM      5  C   UNL     1     -33.554  94.015   6.481  1.00  0.00     0.007 A 
ATOM      6  C   UNL     1     -35.392  92.263   7.647  1.00  0.00     0.046 A 
ATOM      7  C   UNL     1     -34.974  93.394   8.359  1.00  0.00     0.118 A 
BRANCH   7   8
ATOM      8  O   UNL     1     -35.520  93.608   9.627  1.00  0.00    -0.508 OA
ATOM      9  H   UNL     1     -35.675  92.871  10.301  1.00  0.00     0.293 HD
ENDBRANCH   7   8
ENDBRANCH   1   2
BRANCH   1  10
ATOM     10  C   UNL     1     -34.195  96.774   7.897  1.00  0.00     0.040 C 
BRANCH  10  11
ATOM     11  C   UNL     1     -33.210  97.911   7.860  1.00  0.00    -0.040 A 
ATOM     12  C   UNL     1     -33.118  98.803   8.938  1.00  0.00     0.050 A 
ATOM     13  C   UNL     1     -32.334  98.053   6.771  1.00  0.00     0.050 A 
ATOM     14  C   UNL     1     -32.178  99.843   8.919  1.00  0.00     0.119 A 
ATOM     15  C   UNL     1     -31.394  99.089   6.749  1.00  0.00     0.119 A 
ATOM     16  C   UNL     1     -31.320  99.985   7.824  1.00  0.00     0.092 A 
BRANCH  14  17
ATOM     17  O   UNL     1     -32.087 100.738   9.984  1.00  0.00    -0.508 OA
ATOM     18  H   UNL     1     -32.092 100.418  10.946  1.00  0.00     0.293 HD
ENDBRANCH  14  17
BRANCH  15  19
ATOM     19  O   UNL     1     -30.538  99.217   5.658  1.00  0.00    -0.508 OA
ATOM     20  H   UNL     1     -30.223  98.408   5.134  1.00  0.00     0.293 HD
ENDBRANCH  15  19
ENDBRANCH  10  11
ENDBRANCH   1  10
TORSDOF 6
ENDMDL
MODEL 2
REMARK VINA RESULT:    -6.467      0.066      2.036
REMARK INTER + INTRA:          -8.657
REMARK INTER:                  -8.172
REMARK INTRA:                  -0.485
REMARK UNBOUND:                -0.489
REMARK SMILES Oc1cc(O)cc(CCc2ccccc2O)c1
REMARK SMILES IDX 9 1 10 2 12 3 13 4 11 5 14 6 15 7 16 8 8 10 7 11 6 12 17 13
REMARK SMILES IDX 4 14 2 15 3 16 5 17 1 19
REMARK H PARENT 16 9 5 18 1 20
REMARK Flexibility Score: inf
ROOT
ATOM      1  C   UNL     1     -33.509  95.498   8.502  1.00  0.00     0.044 C 
ENDROOT
BRANCH   1   2
ATOM      2  C   UNL     1     -34.001  94.265   7.782  1.00  0.00    -0.006 A 
ATOM      3  C   UNL     1     -33.954  92.872   5.786  1.00  0.00     0.001 A 
ATOM      4  C   UNL     1     -34.889  92.009   6.357  1.00  0.00     0.004 A 
ATOM      5  C   UNL     1     -33.514  93.995   6.490  1.00  0.00     0.007 A 
ATOM      6  C   UNL     1     -35.393  92.271   7.632  1.00  0.00     0.046 A 
ATOM      7  C   UNL     1     -34.966  93.395   8.350  1.00  0.00     0.118 A 
BRANCH   7   8
ATOM      8  O   UNL     1     -35.525  93.616   9.611  1.00  0.00    -0.508 OA
ATOM      9  H   UNL     1     -35.099  94.203  10.316  1.00  0.00     0.293 HD
ENDBRANCH   7   8
ENDBRANCH   1   2
BRANCH   1  10
ATOM     10  C   UNL     1     -34.118  96.764   7.889  1.00  0.00     0.040 C 
BRANCH  10  11
ATOM     11  C   UNL     1     -33.104  97.876   7.856  1.00  0.00    -0.040 A 
ATOM     12  C   UNL     1     -32.255  98.025   6.749  1.00  0.00     0.050 A 
ATOM     13  C   UNL     1     -33.039  98.807   8.906  1.00  0.00     0.050 A 
ATOM     14  C   UNL     1     -31.333  99.080   6.701  1.00  0.00     0.119 A 
ATOM     15  C   UNL     1     -32.121  99.861   8.861  1.00  0.00     0.119 A 
ATOM     16  C   UNL     1     -31.267  99.994   7.758  1.00  0.00     0.092 A 
BRANCH  14  17
ATOM     17  O   UNL     1     -30.482  99.231   5.609  1.00  0.00    -0.508 OA
ATOM     18  H   UNL     1     -30.744  98.908   4.684  1.00  0.00     0.293 HD
ENDBRANCH  14  17
BRANCH  15  19
ATOM     19  O   UNL     1     -32.068 100.771   9.914  1.00  0.00    -0.508 OA
ATOM     20  H   UNL     1     -32.432 100.540  10.832  1.00  0.00     0.293 HD
ENDBRANCH  15  19
ENDBRANCH  10  11
ENDBRANCH   1  10
TORSDOF 6
ENDMDL
MODEL 3
REMARK VINA RESULT:    -6.412      1.745      6.814
REMARK INTER + INTRA:          -8.588
REMARK INTER:                  -8.117
REMARK INTRA:                  -0.470
REMARK UNBOUND:                -0.489
REMARK SMILES Oc1cc(O)cc(CCc2ccccc2O)c1
REMARK SMILES IDX 9 1 10 2 12 3 13 4 11 5 14 6 15 7 16 8 8 10 7 11 6 12 17 13
REMARK SMILES IDX 4 14 2 15 3 16 5 17 1 19
REMARK H PARENT 16 9 5 18 1 20
REMARK Flexibility Score: inf
ROOT
ATOM      1  C   UNL     1     -33.037  98.237   7.037  1.00  0.00     0.044 C 
ENDROOT
BRANCH   1   2
ATOM      2  C   UNL     1     -32.115  99.167   7.789  1.00  0.00    -0.006 A 
ATOM      3  C   UNL     1     -31.679 100.484   9.789  1.00  0.00     0.001 A 
ATOM      4  C   UNL     1     -30.475 100.929   9.243  1.00  0.00     0.004 A 
ATOM      5  C   UNL     1     -32.497  99.613   9.067  1.00  0.00     0.007 A 
ATOM      6  C   UNL     1     -30.090 100.509   7.969  1.00  0.00     0.046 A 
ATOM      7  C   UNL     1     -30.900  99.639   7.229  1.00  0.00     0.118 A 
BRANCH   7   8
ATOM      8  O   UNL     1     -30.472  99.272   5.951  1.00  0.00    -0.508 OA
ATOM      9  H   UNL     1     -29.976  99.895   5.328  1.00  0.00     0.293 HD
ENDBRANCH   7   8
ENDBRANCH   1   2
BRANCH   1  10
ATOM     10  C   UNL     1     -33.856  97.380   8.008  1.00  0.00     0.040 C 
BRANCH  10  11
ATOM     11  C   UNL     1     -33.782  95.926   7.623  1.00  0.00    -0.040 A 
ATOM     12  C   UNL     1     -32.538  95.317   7.396  1.00  0.00     0.050 A 
ATOM     13  C   UNL     1     -34.952  95.154   7.546  1.00  0.00     0.050 A 
ATOM     14  C   UNL     1     -32.466  93.956   7.070  1.00  0.00     0.119 A 
ATOM     15  C   UNL     1     -34.883  93.795   7.222  1.00  0.00     0.119 A 
ATOM     16  C   UNL     1     -33.638  93.199   6.982  1.00  0.00     0.092 A 
BRANCH  14  17
ATOM     17  O   UNL     1     -31.235  93.346   6.836  1.00  0.00    -0.508 OA
ATOM     18  H   UNL     1     -30.407  93.604   7.362  1.00  0.00     0.293 HD
ENDBRANCH  14  17
BRANCH  15  19
ATOM     19  O   UNL     1     -36.055  93.047   7.144  1.00  0.00    -0.508 OA
ATOM     20  H   UNL     1     -36.942  93.476   6.902  1.00  0.00     0.293 HD
ENDBRANCH  15  19
ENDBRANCH  10  11
ENDBRANCH   1  10
TORSDOF 6
ENDMDL
MODEL 4
REMARK VINA RESULT:    -6.370      1.741      6.680
REMARK INTER + INTRA:          -8.534
REMARK INTER:                  -8.062
REMARK INTRA:                  -0.473
REMARK UNBOUND:                -0.489
REMARK SMILES Oc1cc(O)cc(CCc2ccccc2O)c1
REMARK SMILES IDX 9 1 10 2 12 3 13 4 11 5 14 6 15 7 16 8 8 10 7 11 6 12 17 13
REMARK SMILES IDX 4 14 2 15 3 16 5 17 1 19
REMARK H PARENT 16 9 5 18 1 20
REMARK Flexibility Score: inf
ROOT
ATOM      1  C   UNL     1     -33.101  98.246   7.005  1.00  0.00     0.044 C 
ENDROOT
BRANCH   1   2
ATOM      2  C   UNL     1     -32.109  99.154   7.692  1.00  0.00    -0.006 A 
ATOM      3  C   UNL     1     -31.552 100.539   9.615  1.00  0.00     0.001 A 
ATOM      4  C   UNL     1     -30.335 100.880   9.026  1.00  0.00     0.004 A 
ATOM      5  C   UNL     1     -32.437  99.685   8.952  1.00  0.00     0.007 A 
ATOM      6  C   UNL     1     -30.002 100.374   7.769  1.00  0.00     0.046 A 
ATOM      7  C   UNL     1     -30.879  99.520   7.089  1.00  0.00     0.118 A 
BRANCH   7   8
ATOM      8  O   UNL     1     -30.500  99.065   5.823  1.00  0.00    -0.508 OA
ATOM      9  H   UNL     1     -30.773  98.168   5.447  1.00  0.00     0.293 HD
ENDBRANCH   7   8
ENDBRANCH   1   2
BRANCH   1  10
ATOM     10  C   UNL     1     -33.870  97.406   8.029  1.00  0.00     0.040 C 
BRANCH  10  11
ATOM     11  C   UNL     1     -33.817  95.947   7.664  1.00  0.00    -0.040 A 
ATOM     12  C   UNL     1     -35.000  95.202   7.551  1.00  0.00     0.050 A 
ATOM     13  C   UNL     1     -32.586  95.334   7.375  1.00  0.00     0.050 A 
ATOM     14  C   UNL     1     -34.954  93.852   7.178  1.00  0.00     0.119 A 
ATOM     15  C   UNL     1     -32.537  93.987   7.002  1.00  0.00     0.119 A 
ATOM     16  C   UNL     1     -33.723  93.247   6.907  1.00  0.00     0.092 A 
BRANCH  14  17
ATOM     17  O   UNL     1     -36.125  93.103   7.071  1.00  0.00    -0.508 OA
ATOM     18  H   UNL     1     -36.419  92.704   6.187  1.00  0.00     0.293 HD
ENDBRANCH  14  17
BRANCH  15  19
ATOM     19  O   UNL     1     -31.307  93.395   6.726  1.00  0.00    -0.508 OA
ATOM     20  H   UNL     1     -31.223  92.630   6.066  1.00  0.00     0.293 HD
ENDBRANCH  15  19
ENDBRANCH  10  11
ENDBRANCH   1  10
TORSDOF 6
ENDMDL
MODEL 5
REMARK VINA RESULT:    -6.230      1.493      1.683
REMARK INTER + INTRA:          -8.359
REMARK INTER:                  -7.856
REMARK INTRA:                  -0.503
REMARK UNBOUND:                -0.489
REMARK SMILES Oc1cc(O)cc(CCc2ccccc2O)c1
REMARK SMILES IDX 9 1 10 2 12 3 13 4 11 5 14 6 15 7 16 8 8 10 7 11 6 12 17 13
REMARK SMILES IDX 4 14 2 15 3 16 5 17 1 19
REMARK H PARENT 16 9 5 18 1 20
REMARK Flexibility Score: inf
ROOT
ATOM      1  C   UNL     1     -34.278  95.323   7.768  1.00  0.00     0.044 C 
ENDROOT
BRANCH   1   2
ATOM      2  C   UNL     1     -33.824  94.002   7.195  1.00  0.00    -0.006 A 
ATOM      3  C   UNL     1     -31.986  92.576   6.475  1.00  0.00     0.001 A 
ATOM      4  C   UNL     1     -32.893  91.584   6.102  1.00  0.00     0.004 A 
ATOM      5  C   UNL     1     -32.447  93.780   7.014  1.00  0.00     0.007 A 
ATOM      6  C   UNL     1     -34.263  91.795   6.261  1.00  0.00     0.046 A 
ATOM      7  C   UNL     1     -34.742  92.997   6.796  1.00  0.00     0.118 A 
BRANCH   7   8
ATOM      8  O   UNL     1     -36.125  93.159   6.909  1.00  0.00    -0.508 OA
ATOM      9  H   UNL     1     -36.665  92.823   7.694  1.00  0.00     0.293 HD
ENDBRANCH   7   8
ENDBRANCH   1   2
BRANCH   1  10
ATOM     10  C   UNL     1     -33.162  95.972   8.592  1.00  0.00     0.040 C 
BRANCH  10  11
ATOM     11  C   UNL     1     -33.107  97.454   8.335  1.00  0.00    -0.040 A 
ATOM     12  C   UNL     1     -32.643  98.328   9.330  1.00  0.00     0.050 A 
ATOM     13  C   UNL     1     -33.464  97.968   7.077  1.00  0.00     0.050 A 
ATOM     14  C   UNL     1     -32.559  99.705   9.080  1.00  0.00     0.119 A 
ATOM     15  C   UNL     1     -33.381  99.342   6.825  1.00  0.00     0.119 A 
ATOM     16  C   UNL     1     -32.930 100.208   7.829  1.00  0.00     0.092 A 
BRANCH  14  17
ATOM     17  O   UNL     1     -32.106 100.580  10.065  1.00  0.00    -0.508 OA
ATOM     18  H   UNL     1     -32.616 101.424  10.299  1.00  0.00     0.293 HD
ENDBRANCH  14  17
BRANCH  15  19
ATOM     19  O   UNL     1     -33.745  99.833   5.573  1.00  0.00    -0.508 OA
ATOM     20  H   UNL     1     -34.334 100.652   5.477  1.00  0.00     0.293 HD
ENDBRANCH  15  19
ENDBRANCH  10  11
ENDBRANCH   1  10
TORSDOF 6
ENDMDL
MODEL 6
REMARK VINA RESULT:    -6.139      4.488      7.401
REMARK INTER + INTRA:          -8.244
REMARK INTER:                  -7.867
REMARK INTRA:                  -0.377
REMARK UNBOUND:                -0.489
REMARK SMILES Oc1cc(O)cc(CCc2ccccc2O)c1
REMARK SMILES IDX 9 1 10 2 12 3 13 4 11 5 14 6 15 7 16 8 8 10 7 11 6 12 17 13
REMARK SMILES IDX 4 14 2 15 3 16 5 17 1 19
REMARK H PARENT 16 9 5 18 1 20
REMARK Flexibility Score: inf
ROOT
ATOM      1  C   UNL     1     -30.723  91.365   6.298  1.00  0.00     0.044 C 
ENDROOT
BRANCH   1   2
ATOM      2  C   UNL     1     -29.695  90.967   7.331  1.00  0.00    -0.006 A 
ATOM      3  C   UNL     1     -29.010  89.434   9.093  1.00  0.00     0.001 A 
ATOM      4  C   UNL     1     -27.848  90.177   9.299  1.00  0.00     0.004 A 
ATOM      5  C   UNL     1     -29.931  89.827   8.119  1.00  0.00     0.007 A 
ATOM      6  C   UNL     1     -27.607  91.321   8.536  1.00  0.00     0.046 A 
ATOM      7  C   UNL     1     -28.522  91.731   7.559  1.00  0.00     0.118 A 
BRANCH   7   8
ATOM      8  O   UNL     1     -28.236  92.897   6.844  1.00  0.00    -0.508 OA
ATOM      9  H   UNL     1     -27.611  92.927   6.049  1.00  0.00     0.293 HD
ENDBRANCH   7   8
ENDBRANCH   1   2
BRANCH   1  10
ATOM     10  C   UNL     1     -31.377  92.700   6.668  1.00  0.00     0.040 C 
BRANCH  10  11
ATOM     11  C   UNL     1     -32.831  92.503   7.004  1.00  0.00    -0.040 A 
ATOM     12  C   UNL     1     -33.569  91.487   6.378  1.00  0.00     0.050 A 
ATOM     13  C   UNL     1     -33.444  93.295   7.989  1.00  0.00     0.050 A 
ATOM     14  C   UNL     1     -34.914  91.280   6.715  1.00  0.00     0.119 A 
ATOM     15  C   UNL     1     -34.786  93.090   8.327  1.00  0.00     0.119 A 
ATOM     16  C   UNL     1     -35.520  92.083   7.686  1.00  0.00     0.092 A 
BRANCH  14  17
ATOM     17  O   UNL     1     -35.656  90.278   6.093  1.00  0.00    -0.508 OA
ATOM     18  H   UNL     1     -36.653  90.377   5.937  1.00  0.00     0.293 HD
ENDBRANCH  14  17
BRANCH  15  19
ATOM     19  O   UNL     1     -35.378  93.890   9.302  1.00  0.00    -0.508 OA
ATOM     20  H   UNL     1     -36.130  94.531   9.075  1.00  0.00     0.293 HD
ENDBRANCH  15  19
ENDBRANCH  10  11
ENDBRANCH   1  10
TORSDOF 6
ENDMDL
MODEL 7
REMARK VINA RESULT:    -6.122      4.885      7.232
REMARK INTER + INTRA:          -8.222
REMARK INTER:                  -7.710
REMARK INTRA:                  -0.512
REMARK UNBOUND:                -0.489
REMARK SMILES Oc1cc(O)cc(CCc2ccccc2O)c1
REMARK SMILES IDX 9 1 10 2 12 3 13 4 11 5 14 6 15 7 16 8 8 10 7 11 6 12 17 13
REMARK SMILES IDX 4 14 2 15 3 16 5 17 1 19
REMARK H PARENT 16 9 5 18 1 20
REMARK Flexibility Score: inf
ROOT
ATOM      1  C   UNL     1     -30.550  93.009   9.226  1.00  0.00     0.044 C 
ENDROOT
BRANCH   1   2
ATOM      2  C   UNL     1     -29.375  92.060   9.211  1.00  0.00    -0.006 A 
ATOM      3  C   UNL     1     -28.252  90.134  10.191  1.00  0.00     0.001 A 
ATOM      4  C   UNL     1     -27.207  90.270   9.277  1.00  0.00     0.004 A 
ATOM      5  C   UNL     1     -29.328  91.025  10.163  1.00  0.00     0.007 A 
ATOM      6  C   UNL     1     -27.231  91.302   8.338  1.00  0.00     0.046 A 
ATOM      7  C   UNL     1     -28.299  92.206   8.298  1.00  0.00     0.118 A 
BRANCH   7   8
ATOM      8  O   UNL     1     -28.255  93.231   7.350  1.00  0.00    -0.508 OA
ATOM      9  H   UNL     1     -27.509  93.338   6.677  1.00  0.00     0.293 HD
ENDBRANCH   7   8
ENDBRANCH   1   2
BRANCH   1  10
ATOM     10  C   UNL     1     -31.871  92.238   9.313  1.00  0.00     0.040 C 
BRANCH  10  11
ATOM     11  C   UNL     1     -32.666  92.407   8.046  1.00  0.00    -0.040 A 
ATOM     12  C   UNL     1     -32.068  92.169   6.799  1.00  0.00     0.050 A 
ATOM     13  C   UNL     1     -34.028  92.747   8.105  1.00  0.00     0.050 A 
ATOM     14  C   UNL     1     -32.817  92.294   5.620  1.00  0.00     0.119 A 
ATOM     15  C   UNL     1     -34.777  92.871   6.930  1.00  0.00     0.119 A 
ATOM     16  C   UNL     1     -34.168  92.646   5.688  1.00  0.00     0.092 A 
BRANCH  14  17
ATOM     17  O   UNL     1     -32.229  92.066   4.378  1.00  0.00    -0.508 OA
ATOM     18  H   UNL     1     -32.088  91.127   4.023  1.00  0.00     0.293 HD
ENDBRANCH  14  17
BRANCH  15  19
ATOM     19  O   UNL     1     -36.125  93.215   7.009  1.00  0.00    -0.508 OA
ATOM     20  H   UNL     1     -36.539  93.884   6.369  1.00  0.00     0.293 HD
ENDBRANCH  15  19
ENDBRANCH  10  11
ENDBRANCH   1  10
TORSDOF 6
ENDMDL
MODEL 8
REMARK VINA RESULT:    -6.112     17.004     18.970
REMARK INTER + INTRA:          -8.209
REMARK INTER:                  -7.768
REMARK INTRA:                  -0.441
REMARK UNBOUND:                -0.489
REMARK SMILES Oc1cc(O)cc(CCc2ccccc2O)c1
REMARK SMILES IDX 9 1 10 2 12 3 13 4 11 5 14 6 15 7 16 8 8 10 7 11 6 12 17 13
REMARK SMILES IDX 4 14 2 15 3 16 5 17 1 19
REMARK H PARENT 16 9 5 18 1 20
REMARK Flexibility Score: inf
ROOT
ATOM      1  C   UNL     1     -19.174  97.044  -6.479  1.00  0.00     0.044 C 
ENDROOT
BRANCH   1   2
ATOM      2  C   UNL     1     -18.926  96.178  -5.267  1.00  0.00    -0.006 A 
ATOM      3  C   UNL     1     -19.764  94.507  -3.707  1.00  0.00     0.001 A 
ATOM      4  C   UNL     1     -18.562  94.555  -3.000  1.00  0.00     0.004 A 
ATOM      5  C   UNL     1     -19.948  95.315  -4.831  1.00  0.00     0.007 A 
ATOM      6  C   UNL     1     -17.545  95.417  -3.410  1.00  0.00     0.046 A 
ATOM      7  C   UNL     1     -17.715  96.238  -4.532  1.00  0.00     0.118 A 
BRANCH   7   8
ATOM      8  O   UNL     1     -16.669  97.096  -4.879  1.00  0.00    -0.508 OA
ATOM      9  H   UNL     1     -16.746  98.105  -4.868  1.00  0.00     0.293 HD
ENDBRANCH   7   8
ENDBRANCH   1   2
BRANCH   1  10
ATOM     10  C   UNL     1     -19.281  98.520  -6.080  1.00  0.00     0.040 C 
BRANCH  10  11
ATOM     11  C   UNL     1     -20.701  99.001  -6.208  1.00  0.00    -0.040 A 
ATOM     12  C   UNL     1     -21.592  98.871  -5.132  1.00  0.00     0.050 A 
ATOM     13  C   UNL     1     -21.130  99.637  -7.385  1.00  0.00     0.050 A 
ATOM     14  C   UNL     1     -22.905  99.349  -5.238  1.00  0.00     0.119 A 
ATOM     15  C   UNL     1     -22.440 100.115  -7.494  1.00  0.00     0.119 A 
ATOM     16  C   UNL     1     -23.327  99.968  -6.419  1.00  0.00     0.092 A 
BRANCH  14  17
ATOM     17  O   UNL     1     -23.798  99.218  -4.176  1.00  0.00    -0.508 OA
ATOM     18  H   UNL     1     -23.828  98.376  -3.611  1.00  0.00     0.293 HD
ENDBRANCH  14  17
BRANCH  15  19
ATOM     19  O   UNL     1     -22.848 100.737  -8.671  1.00  0.00    -0.508 OA
ATOM     20  H   UNL     1     -22.220 101.332  -9.201  1.00  0.00     0.293 HD
ENDBRANCH  15  19
ENDBRANCH  10  11
ENDBRANCH   1  10
TORSDOF 6
ENDMDL
MODEL 9
REMARK VINA RESULT:    -6.094      1.818      2.787
REMARK INTER + INTRA:          -8.186
REMARK INTER:                  -7.636
REMARK INTRA:                  -0.551
REMARK UNBOUND:                -0.489
REMARK SMILES Oc1cc(O)cc(CCc2ccccc2O)c1
REMARK SMILES IDX 9 1 10 2 12 3 13 4 11 5 14 6 15 7 16 8 8 10 7 11 6 12 17 13
REMARK SMILES IDX 4 14 2 15 3 16 5 17 1 19
REMARK H PARENT 16 9 5 18 1 20
REMARK Flexibility Score: inf
ROOT
ATOM      1  C   UNL     1     -32.125  95.161   7.741  1.00  0.00     0.044 C 
ENDROOT
BRANCH   1   2
ATOM      2  C   UNL     1     -33.072  94.096   7.240  1.00  0.00    -0.006 A 
ATOM      3  C   UNL     1     -35.352  93.255   7.087  1.00  0.00     0.001 A 
ATOM      4  C   UNL     1     -34.901  92.142   6.377  1.00  0.00     0.004 A 
ATOM      5  C   UNL     1     -34.445  94.225   7.521  1.00  0.00     0.007 A 
ATOM      6  C   UNL     1     -33.540  91.993   6.105  1.00  0.00     0.046 A 
ATOM      7  C   UNL     1     -32.617  92.953   6.536  1.00  0.00     0.118 A 
BRANCH   7   8
ATOM      8  O   UNL     1     -31.266  92.735   6.254  1.00  0.00    -0.508 OA
ATOM      9  H   UNL     1     -30.771  93.193   5.501  1.00  0.00     0.293 HD
ENDBRANCH   7   8
ENDBRANCH   1   2
BRANCH   1  10
ATOM     10  C   UNL     1     -32.794  96.023   8.816  1.00  0.00     0.040 C 
BRANCH  10  11
ATOM     11  C   UNL     1     -32.780  97.474   8.416  1.00  0.00    -0.040 A 
ATOM     12  C   UNL     1     -33.165  97.854   7.121  1.00  0.00     0.050 A 
ATOM     13  C   UNL     1     -32.438  98.464   9.352  1.00  0.00     0.050 A 
ATOM     14  C   UNL     1     -33.185  99.207   6.757  1.00  0.00     0.119 A 
ATOM     15  C   UNL     1     -32.457  99.815   8.992  1.00  0.00     0.119 A 
ATOM     16  C   UNL     1     -32.829 100.184   7.692  1.00  0.00     0.092 A 
BRANCH  14  17
ATOM     17  O   UNL     1     -33.560  99.592   5.471  1.00  0.00    -0.508 OA
ATOM     18  H   UNL     1     -32.898  99.584   4.702  1.00  0.00     0.293 HD
ENDBRANCH  14  17
BRANCH  15  19
ATOM     19  O   UNL     1     -32.109 100.781   9.932  1.00  0.00    -0.508 OA
ATOM     20  H   UNL     1     -32.388 101.750   9.824  1.00  0.00     0.293 HD
ENDBRANCH  15  19
ENDBRANCH  10  11
ENDBRANCH   1  10
TORSDOF 6
ENDMDL
