MODEL 1
REMARK VINA RESULT:     7.663      0.000      0.000
REMARK INTER + INTRA:          11.475
REMARK INTER:                  10.350
REMARK INTRA:                   1.124
REMARK UNBOUND:                 1.124
REMARK SMILES COc1ccc(-c2cc(=O)c3c(OC)c(OC)c(OC)c(OC)c3o2)cc1
REMARK SMILES IDX 7 1 8 2 9 3 10 4 11 5 24 6 25 7 21 8 18 9 15 10 12 11 6 12
REMARK SMILES IDX 3 13 4 14 27 15 5 16 26 17 2 18 1 19 22 20 23 21 13 22 14 23
REMARK SMILES IDX 19 24 20 25 16 26 17 27
REMARK H PARENT
REMARK Flexibility Score: inf
ROOT
ATOM      1  C   UNL     1       1.922  13.573  19.145  1.00  0.00     0.138 A 
ATOM      2  C   UNL     1       0.866  13.207  19.988  1.00  0.00     0.100 A 
ATOM      3  C   UNL     1      -0.108  14.146  20.310  1.00  0.00     0.197 A 
ATOM      4  O   UNL     1      -1.050  13.804  21.076  1.00  0.00    -0.289 OA
ATOM      5  C   UNL     1      -0.021  15.454  19.785  1.00  0.00     0.115 A 
ATOM      6  C   UNL     1       1.077  15.757  18.942  1.00  0.00     0.188 A 
ATOM      7  O   UNL     1       1.981  14.817  18.675  1.00  0.00    -0.452 OA
ATOM      8  C   UNL     1       1.201  17.048  18.376  1.00  0.00     0.209 A 
ATOM      9  C   UNL     1       0.252  18.038  18.673  1.00  0.00     0.211 A 
ATOM     10  C   UNL     1      -0.819  17.753  19.551  1.00  0.00     0.208 A 
ATOM     11  C   UNL     1      -0.990  16.447  20.053  1.00  0.00     0.179 A 
ENDROOT
BRANCH   1  12
ATOM     12  C   UNL     1       2.982  12.609  18.766  1.00  0.00     0.018 A 
ATOM     13  C   UNL     1       4.969  10.734  18.049  1.00  0.00     0.118 A 
ATOM     14  C   UNL     1       3.656  10.604  17.562  1.00  0.00     0.047 A 
ATOM     15  C   UNL     1       5.276  11.803  18.899  1.00  0.00     0.047 A 
ATOM     16  C   UNL     1       2.674  11.530  17.920  1.00  0.00     0.016 A 
ATOM     17  C   UNL     1       4.295  12.730  19.259  1.00  0.00     0.016 A 
BRANCH  13  18
ATOM     18  O   UNL     1       5.990   9.831  17.719  1.00  0.00    -0.497 OA
ATOM     19  C   UNL     1       7.048  10.114  16.809  1.00  0.00     0.278 C 
ENDBRANCH  13  18
ENDBRANCH   1  12
BRANCH   8  20
ATOM     20  O   UNL     1       2.243  17.419  17.504  1.00  0.00    -0.490 OA
ATOM     21  C   UNL     1       2.887  18.686  17.437  1.00  0.00     0.278 C 
ENDBRANCH   8  20
BRANCH  11  22
ATOM     22  O   UNL     1      -2.123  16.126  20.809  1.00  0.00    -0.492 OA
ATOM     23  C   UNL     1      -2.078  15.985  22.225  1.00  0.00     0.278 C 
ENDBRANCH  11  22
BRANCH   9  24
ATOM     24  O   UNL     1       0.448  19.296  18.068  1.00  0.00    -0.490 OA
ATOM     25  C   UNL     1      -0.371  19.901  17.074  1.00  0.00     0.279 C 
ENDBRANCH   9  24
BRANCH  10  26
ATOM     26  O   UNL     1      -1.702  18.769  19.929  1.00  0.00    -0.490 OA
ATOM     27  C   UNL     1      -1.437  19.652  21.014  1.00  0.00     0.278 C 
ENDBRANCH  10  26
TORSDOF 6
ENDMDL
MODEL 2
REMARK VINA RESULT:     9.494      0.501      1.038
REMARK INTER + INTRA:          13.948
REMARK INTER:                  12.105
REMARK INTRA:                   1.843
REMARK UNBOUND:                 1.124
REMARK SMILES COc1ccc(-c2cc(=O)c3c(OC)c(OC)c(OC)c(OC)c3o2)cc1
REMARK SMILES IDX 7 1 8 2 9 3 10 4 11 5 24 6 25 7 21 8 18 9 15 10 12 11 6 12
REMARK SMILES IDX 3 13 4 14 27 15 5 16 26 17 2 18 1 19 22 20 23 21 13 22 14 23
REMARK SMILES IDX 19 24 20 25 16 26 17 27
REMARK H PARENT
REMARK Flexibility Score: inf
ROOT
ATOM      1  C   UNL     1       2.020  13.253  19.128  1.00  0.00     0.138 A 
ATOM      2  C   UNL     1       0.975  12.807  19.944  1.00  0.00     0.100 A 
ATOM      3  C   UNL     1      -0.035  13.693  20.307  1.00  0.00     0.197 A 
ATOM      4  O   UNL     1      -0.967  13.279  21.048  1.00  0.00    -0.289 OA
ATOM      5  C   UNL     1       0.007  15.028  19.847  1.00  0.00     0.115 A 
ATOM      6  C   UNL     1       1.097  15.412  19.028  1.00  0.00     0.188 A 
ATOM      7  O   UNL     1       2.036  14.520  18.720  1.00  0.00    -0.452 OA
ATOM      8  C   UNL     1       1.176  16.733  18.528  1.00  0.00     0.209 A 
ATOM      9  C   UNL     1       0.191  17.672  18.867  1.00  0.00     0.211 A 
ATOM     10  C   UNL     1      -0.874  17.305  19.723  1.00  0.00     0.208 A 
ATOM     11  C   UNL     1      -0.999  15.970  20.158  1.00  0.00     0.179 A 
ENDROOT
BRANCH   1  12
ATOM     12  C   UNL     1       3.117  12.348  18.708  1.00  0.00     0.018 A 
ATOM     13  C   UNL     1       5.231  10.663  17.892  1.00  0.00     0.118 A 
ATOM     14  C   UNL     1       5.501  11.917  18.470  1.00  0.00     0.047 A 
ATOM     15  C   UNL     1       3.901  10.264  17.723  1.00  0.00     0.047 A 
ATOM     16  C   UNL     1       4.453  12.750  18.870  1.00  0.00     0.016 A 
ATOM     17  C   UNL     1       2.852  11.096  18.122  1.00  0.00     0.016 A 
BRANCH  13  18
ATOM     18  O   UNL     1       6.247   9.791  17.474  1.00  0.00    -0.497 OA
ATOM     19  C   UNL     1       7.580  10.195  17.176  1.00  0.00     0.278 C 
ENDBRANCH  13  18
ENDBRANCH   1  12
BRANCH   8  20
ATOM     20  O   UNL     1       2.209  17.185  17.681  1.00  0.00    -0.490 OA
ATOM     21  C   UNL     1       2.404  18.514  17.213  1.00  0.00     0.278 C 
ENDBRANCH   8  20
BRANCH  11  22
ATOM     22  O   UNL     1      -2.123  15.570  20.890  1.00  0.00    -0.492 OA
ATOM     23  C   UNL     1      -2.093  15.411  22.305  1.00  0.00     0.278 C 
ENDBRANCH  11  22
BRANCH   9  24
ATOM     24  O   UNL     1       0.343  18.965  18.327  1.00  0.00    -0.490 OA
ATOM     25  C   UNL     1      -0.696  19.884  18.008  1.00  0.00     0.279 C 
ENDBRANCH   9  24
BRANCH  10  26
ATOM     26  O   UNL     1      -1.795  18.267  20.145  1.00  0.00    -0.490 OA
ATOM     27  C   UNL     1      -1.671  18.957  21.386  1.00  0.00     0.278 C 
ENDBRANCH  10  26
TORSDOF 6
ENDMDL
MODEL 3
REMARK VINA RESULT:    10.126      2.198      8.424
REMARK INTER + INTRA:          14.803
REMARK INTER:                  13.476
REMARK INTRA:                   1.327
REMARK UNBOUND:                 1.124
REMARK SMILES COc1ccc(-c2cc(=O)c3c(OC)c(OC)c(OC)c(OC)c3o2)cc1
REMARK SMILES IDX 7 1 8 2 9 3 10 4 11 5 24 6 25 7 21 8 18 9 15 10 12 11 6 12
REMARK SMILES IDX 3 13 4 14 27 15 5 16 26 17 2 18 1 19 22 20 23 21 13 22 14 23
REMARK SMILES IDX 19 24 20 25 16 26 17 27
REMARK H PARENT
REMARK Flexibility Score: inf
ROOT
ATOM      1  C   UNL     1       1.984  14.259  18.921  1.00  0.00     0.138 A 
ATOM      2  C   UNL     1       3.207  14.625  19.495  1.00  0.00     0.100 A 
ATOM      3  C   UNL     1       4.181  13.653  19.703  1.00  0.00     0.197 A 
ATOM      4  O   UNL     1       5.276  13.996  20.227  1.00  0.00    -0.289 OA
ATOM      5  C   UNL     1       3.925  12.314  19.334  1.00  0.00     0.115 A 
ATOM      6  C   UNL     1       2.663  12.015  18.762  1.00  0.00     0.188 A 
ATOM      7  O   UNL     1       1.769  12.988  18.594  1.00  0.00    -0.452 OA
ATOM      8  C   UNL     1       2.364  10.693  18.359  1.00  0.00     0.209 A 
ATOM      9  C   UNL     1       3.305   9.670  18.552  1.00  0.00     0.211 A 
ATOM     10  C   UNL     1       4.547   9.956  19.165  1.00  0.00     0.208 A 
ATOM     11  C   UNL     1       4.880  11.286  19.495  1.00  0.00     0.179 A 
ENDROOT
BRANCH   1  12
ATOM     12  C   UNL     1       0.916  15.257  18.673  1.00  0.00     0.018 A 
ATOM     13  C   UNL     1      -1.092  17.191  18.225  1.00  0.00     0.118 A 
ATOM     14  C   UNL     1       0.266  17.537  18.120  1.00  0.00     0.047 A 
ATOM     15  C   UNL     1      -1.436  15.877  18.560  1.00  0.00     0.047 A 
ATOM     16  C   UNL     1       1.259  16.579  18.346  1.00  0.00     0.016 A 
ATOM     17  C   UNL     1      -0.446  14.918  18.786  1.00  0.00     0.016 A 
BRANCH  13  18
ATOM     18  O   UNL     1      -2.125  18.115  18.009  1.00  0.00    -0.497 OA
ATOM     19  C   UNL     1      -1.922  19.504  17.766  1.00  0.00     0.278 C 
ENDBRANCH  13  18
ENDBRANCH   1  12
BRANCH   8  20
ATOM     20  O   UNL     1       1.147  10.320  17.754  1.00  0.00    -0.490 OA
ATOM     21  C   UNL     1       0.296   9.249  18.143  1.00  0.00     0.278 C 
ENDBRANCH   8  20
BRANCH  11  22
ATOM     22  O   UNL     1       6.158  11.593  19.973  1.00  0.00    -0.492 OA
ATOM     23  C   UNL     1       7.318  11.519  19.149  1.00  0.00     0.278 C 
ENDBRANCH  11  22
BRANCH   9  24
ATOM     24  O   UNL     1       2.929   8.381  18.122  1.00  0.00    -0.490 OA
ATOM     25  C   UNL     1       2.972   7.880  16.792  1.00  0.00     0.279 C 
ENDBRANCH   9  24
BRANCH  10  26
ATOM     26  O   UNL     1       5.440   8.920  19.453  1.00  0.00    -0.490 OA
ATOM     27  C   UNL     1       6.274   8.923  20.608  1.00  0.00     0.278 C 
ENDBRANCH  10  26
TORSDOF 6
ENDMDL
