MODEL 1
REMARK VINA RESULT:    -4.809      0.000      0.000
REMARK INTER + INTRA:          -4.809
REMARK INTER:                  -4.809
REMARK INTRA:                   0.000
REMARK UNBOUND:                 0.000
REMARK SMILES CC1=CC=CC(C)(C)[C@@H]1C
REMARK SMILES IDX 10 1 9 2 2 3 3 4 4 5 5 6 6 7 7 8 8 9 1 10
REMARK H PARENT
REMARK Flexibility Score: inf
ROOT
ATOM      1  C   UNL     1     142.906 143.335 162.304  1.00  0.00     0.013 C 
ATOM      2  C   UNL     1     143.322 141.987 162.932  1.00  0.00     0.021 C 
ATOM      3  C   UNL     1     143.820 142.145 164.372  1.00  0.00    -0.070 C 
ATOM      4  C   UNL     1     144.525 141.148 164.934  1.00  0.00    -0.001 C 
ATOM      5  C   UNL     1     144.937 139.972 164.154  1.00  0.00    -0.004 C 
ATOM      6  C   UNL     1     144.816 139.955 162.825  1.00  0.00    -0.020 C 
ATOM      7  C   UNL     1     144.351 141.178 162.054  1.00  0.00    -0.011 C 
ATOM      8  C   UNL     1     143.695 140.690 160.744  1.00  0.00     0.016 C 
ATOM      9  C   UNL     1     145.599 142.022 161.710  1.00  0.00     0.016 C 
ATOM     10  C   UNL     1     143.394 143.316 165.225  1.00  0.00     0.040 C 
ENDROOT
TORSDOF 0
ENDMDL
MODEL 2
REMARK VINA RESULT:    -4.802      4.805      6.035
REMARK INTER + INTRA:          -4.802
REMARK INTER:                  -4.802
REMARK INTRA:                   0.000
REMARK UNBOUND:                 0.000
REMARK SMILES CC1=CC=CC(C)(C)[C@@H]1C
REMARK SMILES IDX 10 1 9 2 2 3 3 4 4 5 5 6 6 7 7 8 8 9 1 10
REMARK H PARENT
REMARK Flexibility Score: inf
ROOT
ATOM      1  C   UNL     1     143.365 147.934 162.353  1.00  0.00     0.013 C 
ATOM      2  C   UNL     1     142.007 147.504 162.952  1.00  0.00     0.021 C 
ATOM      3  C   UNL     1     142.140 147.006 164.394  1.00  0.00    -0.070 C 
ATOM      4  C   UNL     1     141.139 146.291 164.934  1.00  0.00    -0.001 C 
ATOM      5  C   UNL     1     139.984 145.868 164.130  1.00  0.00    -0.004 C 
ATOM      6  C   UNL     1     139.993 145.991 162.801  1.00  0.00    -0.020 C 
ATOM      7  C   UNL     1     141.228 146.468 162.056  1.00  0.00    -0.011 C 
ATOM      8  C   UNL     1     140.761 147.121 160.736  1.00  0.00     0.016 C 
ATOM      9  C   UNL     1     142.091 145.230 161.729  1.00  0.00     0.016 C 
ATOM     10  C   UNL     1     143.288 147.442 165.273  1.00  0.00     0.040 C 
ENDROOT
TORSDOF 0
ENDMDL
MODEL 3
REMARK VINA RESULT:    -4.784      4.653      5.863
REMARK INTER + INTRA:          -4.784
REMARK INTER:                  -4.784
REMARK INTRA:                   0.000
REMARK UNBOUND:                 0.000
REMARK SMILES CC1=CC=CC(C)(C)[C@@H]1C
REMARK SMILES IDX 10 1 9 2 2 3 3 4 4 5 5 6 6 7 7 8 8 9 1 10
REMARK H PARENT
REMARK Flexibility Score: inf
ROOT
ATOM      1  C   UNL     1     147.276 142.828 162.364  1.00  0.00     0.013 C 
ATOM      2  C   UNL     1     148.640 143.263 162.945  1.00  0.00     0.021 C 
ATOM      3  C   UNL     1     148.517 143.806 164.372  1.00  0.00    -0.070 C 
ATOM      4  C   UNL     1     149.527 144.528 164.887  1.00  0.00    -0.001 C 
ATOM      5  C   UNL     1     150.684 144.914 164.066  1.00  0.00    -0.004 C 
ATOM      6  C   UNL     1     150.669 144.751 162.741  1.00  0.00    -0.020 C 
ATOM      7  C   UNL     1     149.426 144.263 162.016  1.00  0.00    -0.011 C 
ATOM      8  C   UNL     1     149.882 143.565 160.715  1.00  0.00     0.016 C 
ATOM      9  C   UNL     1     148.574 145.499 161.653  1.00  0.00     0.016 C 
ATOM     10  C   UNL     1     147.368 143.408 165.267  1.00  0.00     0.040 C 
ENDROOT
TORSDOF 0
ENDMDL
MODEL 4
REMARK VINA RESULT:    -4.780      6.888      8.382
REMARK INTER + INTRA:          -4.780
REMARK INTER:                  -4.780
REMARK INTRA:                   0.000
REMARK UNBOUND:                 0.000
REMARK SMILES CC1=CC=CC(C)(C)[C@@H]1C
REMARK SMILES IDX 10 1 9 2 2 3 3 4 4 5 5 6 6 7 7 8 8 9 1 10
REMARK H PARENT
REMARK Flexibility Score: inf
ROOT
ATOM      1  C   UNL     1     147.927 147.278 162.364  1.00  0.00     0.013 C 
ATOM      2  C   UNL     1     147.495 148.641 162.947  1.00  0.00     0.021 C 
ATOM      3  C   UNL     1     146.955 148.518 164.374  1.00  0.00    -0.070 C 
ATOM      4  C   UNL     1     146.235 149.528 164.891  1.00  0.00    -0.001 C 
ATOM      5  C   UNL     1     145.848 150.686 164.072  1.00  0.00    -0.004 C 
ATOM      6  C   UNL     1     146.009 150.672 162.747  1.00  0.00    -0.020 C 
ATOM      7  C   UNL     1     146.494 149.430 162.020  1.00  0.00    -0.011 C 
ATOM      8  C   UNL     1     147.190 149.886 160.718  1.00  0.00     0.016 C 
ATOM      9  C   UNL     1     145.256 148.579 161.659  1.00  0.00     0.016 C 
ATOM     10  C   UNL     1     147.353 147.368 165.267  1.00  0.00     0.040 C 
ENDROOT
TORSDOF 0
ENDMDL
MODEL 5
REMARK VINA RESULT:    -4.630      1.566      2.596
REMARK INTER + INTRA:          -4.630
REMARK INTER:                  -4.630
REMARK INTRA:                   0.000
REMARK UNBOUND:                 0.000
REMARK SMILES CC1=CC=CC(C)(C)[C@@H]1C
REMARK SMILES IDX 10 1 9 2 2 3 3 4 4 5 5 6 6 7 7 8 8 9 1 10
REMARK H PARENT
REMARK Flexibility Score: inf
ROOT
ATOM      1  C   UNL     1     143.222 143.290 164.930  1.00  0.00     0.013 C 
ATOM      2  C   UNL     1     143.861 142.465 163.790  1.00  0.00     0.021 C 
ATOM      3  C   UNL     1     143.845 140.962 164.081  1.00  0.00    -0.070 C 
ATOM      4  C   UNL     1     144.646 140.149 163.372  1.00  0.00    -0.001 C 
ATOM      5  C   UNL     1     145.628 140.688 162.420  1.00  0.00    -0.004 C 
ATOM      6  C   UNL     1     145.905 141.993 162.387  1.00  0.00    -0.020 C 
ATOM      7  C   UNL     1     145.305 142.958 163.395  1.00  0.00    -0.011 C 
ATOM      8  C   UNL     1     145.251 144.355 162.738  1.00  0.00     0.016 C 
ATOM      9  C   UNL     1     146.247 143.011 164.618  1.00  0.00     0.016 C 
ATOM     10  C   UNL     1     142.831 140.356 165.022  1.00  0.00     0.040 C 
ENDROOT
TORSDOF 0
ENDMDL
MODEL 6
REMARK VINA RESULT:    -4.625      1.106      3.378
REMARK INTER + INTRA:          -4.625
REMARK INTER:                  -4.625
REMARK INTRA:                   0.000
REMARK UNBOUND:                 0.000
REMARK SMILES CC1=CC=CC(C)(C)[C@@H]1C
REMARK SMILES IDX 10 1 9 2 2 3 3 4 4 5 5 6 6 7 7 8 8 9 1 10
REMARK H PARENT
REMARK Flexibility Score: inf
ROOT
ATOM      1  C   UNL     1     144.914 140.112 162.022  1.00  0.00     0.013 C 
ATOM      2  C   UNL     1     144.004 141.010 162.889  1.00  0.00     0.021 C 
ATOM      3  C   UNL     1     143.434 142.193 162.101  1.00  0.00    -0.070 C 
ATOM      4  C   UNL     1     142.913 143.235 162.770  1.00  0.00    -0.001 C 
ATOM      5  C   UNL     1     142.999 143.320 164.235  1.00  0.00    -0.004 C 
ATOM      6  C   UNL     1     143.778 142.484 164.925  1.00  0.00    -0.020 C 
ATOM      7  C   UNL     1     144.686 141.486 164.227  1.00  0.00    -0.011 C 
ATOM      8  C   UNL     1     144.908 140.297 165.187  1.00  0.00     0.016 C 
ATOM      9  C   UNL     1     146.040 142.183 163.964  1.00  0.00     0.016 C 
ATOM     10  C   UNL     1     143.290 142.139 160.599  1.00  0.00     0.040 C 
ENDROOT
TORSDOF 0
ENDMDL
MODEL 7
REMARK VINA RESULT:    -4.621      7.000      8.348
REMARK INTER + INTRA:          -4.621
REMARK INTER:                  -4.621
REMARK INTRA:                   0.000
REMARK UNBOUND:                 0.000
REMARK SMILES CC1=CC=CC(C)(C)[C@@H]1C
REMARK SMILES IDX 10 1 9 2 2 3 3 4 4 5 5 6 6 7 7 8 8 9 1 10
REMARK H PARENT
REMARK Flexibility Score: inf
ROOT
ATOM      1  C   UNL     1     145.777 150.639 162.069  1.00  0.00     0.013 C 
ATOM      2  C   UNL     1     146.709 149.747 162.919  1.00  0.00     0.021 C 
ATOM      3  C   UNL     1     147.288 148.579 162.116  1.00  0.00    -0.070 C 
ATOM      4  C   UNL     1     147.831 147.539 162.771  1.00  0.00    -0.001 C 
ATOM      5  C   UNL     1     147.760 147.441 164.236  1.00  0.00    -0.004 C 
ATOM      6  C   UNL     1     146.975 148.260 164.941  1.00  0.00    -0.020 C 
ATOM      7  C   UNL     1     146.047 149.250 164.260  1.00  0.00    -0.011 C 
ATOM      8  C   UNL     1     145.816 150.428 165.232  1.00  0.00     0.016 C 
ATOM      9  C   UNL     1     144.700 148.536 164.003  1.00  0.00     0.016 C 
ATOM     10  C   UNL     1     147.417 148.648 160.613  1.00  0.00     0.040 C 
ENDROOT
TORSDOF 0
ENDMDL
MODEL 8
REMARK VINA RESULT:    -4.618      4.443      6.090
REMARK INTER + INTRA:          -4.618
REMARK INTER:                  -4.618
REMARK INTRA:                   0.000
REMARK UNBOUND:                 0.000
REMARK SMILES CC1=CC=CC(C)(C)[C@@H]1C
REMARK SMILES IDX 10 1 9 2 2 3 3 4 4 5 5 6 6 7 7 8 8 9 1 10
REMARK H PARENT
REMARK Flexibility Score: inf
ROOT
ATOM      1  C   UNL     1     150.022 144.169 161.187  1.00  0.00     0.013 C 
ATOM      2  C   UNL     1     149.434 143.587 162.492  1.00  0.00     0.021 C 
ATOM      3  C   UNL     1     147.998 143.087 162.310  1.00  0.00    -0.070 C 
ATOM      4  C   UNL     1     147.238 142.872 163.396  1.00  0.00    -0.001 C 
ATOM      5  C   UNL     1     147.711 143.231 164.741  1.00  0.00    -0.004 C 
ATOM      6  C   UNL     1     148.808 143.973 164.906  1.00  0.00    -0.020 C 
ATOM      7  C   UNL     1     149.550 144.566 163.721  1.00  0.00    -0.011 C 
ATOM      8  C   UNL     1     151.026 144.759 164.136  1.00  0.00     0.016 C 
ATOM      9  C   UNL     1     148.928 145.947 163.415  1.00  0.00     0.016 C 
ATOM     10  C   UNL     1     147.478 142.671 160.955  1.00  0.00     0.040 C 
ENDROOT
TORSDOF 0
ENDMDL
MODEL 9
REMARK VINA RESULT:    -4.564      5.524      7.030
REMARK INTER + INTRA:          -4.564
REMARK INTER:                  -4.564
REMARK INTRA:                   0.000
REMARK UNBOUND:                 0.000
REMARK SMILES CC1=CC=CC(C)(C)[C@@H]1C
REMARK SMILES IDX 10 1 9 2 2 3 3 4 4 5 5 6 6 7 7 8 8 9 1 10
REMARK H PARENT
REMARK Flexibility Score: inf
ROOT
ATOM      1  C   UNL     1     147.632 146.435 164.875  1.00  0.00     0.013 C 
ATOM      2  C   UNL     1     148.758 146.311 163.825  1.00  0.00     0.021 C 
ATOM      3  C   UNL     1     148.244 146.506 162.396  1.00  0.00    -0.070 C 
ATOM      4  C   UNL     1     149.006 146.102 161.365  1.00  0.00    -0.001 C 
ATOM      5  C   UNL     1     150.257 145.362 161.586  1.00  0.00    -0.004 C 
ATOM      6  C   UNL     1     150.565 144.881 162.793  1.00  0.00    -0.020 C 
ATOM      7  C   UNL     1     149.595 144.983 163.958  1.00  0.00    -0.011 C 
ATOM      8  C   UNL     1     150.422 144.980 165.263  1.00  0.00     0.016 C 
ATOM      9  C   UNL     1     148.691 143.730 163.932  1.00  0.00     0.016 C 
ATOM     10  C   UNL     1     146.985 147.291 162.115  1.00  0.00     0.040 C 
ENDROOT
TORSDOF 0
ENDMDL
