MODEL 1
REMARK VINA RESULT:    -3.790      0.000      0.000
REMARK INTER + INTRA:          -5.131
REMARK INTER:                  -4.898
REMARK INTRA:                  -0.233
REMARK UNBOUND:                -0.233
REMARK SMILES C=CC(=O)CCCCC
REMARK SMILES IDX 6 1 7 2 8 3 9 4 5 5 3 6 4 7 2 8 1 9
REMARK H PARENT
REMARK Flexibility Score: inf
ROOT
ATOM      1  C   UNL     1      -1.417   5.698  12.009  1.00  0.00     0.008 C 
ENDROOT
BRANCH   1   2
ATOM      2  C   UNL     1      -2.762   5.409  11.324  1.00  0.00     0.000 C 
BRANCH   2   3
ATOM      3  C   UNL     1      -2.754   4.091  10.538  1.00  0.00    -0.003 C 
ATOM      4  C   UNL     1      -4.166   3.702  10.104  1.00  0.00     0.004 C 
ENDBRANCH   2   3
ENDBRANCH   1   2
BRANCH   1   5
ATOM      5  C   UNL     1      -0.817   4.452  12.684  1.00  0.00     0.080 C 
BRANCH   5   6
ATOM      6  C   UNL     1      -0.978   4.461  14.187  1.00  0.00     0.155 C 
ATOM      7  O   UNL     1      -1.130   3.377  14.814  1.00  0.00    -0.295 OA
BRANCH   6   8
ATOM      8  C   UNL     1      -0.945   5.715  14.967  1.00  0.00     0.039 C 
ATOM      9  C   UNL     1      -0.231   5.873  16.081  1.00  0.00     0.012 C 
ENDBRANCH   6   8
ENDBRANCH   5   6
ENDBRANCH   1   5
TORSDOF 5
ENDMDL
MODEL 2
REMARK VINA RESULT:    -3.669      2.924      4.418
REMARK INTER + INTRA:          -4.975
REMARK INTER:                  -4.488
REMARK INTRA:                  -0.487
REMARK UNBOUND:                -0.233
REMARK SMILES C=CC(=O)CCCCC
REMARK SMILES IDX 6 1 7 2 8 3 9 4 5 5 3 6 4 7 2 8 1 9
REMARK H PARENT
REMARK Flexibility Score: inf
ROOT
ATOM      1  C   UNL     1      -0.735   6.854  13.577  1.00  0.00     0.008 C 
ENDROOT
BRANCH   1   2
ATOM      2  C   UNL     1       0.290   7.773  14.260  1.00  0.00     0.000 C 
BRANCH   2   3
ATOM      3  C   UNL     1      -0.360   8.992  14.928  1.00  0.00    -0.003 C 
ATOM      4  C   UNL     1       0.027   9.083  16.402  1.00  0.00     0.004 C 
ENDBRANCH   2   3
ENDBRANCH   1   2
BRANCH   1   5
ATOM      5  C   UNL     1      -1.535   6.008  14.583  1.00  0.00     0.080 C 
BRANCH   5   6
ATOM      6  C   UNL     1      -0.863   4.695  14.913  1.00  0.00     0.155 C 
ATOM      7  O   UNL     1      -0.989   3.707  14.138  1.00  0.00    -0.295 OA
BRANCH   6   8
ATOM      8  C   UNL     1      -0.033   4.525  16.124  1.00  0.00     0.039 C 
ATOM      9  C   UNL     1      -0.008   5.400  17.129  1.00  0.00     0.012 C 
ENDBRANCH   6   8
ENDBRANCH   5   6
ENDBRANCH   1   5
TORSDOF 5
ENDMDL
MODEL 3
REMARK VINA RESULT:    -3.591      1.846      5.211
REMARK INTER + INTRA:          -4.875
REMARK INTER:                  -4.611
REMARK INTRA:                  -0.264
REMARK UNBOUND:                -0.233
REMARK SMILES C=CC(=O)CCCCC
REMARK SMILES IDX 6 1 7 2 8 3 9 4 5 5 3 6 4 7 2 8 1 9
REMARK H PARENT
REMARK Flexibility Score: inf
ROOT
ATOM      1  C   UNL     1       0.070   5.862  15.994  1.00  0.00     0.008 C 
ENDROOT
BRANCH   1   2
ATOM      2  C   UNL     1      -0.373   5.893  17.465  1.00  0.00     0.000 C 
BRANCH   2   3
ATOM      3  C   UNL     1       0.412   4.906  18.341  1.00  0.00    -0.003 C 
ATOM      4  C   UNL     1       0.018   3.464  18.030  1.00  0.00     0.004 C 
ENDBRANCH   2   3
ENDBRANCH   1   2
BRANCH   1   5
ATOM      5  C   UNL     1      -1.117   5.765  15.020  1.00  0.00     0.080 C 
BRANCH   5   6
ATOM      6  C   UNL     1      -1.062   4.533  14.146  1.00  0.00     0.155 C 
ATOM      7  O   UNL     1      -1.119   3.384  14.667  1.00  0.00    -0.295 OA
BRANCH   6   8
ATOM      8  C   UNL     1      -0.961   4.624  12.675  1.00  0.00     0.039 C 
ATOM      9  C   UNL     1      -0.839   5.775  12.014  1.00  0.00     0.012 C 
ENDBRANCH   6   8
ENDBRANCH   5   6
ENDBRANCH   1   5
TORSDOF 5
ENDMDL
MODEL 4
REMARK VINA RESULT:    -3.505      1.793      4.985
REMARK INTER + INTRA:          -4.763
REMARK INTER:                  -4.456
REMARK INTRA:                  -0.307
REMARK UNBOUND:                -0.233
REMARK SMILES C=CC(=O)CCCCC
REMARK SMILES IDX 6 1 7 2 8 3 9 4 5 5 3 6 4 7 2 8 1 9
REMARK H PARENT
REMARK Flexibility Score: inf
ROOT
ATOM      1  C   UNL     1      -0.311   6.634  15.288  1.00  0.00     0.008 C 
ENDROOT
BRANCH   1   2
ATOM      2  C   UNL     1       0.012   7.982  14.626  1.00  0.00     0.000 C 
BRANCH   2   3
ATOM      3  C   UNL     1       0.005   9.149  15.624  1.00  0.00    -0.003 C 
ATOM      4  C   UNL     1      -0.012   8.639  17.063  1.00  0.00     0.004 C 
ENDBRANCH   2   3
ENDBRANCH   1   2
BRANCH   1   5
ATOM      5  C   UNL     1      -1.535   5.944  14.660  1.00  0.00     0.080 C 
BRANCH   5   6
ATOM      6  C   UNL     1      -1.163   4.775  13.777  1.00  0.00     0.155 C 
ATOM      7  O   UNL     1      -0.872   3.660  14.291  1.00  0.00    -0.295 OA
BRANCH   6   8
ATOM      8  C   UNL     1      -1.145   4.885  12.304  1.00  0.00     0.039 C 
ATOM      9  C   UNL     1      -1.487   5.991  11.642  1.00  0.00     0.012 C 
ENDBRANCH   6   8
ENDBRANCH   5   6
ENDBRANCH   1   5
TORSDOF 5
ENDMDL
MODEL 5
REMARK VINA RESULT:    -3.496     16.955     18.443
REMARK INTER + INTRA:          -4.751
REMARK INTER:                  -4.169
REMARK INTRA:                  -0.582
REMARK UNBOUND:                -0.233
REMARK SMILES C=CC(=O)CCCCC
REMARK SMILES IDX 6 1 7 2 8 3 9 4 5 5 3 6 4 7 2 8 1 9
REMARK H PARENT
REMARK Flexibility Score: inf
ROOT
ATOM      1  C   UNL     1     -14.303  -6.707   7.286  1.00  0.00     0.008 C 
ENDROOT
BRANCH   1   2
ATOM      2  C   UNL     1     -15.348  -7.624   6.632  1.00  0.00     0.000 C 
BRANCH   2   3
ATOM      3  C   UNL     1     -16.252  -8.320   7.660  1.00  0.00    -0.003 C 
ATOM      4  C   UNL     1     -15.631  -8.277   9.054  1.00  0.00     0.004 C 
ENDBRANCH   2   3
ENDBRANCH   1   2
BRANCH   1   5
ATOM      5  C   UNL     1     -14.434  -5.242   6.834  1.00  0.00     0.080 C 
BRANCH   5   6
ATOM      6  C   UNL     1     -14.998  -4.342   7.910  1.00  0.00     0.155 C 
ATOM      7  O   UNL     1     -14.324  -3.362   8.332  1.00  0.00    -0.295 OA
BRANCH   6   8
ATOM      8  C   UNL     1     -16.341  -4.560   8.485  1.00  0.00     0.039 C 
ATOM      9  C   UNL     1     -17.462  -4.555   7.764  1.00  0.00     0.012 C 
ENDBRANCH   6   8
ENDBRANCH   5   6
ENDBRANCH   1   5
TORSDOF 5
ENDMDL
MODEL 6
REMARK VINA RESULT:    -3.495      1.297      2.110
REMARK INTER + INTRA:          -4.750
REMARK INTER:                  -4.177
REMARK INTRA:                  -0.573
REMARK UNBOUND:                -0.233
REMARK SMILES C=CC(=O)CCCCC
REMARK SMILES IDX 6 1 7 2 8 3 9 4 5 5 3 6 4 7 2 8 1 9
REMARK H PARENT
REMARK Flexibility Score: inf
ROOT
ATOM      1  C   UNL     1      -2.126   4.487  11.262  1.00  0.00     0.008 C 
ENDROOT
BRANCH   1   2
ATOM      2  C   UNL     1      -3.203   5.583  11.242  1.00  0.00     0.000 C 
BRANCH   2   3
ATOM      3  C   UNL     1      -2.624   6.976  10.956  1.00  0.00    -0.003 C 
ATOM      4  C   UNL     1      -3.156   8.006  11.951  1.00  0.00     0.004 C 
ENDBRANCH   2   3
ENDBRANCH   1   2
BRANCH   1   5
ATOM      5  C   UNL     1      -0.886   4.891  12.080  1.00  0.00     0.080 C 
BRANCH   5   6
ATOM      6  C   UNL     1      -1.079   4.711  13.568  1.00  0.00     0.155 C 
ATOM      7  O   UNL     1      -1.041   3.557  14.077  1.00  0.00    -0.295 OA
BRANCH   6   8
ATOM      8  C   UNL     1      -1.295   5.861  14.471  1.00  0.00     0.039 C 
ATOM      9  C   UNL     1      -0.531   6.953  14.471  1.00  0.00     0.012 C 
ENDBRANCH   6   8
ENDBRANCH   5   6
ENDBRANCH   1   5
TORSDOF 5
ENDMDL
MODEL 7
REMARK VINA RESULT:    -3.489     14.076     16.202
REMARK INTER + INTRA:          -4.742
REMARK INTER:                  -4.446
REMARK INTRA:                  -0.297
REMARK UNBOUND:                -0.233
REMARK SMILES C=CC(=O)CCCCC
REMARK SMILES IDX 6 1 7 2 8 3 9 4 5 5 3 6 4 7 2 8 1 9
REMARK H PARENT
REMARK Flexibility Score: inf
ROOT
ATOM      1  C   UNL     1     -14.146  -2.661   5.290  1.00  0.00     0.008 C 
ENDROOT
BRANCH   1   2
ATOM      2  C   UNL     1     -14.038  -1.190   4.858  1.00  0.00     0.000 C 
BRANCH   2   3
ATOM      3  C   UNL     1     -12.915  -0.439   5.588  1.00  0.00    -0.003 C 
ATOM      4  C   UNL     1     -11.732  -1.362   5.873  1.00  0.00     0.004 C 
ENDBRANCH   2   3
ENDBRANCH   1   2
BRANCH   1   5
ATOM      5  C   UNL     1     -15.249  -2.890   6.338  1.00  0.00     0.080 C 
BRANCH   5   6
ATOM      6  C   UNL     1     -14.734  -3.536   7.604  1.00  0.00     0.155 C 
ATOM      7  O   UNL     1     -13.812  -2.984   8.266  1.00  0.00    -0.295 OA
BRANCH   6   8
ATOM      8  C   UNL     1     -15.292  -4.805   8.115  1.00  0.00     0.039 C 
ATOM      9  C   UNL     1     -14.720  -5.993   7.923  1.00  0.00     0.012 C 
ENDBRANCH   6   8
ENDBRANCH   5   6
ENDBRANCH   1   5
TORSDOF 5
ENDMDL
MODEL 8
REMARK VINA RESULT:    -3.413      1.579      2.529
REMARK INTER + INTRA:          -4.644
REMARK INTER:                  -4.478
REMARK INTRA:                  -0.166
REMARK UNBOUND:                -0.233
REMARK SMILES C=CC(=O)CCCCC
REMARK SMILES IDX 6 1 7 2 8 3 9 4 5 5 3 6 4 7 2 8 1 9
REMARK H PARENT
REMARK Flexibility Score: inf
ROOT
ATOM      1  C   UNL     1      -1.168   5.091  14.346  1.00  0.00     0.008 C 
ENDROOT
BRANCH   1   2
ATOM      2  C   UNL     1      -0.979   4.484  12.947  1.00  0.00     0.000 C 
BRANCH   2   3
ATOM      3  C   UNL     1      -1.744   5.252  11.860  1.00  0.00    -0.003 C 
ATOM      4  C   UNL     1      -2.411   4.294  10.876  1.00  0.00     0.004 C 
ENDBRANCH   2   3
ENDBRANCH   1   2
BRANCH   1   5
ATOM      5  C   UNL     1      -0.391   4.328  15.433  1.00  0.00     0.080 C 
BRANCH   5   6
ATOM      6  C   UNL     1       0.101   5.225  16.545  1.00  0.00     0.155 C 
ATOM      7  O   UNL     1       0.885   4.772  17.424  1.00  0.00    -0.295 OA
BRANCH   6   8
ATOM      8  C   UNL     1      -0.296   6.646  16.634  1.00  0.00     0.039 C 
ATOM      9  C   UNL     1      -0.642   7.245  17.773  1.00  0.00     0.012 C 
ENDBRANCH   6   8
ENDBRANCH   5   6
ENDBRANCH   1   5
TORSDOF 5
ENDMDL
MODEL 9
REMARK VINA RESULT:    -3.399     15.967     17.801
REMARK INTER + INTRA:          -4.626
REMARK INTER:                  -4.430
REMARK INTRA:                  -0.196
REMARK UNBOUND:                -0.233
REMARK SMILES C=CC(=O)CCCCC
REMARK SMILES IDX 6 1 7 2 8 3 9 4 5 5 3 6 4 7 2 8 1 9
REMARK H PARENT
REMARK Flexibility Score: inf
ROOT
ATOM      1  C   UNL     1     -15.649  -5.856   7.326  1.00  0.00     0.008 C 
ENDROOT
BRANCH   1   2
ATOM      2  C   UNL     1     -14.745  -6.912   7.982  1.00  0.00     0.000 C 
BRANCH   2   3
ATOM      3  C   UNL     1     -15.533  -7.919   8.831  1.00  0.00    -0.003 C 
ATOM      4  C   UNL     1     -16.987  -8.002   8.376  1.00  0.00     0.004 C 
ENDBRANCH   2   3
ENDBRANCH   1   2
BRANCH   1   5
ATOM      5  C   UNL     1     -15.712  -4.547   8.132  1.00  0.00     0.080 C 
BRANCH   5   6
ATOM      6  C   UNL     1     -14.772  -3.486   7.607  1.00  0.00     0.155 C 
ATOM      7  O   UNL     1     -13.835  -3.054   8.334  1.00  0.00    -0.295 OA
BRANCH   6   8
ATOM      8  C   UNL     1     -14.900  -2.938   6.241  1.00  0.00     0.039 C 
ATOM      9  C   UNL     1     -14.261  -1.846   5.821  1.00  0.00     0.012 C 
ENDBRANCH   6   8
ENDBRANCH   5   6
ENDBRANCH   1   5
TORSDOF 5
ENDMDL
