MODEL 1
REMARK VINA RESULT:    -4.824      0.000      0.000
REMARK INTER + INTRA:          -6.179
REMARK INTER:                  -6.799
REMARK INTRA:                   0.619
REMARK UNBOUND:                 0.619
REMARK SMILES CC1=CCC(=C(C)C)C(=O)CC(C)=CCC1
REMARK SMILES IDX 12 1 14 2 13 3 15 4 16 5 2 6 1 7 3 8 11 10 9 11 10 12 5 13
REMARK SMILES IDX 6 14 7 15 8 16 4 17
REMARK H PARENT
REMARK Flexibility Score: 60.00
ROOT
ATOM      1  C   UNL     1      47.034   2.772  18.522  1.00  0.00    -0.070 C 
ATOM      2  C   UNL     1      47.198   1.925  17.478  1.00  0.00    -0.027 C 
ATOM      3  C   UNL     1      45.719   3.505  18.622  1.00  0.00     0.039 C 
ENDROOT
BRANCH   2   4
ATOM      4  C   UNL     1      48.381   1.018  17.240  1.00  0.00     0.032 C 
BRANCH   4   5
ATOM      5  C   UNL     1      49.060   1.271  15.881  1.00  0.00     0.034 C 
BRANCH   5   6
ATOM      6  C   UNL     1      49.496   2.714  15.720  1.00  0.00    -0.077 C 
ATOM      7  C   UNL     1      49.049   3.465  14.491  1.00  0.00     0.039 C 
ATOM      8  C   UNL     1      50.287   3.362  16.605  1.00  0.00    -0.023 CG0
ATOM      9  G   UNL     1      50.862   2.773  17.871  1.00  0.00     0.000 G0
ENDBRANCH   5   6
ENDBRANCH   4   5
ENDBRANCH   2   4
BRANCH   1  10
ATOM     10  C   UNL     1      48.066   2.968  19.620  1.00  0.00     0.111 C 
BRANCH  10  11
ATOM     11  C   UNL     1      49.079   4.022  19.248  1.00  0.00     0.163 C 
ATOM     12  O   UNL     1      48.670   5.200  19.063  1.00  0.00    -0.294 OA
BRANCH  11  13
ATOM     13  C   UNL     1      50.525   3.694  19.044  1.00  0.00    -0.002 C 
ATOM     14  C   UNL     1      51.490   4.129  19.910  1.00  0.00    -0.069 C 
ATOM     15  C   UNL     1      51.142   4.904  21.161  1.00  0.00     0.039 C 
ATOM     16  C   UNL     1      52.954   3.825  19.675  1.00  0.00     0.039 C 
BRANCH  13  17
ATOM     17  C   UNL     1      50.870   2.791  17.873  1.00  0.00     0.066 CG0
ATOM     18  G   UNL     1      50.301   3.365  16.597  1.00  0.00     0.000 G0
ENDBRANCH  13  17
ENDBRANCH  11  13
ENDBRANCH  10  11
ENDBRANCH   1  10
TORSDOF 0
ENDMDL
MODEL 2
REMARK VINA RESULT:    -4.440      2.416      4.056
REMARK INTER + INTRA:          -5.638
REMARK INTER:                  -6.028
REMARK INTRA:                   0.389
REMARK UNBOUND:                 0.619
REMARK SMILES CC1=CCC(=C(C)C)C(=O)CC(C)=CCC1
REMARK SMILES IDX 12 1 14 2 13 3 15 4 16 5 2 6 1 7 3 8 11 10 9 11 10 12 5 13
REMARK SMILES IDX 6 14 7 15 8 16 4 17
REMARK H PARENT
REMARK Flexibility Score: 60.00
ROOT
ATOM      1  C   UNL     1      51.081   2.525  18.587  1.00  0.00    -0.070 C 
ATOM      2  C   UNL     1      50.221   1.481  18.662  1.00  0.00    -0.027 C 
ATOM      3  C   UNL     1      52.518   2.270  18.968  1.00  0.00     0.039 C 
ENDROOT
BRANCH   2   4
ATOM      4  C   UNL     1      48.773   1.483  18.233  1.00  0.00     0.032 C 
BRANCH   4   5
ATOM      5  C   UNL     1      47.831   2.014  19.329  1.00  0.00     0.034 C 
BRANCH   5   6
ATOM      6  C   UNL     1      47.019   3.206  18.858  1.00  0.00    -0.077 C 
ATOM      7  C   UNL     1      45.927   2.972  17.845  1.00  0.00     0.039 C 
ATOM      8  C   UNL     1      47.235   4.473  19.276  1.00  0.00    -0.023 CG0
ATOM      9  G   UNL     1      48.299   4.911  20.254  1.00  0.00     0.000 G0
ENDBRANCH   5   6
ENDBRANCH   4   5
ENDBRANCH   2   4
BRANCH   1  10
ATOM     10  C   UNL     1      50.692   3.905  18.082  1.00  0.00     0.111 C 
BRANCH  10  11
ATOM     11  C   UNL     1      50.650   4.915  19.201  1.00  0.00     0.163 C 
ATOM     12  O   UNL     1      51.689   5.074  19.898  1.00  0.00    -0.294 OA
BRANCH  11  13
ATOM     13  C   UNL     1      49.407   5.680  19.532  1.00  0.00    -0.002 C 
ATOM     14  C   UNL     1      49.234   6.977  19.134  1.00  0.00    -0.069 C 
ATOM     15  C   UNL     1      50.257   7.686  18.276  1.00  0.00     0.039 C 
ATOM     16  C   UNL     1      47.989   7.755  19.505  1.00  0.00     0.039 C 
BRANCH  13  17
ATOM     17  C   UNL     1      48.309   4.929  20.264  1.00  0.00     0.066 CG0
ATOM     18  G   UNL     1      47.269   4.451  19.278  1.00  0.00     0.000 G0
ENDBRANCH  13  17
ENDBRANCH  11  13
ENDBRANCH  10  11
ENDBRANCH   1  10
TORSDOF 0
ENDMDL
MODEL 3
REMARK VINA RESULT:    -4.308      1.636      3.231
REMARK INTER + INTRA:          -5.451
REMARK INTER:                  -6.123
REMARK INTRA:                   0.672
REMARK UNBOUND:                 0.619
REMARK SMILES CC1=CCC(=C(C)C)C(=O)CC(C)=CCC1
REMARK SMILES IDX 12 1 14 2 13 3 15 4 16 5 2 6 1 7 3 8 11 10 9 11 10 12 5 13
REMARK SMILES IDX 6 14 7 15 8 16 4 17
REMARK H PARENT
REMARK Flexibility Score: 60.00
ROOT
ATOM      1  C   UNL     1      49.856   2.687  16.639  1.00  0.00    -0.070 C 
ATOM      2  C   UNL     1      48.978   1.791  17.153  1.00  0.00    -0.027 C 
ATOM      3  C   UNL     1      49.643   3.127  15.211  1.00  0.00     0.039 C 
ENDROOT
BRANCH   2   4
ATOM      4  C   UNL     1      48.940   1.296  18.579  1.00  0.00     0.032 C 
BRANCH   4   5
ATOM      5  C   UNL     1      47.619   1.643  19.291  1.00  0.00     0.034 C 
BRANCH   5   6
ATOM      6  C   UNL     1      47.294   3.122  19.205  1.00  0.00    -0.077 C 
ATOM      7  C   UNL     1      46.041   3.538  18.477  1.00  0.00     0.039 C 
ATOM      8  C   UNL     1      48.078   4.094  19.723  1.00  0.00    -0.023 CG0
ATOM      9  G   UNL     1      49.383   3.881  20.453  1.00  0.00     0.000 G0
ENDBRANCH   5   6
ENDBRANCH   4   5
ENDBRANCH   2   4
BRANCH   1  10
ATOM     10  C   UNL     1      50.988   3.313  17.436  1.00  0.00     0.111 C 
BRANCH  10  11
ATOM     11  C   UNL     1      50.515   4.506  18.229  1.00  0.00     0.163 C 
ATOM     12  O   UNL     1      50.119   5.521  17.596  1.00  0.00    -0.294 OA
BRANCH  11  13
ATOM     13  C   UNL     1      50.555   4.529  19.724  1.00  0.00    -0.002 C 
ATOM     14  C   UNL     1      51.559   5.159  20.407  1.00  0.00    -0.069 C 
ATOM     15  C   UNL     1      52.644   5.930  19.688  1.00  0.00     0.039 C 
ATOM     16  C   UNL     1      51.613   5.145  21.920  1.00  0.00     0.039 C 
BRANCH  13  17
ATOM     17  C   UNL     1      49.391   3.886  20.457  1.00  0.00     0.066 CG0
ATOM     18  G   UNL     1      48.111   4.118  19.689  1.00  0.00     0.000 G0
ENDBRANCH  13  17
ENDBRANCH  11  13
ENDBRANCH  10  11
ENDBRANCH   1  10
TORSDOF 0
ENDMDL
MODEL 4
REMARK VINA RESULT:    -4.138      1.834      3.551
REMARK INTER + INTRA:          -5.212
REMARK INTER:                  -5.578
REMARK INTRA:                   0.365
REMARK UNBOUND:                 0.619
REMARK SMILES CC1=CCC(=C(C)C)C(=O)CC(C)=CCC1
REMARK SMILES IDX 12 1 14 2 13 3 15 4 16 5 2 6 1 7 3 8 11 10 9 11 10 12 5 13
REMARK SMILES IDX 6 14 7 15 8 16 4 17
REMARK H PARENT
REMARK Flexibility Score: 60.00
ROOT
ATOM      1  C   UNL     1      50.746   3.980  14.804  1.00  0.00    -0.070 C 
ATOM      2  C   UNL     1      49.822   3.072  14.406  1.00  0.00    -0.027 C 
ATOM      3  C   UNL     1      51.918   4.227  13.886  1.00  0.00     0.039 C 
ENDROOT
BRANCH   2   4
ATOM      4  C   UNL     1      48.527   2.748  15.111  1.00  0.00     0.032 C 
BRANCH   4   5
ATOM      5  C   UNL     1      48.719   1.763  16.280  1.00  0.00     0.034 C 
BRANCH   5   6
ATOM      6  C   UNL     1      48.071   2.260  17.558  1.00  0.00    -0.077 C 
ATOM      7  C   UNL     1      46.570   2.390  17.595  1.00  0.00     0.039 C 
ATOM      8  C   UNL     1      48.766   2.618  18.661  1.00  0.00    -0.023 CG0
ATOM      9  G   UNL     1      50.269   2.592  18.805  1.00  0.00     0.000 G0
ENDBRANCH   5   6
ENDBRANCH   4   5
ENDBRANCH   2   4
BRANCH   1  10
ATOM     10  C   UNL     1      50.629   4.801  16.078  1.00  0.00     0.111 C 
BRANCH  10  11
ATOM     11  C   UNL     1      51.439   4.201  17.200  1.00  0.00     0.163 C 
ATOM     12  O   UNL     1      52.628   3.858  16.958  1.00  0.00    -0.294 OA
BRANCH  11  13
ATOM     13  C   UNL     1      50.855   3.959  18.556  1.00  0.00    -0.002 C 
ATOM     14  C   UNL     1      50.782   4.951  19.496  1.00  0.00    -0.069 C 
ATOM     15  C   UNL     1      51.222   6.365  19.190  1.00  0.00     0.039 C 
ATOM     16  C   UNL     1      50.225   4.688  20.878  1.00  0.00     0.039 C 
BRANCH  13  17
ATOM     17  C   UNL     1      50.273   2.582  18.822  1.00  0.00     0.066 CG0
ATOM     18  G   UNL     1      48.774   2.615  18.643  1.00  0.00     0.000 G0
ENDBRANCH  13  17
ENDBRANCH  11  13
ENDBRANCH  10  11
ENDBRANCH   1  10
TORSDOF 0
ENDMDL
MODEL 5
REMARK VINA RESULT:    -4.128      1.662      3.955
REMARK INTER + INTRA:          -5.197
REMARK INTER:                  -5.576
REMARK INTRA:                   0.379
REMARK UNBOUND:                 0.619
REMARK SMILES CC1=CCC(=C(C)C)C(=O)CC(C)=CCC1
REMARK SMILES IDX 12 1 14 2 13 3 15 4 16 5 2 6 1 7 3 8 11 10 9 11 10 12 5 13
REMARK SMILES IDX 6 14 7 15 8 16 4 17
REMARK H PARENT
REMARK Flexibility Score: 60.00
ROOT
ATOM      1  C   UNL     1      50.246   5.221  20.208  1.00  0.00    -0.070 C 
ATOM      2  C   UNL     1      49.121   4.620  20.665  1.00  0.00    -0.027 C 
ATOM      3  C   UNL     1      51.343   5.493  21.207  1.00  0.00     0.039 C 
ENDROOT
BRANCH   2   4
ATOM      4  C   UNL     1      47.950   4.163  19.829  1.00  0.00     0.032 C 
BRANCH   4   5
ATOM      5  C   UNL     1      48.114   2.720  19.316  1.00  0.00     0.034 C 
BRANCH   5   6
ATOM      6  C   UNL     1      47.687   2.575  17.868  1.00  0.00    -0.077 C 
ATOM      7  C   UNL     1      46.212   2.534  17.558  1.00  0.00     0.039 C 
ATOM      8  C   UNL     1      48.554   2.457  16.838  1.00  0.00    -0.023 CG0
ATOM      9  G   UNL     1      50.060   2.441  16.950  1.00  0.00     0.000 G0
ENDBRANCH   5   6
ENDBRANCH   4   5
ENDBRANCH   2   4
BRANCH   1  10
ATOM     10  C   UNL     1      50.483   5.571  18.749  1.00  0.00     0.111 C 
BRANCH  10  11
ATOM     11  C   UNL     1      51.195   4.459  18.020  1.00  0.00     0.163 C 
ATOM     12  O   UNL     1      52.320   4.090  18.453  1.00  0.00    -0.294 OA
BRANCH  11  13
ATOM     13  C   UNL     1      50.630   3.833  16.784  1.00  0.00    -0.002 C 
ATOM     14  C   UNL     1      50.682   4.462  15.571  1.00  0.00    -0.069 C 
ATOM     15  C   UNL     1      51.377   5.793  15.397  1.00  0.00     0.039 C 
ATOM     16  C   UNL     1      50.074   3.837  14.333  1.00  0.00     0.039 C 
BRANCH  13  17
ATOM     17  C   UNL     1      50.063   2.431  16.919  1.00  0.00     0.066 CG0
ATOM     18  G   UNL     1      48.555   2.479  16.856  1.00  0.00     0.000 G0
ENDBRANCH  13  17
ENDBRANCH  11  13
ENDBRANCH  10  11
ENDBRANCH   1  10
TORSDOF 0
ENDMDL
MODEL 6
REMARK VINA RESULT:    -4.067      1.567      4.120
REMARK INTER + INTRA:          -5.112
REMARK INTER:                  -6.087
REMARK INTRA:                   0.975
REMARK UNBOUND:                 0.619
REMARK SMILES CC1=CCC(=C(C)C)C(=O)CC(C)=CCC1
REMARK SMILES IDX 12 1 14 2 13 3 15 4 16 5 2 6 1 7 3 8 11 10 9 11 10 12 5 13
REMARK SMILES IDX 6 14 7 15 8 16 4 17
REMARK H PARENT
REMARK Flexibility Score: 60.00
ROOT
ATOM      1  C   UNL     1      47.443   3.047  18.719  1.00  0.00    -0.070 C 
ATOM      2  C   UNL     1      47.429   4.196  19.436  1.00  0.00    -0.027 C 
ATOM      3  C   UNL     1      46.455   2.923  17.586  1.00  0.00     0.039 C 
ENDROOT
BRANCH   2   4
ATOM      4  C   UNL     1      48.391   4.574  20.537  1.00  0.00     0.032 C 
BRANCH   4   5
ATOM      5  C   UNL     1      49.414   5.636  20.092  1.00  0.00     0.034 C 
BRANCH   5   6
ATOM      6  C   UNL     1      50.781   5.036  19.823  1.00  0.00    -0.077 C 
ATOM      7  C   UNL     1      51.784   5.011  20.948  1.00  0.00     0.039 C 
ATOM      8  C   UNL     1      51.161   4.544  18.623  1.00  0.00    -0.023 CG0
ATOM      9  G   UNL     1      50.315   4.514  17.372  1.00  0.00     0.000 G0
ENDBRANCH   5   6
ENDBRANCH   4   5
ENDBRANCH   2   4
BRANCH   1  10
ATOM     10  C   UNL     1      48.436   1.919  18.950  1.00  0.00     0.111 C 
BRANCH  10  11
ATOM     11  C   UNL     1      49.731   2.161  18.216  1.00  0.00     0.163 C 
ATOM     12  O   UNL     1      50.769   1.580  18.635  1.00  0.00    -0.294 OA
BRANCH  11  13
ATOM     13  C   UNL     1      49.821   3.101  17.056  1.00  0.00    -0.002 C 
ATOM     14  C   UNL     1      49.419   2.735  15.801  1.00  0.00    -0.069 C 
ATOM     15  C   UNL     1      48.795   1.385  15.531  1.00  0.00     0.039 C 
ATOM     16  C   UNL     1      49.548   3.680  14.625  1.00  0.00     0.039 C 
BRANCH  13  17
ATOM     17  C   UNL     1      50.307   4.510  17.345  1.00  0.00     0.066 CG0
ATOM     18  G   UNL     1      51.143   4.517  18.603  1.00  0.00     0.000 G0
ENDBRANCH  13  17
ENDBRANCH  11  13
ENDBRANCH  10  11
ENDBRANCH   1  10
TORSDOF 0
ENDMDL
MODEL 7
REMARK VINA RESULT:    -4.003      1.757      2.446
REMARK INTER + INTRA:          -5.022
REMARK INTER:                  -5.403
REMARK INTRA:                   0.381
REMARK UNBOUND:                 0.619
REMARK SMILES CC1=CCC(=C(C)C)C(=O)CC(C)=CCC1
REMARK SMILES IDX 12 1 14 2 13 3 15 4 16 5 2 6 1 7 3 8 11 10 9 11 10 12 5 13
REMARK SMILES IDX 6 14 7 15 8 16 4 17
REMARK H PARENT
REMARK Flexibility Score: 60.00
ROOT
ATOM      1  C   UNL     1      48.664   2.200  17.330  1.00  0.00    -0.070 C 
ATOM      2  C   UNL     1      48.359   2.250  16.011  1.00  0.00    -0.027 C 
ATOM      3  C   UNL     1      47.536   1.927  18.294  1.00  0.00     0.039 C 
ENDROOT
BRANCH   2   4
ATOM      4  C   UNL     1      49.339   2.404  14.873  1.00  0.00     0.032 C 
BRANCH   4   5
ATOM      5  C   UNL     1      49.701   3.876  14.597  1.00  0.00     0.034 C 
BRANCH   5   6
ATOM      6  C   UNL     1      51.200   4.094  14.535  1.00  0.00    -0.077 C 
ATOM      7  C   UNL     1      51.964   3.491  13.383  1.00  0.00     0.039 C 
ATOM      8  C   UNL     1      51.898   4.779  15.469  1.00  0.00    -0.023 CG0
ATOM      9  G   UNL     1      51.321   5.422  16.707  1.00  0.00     0.000 G0
ENDBRANCH   5   6
ENDBRANCH   4   5
ENDBRANCH   2   4
BRANCH   1  10
ATOM     10  C   UNL     1      50.076   2.335  17.877  1.00  0.00     0.111 C 
BRANCH  10  11
ATOM     11  C   UNL     1      50.346   3.732  18.377  1.00  0.00     0.163 C 
ATOM     12  O   UNL     1      49.517   4.248  19.174  1.00  0.00    -0.294 OA
BRANCH  11  13
ATOM     13  C   UNL     1      51.528   4.524  17.915  1.00  0.00    -0.002 C 
ATOM     14  C   UNL     1      52.755   4.396  18.506  1.00  0.00    -0.069 C 
ATOM     15  C   UNL     1      53.002   3.394  19.611  1.00  0.00     0.039 C 
ATOM     16  C   UNL     1      53.937   5.229  18.056  1.00  0.00     0.039 C 
BRANCH  13  17
ATOM     17  C   UNL     1      51.328   5.423  16.708  1.00  0.00     0.066 CG0
ATOM     18  G   UNL     1      51.880   4.753  15.472  1.00  0.00     0.000 G0
ENDBRANCH  13  17
ENDBRANCH  11  13
ENDBRANCH  10  11
ENDBRANCH   1  10
TORSDOF 0
ENDMDL
MODEL 8
REMARK VINA RESULT:    -3.770      1.758      3.331
REMARK INTER + INTRA:          -4.693
REMARK INTER:                  -5.432
REMARK INTRA:                   0.739
REMARK UNBOUND:                 0.619
REMARK SMILES CC1=CCC(=C(C)C)C(=O)CC(C)=CCC1
REMARK SMILES IDX 12 1 14 2 13 3 15 4 16 5 2 6 1 7 3 8 11 10 9 11 10 12 5 13
REMARK SMILES IDX 6 14 7 15 8 16 4 17
REMARK H PARENT
REMARK Flexibility Score: 60.00
ROOT
ATOM      1  C   UNL     1      50.180   5.092  20.346  1.00  0.00    -0.070 C 
ATOM      2  C   UNL     1      48.996   4.514  20.662  1.00  0.00    -0.027 C 
ATOM      3  C   UNL     1      51.279   5.032  21.378  1.00  0.00     0.039 C 
ENDROOT
BRANCH   2   4
ATOM      4  C   UNL     1      47.803   4.365  19.748  1.00  0.00     0.032 C 
BRANCH   4   5
ATOM      5  C   UNL     1      47.482   2.893  19.427  1.00  0.00     0.034 C 
BRANCH   5   6
ATOM      6  C   UNL     1      47.949   2.496  18.040  1.00  0.00    -0.077 C 
ATOM      7  C   UNL     1      46.918   2.366  16.948  1.00  0.00     0.039 C 
ATOM      8  C   UNL     1      49.237   2.226  17.730  1.00  0.00    -0.023 CG0
ATOM      9  G   UNL     1      50.403   2.266  18.689  1.00  0.00     0.000 G0
ENDBRANCH   5   6
ENDBRANCH   4   5
ENDBRANCH   2   4
BRANCH   1  10
ATOM     10  C   UNL     1      50.476   5.730  18.999  1.00  0.00     0.111 C 
BRANCH  10  11
ATOM     11  C   UNL     1      50.804   4.692  17.954  1.00  0.00     0.163 C 
ATOM     12  O   UNL     1      50.524   4.952  16.752  1.00  0.00    -0.294 OA
BRANCH  11  13
ATOM     13  C   UNL     1      51.392   3.365  18.313  1.00  0.00    -0.002 C 
ATOM     14  C   UNL     1      52.745   3.167  18.362  1.00  0.00    -0.069 C 
ATOM     15  C   UNL     1      53.720   4.299  18.128  1.00  0.00     0.039 C 
ATOM     16  C   UNL     1      53.332   1.811  18.690  1.00  0.00     0.039 C 
BRANCH  13  17
ATOM     17  C   UNL     1      50.423   2.260  18.696  1.00  0.00     0.066 CG0
ATOM     18  G   UNL     1      49.257   2.246  17.737  1.00  0.00     0.000 G0
ENDBRANCH  13  17
ENDBRANCH  11  13
ENDBRANCH  10  11
ENDBRANCH   1  10
TORSDOF 0
ENDMDL
MODEL 9
REMARK VINA RESULT:    -3.682      1.480      4.197
REMARK INTER + INTRA:          -4.569
REMARK INTER:                  -5.316
REMARK INTRA:                   0.747
REMARK UNBOUND:                 0.619
REMARK SMILES CC1=CCC(=C(C)C)C(=O)CC(C)=CCC1
REMARK SMILES IDX 12 1 14 2 13 3 15 4 16 5 2 6 1 7 3 8 11 10 9 11 10 12 5 13
REMARK SMILES IDX 6 14 7 15 8 16 4 17
REMARK H PARENT
REMARK Flexibility Score: 60.00
ROOT
ATOM      1  C   UNL     1      50.669   5.522  20.983  1.00  0.00    -0.070 C 
ATOM      2  C   UNL     1      51.940   5.123  20.742  1.00  0.00    -0.027 C 
ATOM      3  C   UNL     1      50.436   6.994  21.221  1.00  0.00     0.039 C 
ENDROOT
BRANCH   2   4
ATOM      4  C   UNL     1      52.385   3.727  20.377  1.00  0.00     0.032 C 
BRANCH   4   5
ATOM      5  C   UNL     1      53.063   3.662  18.996  1.00  0.00     0.034 C 
BRANCH   5   6
ATOM      6  C   UNL     1      52.207   4.284  17.909  1.00  0.00    -0.077 C 
ATOM      7  C   UNL     1      52.766   5.456  17.142  1.00  0.00     0.039 C 
ATOM      8  C   UNL     1      50.959   3.864  17.603  1.00  0.00    -0.023 CG0
ATOM      9  G   UNL     1      50.218   2.736  18.279  1.00  0.00     0.000 G0
ENDBRANCH   5   6
ENDBRANCH   4   5
ENDBRANCH   2   4
BRANCH   1  10
ATOM     10  C   UNL     1      49.471   4.587  20.961  1.00  0.00     0.111 C 
BRANCH  10  11
ATOM     11  C   UNL     1      48.876   4.479  19.579  1.00  0.00     0.163 C 
ATOM     12  O   UNL     1      48.321   5.500  19.090  1.00  0.00    -0.294 OA
BRANCH  11  13
ATOM     13  C   UNL     1      48.884   3.195  18.811  1.00  0.00    -0.002 C 
ATOM     14  C   UNL     1      47.731   2.507  18.550  1.00  0.00    -0.069 C 
ATOM     15  C   UNL     1      46.378   3.043  18.959  1.00  0.00     0.039 C 
ATOM     16  C   UNL     1      47.751   1.189  17.805  1.00  0.00     0.039 C 
BRANCH  13  17
ATOM     17  C   UNL     1      50.220   2.724  18.267  1.00  0.00     0.066 CG0
ATOM     18  G   UNL     1      50.943   3.878  17.613  1.00  0.00     0.000 G0
ENDBRANCH  13  17
ENDBRANCH  11  13
ENDBRANCH  10  11
ENDBRANCH   1  10
TORSDOF 0
ENDMDL
