MODEL 1
REMARK VINA RESULT:    -3.800      0.000      0.000
REMARK INTER + INTRA:          -5.503
REMARK INTER:                  -5.132
REMARK INTRA:                  -0.370
REMARK UNBOUND:                -0.370
REMARK SMILES CCCCCCCC(=O)[O-]
REMARK SMILES IDX 5 1 6 2 7 3 8 4 9 5 10 6 4 7 3 8 2 9 1 10
REMARK H PARENT
REMARK Flexibility Score: inf
ROOT
ATOM      1  C   UNL     1       5.435  10.494  32.127  1.00  0.00     0.000 C 
ENDROOT
BRANCH   1   2
ATOM      2  C   UNL     1       6.544  11.124  31.270  1.00  0.00     0.006 C 
BRANCH   2   3
ATOM      3  C   UNL     1       7.946  10.751  31.767  1.00  0.00     0.053 C 
BRANCH   3   4
ATOM      4  C   UNL     1       8.724  10.002  30.728  1.00  0.00     0.041 C 
ATOM      5  O   UNL     1       9.405   8.994  31.053  1.00  0.00    -0.550 OA
ATOM      6  O   UNL     1       8.721  10.436  29.409  1.00  0.00    -0.550 OA
ENDBRANCH   3   4
ENDBRANCH   2   3
ENDBRANCH   1   2
BRANCH   1   7
ATOM      7  C   UNL     1       4.243  10.068  31.255  1.00  0.00     0.000 C 
BRANCH   7   8
ATOM      8  C   UNL     1       4.604   8.951  30.263  1.00  0.00    -0.000 C 
BRANCH   8   9
ATOM      9  C   UNL     1       4.097   9.237  28.842  1.00  0.00    -0.003 C 
ATOM     10  C   UNL     1       5.249   9.613  27.914  1.00  0.00     0.004 C 
ENDBRANCH   8   9
ENDBRANCH   7   8
ENDBRANCH   1   7
TORSDOF 6
ENDMDL
MODEL 2
REMARK VINA RESULT:    -3.769      1.626      3.769
REMARK INTER + INTRA:          -5.461
REMARK INTER:                  -5.089
REMARK INTRA:                  -0.372
REMARK UNBOUND:                -0.370
REMARK SMILES CCCCCCCC(=O)[O-]
REMARK SMILES IDX 5 1 6 2 7 3 8 4 9 5 10 6 4 7 3 8 2 9 1 10
REMARK H PARENT
REMARK Flexibility Score: inf
ROOT
ATOM      1  C   UNL     1       4.758   9.171  30.120  1.00  0.00     0.000 C 
ENDROOT
BRANCH   1   2
ATOM      2  C   UNL     1       4.120   9.229  28.723  1.00  0.00     0.006 C 
BRANCH   2   3
ATOM      3  C   UNL     1       5.048   9.875  27.686  1.00  0.00     0.053 C 
BRANCH   3   4
ATOM      4  C   UNL     1       6.394   9.216  27.657  1.00  0.00     0.041 C 
ATOM      5  O   UNL     1       7.426   9.873  27.957  1.00  0.00    -0.550 OA
ATOM      6  O   UNL     1       6.512   7.888  27.268  1.00  0.00    -0.550 OA
ENDBRANCH   3   4
ENDBRANCH   2   3
ENDBRANCH   1   2
BRANCH   1   7
ATOM      7  C   UNL     1       3.907   9.939  31.144  1.00  0.00     0.000 C 
BRANCH   7   8
ATOM      8  C   UNL     1       4.758  10.762  32.123  1.00  0.00    -0.000 C 
BRANCH   8   9
ATOM      9  C   UNL     1       6.136  11.125  31.548  1.00  0.00    -0.003 C 
ATOM     10  C   UNL     1       7.253  10.725  32.507  1.00  0.00     0.004 C 
ENDBRANCH   8   9
ENDBRANCH   7   8
ENDBRANCH   1   7
TORSDOF 6
ENDMDL
MODEL 3
REMARK VINA RESULT:    -3.756      1.866      3.192
REMARK INTER + INTRA:          -5.443
REMARK INTER:                  -4.983
REMARK INTRA:                  -0.460
REMARK UNBOUND:                -0.370
REMARK SMILES CCCCCCCC(=O)[O-]
REMARK SMILES IDX 5 1 6 2 7 3 8 4 9 5 10 6 4 7 3 8 2 9 1 10
REMARK H PARENT
REMARK Flexibility Score: inf
ROOT
ATOM      1  C   UNL     1       8.152  10.170  31.740  1.00  0.00     0.000 C 
ENDROOT
BRANCH   1   2
ATOM      2  C   UNL     1       8.830   9.623  30.475  1.00  0.00     0.006 C 
BRANCH   2   3
ATOM      3  C   UNL     1       7.885   9.611  29.267  1.00  0.00     0.053 C 
BRANCH   3   4
ATOM      4  C   UNL     1       7.471   8.219  28.898  1.00  0.00     0.041 C 
ATOM      5  O   UNL     1       6.327   8.006  28.418  1.00  0.00    -0.550 OA
ATOM      6  O   UNL     1       8.337   7.155  29.115  1.00  0.00    -0.550 OA
ENDBRANCH   3   4
ENDBRANCH   2   3
ENDBRANCH   1   2
BRANCH   1   7
ATOM      7  C   UNL     1       6.946  11.052  31.379  1.00  0.00     0.000 C 
BRANCH   7   8
ATOM      8  C   UNL     1       5.903  11.118  32.506  1.00  0.00    -0.000 C 
BRANCH   8   9
ATOM      9  C   UNL     1       4.486  10.775  32.020  1.00  0.00    -0.003 C 
ATOM     10  C   UNL     1       4.521   9.689  30.949  1.00  0.00     0.004 C 
ENDBRANCH   8   9
ENDBRANCH   7   8
ENDBRANCH   1   7
TORSDOF 6
ENDMDL
MODEL 4
REMARK VINA RESULT:    -3.746      1.579      2.751
REMARK INTER + INTRA:          -5.430
REMARK INTER:                  -5.022
REMARK INTRA:                  -0.408
REMARK UNBOUND:                -0.370
REMARK SMILES CCCCCCCC(=O)[O-]
REMARK SMILES IDX 5 1 6 2 7 3 8 4 9 5 10 6 4 7 3 8 2 9 1 10
REMARK H PARENT
REMARK Flexibility Score: inf
ROOT
ATOM      1  C   UNL     1       7.991  10.989  31.848  1.00  0.00     0.000 C 
ENDROOT
BRANCH   1   2
ATOM      2  C   UNL     1       8.745   9.855  31.139  1.00  0.00     0.006 C 
BRANCH   2   3
ATOM      3  C   UNL     1       7.980   9.318  29.922  1.00  0.00     0.053 C 
BRANCH   3   4
ATOM      4  C   UNL     1       8.809   9.371  28.676  1.00  0.00     0.041 C 
ATOM      5  O   UNL     1       9.624  10.314  28.498  1.00  0.00    -0.550 OA
ATOM      6  O   UNL     1       8.658   8.397  27.697  1.00  0.00    -0.550 OA
ENDBRANCH   3   4
ENDBRANCH   2   3
ENDBRANCH   1   2
BRANCH   1   7
ATOM      7  C   UNL     1       6.561  11.125  31.300  1.00  0.00     0.000 C 
BRANCH   7   8
ATOM      8  C   UNL     1       5.496  11.090  32.407  1.00  0.00    -0.000 C 
BRANCH   8   9
ATOM      9  C   UNL     1       4.123  10.634  31.892  1.00  0.00    -0.003 C 
ATOM     10  C   UNL     1       4.270   9.607  30.773  1.00  0.00     0.004 C 
ENDBRANCH   8   9
ENDBRANCH   7   8
ENDBRANCH   1   7
TORSDOF 6
ENDMDL
MODEL 5
REMARK VINA RESULT:    -3.682      2.568      4.240
REMARK INTER + INTRA:          -5.343
REMARK INTER:                  -4.983
REMARK INTRA:                  -0.360
REMARK UNBOUND:                -0.370
REMARK SMILES CCCCCCCC(=O)[O-]
REMARK SMILES IDX 5 1 6 2 7 3 8 4 9 5 10 6 4 7 3 8 2 9 1 10
REMARK H PARENT
REMARK Flexibility Score: inf
ROOT
ATOM      1  C   UNL     1       9.115   9.240  31.355  1.00  0.00     0.000 C 
ENDROOT
BRANCH   1   2
ATOM      2  C   UNL     1       8.412  10.601  31.234  1.00  0.00     0.006 C 
BRANCH   2   3
ATOM      3  C   UNL     1       7.227  10.731  32.200  1.00  0.00     0.053 C 
BRANCH   3   4
ATOM      4  C   UNL     1       5.919  10.481  31.513  1.00  0.00     0.041 C 
ATOM      5  O   UNL     1       5.899  10.091  30.316  1.00  0.00    -0.550 OA
ATOM      6  O   UNL     1       4.725  10.709  32.184  1.00  0.00    -0.550 OA
ENDBRANCH   3   4
ENDBRANCH   2   3
ENDBRANCH   1   2
BRANCH   1   7
ATOM      7  C   UNL     1       9.215   8.550  29.985  1.00  0.00     0.000 C 
BRANCH   7   8
ATOM      8  C   UNL     1      10.219   9.239  29.047  1.00  0.00    -0.000 C 
BRANCH   8   9
ATOM      9  C   UNL     1       9.599   9.616  27.693  1.00  0.00    -0.003 C 
ATOM     10  C   UNL     1       9.403  11.125  27.580  1.00  0.00     0.004 C 
ENDBRANCH   8   9
ENDBRANCH   7   8
ENDBRANCH   1   7
TORSDOF 6
ENDMDL
MODEL 6
REMARK VINA RESULT:    -3.680      2.686      4.486
REMARK INTER + INTRA:          -5.342
REMARK INTER:                  -4.993
REMARK INTRA:                  -0.348
REMARK UNBOUND:                -0.370
REMARK SMILES CCCCCCCC(=O)[O-]
REMARK SMILES IDX 5 1 6 2 7 3 8 4 9 5 10 6 4 7 3 8 2 9 1 10
REMARK H PARENT
REMARK Flexibility Score: inf
ROOT
ATOM      1  C   UNL     1       9.118   9.245  31.628  1.00  0.00     0.000 C 
ENDROOT
BRANCH   1   2
ATOM      2  C   UNL     1       8.268  10.485  31.313  1.00  0.00     0.006 C 
BRANCH   2   3
ATOM      3  C   UNL     1       7.028  10.583  32.212  1.00  0.00     0.053 C 
BRANCH   3   4
ATOM      4  C   UNL     1       5.773  10.245  31.467  1.00  0.00     0.041 C 
ATOM      5  O   UNL     1       5.837   9.685  30.342  1.00  0.00    -0.550 OA
ATOM      6  O   UNL     1       4.535  10.578  32.002  1.00  0.00    -0.550 OA
ENDBRANCH   3   4
ENDBRANCH   2   3
ENDBRANCH   1   2
BRANCH   1   7
ATOM      7  C   UNL     1       9.497   8.497  30.340  1.00  0.00     0.000 C 
BRANCH   7   8
ATOM      8  C   UNL     1       9.394   9.384  29.089  1.00  0.00    -0.000 C 
BRANCH   8   9
ATOM      9  C   UNL     1      10.319   8.915  27.956  1.00  0.00    -0.003 C 
ATOM     10  C   UNL     1      11.195   7.751  28.408  1.00  0.00     0.004 C 
ENDBRANCH   8   9
ENDBRANCH   7   8
ENDBRANCH   1   7
TORSDOF 6
ENDMDL
MODEL 7
REMARK VINA RESULT:    -3.590      1.496      2.820
REMARK INTER + INTRA:          -5.220
REMARK INTER:                  -4.860
REMARK INTRA:                  -0.359
REMARK UNBOUND:                -0.370
REMARK SMILES CCCCCCCC(=O)[O-]
REMARK SMILES IDX 5 1 6 2 7 3 8 4 9 5 10 6 4 7 3 8 2 9 1 10
REMARK H PARENT
REMARK Flexibility Score: inf
ROOT
ATOM      1  C   UNL     1       5.942   8.105  28.658  1.00  0.00     0.000 C 
ENDROOT
BRANCH   1   2
ATOM      2  C   UNL     1       7.478   8.120  28.688  1.00  0.00     0.006 C 
BRANCH   2   3
ATOM      3  C   UNL     1       8.031   9.198  29.630  1.00  0.00     0.053 C 
BRANCH   3   4
ATOM      4  C   UNL     1       9.352   8.801  30.215  1.00  0.00     0.041 C 
ATOM      5  O   UNL     1       9.515   8.794  31.463  1.00  0.00    -0.550 OA
ATOM      6  O   UNL     1      10.412   8.470  29.380  1.00  0.00    -0.550 OA
ENDBRANCH   3   4
ENDBRANCH   2   3
ENDBRANCH   1   2
BRANCH   1   7
ATOM      7  C   UNL     1       5.368   9.391  29.274  1.00  0.00     0.000 C 
BRANCH   7   8
ATOM      8  C   UNL     1       4.073   9.143  30.063  1.00  0.00    -0.000 C 
BRANCH   8   9
ATOM      9  C   UNL     1       3.950  10.048  31.298  1.00  0.00    -0.003 C 
ATOM     10  C   UNL     1       5.324  10.388  31.867  1.00  0.00     0.004 C 
ENDBRANCH   8   9
ENDBRANCH   7   8
ENDBRANCH   1   7
TORSDOF 6
ENDMDL
